MODEL 1
REMARK VINA RESULT: -9.170420742      0.000      0.000
REMARK  12 active torsions:
REMARK  status: ('A' for Active; 'I' for Inactive)
REMARK    1  A    between atoms: C2_2  and  N1_3 
REMARK       I    between atoms: C3_5  and  N2_6 
REMARK       I    between atoms: C3_5  and  N8_31 
REMARK    2  A    between atoms: N2_6  and  C4_8 
REMARK    3  A    between atoms: C4_8  and  C5_9 
REMARK    4  A    between atoms: C5_9  and  C6_10 
REMARK    5  A    between atoms: C6_10  and  N3_11 
REMARK    6  A    between atoms: N3_11  and  C7_13 
REMARK    7  A    between atoms: C8_18  and  C9_19 
REMARK    8  A    between atoms: C9_19  and  C10_20 
REMARK    9  A    between atoms: C15_25  and  C16_26 
REMARK   10  A    between atoms: N8_31  and  S1_33 
REMARK   11  A    between atoms: S1_33  and  C17_36 
REMARK   12  A    between atoms: C22_42  and  O3_43 
ROOT
HETATM    1  C4  UNL     1      22.040  43.919  44.744  1.00  0.00     0.139 C 
ENDROOT
BRANCH   1   2
HETATM    2  N2  UNL     1      23.175  44.467  45.444  1.00  0.00    -0.225 N 
HETATM    3  C3  UNL     1      23.729  45.689  44.972  1.00  0.00     0.687 C 
HETATM    4  N1  UNL     1      24.969  45.823  44.852  1.00  0.00    -0.205 N 
HETATM    5  N8  UNL     1      22.824  46.729  44.651  1.00  0.00    -0.113 N 
ATOM      6  H1  UNL     1      25.490  44.989  45.123  1.00  0.00     0.183 HD
ATOM      7  H8  UNL     1      22.799  47.108  43.704  1.00  0.00     0.197 HD
ATOM      8  H2  UNL     1      23.571  43.990  46.255  1.00  0.00     0.177 HD
BRANCH   4   9
HETATM    9  C2  UNL     1      25.799  46.876  44.422  1.00  0.00     0.074 C 
HETATM   10  C1  UNL     1      27.276  46.497  44.388  1.00  0.00     0.055 C 
ENDBRANCH   4   9
BRANCH   5  11
HETATM   11  S1  UNL     1      21.765  47.358  45.858  1.00  0.00     0.279 S 
HETATM   12  O1  UNL     1      20.457  47.816  45.236  1.00  0.00    -0.200 OA
HETATM   13  O2  UNL     1      21.406  46.249  46.816  1.00  0.00    -0.200 OA
BRANCH  11  14
HETATM   14  C17 UNL     1      22.562  48.680  46.659  1.00  0.00     0.114 A 
HETATM   15  C18 UNL     1      22.902  48.652  48.006  1.00  0.00     0.047 A 
HETATM   16  C19 UNL     1      23.548  49.713  48.598  1.00  0.00     0.012 A 
HETATM   17 BR1  UNL     1      23.993  49.633  50.440  1.00  0.00    -0.051 Br
HETATM   18  C20 UNL     1      23.871  50.824  47.867  1.00  0.00     0.022 A 
HETATM   19  C21 UNL     1      23.550  50.882  46.543  1.00  0.00     0.040 A 
HETATM   20  C22 UNL     1      22.901  49.810  45.954  1.00  0.00     0.091 A 
BRANCH  20  21
HETATM   21  O3  UNL     1      22.588  49.887  44.625  1.00  0.00    -0.354 OA
HETATM   22  C23 UNL     1      21.593  50.747  44.101  1.00  0.00     0.210 C 
ENDBRANCH  20  21
ENDBRANCH  11  14
ENDBRANCH   5  11
ENDBRANCH   1   2
BRANCH   1  23
HETATM   23  C5  UNL     1      21.344  42.859  45.587  1.00  0.00     0.040 C 
BRANCH  23  24
HETATM   24  C6  UNL     1      20.143  43.441  46.253  1.00  0.00     0.123 C 
BRANCH  24  25
HETATM   25  N3  UNL     1      19.559  44.531  45.517  1.00  0.00    -0.374 N 
ATOM     26  H3  UNL     1      19.893  45.483  45.660  1.00  0.00     0.161 HD
BRANCH  25  27
HETATM   27  C7  UNL     1      18.613  44.299  44.679  1.00  0.00     0.131 A 
HETATM   28  N4  UNL     1      17.552  43.491  44.783  1.00  0.00    -0.285 N 
HETATM   29  N5  UNL     1      16.812  43.544  43.705  1.00  0.00    -0.302 N 
ATOM     30  H4  UNL     1      17.346  42.910  45.596  1.00  0.00     0.188 HD
HETATM   31  C8  UNL     1      17.375  44.423  42.801  1.00  0.00     0.043 A 
ATOM     32  H5  UNL     1      15.952  43.017  43.556  1.00  0.00     0.186 HD
HETATM   33  C15 UNL     1      18.502  44.903  43.406  1.00  0.00     0.073 A 
BRANCH  31  34
HETATM   34  C9  UNL     1      16.842  44.617  41.424  1.00  0.00     0.064 C 
BRANCH  34  35
HETATM   35  C10 UNL     1      15.985  45.812  41.275  1.00  0.00    -0.009 C 
HETATM   36  C11 UNL     1      16.126  46.455  39.894  1.00  0.00     0.005 C 
HETATM   37  C12 UNL     1      14.993  47.464  39.933  1.00  0.00     0.000 C 
HETATM   38  C13 UNL     1      14.033  47.044  41.007  1.00  0.00     0.000 C 
HETATM   39  C14 UNL     1      14.514  45.618  41.352  1.00  0.00     0.005 C 
ENDBRANCH  34  35
ENDBRANCH  31  34
BRANCH  33  40
HETATM   40  C16 UNL     1      19.444  45.890  42.942  1.00  0.00     0.126 C 
HETATM   41  N6  UNL     1      19.110  47.138  42.909  1.00  0.00    -0.387 N 
ATOM     42  H62 UNL     1      18.181  47.362  43.269  1.00  0.00     0.157 HD
ATOM     43  H61 UNL     1      19.775  47.838  42.581  1.00  0.00     0.157 HD
HETATM   44  N7  UNL     1      20.722  45.583  42.447  1.00  0.00    -0.082 NA
ENDBRANCH  33  40
ENDBRANCH  25  27
ENDBRANCH  24  25
ENDBRANCH  23  24
ENDBRANCH   1  23
TORSDOF 12
ENDMDL
MODEL 2
REMARK VINA RESULT: -8.922373644      1.419      1.827
REMARK  12 active torsions:
REMARK  status: ('A' for Active; 'I' for Inactive)
REMARK    1  A    between atoms: C2_2  and  N1_3 
REMARK       I    between atoms: C3_5  and  N2_6 
REMARK       I    between atoms: C3_5  and  N8_31 
REMARK    2  A    between atoms: N2_6  and  C4_8 
REMARK    3  A    between atoms: C4_8  and  C5_9 
REMARK    4  A    between atoms: C5_9  and  C6_10 
REMARK    5  A    between atoms: C6_10  and  N3_11 
REMARK    6  A    between atoms: N3_11  and  C7_13 
REMARK    7  A    between atoms: C8_18  and  C9_19 
REMARK    8  A    between atoms: C9_19  and  C10_20 
REMARK    9  A    between atoms: C15_25  and  C16_26 
REMARK   10  A    between atoms: N8_31  and  S1_33 
REMARK   11  A    between atoms: S1_33  and  C17_36 
REMARK   12  A    between atoms: C22_42  and  O3_43 
ROOT
HETATM    1  C4  UNL     1      22.574  44.440  44.885  1.00  0.00     0.139 C 
ENDROOT
BRANCH   1   2
HETATM    2  N2  UNL     1      23.882  44.654  45.454  1.00  0.00    -0.225 N 
HETATM    3  C3  UNL     1      24.656  45.743  44.968  1.00  0.00     0.687 C 
HETATM    4  N1  UNL     1      25.869  45.592  44.692  1.00  0.00    -0.205 N 
HETATM    5  N8  UNL     1      23.999  46.988  44.814  1.00  0.00    -0.113 N 
ATOM      6  H1  UNL     1      26.200  44.641  44.856  1.00  0.00     0.183 HD
ATOM      7  H8  UNL     1      23.956  47.431  43.896  1.00  0.00     0.197 HD
ATOM      8  H2  UNL     1      24.242  44.039  46.185  1.00  0.00     0.177 HD
BRANCH   4   9
HETATM    9  C2  UNL     1      26.873  46.449  44.205  1.00  0.00     0.074 C 
HETATM   10  C1  UNL     1      28.275  46.039  44.643  1.00  0.00     0.055 C 
ENDBRANCH   4   9
BRANCH   5  11
HETATM   11  S1  UNL     1      23.271  47.756  46.176  1.00  0.00     0.279 S 
HETATM   12  O1  UNL     1      22.049  46.981  46.638  1.00  0.00    -0.200 OA
HETATM   13  O2  UNL     1      24.244  47.729  47.328  1.00  0.00    -0.200 OA
BRANCH  11  14
HETATM   14  C17 UNL     1      22.836  49.379  45.727  1.00  0.00     0.114 A 
HETATM   15  C18 UNL     1      23.594  50.489  46.081  1.00  0.00     0.047 A 
HETATM   16  C19 UNL     1      23.224  51.756  45.691  1.00  0.00     0.012 A 
HETATM   17 BR1  UNL     1      24.288  53.242  46.196  1.00  0.00    -0.051 Br
HETATM   18  C20 UNL     1      22.094  51.949  44.942  1.00  0.00     0.022 A 
HETATM   19  C21 UNL     1      21.329  50.880  44.580  1.00  0.00     0.040 A 
HETATM   20  C22 UNL     1      21.709  49.609  44.975  1.00  0.00     0.091 A 
BRANCH  20  21
HETATM   21  O3  UNL     1      20.928  48.550  44.601  1.00  0.00    -0.354 OA
HETATM   22  C23 UNL     1      19.592  48.366  45.035  1.00  0.00     0.210 C 
ENDBRANCH  20  21
ENDBRANCH  11  14
ENDBRANCH   5  11
ENDBRANCH   1   2
BRANCH   1  23
HETATM   23  C5  UNL     1      21.901  43.230  45.516  1.00  0.00     0.040 C 
BRANCH  23  24
HETATM   24  C6  UNL     1      20.672  43.650  46.249  1.00  0.00     0.123 C 
BRANCH  24  25
HETATM   25  N3  UNL     1      19.914  44.657  45.555  1.00  0.00    -0.374 N 
ATOM     26  H3  UNL     1      20.160  45.642  45.653  1.00  0.00     0.161 HD
BRANCH  25  27
HETATM   27  C7  UNL     1      18.926  44.311  44.811  1.00  0.00     0.131 A 
HETATM   28  N4  UNL     1      17.929  43.451  45.051  1.00  0.00    -0.285 N 
HETATM   29  N5  UNL     1      17.110  43.383  44.034  1.00  0.00    -0.302 N 
ATOM     30  H4  UNL     1      17.822  42.918  45.914  1.00  0.00     0.188 HD
HETATM   31  C8  UNL     1      17.546  44.227  43.031  1.00  0.00     0.043 A 
ATOM     32  H5  UNL     1      16.276  42.797  43.987  1.00  0.00     0.186 HD
HETATM   33  C15 UNL     1      18.682  44.814  43.513  1.00  0.00     0.073 A 
BRANCH  31  34
HETATM   34  C9  UNL     1      16.901  44.290  41.691  1.00  0.00     0.064 C 
BRANCH  34  35
HETATM   35  C10 UNL     1      16.035  45.472  41.496  1.00  0.00    -0.009 C 
HETATM   36  C11 UNL     1      16.372  46.232  40.213  1.00  0.00     0.005 C 
HETATM   37  C12 UNL     1      15.211  47.205  40.144  1.00  0.00     0.000 C 
HETATM   38  C13 UNL     1      14.106  46.674  41.008  1.00  0.00     0.000 C 
HETATM   39  C14 UNL     1      14.579  45.236  41.316  1.00  0.00     0.005 C 
ENDBRANCH  34  35
ENDBRANCH  31  34
BRANCH  33  40
HETATM   40  C16 UNL     1      19.521  45.820  42.912  1.00  0.00     0.126 C 
HETATM   41  N6  UNL     1      19.032  46.979  42.616  1.00  0.00    -0.387 N 
ATOM     42  H62 UNL     1      18.057  47.133  42.876  1.00  0.00     0.157 HD
ATOM     43  H61 UNL     1      19.625  47.692  42.191  1.00  0.00     0.157 HD
HETATM   44  N7  UNL     1      20.863  45.610  42.554  1.00  0.00    -0.082 NA
ENDBRANCH  33  40
ENDBRANCH  25  27
ENDBRANCH  24  25
ENDBRANCH  23  24
ENDBRANCH   1  23
TORSDOF 12
ENDMDL
MODEL 3
REMARK VINA RESULT: -8.513975246      2.070      3.476
REMARK  12 active torsions:
REMARK  status: ('A' for Active; 'I' for Inactive)
REMARK    1  A    between atoms: C2_2  and  N1_3 
REMARK       I    between atoms: C3_5  and  N2_6 
REMARK       I    between atoms: C3_5  and  N8_31 
REMARK    2  A    between atoms: N2_6  and  C4_8 
REMARK    3  A    between atoms: C4_8  and  C5_9 
REMARK    4  A    between atoms: C5_9  and  C6_10 
REMARK    5  A    between atoms: C6_10  and  N3_11 
REMARK    6  A    between atoms: N3_11  and  C7_13 
REMARK    7  A    between atoms: C8_18  and  C9_19 
REMARK    8  A    between atoms: C9_19  and  C10_20 
REMARK    9  A    between atoms: C15_25  and  C16_26 
REMARK   10  A    between atoms: N8_31  and  S1_33 
REMARK   11  A    between atoms: S1_33  and  C17_36 
REMARK   12  A    between atoms: C22_42  and  O3_43 
ROOT
HETATM    1  C4  UNL     1      19.424  43.458  46.101  1.00  0.00     0.139 C 
ENDROOT
BRANCH   1   2
HETATM    2  N2  UNL     1      20.817  43.643  46.425  1.00  0.00    -0.225 N 
HETATM    3  C3  UNL     1      21.689  44.104  45.401  1.00  0.00     0.687 C 
HETATM    4  N1  UNL     1      22.805  43.564  45.222  1.00  0.00    -0.205 N 
HETATM    5  N8  UNL     1      21.240  45.187  44.605  1.00  0.00    -0.113 N 
ATOM      6  H1  UNL     1      22.988  42.799  45.872  1.00  0.00     0.183 HD
ATOM      7  H8  UNL     1      21.143  45.072  43.597  1.00  0.00     0.197 HD
ATOM      8  H2  UNL     1      21.167  43.448  47.363  1.00  0.00     0.177 HD
BRANCH   4   9
HETATM    9  C2  UNL     1      23.861  43.783  44.317  1.00  0.00     0.074 C 
HETATM   10  C1  UNL     1      24.714  44.995  44.676  1.00  0.00     0.055 C 
ENDBRANCH   4   9
BRANCH   5  11
HETATM   11  S1  UNL     1      20.859  46.700  45.340  1.00  0.00     0.279 S 
HETATM   12  O1  UNL     1      19.397  47.049  45.118  1.00  0.00    -0.200 OA
HETATM   13  O2  UNL     1      21.037  46.575  46.833  1.00  0.00    -0.200 OA
BRANCH  11  14
HETATM   14  C17 UNL     1      21.894  47.921  44.660  1.00  0.00     0.114 A 
HETATM   15  C18 UNL     1      22.170  49.121  45.304  1.00  0.00     0.047 A 
HETATM   16  C19 UNL     1      23.008  50.054  44.739  1.00  0.00     0.012 A 
HETATM   17 BR1  UNL     1      23.359  51.678  45.653  1.00  0.00    -0.051 Br
HETATM   18  C20 UNL     1      23.590  49.818  43.522  1.00  0.00     0.022 A 
HETATM   19  C21 UNL     1      23.337  48.650  42.865  1.00  0.00     0.040 A 
HETATM   20  C22 UNL     1      22.494  47.715  43.441  1.00  0.00     0.091 A 
BRANCH  20  21
HETATM   21  O3  UNL     1      22.254  46.550  42.766  1.00  0.00    -0.354 OA
HETATM   22  C23 UNL     1      23.041  46.095  41.680  1.00  0.00     0.210 C 
ENDBRANCH  20  21
ENDBRANCH  11  14
ENDBRANCH   5  11
ENDBRANCH   1   2
BRANCH   1  23
HETATM   23  C5  UNL     1      19.193  43.606  44.604  1.00  0.00     0.040 C 
BRANCH  23  24
HETATM   24  C6  UNL     1      17.737  43.774  44.323  1.00  0.00     0.123 C 
BRANCH  24  25
HETATM   25  N3  UNL     1      17.434  43.831  42.917  1.00  0.00    -0.374 N 
ATOM     26  H3  UNL     1      17.207  42.977  42.407  1.00  0.00     0.161 HD
BRANCH  25  27
HETATM   27  C7  UNL     1      17.449  44.961  42.308  1.00  0.00     0.131 A 
HETATM   28  N4  UNL     1      18.218  46.037  42.511  1.00  0.00    -0.285 N 
HETATM   29  N5  UNL     1      17.927  46.991  41.665  1.00  0.00    -0.302 N 
ATOM     30  H4  UNL     1      18.937  46.105  43.232  1.00  0.00     0.188 HD
HETATM   31  C8  UNL     1      16.908  46.575  40.831  1.00  0.00     0.043 A 
ATOM     32  H5  UNL     1      18.382  47.904  41.628  1.00  0.00     0.186 HD
HETATM   33  C15 UNL     1      16.606  45.302  41.225  1.00  0.00     0.073 A 
BRANCH  31  34
HETATM   34  C9  UNL     1      16.261  47.473  39.835  1.00  0.00     0.064 C 
BRANCH  34  35
HETATM   35  C10 UNL     1      14.794  47.314  39.746  1.00  0.00    -0.009 C 
HETATM   36  C11 UNL     1      14.082  47.804  41.008  1.00  0.00     0.005 C 
HETATM   37  C12 UNL     1      12.635  47.757  40.554  1.00  0.00     0.000 C 
HETATM   38  C13 UNL     1      12.618  47.744  39.054  1.00  0.00     0.000 C 
HETATM   39  C14 UNL     1      14.081  48.086  38.696  1.00  0.00     0.005 C 
ENDBRANCH  34  35
ENDBRANCH  31  34
BRANCH  33  40
HETATM   40  C16 UNL     1      15.659  44.369  40.669  1.00  0.00     0.126 C 
HETATM   41  N6  UNL     1      14.567  44.098  41.305  1.00  0.00    -0.387 N 
ATOM     42  H62 UNL     1      14.414  44.614  42.172  1.00  0.00     0.157 HD
ATOM     43  H61 UNL     1      13.897  43.438  40.911  1.00  0.00     0.157 HD
HETATM   44  N7  UNL     1      15.868  43.659  39.475  1.00  0.00    -0.082 NA
ENDBRANCH  33  40
ENDBRANCH  25  27
ENDBRANCH  24  25
ENDBRANCH  23  24
ENDBRANCH   1  23
TORSDOF 12
ENDMDL
MODEL 4
REMARK VINA RESULT: -8.468815060      1.673      2.126
REMARK  12 active torsions:
REMARK  status: ('A' for Active; 'I' for Inactive)
REMARK    1  A    between atoms: C2_2  and  N1_3 
REMARK       I    between atoms: C3_5  and  N2_6 
REMARK       I    between atoms: C3_5  and  N8_31 
REMARK    2  A    between atoms: N2_6  and  C4_8 
REMARK    3  A    between atoms: C4_8  and  C5_9 
REMARK    4  A    between atoms: C5_9  and  C6_10 
REMARK    5  A    between atoms: C6_10  and  N3_11 
REMARK    6  A    between atoms: N3_11  and  C7_13 
REMARK    7  A    between atoms: C8_18  and  C9_19 
REMARK    8  A    between atoms: C9_19  and  C10_20 
REMARK    9  A    between atoms: C15_25  and  C16_26 
REMARK   10  A    between atoms: N8_31  and  S1_33 
REMARK   11  A    between atoms: S1_33  and  C17_36 
REMARK   12  A    between atoms: C22_42  and  O3_43 
ROOT
HETATM    1  C4  UNL     1      22.888  44.149  46.091  1.00  0.00     0.139 C 
ENDROOT
BRANCH   1   2
HETATM    2  N2  UNL     1      23.920  44.790  45.314  1.00  0.00    -0.225 N 
HETATM    3  C3  UNL     1      23.532  45.777  44.366  1.00  0.00     0.687 C 
HETATM    4  N1  UNL     1      24.014  45.776  43.210  1.00  0.00    -0.205 N 
HETATM    5  N8  UNL     1      22.588  46.745  44.787  1.00  0.00    -0.113 N 
ATOM      6  H1  UNL     1      24.681  45.020  43.055  1.00  0.00     0.183 HD
ATOM      7  H8  UNL     1      21.697  46.833  44.300  1.00  0.00     0.197 HD
ATOM      8  H2  UNL     1      24.901  44.541  45.440  1.00  0.00     0.177 HD
BRANCH   4   9
HETATM    9  C2  UNL     1      23.835  46.593  42.078  1.00  0.00     0.074 C 
HETATM   10  C1  UNL     1      23.485  45.804  40.820  1.00  0.00     0.055 C 
ENDBRANCH   4   9
BRANCH   5  11
HETATM   11  S1  UNL     1      22.943  47.775  46.124  1.00  0.00     0.279 S 
HETATM   12  O1  UNL     1      22.103  47.394  47.331  1.00  0.00    -0.200 OA
HETATM   13  O2  UNL     1      24.381  47.565  46.532  1.00  0.00    -0.200 OA
BRANCH  11  14
HETATM   14  C17 UNL     1      22.633  49.419  45.652  1.00  0.00     0.114 A 
HETATM   15  C18 UNL     1      23.482  50.471  45.977  1.00  0.00     0.047 A 
HETATM   16  C19 UNL     1      23.208  51.756  45.570  1.00  0.00     0.012 A 
HETATM   17 BR1  UNL     1      24.393  53.162  46.035  1.00  0.00    -0.051 Br
HETATM   18  C20 UNL     1      22.087  52.027  44.831  1.00  0.00     0.022 A 
HETATM   19  C21 UNL     1      21.235  51.016  44.498  1.00  0.00     0.040 A 
HETATM   20  C22 UNL     1      21.517  49.725  44.910  1.00  0.00     0.091 A 
BRANCH  20  21
HETATM   21  O3  UNL     1      20.650  48.726  44.565  1.00  0.00    -0.354 OA
HETATM   22  C23 UNL     1      19.416  48.495  45.221  1.00  0.00     0.210 C 
ENDBRANCH  20  21
ENDBRANCH  11  14
ENDBRANCH   5  11
ENDBRANCH   1   2
BRANCH   1  23
HETATM   23  C5  UNL     1      21.830  43.535  45.184  1.00  0.00     0.040 C 
BRANCH  23  24
HETATM   24  C6  UNL     1      20.531  43.430  45.909  1.00  0.00     0.123 C 
BRANCH  24  25
HETATM   25  N3  UNL     1      19.603  44.476  45.565  1.00  0.00    -0.374 N 
ATOM     26  H3  UNL     1      19.712  45.408  45.963  1.00  0.00     0.161 HD
BRANCH  25  27
HETATM   27  C7  UNL     1      18.638  44.230  44.754  1.00  0.00     0.131 A 
HETATM   28  N4  UNL     1      17.579  43.426  44.898  1.00  0.00    -0.285 N 
HETATM   29  N5  UNL     1      16.814  43.460  43.837  1.00  0.00    -0.302 N 
ATOM     30  H4  UNL     1      17.392  42.860  45.726  1.00  0.00     0.188 HD
HETATM   31  C8  UNL     1      17.355  44.322  42.904  1.00  0.00     0.043 A 
ATOM     32  H5  UNL     1      15.949  42.931  43.718  1.00  0.00     0.186 HD
HETATM   33  C15 UNL     1      18.497  44.811  43.473  1.00  0.00     0.073 A 
BRANCH  31  34
HETATM   34  C9  UNL     1      16.790  44.491  41.537  1.00  0.00     0.064 C 
BRANCH  34  35
HETATM   35  C10 UNL     1      16.007  45.733  41.361  1.00  0.00    -0.009 C 
HETATM   36  C11 UNL     1      16.194  46.342  39.970  1.00  0.00     0.005 C 
HETATM   37  C12 UNL     1      15.124  47.417  39.984  1.00  0.00     0.000 C 
HETATM   38  C13 UNL     1      14.134  47.074  41.057  1.00  0.00     0.000 C 
HETATM   39  C14 UNL     1      14.527  45.628  41.431  1.00  0.00     0.005 C 
ENDBRANCH  34  35
ENDBRANCH  31  34
BRANCH  33  40
HETATM   40  C16 UNL     1      19.428  45.788  42.969  1.00  0.00     0.126 C 
HETATM   41  N6  UNL     1      19.039  47.001  42.750  1.00  0.00    -0.387 N 
ATOM     42  H62 UNL     1      18.072  47.212  42.999  1.00  0.00     0.157 HD
ATOM     43  H61 UNL     1      19.697  47.693  42.393  1.00  0.00     0.157 HD
HETATM   44  N7  UNL     1      20.760  45.499  42.627  1.00  0.00    -0.082 NA
ENDBRANCH  33  40
ENDBRANCH  25  27
ENDBRANCH  24  25
ENDBRANCH  23  24
ENDBRANCH   1  23
TORSDOF 12
ENDMDL
MODEL 5
REMARK VINA RESULT: -7.981589210      1.493      1.978
REMARK  12 active torsions:
REMARK  status: ('A' for Active; 'I' for Inactive)
REMARK    1  A    between atoms: C2_2  and  N1_3 
REMARK       I    between atoms: C3_5  and  N2_6 
REMARK       I    between atoms: C3_5  and  N8_31 
REMARK    2  A    between atoms: N2_6  and  C4_8 
REMARK    3  A    between atoms: C4_8  and  C5_9 
REMARK    4  A    between atoms: C5_9  and  C6_10 
REMARK    5  A    between atoms: C6_10  and  N3_11 
REMARK    6  A    between atoms: N3_11  and  C7_13 
REMARK    7  A    between atoms: C8_18  and  C9_19 
REMARK    8  A    between atoms: C9_19  and  C10_20 
REMARK    9  A    between atoms: C15_25  and  C16_26 
REMARK   10  A    between atoms: N8_31  and  S1_33 
REMARK   11  A    between atoms: S1_33  and  C17_36 
REMARK   12  A    between atoms: C22_42  and  O3_43 
ROOT
HETATM    1  C4  UNL     1      22.539  44.267  44.871  1.00  0.00     0.139 C 
ENDROOT
BRANCH   1   2
HETATM    2  N2  UNL     1      23.818  44.360  45.530  1.00  0.00    -0.225 N 
HETATM    3  C3  UNL     1      24.750  45.323  45.054  1.00  0.00     0.687 C 
HETATM    4  N1  UNL     1      25.953  45.016  44.882  1.00  0.00    -0.205 N 
HETATM    5  N8  UNL     1      24.260  46.624  44.787  1.00  0.00    -0.113 N 
ATOM      6  H1  UNL     1      26.155  44.044  45.118  1.00  0.00     0.183 HD
ATOM      7  H8  UNL     1      24.337  47.015  43.849  1.00  0.00     0.197 HD
ATOM      8  H2  UNL     1      24.048  43.752  46.316  1.00  0.00     0.177 HD
BRANCH   4   9
HETATM    9  C2  UNL     1      27.085  45.721  44.434  1.00  0.00     0.074 C 
HETATM   10  C1  UNL     1      28.399  45.099  44.896  1.00  0.00     0.055 C 
ENDBRANCH   4   9
BRANCH   5  11
HETATM   11  S1  UNL     1      23.533  47.550  46.048  1.00  0.00     0.279 S 
HETATM   12  O1  UNL     1      22.271  46.870  46.551  1.00  0.00    -0.200 OA
HETATM   13  O2  UNL     1      24.478  47.598  47.223  1.00  0.00    -0.200 OA
BRANCH  11  14
HETATM   14  C17 UNL     1      23.175  49.136  45.433  1.00  0.00     0.114 A 
HETATM   15  C18 UNL     1      23.445  50.300  46.143  1.00  0.00     0.047 A 
HETATM   16  C19 UNL     1      23.161  51.537  45.613  1.00  0.00     0.012 A 
HETATM   17 BR1  UNL     1      23.546  53.100  46.616  1.00  0.00    -0.051 Br
HETATM   18  C20 UNL     1      22.604  51.648  44.367  1.00  0.00     0.022 A 
HETATM   19  C21 UNL     1      22.326  50.524  43.647  1.00  0.00     0.040 A 
HETATM   20  C22 UNL     1      22.615  49.282  44.186  1.00  0.00     0.091 A 
BRANCH  20  21
HETATM   21  O3  UNL     1      22.330  48.168  43.447  1.00  0.00    -0.354 OA
HETATM   22  C23 UNL     1      23.135  47.708  42.376  1.00  0.00     0.210 C 
ENDBRANCH  20  21
ENDBRANCH  11  14
ENDBRANCH   5  11
ENDBRANCH   1   2
BRANCH   1  23
HETATM   23  C5  UNL     1      21.742  43.083  45.401  1.00  0.00     0.040 C 
BRANCH  23  24
HETATM   24  C6  UNL     1      20.697  43.554  46.355  1.00  0.00     0.123 C 
BRANCH  24  25
HETATM   25  N3  UNL     1      19.860  44.592  45.814  1.00  0.00    -0.374 N 
ATOM     26  H3  UNL     1      19.992  45.561  46.104  1.00  0.00     0.161 HD
BRANCH  25  27
HETATM   27  C7  UNL     1      18.946  44.294  44.963  1.00  0.00     0.131 A 
HETATM   28  N4  UNL     1      17.944  43.412  45.052  1.00  0.00    -0.285 N 
HETATM   29  N5  UNL     1      17.217  43.413  43.964  1.00  0.00    -0.302 N 
ATOM     30  H4  UNL     1      17.769  42.817  45.861  1.00  0.00     0.188 HD
HETATM   31  C8  UNL     1      17.728  44.331  43.067  1.00  0.00     0.043 A 
ATOM     32  H5  UNL     1      16.399  42.826  43.802  1.00  0.00     0.186 HD
HETATM   33  C15 UNL     1      18.809  44.890  43.688  1.00  0.00     0.073 A 
BRANCH  31  34
HETATM   34  C9  UNL     1      17.201  44.488  41.683  1.00  0.00     0.064 C 
BRANCH  34  35
HETATM   35  C10 UNL     1      16.203  45.569  41.539  1.00  0.00    -0.009 C 
HETATM   36  C11 UNL     1      16.434  46.404  40.279  1.00  0.00     0.005 C 
HETATM   37  C12 UNL     1      15.168  47.241  40.256  1.00  0.00     0.000 C 
HETATM   38  C13 UNL     1      14.144  46.558  41.113  1.00  0.00     0.000 C 
HETATM   39  C14 UNL     1      14.782  45.174  41.366  1.00  0.00     0.005 C 
ENDBRANCH  34  35
ENDBRANCH  31  34
BRANCH  33  40
HETATM   40  C16 UNL     1      19.684  45.943  43.237  1.00  0.00     0.126 C 
HETATM   41  N6  UNL     1      20.557  45.709  42.314  1.00  0.00    -0.387 N 
ATOM     42  H62 UNL     1      20.543  44.771  41.913  1.00  0.00     0.157 HD
ATOM     43  H61 UNL     1      21.175  46.454  41.995  1.00  0.00     0.157 HD
HETATM   44  N7  UNL     1      19.702  47.235  43.788  1.00  0.00    -0.082 NA
ENDBRANCH  33  40
ENDBRANCH  25  27
ENDBRANCH  24  25
ENDBRANCH  23  24
ENDBRANCH   1  23
TORSDOF 12
ENDMDL
