MODEL 1
REMARK VINA RESULT: -6.560856112      0.000      0.000
REMARK  5 active torsions:
REMARK  status: ('A' for Active; 'I' for Inactive)
REMARK    1  A    between atoms: N1_2  and  C2_4 
REMARK    2  A    between atoms: C3_7  and  N3_8 
REMARK    3  A    between atoms: C4_13  and  N5_14 
REMARK    4  A    between atoms: N5_14  and  C5_16 
REMARK    5  A    between atoms: C5_16  and  C6_17 
ROOT
HETATM    1  C2  UNL     1      85.353  90.168 113.814  1.00  0.00     0.706 A 
HETATM    2  N2  UNL     1      84.729  90.835 112.828  1.00  0.00    -0.022 N 
ATOM      3  H2  UNL     1      83.868  91.338 113.040  1.00  0.00     0.203 HD
HETATM    4  C3  UNL     1      85.203  90.861 111.570  1.00  0.00     0.705 A 
HETATM    5  N4  UNL     1      86.347  90.195 111.270  1.00  0.00    -0.022 N 
ATOM      6  H4  UNL     1      86.716  90.206 110.320  1.00  0.00     0.203 HD
HETATM    7  C4  UNL     1      86.987  89.522 112.238  1.00  0.00     0.707 A 
HETATM    8  N9  UNL     1      86.498  89.508 113.490  1.00  0.00    -0.022 N 
ATOM      9  H9  UNL     1      86.996  88.992 114.215  1.00  0.00     0.203 HD
ENDROOT
BRANCH   7  10
HETATM   10  N5  UNL     1      88.068  88.891 111.963  1.00  0.00    -0.218 N 
ATOM     11  H5  UNL     1      88.559  89.076 111.088  1.00  0.00     0.178 HD
BRANCH  10  12
HETATM   12  C5  UNL     1      88.588  87.921 112.889  1.00  0.00     0.215 C 
BRANCH  12  13
HETATM   13  C6  UNL     1      88.090  86.560 112.543  1.00  0.00     0.108 C 
HETATM   14  N6  UNL     1      88.441  85.927 111.483  1.00  0.00    -0.362 N 
HETATM   15  C7  UNL     1      87.770  84.633 111.459  1.00  0.00     0.257 C 
ATOM     16  H6  UNL     1      89.085  86.274 110.773  1.00  0.00     0.162 HD
HETATM   17  N7  UNL     1      87.425  84.423 112.878  1.00  0.00    -0.120 NA
HETATM   18  N8  UNL     1      87.184  85.744 113.257  1.00  0.00    -0.290 N 
ATOM     19  H8  UNL     1      86.483  86.062 113.926  1.00  0.00     0.183 HD
ENDBRANCH  12  13
ENDBRANCH  10  12
ENDBRANCH   7  10
BRANCH   4  20
HETATM   20  N3  UNL     1      84.605  91.501 110.625  1.00  0.00    -0.234 N 
ATOM     21  H32 UNL     1      85.177  91.948 109.907  1.00  0.00     0.174 HD
ATOM     22  H31 UNL     1      83.589  91.570 110.576  1.00  0.00     0.174 HD
ENDBRANCH   4  20
BRANCH   1  23
HETATM   23  N1  UNL     1      84.946  90.112 115.028  1.00  0.00    -0.229 N 
HETATM   24  C1  UNL     1      84.354  91.209 115.728  1.00  0.00     0.165 C 
ATOM     25  H1  UNL     1      85.051  89.228 115.527  1.00  0.00     0.177 HD
ENDBRANCH   1  23
TORSDOF 5
ENDMDL
MODEL 2
REMARK VINA RESULT: -6.458927073      6.887      8.792
REMARK  5 active torsions:
REMARK  status: ('A' for Active; 'I' for Inactive)
REMARK    1  A    between atoms: N1_2  and  C2_4 
REMARK    2  A    between atoms: C3_7  and  N3_8 
REMARK    3  A    between atoms: C4_13  and  N5_14 
REMARK    4  A    between atoms: N5_14  and  C5_16 
REMARK    5  A    between atoms: C5_16  and  C6_17 
ROOT
HETATM    1  C2  UNL     1      84.121  81.372 118.370  1.00  0.00     0.706 A 
HETATM    2  N2  UNL     1      84.009  82.296 119.341  1.00  0.00    -0.022 N 
ATOM      3  H2  UNL     1      83.183  82.285 119.939  1.00  0.00     0.203 HD
HETATM    4  C3  UNL     1      84.951  83.233 119.548  1.00  0.00     0.705 A 
HETATM    5  N4  UNL     1      86.054  83.262 118.760  1.00  0.00    -0.022 N 
ATOM      6  H4  UNL     1      86.775  83.969 118.907  1.00  0.00     0.203 HD
HETATM    7  C4  UNL     1      86.187  82.352 117.784  1.00  0.00     0.707 A 
HETATM    8  N9  UNL     1      85.236  81.421 117.592  1.00  0.00    -0.022 N 
ATOM      9  H9  UNL     1      85.352  80.736 116.846  1.00  0.00     0.203 HD
ENDROOT
BRANCH   7  10
HETATM   10  N5  UNL     1      87.227  82.372 117.035  1.00  0.00    -0.218 N 
ATOM     11  H5  UNL     1      87.809  83.210 116.992  1.00  0.00     0.178 HD
BRANCH  10  12
HETATM   12  C5  UNL     1      87.574  81.214 116.255  1.00  0.00     0.215 C 
BRANCH  12  13
HETATM   13  C6  UNL     1      87.774  81.595 114.829  1.00  0.00     0.108 C 
HETATM   14  N6  UNL     1      87.050  82.464 114.222  1.00  0.00    -0.362 N 
HETATM   15  C7  UNL     1      87.517  82.593 112.847  1.00  0.00     0.257 C 
ATOM     16  H6  UNL     1      86.274  82.980 114.635  1.00  0.00     0.162 HD
HETATM   17  N7  UNL     1      88.900  82.083 112.928  1.00  0.00    -0.120 NA
HETATM   18  N8  UNL     1      88.731  81.108 113.911  1.00  0.00    -0.290 N 
ATOM     19  H8  UNL     1      89.210  80.209 113.958  1.00  0.00     0.183 HD
ENDBRANCH  12  13
ENDBRANCH  10  12
ENDBRANCH   7  10
BRANCH   4  20
HETATM   20  N3  UNL     1      84.843  84.118 120.480  1.00  0.00    -0.234 N 
ATOM     21  H32 UNL     1      85.576  84.164 121.188  1.00  0.00     0.174 HD
ATOM     22  H31 UNL     1      84.056  84.764 120.525  1.00  0.00     0.174 HD
ENDBRANCH   4  20
BRANCH   1  23
HETATM   23  N1  UNL     1      83.256  80.458 118.129  1.00  0.00    -0.229 N 
HETATM   24  C1  UNL     1      83.302  79.143 118.686  1.00  0.00     0.165 C 
ATOM     25  H1  UNL     1      82.485  80.684 117.501  1.00  0.00     0.177 HD
ENDBRANCH   1  23
TORSDOF 5
ENDMDL
MODEL 3
REMARK VINA RESULT: -6.445894507      5.686      8.027
REMARK  5 active torsions:
REMARK  status: ('A' for Active; 'I' for Inactive)
REMARK    1  A    between atoms: N1_2  and  C2_4 
REMARK    2  A    between atoms: C3_7  and  N3_8 
REMARK    3  A    between atoms: C4_13  and  N5_14 
REMARK    4  A    between atoms: N5_14  and  C5_16 
REMARK    5  A    between atoms: C5_16  and  C6_17 
ROOT
HETATM    1  C2  UNL     1      84.783  82.654 118.270  1.00  0.00     0.706 A 
HETATM    2  N2  UNL     1      83.955  81.663 117.895  1.00  0.00    -0.022 N 
ATOM      3  H2  UNL     1      83.092  81.516 118.418  1.00  0.00     0.203 HD
HETATM    4  C3  UNL     1      84.228  80.858 116.853  1.00  0.00     0.705 A 
HETATM    5  N4  UNL     1      85.373  81.039 116.148  1.00  0.00    -0.022 N 
ATOM      6  H4  UNL     1      85.592  80.435 115.355  1.00  0.00     0.203 HD
HETATM    7  C4  UNL     1      86.214  82.021 116.503  1.00  0.00     0.707 A 
HETATM    8  N9  UNL     1      85.924  82.816 117.548  1.00  0.00    -0.022 N 
ATOM      9  H9  UNL     1      86.575  83.558 117.806  1.00  0.00     0.203 HD
ENDROOT
BRANCH   7  10
HETATM   10  N5  UNL     1      87.298  82.198 115.842  1.00  0.00    -0.218 N 
ATOM     11  H5  UNL     1      88.016  82.830 116.198  1.00  0.00     0.178 HD
BRANCH  10  12
HETATM   12  C5  UNL     1      87.501  81.507 114.597  1.00  0.00     0.215 C 
BRANCH  12  13
HETATM   13  C6  UNL     1      87.255  82.427 113.451  1.00  0.00     0.108 C 
HETATM   14  N6  UNL     1      86.086  82.675 112.982  1.00  0.00    -0.362 N 
HETATM   15  C7  UNL     1      86.209  83.611 111.872  1.00  0.00     0.257 C 
ATOM     16  H6  UNL     1      85.213  82.280 113.330  1.00  0.00     0.162 HD
HETATM   17  N7  UNL     1      87.516  84.245 112.129  1.00  0.00    -0.120 NA
HETATM   18  N8  UNL     1      88.192  83.162 112.692  1.00  0.00    -0.290 N 
ATOM     19  H8  UNL     1      89.182  82.942 112.577  1.00  0.00     0.183 HD
ENDBRANCH  12  13
ENDBRANCH  10  12
ENDBRANCH   7  10
BRANCH   4  20
HETATM   20  N3  UNL     1      83.434  79.909 116.493  1.00  0.00    -0.234 N 
ATOM     21  H32 UNL     1      83.294  79.128 117.135  1.00  0.00     0.174 HD
ATOM     22  H31 UNL     1      82.949  79.918 115.596  1.00  0.00     0.174 HD
ENDBRANCH   4  20
BRANCH   1  23
HETATM   23  N1  UNL     1      84.571  83.448 119.253  1.00  0.00    -0.229 N 
HETATM   24  C1  UNL     1      85.392  83.517 120.421  1.00  0.00     0.165 C 
ATOM     25  H1  UNL     1      83.765  84.071 119.198  1.00  0.00     0.177 HD
ENDBRANCH   1  23
TORSDOF 5
ENDMDL
MODEL 4
REMARK VINA RESULT: -6.370159859      2.990      4.780
REMARK  5 active torsions:
REMARK  status: ('A' for Active; 'I' for Inactive)
REMARK    1  A    between atoms: N1_2  and  C2_4 
REMARK    2  A    between atoms: C3_7  and  N3_8 
REMARK    3  A    between atoms: C4_13  and  N5_14 
REMARK    4  A    between atoms: N5_14  and  C5_16 
REMARK    5  A    between atoms: C5_16  and  C6_17 
ROOT
HETATM    1  C2  UNL     1      88.129  87.806 112.816  1.00  0.00     0.706 A 
HETATM    2  N2  UNL     1      87.445  87.731 113.971  1.00  0.00    -0.022 N 
ATOM      3  H2  UNL     1      87.354  88.569 114.546  1.00  0.00     0.203 HD
HETATM    4  C3  UNL     1      86.877  86.588 114.393  1.00  0.00     0.705 A 
HETATM    5  N4  UNL     1      86.991  85.465 113.641  1.00  0.00    -0.022 N 
ATOM      6  H4  UNL     1      86.565  84.591 113.951  1.00  0.00     0.203 HD
HETATM    7  C4  UNL     1      87.669  85.515 112.485  1.00  0.00     0.707 A 
HETATM    8  N9  UNL     1      88.230  86.667 112.079  1.00  0.00    -0.022 N 
ATOM      9  H9  UNL     1      88.742  86.689 111.197  1.00  0.00     0.203 HD
ENDROOT
BRANCH   7  10
HETATM   10  N5  UNL     1      87.780  84.458 111.769  1.00  0.00    -0.218 N 
ATOM     11  H5  UNL     1      88.445  84.433 110.994  1.00  0.00     0.178 HD
BRANCH  10  12
HETATM   12  C5  UNL     1      86.968  83.306 112.057  1.00  0.00     0.215 C 
BRANCH  12  13
HETATM   13  C6  UNL     1      87.596  82.490 113.133  1.00  0.00     0.108 C 
HETATM   14  N6  UNL     1      86.981  82.137 114.203  1.00  0.00    -0.362 N 
HETATM   15  C7  UNL     1      87.884  81.351 115.034  1.00  0.00     0.257 C 
ATOM     16  H6  UNL     1      86.015  82.370 114.434  1.00  0.00     0.162 HD
HETATM   17  N7  UNL     1      88.886  80.878 114.060  1.00  0.00    -0.120 NA
HETATM   18  N8  UNL     1      88.910  81.975 113.198  1.00  0.00    -0.290 N 
ATOM     19  H8  UNL     1      89.726  82.339 112.707  1.00  0.00     0.183 HD
ENDBRANCH  12  13
ENDBRANCH  10  12
ENDBRANCH   7  10
BRANCH   4  20
HETATM   20  N3  UNL     1      86.221  86.517 115.500  1.00  0.00    -0.234 N 
ATOM     21  H32 UNL     1      86.497  85.806 116.180  1.00  0.00     0.174 HD
ATOM     22  H31 UNL     1      85.446  87.144 115.712  1.00  0.00     0.174 HD
ENDBRANCH   4  20
BRANCH   1  23
HETATM   23  N1  UNL     1      88.689  88.868 112.367  1.00  0.00    -0.229 N 
HETATM   24  C1  UNL     1      89.018  90.003 113.171  1.00  0.00     0.165 C 
ATOM     25  H1  UNL     1      88.913  88.906 111.373  1.00  0.00     0.177 HD
ENDBRANCH   1  23
TORSDOF 5
ENDMDL
MODEL 5
REMARK VINA RESULT: -6.359904931      6.146      8.747
REMARK  5 active torsions:
REMARK  status: ('A' for Active; 'I' for Inactive)
REMARK    1  A    between atoms: N1_2  and  C2_4 
REMARK    2  A    between atoms: C3_7  and  N3_8 
REMARK    3  A    between atoms: C4_13  and  N5_14 
REMARK    4  A    between atoms: N5_14  and  C5_16 
REMARK    5  A    between atoms: C5_16  and  C6_17 
ROOT
HETATM    1  C2  UNL     1      86.835  82.562 113.331  1.00  0.00     0.706 A 
HETATM    2  N2  UNL     1      88.081  82.226 112.954  1.00  0.00    -0.022 N 
ATOM      3  H2  UNL     1      88.406  82.499 112.026  1.00  0.00     0.203 HD
HETATM    4  C3  UNL     1      88.912  81.543 113.759  1.00  0.00     0.705 A 
HETATM    5  N4  UNL     1      88.494  81.171 114.995  1.00  0.00    -0.022 N 
ATOM      6  H4  UNL     1      89.116  80.652 115.615  1.00  0.00     0.203 HD
HETATM    7  C4  UNL     1      87.255  81.494 115.394  1.00  0.00     0.707 A 
HETATM    8  N9  UNL     1      86.438  82.179 114.574  1.00  0.00    -0.022 N 
ATOM      9  H9  UNL     1      85.498  82.417 114.892  1.00  0.00     0.203 HD
ENDROOT
BRANCH   7  10
HETATM   10  N5  UNL     1      86.853  81.147 116.560  1.00  0.00    -0.218 N 
ATOM     11  H5  UNL     1      87.528  80.849 117.265  1.00  0.00     0.178 HD
BRANCH  10  12
HETATM   12  C5  UNL     1      85.450  81.178 116.874  1.00  0.00     0.215 C 
BRANCH  12  13
HETATM   13  C6  UNL     1      85.210  82.024 118.077  1.00  0.00     0.108 C 
HETATM   14  N6  UNL     1      86.123  82.312 118.931  1.00  0.00    -0.362 N 
HETATM   15  C7  UNL     1      85.549  83.153 119.974  1.00  0.00     0.257 C 
ATOM     16  H6  UNL     1      87.094  82.002 118.887  1.00  0.00     0.162 HD
HETATM   17  N7  UNL     1      84.356  83.717 119.313  1.00  0.00    -0.120 NA
HETATM   18  N8  UNL     1      84.010  82.637 118.500  1.00  0.00    -0.290 N 
ATOM     19  H8  UNL     1      83.064  82.344 118.256  1.00  0.00     0.183 HD
ENDBRANCH  12  13
ENDBRANCH  10  12
ENDBRANCH   7  10
BRANCH   4  20
HETATM   20  N3  UNL     1      90.107  81.221 113.397  1.00  0.00    -0.234 N 
ATOM     21  H32 UNL     1      90.866  81.871 113.606  1.00  0.00     0.174 HD
ATOM     22  H31 UNL     1      90.310  80.346 112.915  1.00  0.00     0.174 HD
ENDBRANCH   4  20
BRANCH   1  23
HETATM   23  N1  UNL     1      86.003  83.212 112.604  1.00  0.00    -0.229 N 
HETATM   24  C1  UNL     1      86.282  83.672 111.280  1.00  0.00     0.165 C 
ATOM     25  H1  UNL     1      85.083  83.414 112.996  1.00  0.00     0.177 HD
ENDBRANCH   1  23
TORSDOF 5
ENDMDL
