MODEL 1
REMARK VINA RESULT: -5.323363932      0.000      0.000
REMARK  4 active torsions:
REMARK  status: ('A' for Active; 'I' for Inactive)
REMARK    1  A    between atoms: C2_2  and  C3_3 
REMARK    2  A    between atoms: C3_3  and  N1_4 
REMARK    3  A    between atoms: N1_4  and  N2_5 
REMARK    4  A    between atoms: N2_5  and  C4_7 
ROOT
HETATM    1  C4  UNL     1      15.248   4.187   2.508  1.00  0.00     0.131 A 
HETATM    2  C5  UNL     1      14.450   5.309   2.500  1.00  0.00     0.052 A 
HETATM    3  C6  UNL     1      13.161   5.228   3.041  1.00  0.00     0.023 A 
HETATM    4  C7  UNL     1      12.788   4.003   3.550  1.00  0.00     0.110 A 
HETATM    5  N3  UNL     1      13.585   2.921   3.548  1.00  0.00    -0.306 N 
HETATM    6  C8  UNL     1      13.095   1.669   4.111  1.00  0.00     0.177 C 
HETATM    7  N4  UNL     1      14.796   3.031   3.027  1.00  0.00    -0.283 N 
ATOM      8  H4  UNL     1      15.407   2.214   3.020  1.00  0.00     0.189 HD
ENDROOT
BRANCH   1   9
HETATM    9  N2  UNL     1      16.558   4.256   1.961  1.00  0.00    -0.288 N 
ATOM     10  H2  UNL     1      16.737   4.921   1.209  1.00  0.00     0.184 HD
BRANCH   9  11
HETATM   11  N1  UNL     1      17.610   3.453   2.407  1.00  0.00    -0.136 NA
BRANCH  11  12
HETATM   12  C3  UNL     1      18.837   4.208   2.397  1.00  0.00     0.161 C 
BRANCH  12  13
HETATM   13  C2  UNL     1      19.996   3.307   2.123  1.00  0.00    -0.019 C 
HETATM   14  C1  UNL     1      20.704   3.382   1.007  1.00  0.00     0.008 C 
ENDBRANCH  12  13
ENDBRANCH  11  12
ENDBRANCH   9  11
ENDBRANCH   1   9
TORSDOF 4
ENDMDL
MODEL 2
REMARK VINA RESULT: -5.192916028      1.476      1.969
REMARK  4 active torsions:
REMARK  status: ('A' for Active; 'I' for Inactive)
REMARK    1  A    between atoms: C2_2  and  C3_3 
REMARK    2  A    between atoms: C3_3  and  N1_4 
REMARK    3  A    between atoms: N1_4  and  N2_5 
REMARK    4  A    between atoms: N2_5  and  C4_7 
ROOT
HETATM    1  C4  UNL     1      13.580   4.749   2.352  1.00  0.00     0.131 A 
HETATM    2  C5  UNL     1      12.442   5.358   2.831  1.00  0.00     0.052 A 
HETATM    3  C6  UNL     1      11.575   4.625   3.650  1.00  0.00     0.023 A 
HETATM    4  C7  UNL     1      11.941   3.323   3.917  1.00  0.00     0.110 A 
HETATM    5  N3  UNL     1      13.057   2.750   3.438  1.00  0.00    -0.306 N 
HETATM    6  C8  UNL     1      13.354   1.365   3.779  1.00  0.00     0.177 C 
HETATM    7  N4  UNL     1      13.855   3.470   2.666  1.00  0.00    -0.283 N 
ATOM      8  H4  UNL     1      14.704   3.042   2.297  1.00  0.00     0.189 HD
ENDROOT
BRANCH   1   9
HETATM    9  N2  UNL     1      14.468   5.482   1.519  1.00  0.00    -0.288 N 
ATOM     10  H2  UNL     1      14.103   5.893   0.659  1.00  0.00     0.184 HD
BRANCH   9  11
HETATM   11  N1  UNL     1      15.819   5.665   1.825  1.00  0.00    -0.136 NA
BRANCH  11  12
HETATM   12  C3  UNL     1      16.587   4.558   1.317  1.00  0.00     0.161 C 
BRANCH  12  13
HETATM   13  C2  UNL     1      17.526   4.056   2.365  1.00  0.00    -0.019 C 
HETATM   14  C1  UNL     1      18.838   4.035   2.191  1.00  0.00     0.008 C 
ENDBRANCH  12  13
ENDBRANCH  11  12
ENDBRANCH   9  11
ENDBRANCH   1   9
TORSDOF 4
ENDMDL
MODEL 3
REMARK VINA RESULT: -5.022355869      1.050      1.841
REMARK  4 active torsions:
REMARK  status: ('A' for Active; 'I' for Inactive)
REMARK    1  A    between atoms: C2_2  and  C3_3 
REMARK    2  A    between atoms: C3_3  and  N1_4 
REMARK    3  A    between atoms: N1_4  and  N2_5 
REMARK    4  A    between atoms: N2_5  and  C4_7 
ROOT
HETATM    1  C4  UNL     1      15.442   3.768   2.805  1.00  0.00     0.131 A 
HETATM    2  C5  UNL     1      15.324   2.753   3.728  1.00  0.00     0.052 A 
HETATM    3  C6  UNL     1      14.089   2.545   4.352  1.00  0.00     0.023 A 
HETATM    4  C7  UNL     1      13.067   3.393   3.983  1.00  0.00     0.110 A 
HETATM    5  N3  UNL     1      13.206   4.378   3.079  1.00  0.00    -0.306 N 
HETATM    6  C8  UNL     1      12.062   5.222   2.757  1.00  0.00     0.177 C 
HETATM    7  N4  UNL     1      14.387   4.548   2.509  1.00  0.00    -0.283 N 
ATOM      8  H4  UNL     1      14.502   5.294   1.822  1.00  0.00     0.189 HD
ENDROOT
BRANCH   1   9
HETATM    9  N2  UNL     1      16.692   3.990   2.165  1.00  0.00    -0.288 N 
ATOM     10  H2  UNL     1      16.737   4.667   1.404  1.00  0.00     0.184 HD
BRANCH   9  11
HETATM   11  N1  UNL     1      17.862   3.322   2.535  1.00  0.00    -0.136 NA
BRANCH  11  12
HETATM   12  C3  UNL     1      19.002   4.173   2.307  1.00  0.00     0.161 C 
BRANCH  12  13
HETATM   13  C2  UNL     1      20.195   3.353   1.940  1.00  0.00    -0.019 C 
HETATM   14  C1  UNL     1      20.770   3.430   0.750  1.00  0.00     0.008 C 
ENDBRANCH  12  13
ENDBRANCH  11  12
ENDBRANCH   9  11
ENDBRANCH   1   9
TORSDOF 4
ENDMDL
MODEL 4
REMARK VINA RESULT: -4.989548451      1.390      2.525
REMARK  4 active torsions:
REMARK  status: ('A' for Active; 'I' for Inactive)
REMARK    1  A    between atoms: C2_2  and  C3_3 
REMARK    2  A    between atoms: C3_3  and  N1_4 
REMARK    3  A    between atoms: N1_4  and  N2_5 
REMARK    4  A    between atoms: N2_5  and  C4_7 
ROOT
HETATM    1  C4  UNL     1      15.508   2.608   3.869  1.00  0.00     0.131 A 
HETATM    2  C5  UNL     1      14.878   1.483   4.353  1.00  0.00     0.052 A 
HETATM    3  C6  UNL     1      13.481   1.474   4.441  1.00  0.00     0.023 A 
HETATM    4  C7  UNL     1      12.835   2.618   4.025  1.00  0.00     0.110 A 
HETATM    5  N3  UNL     1      13.471   3.705   3.556  1.00  0.00    -0.306 N 
HETATM    6  C8  UNL     1      12.695   4.866   3.142  1.00  0.00     0.177 C 
HETATM    7  N4  UNL     1      14.792   3.681   3.487  1.00  0.00    -0.283 N 
ATOM      8  H4  UNL     1      15.283   4.502   3.133  1.00  0.00     0.189 HD
ENDROOT
BRANCH   1   9
HETATM    9  N2  UNL     1      16.926   2.630   3.776  1.00  0.00    -0.288 N 
ATOM     10  H2  UNL     1      17.470   2.164   4.501  1.00  0.00     0.184 HD
BRANCH   9  11
HETATM   11  N1  UNL     1      17.608   3.263   2.733  1.00  0.00    -0.136 NA
BRANCH  11  12
HETATM   12  C3  UNL     1      19.025   3.233   2.990  1.00  0.00     0.161 C 
BRANCH  12  13
HETATM   13  C2  UNL     1      19.584   4.618   2.975  1.00  0.00    -0.019 C 
HETATM   14  C1  UNL     1      20.122   5.177   4.048  1.00  0.00     0.008 C 
ENDBRANCH  12  13
ENDBRANCH  11  12
ENDBRANCH   9  11
ENDBRANCH   1   9
TORSDOF 4
ENDMDL
MODEL 5
REMARK VINA RESULT: -4.988337610      1.315      2.146
REMARK  4 active torsions:
REMARK  status: ('A' for Active; 'I' for Inactive)
REMARK    1  A    between atoms: C2_2  and  C3_3 
REMARK    2  A    between atoms: C3_3  and  N1_4 
REMARK    3  A    between atoms: N1_4  and  N2_5 
REMARK    4  A    between atoms: N2_5  and  C4_7 
ROOT
HETATM    1  C4  UNL     1      15.276   3.655   2.904  1.00  0.00     0.131 A 
HETATM    2  C5  UNL     1      15.233   2.588   3.774  1.00  0.00     0.052 A 
HETATM    3  C6  UNL     1      14.019   2.268   4.394  1.00  0.00     0.023 A 
HETATM    4  C7  UNL     1      12.941   3.065   4.074  1.00  0.00     0.110 A 
HETATM    5  N3  UNL     1      13.007   4.102   3.221  1.00  0.00    -0.306 N 
HETATM    6  C8  UNL     1      11.808   4.884   2.950  1.00  0.00     0.177 C 
HETATM    7  N4  UNL     1      14.170   4.378   2.654  1.00  0.00    -0.283 N 
ATOM      8  H4  UNL     1      14.229   5.164   2.006  1.00  0.00     0.189 HD
ENDROOT
BRANCH   1   9
HETATM    9  N2  UNL     1      16.503   3.990   2.270  1.00  0.00    -0.288 N 
ATOM     10  H2  UNL     1      16.512   4.762   1.603  1.00  0.00     0.184 HD
BRANCH   9  11
HETATM   11  N1  UNL     1      17.697   3.309   2.520  1.00  0.00    -0.136 NA
BRANCH  11  12
HETATM   12  C3  UNL     1      18.817   4.171   2.239  1.00  0.00     0.161 C 
BRANCH  12  13
HETATM   13  C2  UNL     1      19.826   4.083   3.337  1.00  0.00    -0.019 C 
HETATM   14  C1  UNL     1      20.150   5.123   4.088  1.00  0.00     0.008 C 
ENDBRANCH  12  13
ENDBRANCH  11  12
ENDBRANCH   9  11
ENDBRANCH   1   9
TORSDOF 4
ENDMDL
