MODEL 1
REMARK VINA RESULT: -7.841693430      0.000      0.000
REMARK  11 active torsions:
REMARK  status: ('A' for Active; 'I' for Inactive)
REMARK    1  A    between atoms: C2_2  and  C25_37 
REMARK    2  A    between atoms: C3_3  and  C4_4 
REMARK    3  A    between atoms: C4_4  and  C6_6 
REMARK    4  A    between atoms: C6_6  and  C7_7 
REMARK    5  A    between atoms: C8_8  and  C9_9 
REMARK    6  A    between atoms: C9_9  and  O1_10 
REMARK    7  A    between atoms: O1_10  and  C10_11 
REMARK    8  A    between atoms: C12_13  and  C13_14 
REMARK    9  A    between atoms: C20_25  and  O6_26 
REMARK   10  A    between atoms: C21_29  and  O8_30 
REMARK   11  A    between atoms: C22_32  and  C24_34 
ROOT
HETATM    1  C9  UNL     1      20.610  40.907  23.440  1.00  0.00     0.126 A 
HETATM    2  C21 UNL     1      19.891  40.618  24.754  1.00  0.00     0.180 A 
HETATM    3  C22 UNL     1      21.340  40.182  24.604  1.00  0.00     0.111 A 
HETATM    4  C23 UNL     1      22.431  40.986  25.326  1.00  0.00     0.033 C 
ENDROOT
BRANCH   1   5
HETATM    5  C8  UNL     1      20.227  40.026  22.313  1.00  0.00     0.011 C 
HETATM    6  C7  UNL     1      21.009  39.749  21.135  1.00  0.00    -0.027 C 
BRANCH   6   7
HETATM    7  C6  UNL     1      21.435  40.785  20.178  1.00  0.00     0.035 C 
BRANCH   7   8
HETATM    8  C4  UNL     1      21.320  40.283  18.721  1.00  0.00     0.008 C 
HETATM    9  C5  UNL     1      19.904  39.884  18.456  1.00  0.00     0.014 C 
BRANCH   8  10
HETATM   10  C3  UNL     1      22.314  39.259  18.419  1.00  0.00    -0.020 C 
HETATM   11  C2  UNL     1      23.037  39.306  17.309  1.00  0.00    -0.084 C 
HETATM   12  C1  UNL     1      22.874  40.401  16.315  1.00  0.00     0.043 C 
BRANCH  11  13
HETATM   13  C25 UNL     1      24.063  38.250  16.998  1.00  0.00     0.005 C 
HETATM   14  C26 UNL     1      24.452  38.311  15.527  1.00  0.00     0.014 C 
HETATM   15  C27 UNL     1      23.566  36.876  17.364  1.00  0.00     0.014 C 
ENDBRANCH  11  13
ENDBRANCH   8  10
ENDBRANCH   7   8
ENDBRANCH   6   7
ENDBRANCH   1   5
BRANCH   1  16
HETATM   16  O1  UNL     1      21.150  42.160  23.343  1.00  0.00    -0.361 OA
BRANCH  16  17
HETATM   17  C10 UNL     1      20.610  43.170  22.678  1.00  0.00     0.191 C 
HETATM   18  C11 UNL     1      21.574  44.332  22.724  1.00  0.00     0.087 C 
HETATM   19  C12 UNL     1      21.152  45.045  23.999  1.00  0.00     0.157 C 
HETATM   20  C14 UNL     1      20.751  46.447  23.586  1.00  0.00     0.084 C 
HETATM   21  O7  UNL     1      20.024  44.406  24.461  1.00  0.00    -0.328 OA
HETATM   22  C15 UNL     1      19.487  46.396  22.810  1.00  0.00     0.163 C 
HETATM   23  O4  UNL     1      19.720  46.989  21.550  1.00  0.00    -0.348 OA
HETATM   24  C19 UNL     1      18.996  45.052  22.449  1.00  0.00     0.219 C 
HETATM   25  C16 UNL     1      18.968  46.227  20.657  1.00  0.00     0.158 C 
HETATM   26  C17 UNL     1      17.503  46.557  20.843  1.00  0.00     0.078 C 
HETATM   27  C18 UNL     1      19.369  46.445  19.241  1.00  0.00     0.078 C 
HETATM   28  O5  UNL     1      19.258  44.914  21.104  1.00  0.00    -0.343 OA
HETATM   29  C20 UNL     1      19.423  43.905  23.316  1.00  0.00     0.219 C 
BRANCH  19  30
HETATM   30  C13 UNL     1      22.218  45.101  25.004  1.00  0.00     0.209 C 
HETATM   31  O2  UNL     1      22.101  45.867  25.973  1.00  0.00    -0.646 OA
HETATM   32  O3  UNL     1      23.339  44.293  24.845  1.00  0.00    -0.646 OA
ENDBRANCH  19  30
BRANCH  29  33
HETATM   33  O6  UNL     1      18.352  43.138  23.627  1.00  0.00    -0.361 OA
ATOM     34  H6  UNL     1      17.502  43.549  23.516  1.00  0.00     0.213 HD
ENDBRANCH  29  33
ENDBRANCH  16  17
ENDBRANCH   1  16
BRANCH   2  35
HETATM   35  O8  UNL     1      19.731  41.475  25.784  1.00  0.00    -0.391 OA
ATOM     36  H8  UNL     1      20.301  41.561  26.539  1.00  0.00     0.210 HD
ENDBRANCH   2  35
BRANCH   3  37
HETATM   37  C24 UNL     1      21.523  38.770  24.700  1.00  0.00     0.187 C 
HETATM   38  O9  UNL     1      22.587  38.169  24.445  1.00  0.00    -0.647 OA
HETATM   39  O10 UNL     1      20.471  37.922  25.105  1.00  0.00    -0.647 OA
ENDBRANCH   3  37
TORSDOF 11
ENDMDL
MODEL 2
REMARK VINA RESULT: -7.719956682      1.893      2.767
REMARK  11 active torsions:
REMARK  status: ('A' for Active; 'I' for Inactive)
REMARK    1  A    between atoms: C2_2  and  C25_37 
REMARK    2  A    between atoms: C3_3  and  C4_4 
REMARK    3  A    between atoms: C4_4  and  C6_6 
REMARK    4  A    between atoms: C6_6  and  C7_7 
REMARK    5  A    between atoms: C8_8  and  C9_9 
REMARK    6  A    between atoms: C9_9  and  O1_10 
REMARK    7  A    between atoms: O1_10  and  C10_11 
REMARK    8  A    between atoms: C12_13  and  C13_14 
REMARK    9  A    between atoms: C20_25  and  O6_26 
REMARK   10  A    between atoms: C21_29  and  O8_30 
REMARK   11  A    between atoms: C22_32  and  C24_34 
ROOT
HETATM    1  C9  UNL     1      19.515  38.830  21.892  1.00  0.00     0.126 A 
HETATM    2  C21 UNL     1      18.991  38.217  23.187  1.00  0.00     0.180 A 
HETATM    3  C22 UNL     1      20.272  37.663  22.584  1.00  0.00     0.111 A 
HETATM    4  C23 UNL     1      21.612  38.020  23.242  1.00  0.00     0.033 C 
ENDROOT
BRANCH   1   5
HETATM    5  C8  UNL     1      18.770  38.440  20.672  1.00  0.00     0.011 C 
HETATM    6  C7  UNL     1      19.311  38.294  19.345  1.00  0.00    -0.027 C 
BRANCH   6   7
HETATM    7  C6  UNL     1      19.951  39.393  18.601  1.00  0.00     0.035 C 
BRANCH   7   8
HETATM    8  C4  UNL     1      21.491  39.306  18.685  1.00  0.00     0.008 C 
HETATM    9  C5  UNL     1      22.029  40.637  19.105  1.00  0.00     0.014 C 
BRANCH   8  10
HETATM   10  C3  UNL     1      22.073  38.765  17.462  1.00  0.00    -0.020 C 
HETATM   11  C2  UNL     1      23.021  37.840  17.501  1.00  0.00    -0.084 C 
HETATM   12  C1  UNL     1      23.541  37.306  18.789  1.00  0.00     0.043 C 
BRANCH  11  13
HETATM   13  C25 UNL     1      23.621  37.281  16.239  1.00  0.00     0.005 C 
HETATM   14  C26 UNL     1      23.952  35.805  16.422  1.00  0.00     0.014 C 
HETATM   15  C27 UNL     1      24.843  38.055  15.821  1.00  0.00     0.014 C 
ENDBRANCH  11  13
ENDBRANCH   8  10
ENDBRANCH   7   8
ENDBRANCH   6   7
ENDBRANCH   1   5
BRANCH   1  16
HETATM   16  O1  UNL     1      20.274  39.955  22.053  1.00  0.00    -0.361 OA
BRANCH  16  17
HETATM   17  C10 UNL     1      19.848  41.193  21.854  1.00  0.00     0.191 C 
HETATM   18  C11 UNL     1      20.927  42.143  22.322  1.00  0.00     0.087 C 
HETATM   19  C12 UNL     1      20.567  42.335  23.786  1.00  0.00     0.157 C 
HETATM   20  C14 UNL     1      20.317  43.819  23.969  1.00  0.00     0.084 C 
HETATM   21  O7  UNL     1      19.375  41.681  23.997  1.00  0.00    -0.328 OA
HETATM   22  C15 UNL     1      19.063  44.202  23.275  1.00  0.00     0.163 C 
HETATM   23  O4  UNL     1      19.369  45.216  22.341  1.00  0.00    -0.348 OA
HETATM   24  C19 UNL     1      18.440  43.164  22.432  1.00  0.00     0.219 C 
HETATM   25  C16 UNL     1      18.552  44.945  21.245  1.00  0.00     0.158 C 
HETATM   26  C17 UNL     1      17.127  45.319  21.591  1.00  0.00     0.078 C 
HETATM   27  C18 UNL     1      18.988  45.660  20.016  1.00  0.00     0.078 C 
HETATM   28  O5  UNL     1      18.700  43.540  21.133  1.00  0.00    -0.343 OA
HETATM   29  C20 UNL     1      18.737  41.732  22.766  1.00  0.00     0.219 C 
BRANCH  19  30
HETATM   30  C13 UNL     1      21.623  41.886  24.699  1.00  0.00     0.209 C 
HETATM   31  O2  UNL     1      21.528  40.773  25.240  1.00  0.00    -0.646 OA
HETATM   32  O3  UNL     1      22.709  42.721  24.940  1.00  0.00    -0.646 OA
ENDBRANCH  19  30
BRANCH  29  33
HETATM   33  O6  UNL     1      17.589  41.015  22.785  1.00  0.00    -0.361 OA
ATOM     34  H6  UNL     1      16.789  41.511  22.654  1.00  0.00     0.213 HD
ENDBRANCH  29  33
ENDBRANCH  16  17
ENDBRANCH   1  16
BRANCH   2  35
HETATM   35  O8  UNL     1      19.190  38.692  24.435  1.00  0.00    -0.391 OA
ATOM     36  H8  UNL     1      18.527  39.049  25.014  1.00  0.00     0.210 HD
ENDBRANCH   2  35
BRANCH   3  37
HETATM   37  C24 UNL     1      20.175  36.289  22.207  1.00  0.00     0.187 C 
HETATM   38  O9  UNL     1      19.456  35.442  22.778  1.00  0.00    -0.647 OA
HETATM   39  O10 UNL     1      20.915  35.773  21.123  1.00  0.00    -0.647 OA
ENDBRANCH   3  37
TORSDOF 11
ENDMDL
MODEL 3
REMARK VINA RESULT: -7.606437954      1.240      1.697
REMARK  11 active torsions:
REMARK  status: ('A' for Active; 'I' for Inactive)
REMARK    1  A    between atoms: C2_2  and  C25_37 
REMARK    2  A    between atoms: C3_3  and  C4_4 
REMARK    3  A    between atoms: C4_4  and  C6_6 
REMARK    4  A    between atoms: C6_6  and  C7_7 
REMARK    5  A    between atoms: C8_8  and  C9_9 
REMARK    6  A    between atoms: C9_9  and  O1_10 
REMARK    7  A    between atoms: O1_10  and  C10_11 
REMARK    8  A    between atoms: C12_13  and  C13_14 
REMARK    9  A    between atoms: C20_25  and  O6_26 
REMARK   10  A    between atoms: C21_29  and  O8_30 
REMARK   11  A    between atoms: C22_32  and  C24_34 
ROOT
HETATM    1  C9  UNL     1      19.961  39.987  22.476  1.00  0.00     0.126 A 
HETATM    2  C21 UNL     1      18.514  39.518  22.349  1.00  0.00     0.180 A 
HETATM    3  C22 UNL     1      19.348  39.003  23.511  1.00  0.00     0.111 A 
HETATM    4  C23 UNL     1      19.089  39.570  24.914  1.00  0.00     0.033 C 
ENDROOT
BRANCH   1   5
HETATM    5  C8  UNL     1      20.904  39.362  21.519  1.00  0.00     0.011 C 
HETATM    6  C7  UNL     1      21.644  40.034  20.482  1.00  0.00    -0.027 C 
BRANCH   6   7
HETATM    7  C6  UNL     1      21.009  40.768  19.373  1.00  0.00     0.035 C 
BRANCH   7   8
HETATM    8  C4  UNL     1      20.817  39.861  18.137  1.00  0.00     0.008 C 
HETATM    9  C5  UNL     1      19.470  39.217  18.213  1.00  0.00     0.014 C 
BRANCH   8  10
HETATM   10  C3  UNL     1      21.932  38.936  17.963  1.00  0.00    -0.020 C 
HETATM   11  C2  UNL     1      22.883  39.164  17.069  1.00  0.00    -0.084 C 
HETATM   12  C1  UNL     1      22.865  40.370  16.198  1.00  0.00     0.043 C 
BRANCH  11  13
HETATM   13  C25 UNL     1      24.034  38.211  16.890  1.00  0.00     0.005 C 
HETATM   14  C26 UNL     1      24.555  38.276  15.461  1.00  0.00     0.014 C 
HETATM   15  C27 UNL     1      23.642  36.803  17.253  1.00  0.00     0.014 C 
ENDBRANCH  11  13
ENDBRANCH   8  10
ENDBRANCH   7   8
ENDBRANCH   6   7
ENDBRANCH   1   5
BRANCH   1  16
HETATM   16  O1  UNL     1      20.123  41.188  23.108  1.00  0.00    -0.361 OA
BRANCH  16  17
HETATM   17  C10 UNL     1      19.875  42.371  22.566  1.00  0.00     0.191 C 
HETATM   18  C11 UNL     1      21.162  43.161  22.551  1.00  0.00     0.087 C 
HETATM   19  C12 UNL     1      21.124  43.856  23.902  1.00  0.00     0.157 C 
HETATM   20  C14 UNL     1      21.158  45.344  23.613  1.00  0.00     0.084 C 
HETATM   21  O7  UNL     1      19.903  43.568  24.468  1.00  0.00    -0.328 OA
HETATM   22  C15 UNL     1      19.875  45.761  22.997  1.00  0.00     0.163 C 
HETATM   23  O4  UNL     1      20.158  46.358  21.749  1.00  0.00    -0.348 OA
HETATM   24  C19 UNL     1      18.942  44.678  22.633  1.00  0.00     0.219 C 
HETATM   25  C16 UNL     1      19.114  45.953  20.919  1.00  0.00     0.158 C 
HETATM   26  C17 UNL     1      17.861  46.711  21.301  1.00  0.00     0.078 C 
HETATM   27  C18 UNL     1      19.420  46.156  19.477  1.00  0.00     0.078 C 
HETATM   28  O5  UNL     1      19.008  44.582  21.261  1.00  0.00    -0.343 OA
HETATM   29  C20 UNL     1      19.060  43.384  23.382  1.00  0.00     0.219 C 
BRANCH  19  30
HETATM   30  C13 UNL     1      22.246  43.486  24.770  1.00  0.00     0.209 C 
HETATM   31  O2  UNL     1      22.166  42.461  25.465  1.00  0.00    -0.646 OA
HETATM   32  O3  UNL     1      23.377  44.295  24.794  1.00  0.00    -0.646 OA
ENDBRANCH  19  30
BRANCH  29  33
HETATM   33  O6  UNL     1      17.835  42.970  23.784  1.00  0.00    -0.361 OA
ATOM     34  H6  UNL     1      17.790  42.596  24.656  1.00  0.00     0.213 HD
ENDBRANCH  29  33
ENDBRANCH  16  17
ENDBRANCH   1  16
BRANCH   2  35
HETATM   35  O8  UNL     1      17.418  40.182  22.775  1.00  0.00    -0.391 OA
ATOM     36  H8  UNL     1      16.984  40.071  23.613  1.00  0.00     0.210 HD
ENDBRANCH   2  35
BRANCH   3  37
HETATM   37  C24 UNL     1      19.528  37.587  23.498  1.00  0.00     0.187 C 
HETATM   38  O9  UNL     1      18.656  36.760  23.157  1.00  0.00    -0.647 OA
HETATM   39  O10 UNL     1      20.751  37.001  23.885  1.00  0.00    -0.647 OA
ENDBRANCH   3  37
TORSDOF 11
ENDMDL
MODEL 4
REMARK VINA RESULT: -7.092880480      1.981      3.353
REMARK  11 active torsions:
REMARK  status: ('A' for Active; 'I' for Inactive)
REMARK    1  A    between atoms: C2_2  and  C25_37 
REMARK    2  A    between atoms: C3_3  and  C4_4 
REMARK    3  A    between atoms: C4_4  and  C6_6 
REMARK    4  A    between atoms: C6_6  and  C7_7 
REMARK    5  A    between atoms: C8_8  and  C9_9 
REMARK    6  A    between atoms: C9_9  and  O1_10 
REMARK    7  A    between atoms: O1_10  and  C10_11 
REMARK    8  A    between atoms: C12_13  and  C13_14 
REMARK    9  A    between atoms: C20_25  and  O6_26 
REMARK   10  A    between atoms: C21_29  and  O8_30 
REMARK   11  A    between atoms: C22_32  and  C24_34 
ROOT
HETATM    1  C9  UNL     1      20.367  38.774  22.181  1.00  0.00     0.126 A 
HETATM    2  C21 UNL     1      19.018  38.293  21.653  1.00  0.00     0.180 A 
HETATM    3  C22 UNL     1      19.857  37.339  22.487  1.00  0.00     0.111 A 
HETATM    4  C23 UNL     1      19.438  37.063  23.938  1.00  0.00     0.033 C 
ENDROOT
BRANCH   1   5
HETATM    5  C8  UNL     1      21.445  38.838  21.168  1.00  0.00     0.011 C 
HETATM    6  C7  UNL     1      21.788  39.974  20.350  1.00  0.00    -0.027 C 
BRANCH   6   7
HETATM    7  C6  UNL     1      20.857  40.602  19.396  1.00  0.00     0.035 C 
BRANCH   7   8
HETATM    8  C4  UNL     1      20.727  39.762  18.105  1.00  0.00     0.008 C 
HETATM    9  C5  UNL     1      19.396  39.081  18.103  1.00  0.00     0.014 C 
BRANCH   8  10
HETATM   10  C3  UNL     1      21.871  38.879  17.914  1.00  0.00    -0.020 C 
HETATM   11  C2  UNL     1      22.827  39.168  17.043  1.00  0.00    -0.084 C 
HETATM   12  C1  UNL     1      22.785  40.404  16.217  1.00  0.00     0.043 C 
BRANCH  11  13
HETATM   13  C25 UNL     1      24.008  38.257  16.846  1.00  0.00     0.005 C 
HETATM   14  C26 UNL     1      24.472  38.300  15.396  1.00  0.00     0.014 C 
HETATM   15  C27 UNL     1      23.689  36.845  17.264  1.00  0.00     0.014 C 
ENDBRANCH  11  13
ENDBRANCH   8  10
ENDBRANCH   7   8
ENDBRANCH   6   7
ENDBRANCH   1   5
BRANCH   1  16
HETATM   16  O1  UNL     1      20.308  39.481  23.349  1.00  0.00    -0.361 OA
BRANCH  16  17
HETATM   17  C10 UNL     1      20.249  40.801  23.436  1.00  0.00     0.191 C 
HETATM   18  C11 UNL     1      21.651  41.322  23.652  1.00  0.00     0.087 C 
HETATM   19  C12 UNL     1      21.766  41.304  25.168  1.00  0.00     0.157 C 
HETATM   20  C14 UNL     1      22.043  42.734  25.588  1.00  0.00     0.084 C 
HETATM   21  O7  UNL     1      20.529  40.956  25.660  1.00  0.00    -0.328 OA
HETATM   22  C15 UNL     1      20.833  43.562  25.364  1.00  0.00     0.163 C 
HETATM   23  O4  UNL     1      21.180  44.627  24.504  1.00  0.00    -0.348 OA
HETATM   24  C19 UNL     1      19.721  42.914  24.643  1.00  0.00     0.219 C 
HETATM   25  C16 UNL     1      20.062  44.804  23.692  1.00  0.00     0.158 C 
HETATM   26  C17 UNL     1      18.965  45.461  24.502  1.00  0.00     0.078 C 
HETATM   27  C18 UNL     1      20.360  45.612  22.479  1.00  0.00     0.078 C 
HETATM   28  O5  UNL     1      19.734  43.461  23.379  1.00  0.00    -0.343 OA
HETATM   29  C20 UNL     1      19.639  41.418  24.702  1.00  0.00     0.219 C 
BRANCH  19  30
HETATM   30  C13 UNL     1      22.831  40.421  25.651  1.00  0.00     0.209 C 
HETATM   31  O2  UNL     1      23.910  40.913  26.018  1.00  0.00    -0.646 OA
HETATM   32  O3  UNL     1      22.608  39.048  25.687  1.00  0.00    -0.646 OA
ENDBRANCH  19  30
BRANCH  29  33
HETATM   33  O6  UNL     1      18.373  41.037  24.993  1.00  0.00    -0.361 OA
ATOM     34  H6  UNL     1      18.222  40.747  25.885  1.00  0.00     0.213 HD
ENDBRANCH  29  33
ENDBRANCH  16  17
ENDBRANCH   1  16
BRANCH   2  35
HETATM   35  O8  UNL     1      17.812  38.521  22.215  1.00  0.00    -0.391 OA
ATOM     36  H8  UNL     1      17.077  37.919  22.233  1.00  0.00     0.210 HD
ENDBRANCH   2  35
BRANCH   3  37
HETATM   37  C24 UNL     1      20.253  36.162  21.781  1.00  0.00     0.187 C 
HETATM   38  O9  UNL     1      20.659  35.111  22.318  1.00  0.00    -0.647 OA
HETATM   39  O10 UNL     1      20.210  36.105  20.372  1.00  0.00    -0.647 OA
ENDBRANCH   3  37
TORSDOF 11
ENDMDL
MODEL 5
REMARK VINA RESULT: -7.018193281      1.606      2.337
REMARK  11 active torsions:
REMARK  status: ('A' for Active; 'I' for Inactive)
REMARK    1  A    between atoms: C2_2  and  C25_37 
REMARK    2  A    between atoms: C3_3  and  C4_4 
REMARK    3  A    between atoms: C4_4  and  C6_6 
REMARK    4  A    between atoms: C6_6  and  C7_7 
REMARK    5  A    between atoms: C8_8  and  C9_9 
REMARK    6  A    between atoms: C9_9  and  O1_10 
REMARK    7  A    between atoms: O1_10  and  C10_11 
REMARK    8  A    between atoms: C12_13  and  C13_14 
REMARK    9  A    between atoms: C20_25  and  O6_26 
REMARK   10  A    between atoms: C21_29  and  O8_30 
REMARK   11  A    between atoms: C22_32  and  C24_34 
ROOT
HETATM    1  C9  UNL     1      18.100  40.595  23.334  1.00  0.00     0.126 A 
HETATM    2  C21 UNL     1      17.121  40.553  24.503  1.00  0.00     0.180 A 
HETATM    3  C22 UNL     1      18.294  39.585  24.498  1.00  0.00     0.111 A 
HETATM    4  C23 UNL     1      19.476  39.854  25.439  1.00  0.00     0.033 C 
ENDROOT
BRANCH   1   5
HETATM    5  C8  UNL     1      17.597  39.994  22.077  1.00  0.00     0.011 C 
HETATM    6  C7  UNL     1      18.387  39.369  21.048  1.00  0.00    -0.027 C 
BRANCH   6   7
HETATM    7  C6  UNL     1      19.438  40.069  20.289  1.00  0.00     0.035 C 
BRANCH   7   8
HETATM    8  C4  UNL     1      20.793  39.335  20.398  1.00  0.00     0.008 C 
HETATM    9  C5  UNL     1      21.285  39.434  21.807  1.00  0.00     0.014 C 
BRANCH   8  10
HETATM   10  C3  UNL     1      21.739  39.784  19.382  1.00  0.00    -0.020 C 
HETATM   11  C2  UNL     1      22.498  38.925  18.719  1.00  0.00    -0.084 C 
HETATM   12  C1  UNL     1      22.428  37.460  18.974  1.00  0.00     0.043 C 
BRANCH  11  13
HETATM   13  C25 UNL     1      23.473  39.388  17.671  1.00  0.00     0.005 C 
HETATM   14  C26 UNL     1      22.786  40.332  16.693  1.00  0.00     0.014 C 
HETATM   15  C27 UNL     1      24.094  38.225  16.944  1.00  0.00     0.014 C 
ENDBRANCH  11  13
ENDBRANCH   8  10
ENDBRANCH   7   8
ENDBRANCH   6   7
ENDBRANCH   1   5
BRANCH   1  16
HETATM   16  O1  UNL     1      19.088  41.533  23.444  1.00  0.00    -0.361 OA
BRANCH  16  17
HETATM   17  C10 UNL     1      19.113  42.691  22.801  1.00  0.00     0.191 C 
HETATM   18  C11 UNL     1      20.553  43.028  22.494  1.00  0.00     0.087 C 
HETATM   19  C12 UNL     1      20.971  43.797  23.737  1.00  0.00     0.157 C 
HETATM   20  C14 UNL     1      21.398  45.172  23.260  1.00  0.00     0.084 C 
HETATM   21  O7  UNL     1      19.844  43.954  24.510  1.00  0.00    -0.328 OA
HETATM   22  C15 UNL     1      20.209  45.928  22.795  1.00  0.00     0.163 C 
HETATM   23  O4  UNL     1      20.428  46.311  21.453  1.00  0.00    -0.348 OA
HETATM   24  C19 UNL     1      18.944  45.173  22.714  1.00  0.00     0.219 C 
HETATM   25  C16 UNL     1      19.178  46.198  20.846  1.00  0.00     0.158 C 
HETATM   26  C17 UNL     1      18.302  47.340  21.311  1.00  0.00     0.078 C 
HETATM   27  C18 UNL     1      19.264  46.186  19.361  1.00  0.00     0.078 C 
HETATM   28  O5  UNL     1      18.729  44.960  21.370  1.00  0.00    -0.343 OA
HETATM   29  C20 UNL     1      18.802  43.967  23.594  1.00  0.00     0.219 C 
BRANCH  19  30
HETATM   30  C13 UNL     1      22.068  43.154  24.467  1.00  0.00     0.209 C 
HETATM   31  O2  UNL     1      22.003  41.941  24.720  1.00  0.00    -0.646 OA
HETATM   32  O3  UNL     1      23.159  43.922  24.861  1.00  0.00    -0.646 OA
ENDBRANCH  19  30
BRANCH  29  33
HETATM   33  O6  UNL     1      17.604  43.994  24.224  1.00  0.00    -0.361 OA
ATOM     34  H6  UNL     1      17.550  44.555  24.989  1.00  0.00     0.213 HD
ENDBRANCH  29  33
ENDBRANCH  16  17
ENDBRANCH   1  16
BRANCH   2  35
HETATM   35  O8  UNL     1      17.137  41.353  25.590  1.00  0.00    -0.391 OA
ATOM     36  H8  UNL     1      17.823  41.966  25.827  1.00  0.00     0.210 HD
ENDBRANCH   2  35
BRANCH   3  37
HETATM   37  C24 UNL     1      17.900  38.213  24.463  1.00  0.00     0.187 C 
HETATM   38  O9  UNL     1      16.802  37.776  24.868  1.00  0.00    -0.647 OA
HETATM   39  O10 UNL     1      18.757  37.218  23.950  1.00  0.00    -0.647 OA
ENDBRANCH   3  37
TORSDOF 11
ENDMDL
