MODEL 1
REMARK VINA RESULT: -8.537400542      0.000      0.000
REMARK  8 active torsions:
REMARK  status: ('A' for Active; 'I' for Inactive)
REMARK    1  A    between atoms: C2_2  and  C3_3 
REMARK    2  A    between atoms: C5_5  and  O1_6 
REMARK    3  A    between atoms: C9_11  and  C10_12 
REMARK    4  A    between atoms: C16_20  and  C18_22 
REMARK    5  A    between atoms: C18_22  and  C19_23 
REMARK    6  A    between atoms: C19_23  and  C20_24 
REMARK    7  A    between atoms: C20_24  and  O2_25 
REMARK    8  A    between atoms: O2_25  and  C21_26 
ROOT
HETATM    1  C3  UNL     1      16.476  14.897 -20.515  1.00  0.00     0.004 C 
HETATM    2  C4  UNL     1      17.640  15.767 -20.212  1.00  0.00     0.022 C 
HETATM    3  C5  UNL     1      16.148  15.089 -21.981  1.00  0.00     0.130 C 
HETATM    4  C6  UNL     1      16.207  16.521 -22.417  1.00  0.00     0.033 C 
HETATM    5  C7  UNL     1      15.339  17.471 -21.675  1.00  0.00     0.004 C 
HETATM    6  C8  UNL     1      14.210  16.753 -21.088  1.00  0.00     0.016 C 
HETATM    7  C9  UNL     1      14.384  16.162 -19.689  1.00  0.00     0.006 C 
HETATM    8  C12 UNL     1      12.972  15.914 -19.211  1.00  0.00     0.005 C 
HETATM    9  C13 UNL     1      12.749  16.204 -17.728  1.00  0.00     0.007 C 
HETATM   10  C14 UNL     1      11.365  15.673 -17.417  1.00  0.00     0.021 C 
HETATM   11  C15 UNL     1      10.431  15.661 -18.623  1.00  0.00     0.090 C 
HETATM   12 CL2  UNL     1       8.819  15.418 -17.960  1.00  0.00    -0.124 Cl
HETATM   13  C16 UNL     1      10.869  14.725 -19.681  1.00  0.00    -0.023 C 
HETATM   14  C17 UNL     1      10.687  15.494 -21.003  1.00  0.00     0.017 C 
HETATM   15  C23 UNL     1      12.396  14.572 -19.432  1.00  0.00     0.000 C 
HETATM   16  C24 UNL     1      13.093  13.733 -20.414  1.00  0.00     0.006 C 
HETATM   17  C25 UNL     1      14.533  13.649 -19.983  1.00  0.00     0.007 C 
HETATM   18  C26 UNL     1      15.241  14.951 -19.691  1.00  0.00     0.014 C 
ENDROOT
BRANCH  13  19
HETATM   19  C18 UNL     1      10.245  13.403 -19.740  1.00  0.00     0.013 C 
BRANCH  19  20
HETATM   20  C19 UNL     1       9.520  12.930 -20.932  1.00  0.00     0.028 C 
BRANCH  20  21
HETATM   21  C20 UNL     1      10.070  11.500 -21.204  1.00  0.00     0.178 C 
BRANCH  21  22
HETATM   22  O2  UNL     1       9.537  10.947 -22.372  1.00  0.00    -0.322 OA
BRANCH  22  23
HETATM   23  C21 UNL     1      10.136  10.889 -23.602  1.00  0.00     0.254 C 
HETATM   24  C22 UNL     1      10.584  12.136 -24.316  1.00  0.00     0.126 C 
HETATM   25  O3  UNL     1      10.329   9.791 -24.171  1.00  0.00    -0.266 OA
ENDBRANCH  22  23
ENDBRANCH  21  22
ENDBRANCH  20  21
ENDBRANCH  19  20
ENDBRANCH  13  19
BRANCH   7  26
HETATM   26  C10 UNL     1      14.852  17.286 -18.842  1.00  0.00     0.012 C 
HETATM   27  C11 UNL     1      15.800  17.320 -17.941  1.00  0.00     0.033 C 
HETATM   28 CL1  UNL     1      13.956  18.820 -19.031  1.00  0.00    -0.089 Cl
ENDBRANCH   7  26
BRANCH   1  29
HETATM   29  C2  UNL     1      17.051  13.537 -20.242  1.00  0.00    -0.025 C 
HETATM   30  C1  UNL     1      18.308  13.253 -20.051  1.00  0.00     0.008 C 
ENDBRANCH   1  29
BRANCH   3  31
HETATM   31  O1  UNL     1      16.980  14.396 -22.853  1.00  0.00    -0.394 OA
ATOM     32  H1  UNL     1      17.060  14.787 -23.715  1.00  0.00     0.210 HD
ENDBRANCH   3  31
TORSDOF 8
ENDMDL
MODEL 2
REMARK VINA RESULT: -7.688248983      1.274      1.540
REMARK  8 active torsions:
REMARK  status: ('A' for Active; 'I' for Inactive)
REMARK    1  A    between atoms: C2_2  and  C3_3 
REMARK    2  A    between atoms: C5_5  and  O1_6 
REMARK    3  A    between atoms: C9_11  and  C10_12 
REMARK    4  A    between atoms: C16_20  and  C18_22 
REMARK    5  A    between atoms: C18_22  and  C19_23 
REMARK    6  A    between atoms: C19_23  and  C20_24 
REMARK    7  A    between atoms: C20_24  and  O2_25 
REMARK    8  A    between atoms: O2_25  and  C21_26 
ROOT
HETATM    1  C3  UNL     1      17.124  14.762 -20.238  1.00  0.00     0.004 C 
HETATM    2  C4  UNL     1      18.041  15.689 -19.527  1.00  0.00     0.022 C 
HETATM    3  C5  UNL     1      17.259  15.054 -21.718  1.00  0.00     0.130 C 
HETATM    4  C6  UNL     1      17.309  16.518 -22.030  1.00  0.00     0.033 C 
HETATM    5  C7  UNL     1      16.162  17.332 -21.554  1.00  0.00     0.004 C 
HETATM    6  C8  UNL     1      14.982  16.482 -21.403  1.00  0.00     0.016 C 
HETATM    7  C9  UNL     1      14.764  15.789 -20.059  1.00  0.00     0.006 C 
HETATM    8  C12 UNL     1      13.306  15.394 -20.077  1.00  0.00     0.005 C 
HETATM    9  C13 UNL     1      12.599  15.538 -18.730  1.00  0.00     0.007 C 
HETATM   10  C14 UNL     1      11.247  14.879 -18.912  1.00  0.00     0.021 C 
HETATM   11  C15 UNL     1      10.747  14.899 -20.353  1.00  0.00     0.090 C 
HETATM   12 CL2  UNL     1       9.041  14.479 -20.260  1.00  0.00    -0.124 Cl
HETATM   13  C16 UNL     1      11.587  14.094 -21.265  1.00  0.00    -0.023 C 
HETATM   14  C17 UNL     1      11.757  14.957 -22.529  1.00  0.00     0.017 C 
HETATM   15  C23 UNL     1      12.965  14.036 -20.547  1.00  0.00     0.000 C 
HETATM   16  C24 UNL     1      14.016  13.340 -21.299  1.00  0.00     0.006 C 
HETATM   17  C25 UNL     1      15.248  13.329 -20.432  1.00  0.00     0.007 C 
HETATM   18  C26 UNL     1      15.694  14.652 -19.854  1.00  0.00     0.014 C 
ENDROOT
BRANCH  13  19
HETATM   19  C18 UNL     1      11.149  12.738 -21.598  1.00  0.00     0.013 C 
BRANCH  19  20
HETATM   20  C19 UNL     1      10.309  12.450 -22.774  1.00  0.00     0.028 C 
BRANCH  20  21
HETATM   21  C20 UNL     1      10.765  11.047 -23.269  1.00  0.00     0.178 C 
BRANCH  21  22
HETATM   22  O2  UNL     1      10.323  10.780 -24.567  1.00  0.00    -0.322 OA
BRANCH  22  23
HETATM   23  C21 UNL     1      10.932  11.153 -25.736  1.00  0.00     0.254 C 
HETATM   24  C22 UNL     1      10.658  12.490 -26.370  1.00  0.00     0.126 C 
HETATM   25  O3  UNL     1      11.737  10.389 -26.312  1.00  0.00    -0.266 OA
ENDBRANCH  22  23
ENDBRANCH  21  22
ENDBRANCH  20  21
ENDBRANCH  19  20
ENDBRANCH  13  19
BRANCH   7  26
HETATM   26  C10 UNL     1      14.827  16.868 -19.044  1.00  0.00     0.012 C 
HETATM   27  C11 UNL     1      15.391  16.879 -17.864  1.00  0.00     0.033 C 
HETATM   28 CL1  UNL     1      13.955  18.371 -19.460  1.00  0.00    -0.089 Cl
ENDBRANCH   7  26
BRANCH   1  29
HETATM   29  C2  UNL     1      17.717  13.431 -19.872  1.00  0.00    -0.025 C 
HETATM   30  C1  UNL     1      18.959  13.198 -19.558  1.00  0.00     0.008 C 
ENDBRANCH   1  29
BRANCH   3  31
HETATM   31  O1  UNL     1      18.388  14.503 -22.314  1.00  0.00    -0.394 OA
ATOM     32  H1  UNL     1      18.324  14.395 -23.256  1.00  0.00     0.210 HD
ENDBRANCH   3  31
TORSDOF 8
ENDMDL
MODEL 3
REMARK VINA RESULT: -7.685058817      2.019      3.016
REMARK  8 active torsions:
REMARK  status: ('A' for Active; 'I' for Inactive)
REMARK    1  A    between atoms: C2_2  and  C3_3 
REMARK    2  A    between atoms: C5_5  and  O1_6 
REMARK    3  A    between atoms: C9_11  and  C10_12 
REMARK    4  A    between atoms: C16_20  and  C18_22 
REMARK    5  A    between atoms: C18_22  and  C19_23 
REMARK    6  A    between atoms: C19_23  and  C20_24 
REMARK    7  A    between atoms: C20_24  and  O2_25 
REMARK    8  A    between atoms: O2_25  and  C21_26 
ROOT
HETATM    1  C3  UNL     1      14.480  16.211 -21.491  1.00  0.00     0.004 C 
HETATM    2  C4  UNL     1      15.233  17.266 -20.768  1.00  0.00     0.022 C 
HETATM    3  C5  UNL     1      13.404  16.908 -22.297  1.00  0.00     0.130 C 
HETATM    4  C6  UNL     1      12.714  18.002 -21.541  1.00  0.00     0.033 C 
HETATM    5  C7  UNL     1      12.078  17.614 -20.256  1.00  0.00     0.004 C 
HETATM    6  C8  UNL     1      11.754  16.189 -20.276  1.00  0.00     0.016 C 
HETATM    7  C9  UNL     1      12.818  15.205 -19.793  1.00  0.00     0.006 C 
HETATM    8  C12 UNL     1      12.050  13.935 -19.511  1.00  0.00     0.005 C 
HETATM    9  C13 UNL     1      12.533  13.166 -18.282  1.00  0.00     0.007 C 
HETATM   10  C14 UNL     1      11.801  11.841 -18.322  1.00  0.00     0.021 C 
HETATM   11  C15 UNL     1      10.458  11.907 -19.042  1.00  0.00     0.090 C 
HETATM   12 CL2  UNL     1       9.626  10.417 -18.611  1.00  0.00    -0.124 Cl
HETATM   13  C16 UNL     1      10.591  12.208 -20.483  1.00  0.00    -0.023 C 
HETATM   14  C17 UNL     1       9.497  13.249 -20.783  1.00  0.00     0.017 C 
HETATM   15  C23 UNL     1      11.966  12.926 -20.586  1.00  0.00     0.000 C 
HETATM   16  C24 UNL     1      12.306  13.402 -21.933  1.00  0.00     0.006 C 
HETATM   17  C25 UNL     1      13.682  14.010 -21.854  1.00  0.00     0.007 C 
HETATM   18  C26 UNL     1      13.919  15.038 -20.773  1.00  0.00     0.014 C 
ENDROOT
BRANCH  13  19
HETATM   19  C18 UNL     1      10.546  11.094 -21.432  1.00  0.00     0.013 C 
BRANCH  19  20
HETATM   20  C19 UNL     1       9.610  11.069 -22.569  1.00  0.00     0.028 C 
BRANCH  20  21
HETATM   21  C20 UNL     1      10.466  10.637 -23.794  1.00  0.00     0.178 C 
BRANCH  21  22
HETATM   22  O2  UNL     1      10.490  11.618 -24.789  1.00  0.00    -0.322 OA
BRANCH  22  23
HETATM   23  C21 UNL     1      10.962  11.481 -26.067  1.00  0.00     0.254 C 
HETATM   24  C22 UNL     1      10.548  12.428 -27.162  1.00  0.00     0.126 C 
HETATM   25  O3  UNL     1      11.756  10.560 -26.363  1.00  0.00    -0.266 OA
ENDBRANCH  22  23
ENDBRANCH  21  22
ENDBRANCH  20  21
ENDBRANCH  19  20
ENDBRANCH  13  19
BRANCH   7  26
HETATM   26  C10 UNL     1      13.217  15.684 -18.447  1.00  0.00     0.012 C 
HETATM   27  C11 UNL     1      14.408  15.812 -17.920  1.00  0.00     0.033 C 
HETATM   28 CL1  UNL     1      11.872  16.101 -17.347  1.00  0.00    -0.089 Cl
ENDBRANCH   7  26
BRANCH   1  29
HETATM   29  C2  UNL     1      15.555  15.636 -22.369  1.00  0.00    -0.025 C 
HETATM   30  C1  UNL     1      16.834  15.633 -22.123  1.00  0.00     0.008 C 
ENDBRANCH   1  29
BRANCH   3  31
HETATM   31  O1  UNL     1      13.854  17.490 -23.477  1.00  0.00    -0.394 OA
ATOM     32  H1  UNL     1      13.941  18.436 -23.440  1.00  0.00     0.210 HD
ENDBRANCH   3  31
TORSDOF 8
ENDMDL
MODEL 4
REMARK VINA RESULT: -7.389042310      3.479      6.553
REMARK  8 active torsions:
REMARK  status: ('A' for Active; 'I' for Inactive)
REMARK    1  A    between atoms: C2_2  and  C3_3 
REMARK    2  A    between atoms: C5_5  and  O1_6 
REMARK    3  A    between atoms: C9_11  and  C10_12 
REMARK    4  A    between atoms: C16_20  and  C18_22 
REMARK    5  A    between atoms: C18_22  and  C19_23 
REMARK    6  A    between atoms: C19_23  and  C20_24 
REMARK    7  A    between atoms: C20_24  and  O2_25 
REMARK    8  A    between atoms: O2_25  and  C21_26 
ROOT
HETATM    1  C3  UNL     1      10.634  12.026 -20.597  1.00  0.00     0.004 C 
HETATM    2  C4  UNL     1      11.444  10.942 -21.209  1.00  0.00     0.022 C 
HETATM    3  C5  UNL     1       9.803  12.639 -21.705  1.00  0.00     0.130 C 
HETATM    4  C6  UNL     1      10.569  12.838 -22.977  1.00  0.00     0.033 C 
HETATM    5  C7  UNL     1      11.799  13.664 -22.882  1.00  0.00     0.004 C 
HETATM    6  C8  UNL     1      11.699  14.569 -21.739  1.00  0.00     0.016 C 
HETATM    7  C9  UNL     1      12.194  14.070 -20.382  1.00  0.00     0.006 C 
HETATM    8  C12 UNL     1      12.378  15.328 -19.567  1.00  0.00     0.005 C 
HETATM    9  C13 UNL     1      13.596  15.309 -18.645  1.00  0.00     0.007 C 
HETATM   10  C14 UNL     1      13.458  16.536 -17.768  1.00  0.00     0.021 C 
HETATM   11  C15 UNL     1      12.670  17.667 -18.422  1.00  0.00     0.090 C 
HETATM   12 CL2  UNL     1      12.989  19.088 -17.433  1.00  0.00    -0.124 Cl
HETATM   13  C16 UNL     1      11.253  17.319 -18.659  1.00  0.00    -0.023 C 
HETATM   14  C17 UNL     1      10.941  17.834 -20.076  1.00  0.00     0.017 C 
HETATM   15  C23 UNL     1      11.256  15.766 -18.713  1.00  0.00     0.000 C 
HETATM   16  C24 UNL     1       9.952  15.163 -19.016  1.00  0.00     0.006 C 
HETATM   17  C25 UNL     1      10.132  13.669 -18.966  1.00  0.00     0.007 C 
HETATM   18  C26 UNL     1      11.269  13.085 -19.771  1.00  0.00     0.014 C 
ENDROOT
BRANCH  13  19
HETATM   19  C18 UNL     1      10.255  17.777 -17.691  1.00  0.00     0.013 C 
BRANCH  19  20
HETATM   20  C19 UNL     1       9.897  16.987 -16.500  1.00  0.00     0.028 C 
BRANCH  20  21
HETATM   21  C20 UNL     1       8.346  17.070 -16.405  1.00  0.00     0.178 C 
BRANCH  21  22
HETATM   22  O2  UNL     1       7.867  16.564 -15.194  1.00  0.00    -0.322 OA
BRANCH  22  23
HETATM   23  C21 UNL     1       7.778  17.231 -14.001  1.00  0.00     0.254 C 
HETATM   24  C22 UNL     1       6.717  18.271 -13.761  1.00  0.00     0.126 C 
HETATM   25  O3  UNL     1       8.582  16.994 -13.072  1.00  0.00    -0.266 OA
ENDBRANCH  22  23
ENDBRANCH  21  22
ENDBRANCH  20  21
ENDBRANCH  19  20
ENDBRANCH  13  19
BRANCH   7  26
HETATM   26  C10 UNL     1      13.580  13.596 -20.619  1.00  0.00     0.012 C 
HETATM   27  C11 UNL     1      14.193  12.534 -20.164  1.00  0.00     0.033 C 
HETATM   28 CL1  UNL     1      14.595  14.657 -21.636  1.00  0.00    -0.089 Cl
ENDBRANCH   7  26
BRANCH   1  29
HETATM   29  C2  UNL     1       9.791  11.247 -19.627  1.00  0.00    -0.025 C 
HETATM   30  C1  UNL     1      10.199  10.689 -18.524  1.00  0.00     0.008 C 
ENDBRANCH   1  29
BRANCH   3  31
HETATM   31  O1  UNL     1       8.677  11.902 -22.054  1.00  0.00    -0.394 OA
ATOM     32  H1  UNL     1       7.927  12.034 -21.485  1.00  0.00     0.210 HD
ENDBRANCH   3  31
TORSDOF 8
ENDMDL
MODEL 5
REMARK VINA RESULT: -7.321213588      2.051      3.344
REMARK  8 active torsions:
REMARK  status: ('A' for Active; 'I' for Inactive)
REMARK    1  A    between atoms: C2_2  and  C3_3 
REMARK    2  A    between atoms: C5_5  and  O1_6 
REMARK    3  A    between atoms: C9_11  and  C10_12 
REMARK    4  A    between atoms: C16_20  and  C18_22 
REMARK    5  A    between atoms: C18_22  and  C19_23 
REMARK    6  A    between atoms: C19_23  and  C20_24 
REMARK    7  A    between atoms: C20_24  and  O2_25 
REMARK    8  A    between atoms: O2_25  and  C21_26 
ROOT
HETATM    1  C3  UNL     1      14.969  16.705 -19.790  1.00  0.00     0.004 C 
HETATM    2  C4  UNL     1      15.391  17.246 -18.473  1.00  0.00     0.022 C 
HETATM    3  C5  UNL     1      14.355  17.852 -20.565  1.00  0.00     0.130 C 
HETATM    4  C6  UNL     1      13.455  18.712 -19.732  1.00  0.00     0.033 C 
HETATM    5  C7  UNL     1      12.326  18.024 -19.056  1.00  0.00     0.004 C 
HETATM    6  C8  UNL     1      11.987  16.802 -19.784  1.00  0.00     0.016 C 
HETATM    7  C9  UNL     1      12.714  15.513 -19.401  1.00  0.00     0.006 C 
HETATM    8  C12 UNL     1      11.851  14.415 -19.975  1.00  0.00     0.005 C 
HETATM    9  C13 UNL     1      11.747  13.170 -19.095  1.00  0.00     0.007 C 
HETATM   10  C14 UNL     1      11.050  12.130 -19.947  1.00  0.00     0.021 C 
HETATM   11  C15 UNL     1      10.133  12.727 -21.010  1.00  0.00     0.090 C 
HETATM   12 CL2  UNL     1       9.142  11.387 -21.575  1.00  0.00    -0.124 Cl
HETATM   13  C16 UNL     1      10.868  13.497 -22.036  1.00  0.00    -0.023 C 
HETATM   14  C17 UNL     1      10.039  14.777 -22.254  1.00  0.00     0.017 C 
HETATM   15  C23 UNL     1      12.185  13.907 -21.321  1.00  0.00     0.000 C 
HETATM   16  C24 UNL     1      13.075  14.758 -22.120  1.00  0.00     0.006 C 
HETATM   17  C25 UNL     1      14.313  15.000 -21.299  1.00  0.00     0.007 C 
HETATM   18  C26 UNL     1      14.117  15.493 -19.884  1.00  0.00     0.014 C 
ENDROOT
BRANCH  13  19
HETATM   19  C18 UNL     1      11.181  12.839 -23.306  1.00  0.00     0.013 C 
BRANCH  19  20
HETATM   20  C19 UNL     1      11.156  13.560 -24.590  1.00  0.00     0.028 C 
BRANCH  20  21
HETATM   21  C20 UNL     1      10.463  12.590 -25.591  1.00  0.00     0.178 C 
BRANCH  21  22
HETATM   22  O2  UNL     1      11.302  11.538 -25.967  1.00  0.00    -0.322 OA
BRANCH  22  23
HETATM   23  C21 UNL     1      11.120  10.206 -25.706  1.00  0.00     0.254 C 
HETATM   24  C22 UNL     1      10.330   9.742 -24.511  1.00  0.00     0.126 C 
HETATM   25  O3  UNL     1      11.609   9.332 -26.457  1.00  0.00    -0.266 OA
ENDBRANCH  22  23
ENDBRANCH  21  22
ENDBRANCH  20  21
ENDBRANCH  19  20
ENDBRANCH  13  19
BRANCH   7  26
HETATM   26  C10 UNL     1      12.532  15.378 -17.935  1.00  0.00     0.012 C 
HETATM   27  C11 UNL     1      13.340  14.889 -17.031  1.00  0.00     0.033 C 
HETATM   28 CL1  UNL     1      10.948  15.910 -17.302  1.00  0.00    -0.089 Cl
ENDBRANCH   7  26
BRANCH   1  29
HETATM   29  C2  UNL     1      16.290  16.281 -20.366  1.00  0.00    -0.025 C 
HETATM   30  C1  UNL     1      17.342  15.906 -19.695  1.00  0.00     0.008 C 
ENDBRANCH   1  29
BRANCH   3  31
HETATM   31  O1  UNL     1      15.278  18.718 -21.140  1.00  0.00    -0.394 OA
ATOM     32  H1  UNL     1      15.279  18.718 -22.091  1.00  0.00     0.210 HD
ENDBRANCH   3  31
TORSDOF 8
ENDMDL
