MODEL 1
REMARK VINA RESULT: -9.253410806      0.000      0.000
REMARK  7 active torsions:
REMARK  status: ('A' for Active; 'I' for Inactive)
REMARK    1  A    between atoms: C3_4  and  C4_5 
REMARK    2  A    between atoms: C4_5  and  O2_7 
REMARK    3  A    between atoms: O2_7  and  C5_8 
REMARK    4  A    between atoms: C14_17  and  C15_18 
REMARK    5  A    between atoms: C15_18  and  C16_19 
REMARK    6  A    between atoms: C16_19  and  C17_20 
REMARK    7  A    between atoms: C25_29  and  O3_31 
ROOT
HETATM    1  C5  UNL     1      15.288  15.833 -19.446  1.00  0.00     0.166 C 
HETATM    2  C6  UNL     1      14.674  16.929 -18.663  1.00  0.00     0.036 C 
HETATM    3  C7  UNL     1      13.278  16.714 -18.184  1.00  0.00     0.008 C 
HETATM    4  C8  UNL     1      12.547  15.934 -19.209  1.00  0.00    -0.003 C 
HETATM    5  C9  UNL     1      11.087  15.959 -18.904  1.00  0.00     0.006 C 
HETATM    6  C10 UNL     1      10.458  15.536 -20.244  1.00  0.00     0.006 C 
HETATM    7  C11 UNL     1      10.762  14.074 -20.293  1.00  0.00    -0.005 C 
HETATM    8  C12 UNL     1      10.009  13.474 -21.427  1.00  0.00    -0.001 C 
HETATM    9  C13 UNL     1      10.597  13.519 -22.788  1.00  0.00     0.011 C 
HETATM   10  C14 UNL     1      10.921  12.028 -22.698  1.00  0.00    -0.006 C 
HETATM   11  C18 UNL     1      10.188  11.986 -21.414  1.00  0.00    -0.036 C 
HETATM   12  C19 UNL     1       8.809  11.318 -21.455  1.00  0.00     0.016 C 
HETATM   13  C20 UNL     1      10.894  11.546 -20.192  1.00  0.00     0.010 C 
HETATM   14  C21 UNL     1      12.224  12.219 -19.927  1.00  0.00     0.007 C 
HETATM   15  C22 UNL     1      12.207  13.698 -20.268  1.00  0.00     0.001 C 
HETATM   16  C23 UNL     1      13.105  14.548 -19.457  1.00  0.00    -0.003 C 
HETATM   17  C24 UNL     1      13.476  13.870 -18.146  1.00  0.00     0.019 C 
HETATM   18  C25 UNL     1      14.435  14.864 -20.147  1.00  0.00     0.089 C 
HETATM   19  C26 UNL     1      15.261  13.667 -20.477  1.00  0.00     0.049 C 
ENDROOT
BRANCH   1  20
HETATM   20  O2  UNL     1      16.256  15.208 -18.611  1.00  0.00    -0.310 OA
BRANCH  20  21
HETATM   21  C4  UNL     1      17.608  15.392 -18.685  1.00  0.00     0.284 C 
HETATM   22  O1  UNL     1      18.058  16.428 -18.089  1.00  0.00    -0.260 OA
BRANCH  21  23
HETATM   23  C3  UNL     1      18.563  14.545 -19.358  1.00  0.00     0.101 C 
HETATM   24  C2  UNL     1      18.850  14.595 -20.641  1.00  0.00     0.013 C 
HETATM   25  C1  UNL     1      18.164  15.584 -21.504  1.00  0.00     0.062 C 
HETATM   26 CL1  UNL     1      20.035  13.493 -21.293  1.00  0.00    -0.089 Cl
ENDBRANCH  21  23
ENDBRANCH  20  21
ENDBRANCH   1  20
BRANCH  18  27
HETATM   27  O3  UNL     1      14.028  15.399 -21.400  1.00  0.00    -0.387 OA
ATOM     28  H3  UNL     1      14.716  15.272 -22.042  1.00  0.00     0.210 HD
ENDBRANCH  18  27
BRANCH  10  29
HETATM   29  C15 UNL     1      10.352  11.319 -23.878  1.00  0.00     0.006 C 
BRANCH  29  30
HETATM   30  C16 UNL     1      11.185  10.142 -24.325  1.00  0.00     0.015 C 
BRANCH  30  31
HETATM   31  C17 UNL     1      11.265  10.080 -25.846  1.00  0.00     0.114 C 
HETATM   32 CL2  UNL     1      11.201  11.690 -26.564  1.00  0.00    -0.130 Cl
ENDBRANCH  30  31
ENDBRANCH  29  30
ENDBRANCH  10  29
TORSDOF 7
ENDMDL
MODEL 2
REMARK VINA RESULT: -8.310053170      2.015      7.248
REMARK  7 active torsions:
REMARK  status: ('A' for Active; 'I' for Inactive)
REMARK    1  A    between atoms: C3_4  and  C4_5 
REMARK    2  A    between atoms: C4_5  and  O2_7 
REMARK    3  A    between atoms: O2_7  and  C5_8 
REMARK    4  A    between atoms: C14_17  and  C15_18 
REMARK    5  A    between atoms: C15_18  and  C16_19 
REMARK    6  A    between atoms: C16_19  and  C17_20 
REMARK    7  A    between atoms: C25_29  and  O3_31 
ROOT
HETATM    1  C5  UNL     1      10.954  12.756 -19.994  1.00  0.00     0.166 C 
HETATM    2  C6  UNL     1       9.897  13.764 -20.237  1.00  0.00     0.036 C 
HETATM    3  C7  UNL     1      10.306  15.010 -20.947  1.00  0.00     0.008 C 
HETATM    4  C8  UNL     1      11.684  15.357 -20.526  1.00  0.00    -0.003 C 
HETATM    5  C9  UNL     1      12.007  16.741 -20.980  1.00  0.00     0.006 C 
HETATM    6  C10 UNL     1      13.218  17.105 -20.103  1.00  0.00     0.006 C 
HETATM    7  C11 UNL     1      14.313  16.292 -20.714  1.00  0.00    -0.005 C 
HETATM    8  C12 UNL     1      15.607  16.717 -20.117  1.00  0.00    -0.001 C 
HETATM    9  C13 UNL     1      16.042  16.117 -18.833  1.00  0.00     0.011 C 
HETATM   10  C14 UNL     1      17.084  15.281 -19.577  1.00  0.00    -0.006 C 
HETATM   11  C18 UNL     1      16.733  16.014 -20.813  1.00  0.00    -0.036 C 
HETATM   12  C19 UNL     1      17.755  17.055 -21.283  1.00  0.00     0.016 C 
HETATM   13  C20 UNL     1      16.245  15.261 -21.987  1.00  0.00     0.010 C 
HETATM   14  C21 UNL     1      15.125  14.280 -21.715  1.00  0.00     0.007 C 
HETATM   15  C22 UNL     1      14.113  14.811 -20.717  1.00  0.00     0.001 C 
HETATM   16  C23 UNL     1      12.728  14.324 -20.894  1.00  0.00    -0.003 C 
HETATM   17  C24 UNL     1      12.501  13.801 -22.306  1.00  0.00     0.019 C 
HETATM   18  C25 UNL     1      12.365  13.165 -19.963  1.00  0.00     0.089 C 
HETATM   19  C26 UNL     1      13.208  11.946 -20.133  1.00  0.00     0.049 C 
ENDROOT
BRANCH   1  20
HETATM   20  O2  UNL     1      10.717  11.672 -20.885  1.00  0.00    -0.310 OA
BRANCH  20  21
HETATM   21  C4  UNL     1       9.864  11.691 -21.952  1.00  0.00     0.284 C 
HETATM   22  O1  UNL     1       8.702  11.202 -21.740  1.00  0.00    -0.260 OA
BRANCH  21  23
HETATM   23  C3  UNL     1      10.138  12.202 -23.274  1.00  0.00     0.101 C 
HETATM   24  C2  UNL     1      10.443  11.468 -24.322  1.00  0.00     0.013 C 
HETATM   25  C1  UNL     1      10.523   9.996 -24.185  1.00  0.00     0.062 C 
HETATM   26 CL1  UNL     1      10.746  12.253 -25.851  1.00  0.00    -0.089 Cl
ENDBRANCH  21  23
ENDBRANCH  20  21
ENDBRANCH   1  20
BRANCH  18  27
HETATM   27  O3  UNL     1      12.690  13.672 -18.676  1.00  0.00    -0.387 OA
ATOM     28  H3  UNL     1      12.235  14.493 -18.529  1.00  0.00     0.210 HD
ENDBRANCH  18  27
BRANCH  10  29
HETATM   29  C15 UNL     1      18.426  15.494 -18.967  1.00  0.00     0.006 C 
BRANCH  29  30
HETATM   30  C16 UNL     1      19.281  14.250 -18.957  1.00  0.00     0.015 C 
BRANCH  30  31
HETATM   31  C17 UNL     1      18.787  13.243 -19.989  1.00  0.00     0.114 C 
HETATM   32 CL2  UNL     1      19.549  13.497 -21.559  1.00  0.00    -0.130 Cl
ENDBRANCH  30  31
ENDBRANCH  29  30
ENDBRANCH  10  29
TORSDOF 7
ENDMDL
MODEL 3
REMARK VINA RESULT: -8.089845290      2.008      7.255
REMARK  7 active torsions:
REMARK  status: ('A' for Active; 'I' for Inactive)
REMARK    1  A    between atoms: C3_4  and  C4_5 
REMARK    2  A    between atoms: C4_5  and  O2_7 
REMARK    3  A    between atoms: O2_7  and  C5_8 
REMARK    4  A    between atoms: C14_17  and  C15_18 
REMARK    5  A    between atoms: C15_18  and  C16_19 
REMARK    6  A    between atoms: C16_19  and  C17_20 
REMARK    7  A    between atoms: C25_29  and  O3_31 
ROOT
HETATM    1  C5  UNL     1      10.756  13.657 -20.503  1.00  0.00     0.166 C 
HETATM    2  C6  UNL     1       9.923  14.867 -20.322  1.00  0.00     0.036 C 
HETATM    3  C7  UNL     1      10.554  16.176 -20.659  1.00  0.00     0.008 C 
HETATM    4  C8  UNL     1      11.989  16.109 -20.295  1.00  0.00    -0.003 C 
HETATM    5  C9  UNL     1      12.575  17.480 -20.339  1.00  0.00     0.006 C 
HETATM    6  C10 UNL     1      13.868  17.317 -19.520  1.00  0.00     0.006 C 
HETATM    7  C11 UNL     1      14.746  16.551 -20.455  1.00  0.00    -0.005 C 
HETATM    8  C12 UNL     1      16.121  16.518 -19.892  1.00  0.00    -0.001 C 
HETATM    9  C13 UNL     1      16.471  15.472 -18.900  1.00  0.00     0.011 C 
HETATM   10  C14 UNL     1      17.287  14.737 -19.963  1.00  0.00    -0.006 C 
HETATM   11  C18 UNL     1      17.050  15.875 -20.877  1.00  0.00    -0.036 C 
HETATM   12  C19 UNL     1      18.248  16.803 -21.111  1.00  0.00     0.016 C 
HETATM   13  C20 UNL     1      16.373  15.636 -22.168  1.00  0.00     0.010 C 
HETATM   14  C21 UNL     1      15.084  14.845 -22.095  1.00  0.00     0.007 C 
HETATM   15  C22 UNL     1      14.243  15.212 -20.886  1.00  0.00     0.001 C 
HETATM   16  C23 UNL     1      12.782  15.072 -21.061  1.00  0.00    -0.003 C 
HETATM   17  C24 UNL     1      12.397  15.074 -22.534  1.00  0.00     0.019 C 
HETATM   18  C25 UNL     1      12.221  13.765 -20.492  1.00  0.00     0.089 C 
HETATM   19  C26 UNL     1      12.785  12.529 -21.107  1.00  0.00     0.049 C 
ENDROOT
BRANCH   1  20
HETATM   20  O2  UNL     1      10.265  12.974 -21.652  1.00  0.00    -0.310 OA
BRANCH  20  21
HETATM   21  C4  UNL     1       9.812  11.685 -21.677  1.00  0.00     0.284 C 
HETATM   22  O1  UNL     1       9.171  11.304 -20.639  1.00  0.00    -0.260 OA
BRANCH  21  23
HETATM   23  C3  UNL     1       9.980  10.727 -22.742  1.00  0.00     0.101 C 
HETATM   24  C2  UNL     1      10.317  11.020 -23.980  1.00  0.00     0.013 C 
HETATM   25  C1  UNL     1      10.552  12.432 -24.357  1.00  0.00     0.062 C 
HETATM   26 CL1  UNL     1      10.478   9.732 -25.146  1.00  0.00    -0.089 Cl
ENDBRANCH  21  23
ENDBRANCH  20  21
ENDBRANCH   1  20
BRANCH  18  27
HETATM   27  O3  UNL     1      12.693  13.770 -19.151  1.00  0.00    -0.387 OA
ATOM     28  H3  UNL     1      12.779  14.665 -18.844  1.00  0.00     0.210 HD
ENDBRANCH  18  27
BRANCH  10  29
HETATM   29  C15 UNL     1      18.667  14.494 -19.455  1.00  0.00     0.006 C 
BRANCH  29  30
HETATM   30  C16 UNL     1      19.289  13.231 -20.001  1.00  0.00     0.015 C 
BRANCH  30  31
HETATM   31  C17 UNL     1      19.530  13.348 -21.501  1.00  0.00     0.114 C 
HETATM   32 CL2  UNL     1      21.177  12.887 -21.931  1.00  0.00    -0.130 Cl
ENDBRANCH  30  31
ENDBRANCH  29  30
ENDBRANCH  10  29
TORSDOF 7
ENDMDL
MODEL 4
REMARK VINA RESULT: -8.089510303      3.765      7.608
REMARK  7 active torsions:
REMARK  status: ('A' for Active; 'I' for Inactive)
REMARK    1  A    between atoms: C3_4  and  C4_5 
REMARK    2  A    between atoms: C4_5  and  O2_7 
REMARK    3  A    between atoms: O2_7  and  C5_8 
REMARK    4  A    between atoms: C14_17  and  C15_18 
REMARK    5  A    between atoms: C15_18  and  C16_19 
REMARK    6  A    between atoms: C16_19  and  C17_20 
REMARK    7  A    between atoms: C25_29  and  O3_31 
ROOT
HETATM    1  C5  UNL     1      11.632  17.045 -18.141  1.00  0.00     0.166 C 
HETATM    2  C6  UNL     1      10.731  17.678 -19.131  1.00  0.00     0.036 C 
HETATM    3  C7  UNL     1      10.877  17.242 -20.549  1.00  0.00     0.008 C 
HETATM    4  C8  UNL     1      12.309  16.964 -20.808  1.00  0.00    -0.003 C 
HETATM    5  C9  UNL     1      12.528  16.818 -22.276  1.00  0.00     0.006 C 
HETATM    6  C10 UNL     1      14.052  17.001 -22.407  1.00  0.00     0.006 C 
HETATM    7  C11 UNL     1      14.577  15.712 -21.862  1.00  0.00    -0.005 C 
HETATM    8  C12 UNL     1      16.037  15.643 -22.139  1.00  0.00    -0.001 C 
HETATM    9  C13 UNL     1      16.982  16.287 -21.196  1.00  0.00     0.011 C 
HETATM   10  C14 UNL     1      17.393  14.913 -20.668  1.00  0.00    -0.006 C 
HETATM   11  C18 UNL     1      16.561  14.301 -21.727  1.00  0.00    -0.036 C 
HETATM   12  C19 UNL     1      17.326  13.682 -22.902  1.00  0.00     0.016 C 
HETATM   13  C20 UNL     1      15.458  13.394 -21.346  1.00  0.00     0.010 C 
HETATM   14  C21 UNL     1      14.516  13.919 -20.284  1.00  0.00     0.007 C 
HETATM   15  C22 UNL     1      14.221  15.399 -20.446  1.00  0.00     0.001 C 
HETATM   16  C23 UNL     1      12.888  15.837 -19.979  1.00  0.00    -0.003 C 
HETATM   17  C24 UNL     1      11.917  14.668 -19.900  1.00  0.00     0.019 C 
HETATM   18  C25 UNL     1      12.904  16.453 -18.578  1.00  0.00     0.089 C 
HETATM   19  C26 UNL     1      13.387  15.538 -17.504  1.00  0.00     0.049 C 
ENDROOT
BRANCH   1  20
HETATM   20  O2  UNL     1      10.845  16.144 -17.369  1.00  0.00    -0.310 OA
BRANCH  20  21
HETATM   21  C4  UNL     1       9.525  16.309 -17.057  1.00  0.00     0.284 C 
HETATM   22  O1  UNL     1       8.694  15.780 -17.872  1.00  0.00    -0.260 OA
BRANCH  21  23
HETATM   23  C3  UNL     1       8.983  17.007 -15.916  1.00  0.00     0.101 C 
HETATM   24  C2  UNL     1       7.730  16.955 -15.520  1.00  0.00     0.013 C 
HETATM   25  C1  UNL     1       6.760  16.126 -16.272  1.00  0.00     0.062 C 
HETATM   26 CL1  UNL     1       7.242  17.866 -14.114  1.00  0.00    -0.089 Cl
ENDBRANCH  21  23
ENDBRANCH  20  21
ENDBRANCH   1  20
BRANCH  18  27
HETATM   27  O3  UNL     1      13.894  17.467 -18.684  1.00  0.00    -0.387 OA
ATOM     28  H3  UNL     1      14.752  17.070 -18.781  1.00  0.00     0.210 HD
ENDBRANCH  18  27
BRANCH  10  29
HETATM   29  C15 UNL     1      18.874  14.770 -20.741  1.00  0.00     0.006 C 
BRANCH  29  30
HETATM   30  C16 UNL     1      19.429  13.791 -19.734  1.00  0.00     0.015 C 
BRANCH  30  31
HETATM   31  C17 UNL     1      19.831  14.505 -18.448  1.00  0.00     0.114 C 
HETATM   32 CL2  UNL     1      18.642  15.723 -17.984  1.00  0.00    -0.130 Cl
ENDBRANCH  30  31
ENDBRANCH  29  30
ENDBRANCH  10  29
TORSDOF 7
ENDMDL
MODEL 5
REMARK VINA RESULT: -8.015638084      1.287      1.641
REMARK  7 active torsions:
REMARK  status: ('A' for Active; 'I' for Inactive)
REMARK    1  A    between atoms: C3_4  and  C4_5 
REMARK    2  A    between atoms: C4_5  and  O2_7 
REMARK    3  A    between atoms: O2_7  and  C5_8 
REMARK    4  A    between atoms: C14_17  and  C15_18 
REMARK    5  A    between atoms: C15_18  and  C16_19 
REMARK    6  A    between atoms: C16_19  and  C17_20 
REMARK    7  A    between atoms: C25_29  and  O3_31 
ROOT
HETATM    1  C5  UNL     1      14.568  17.033 -20.154  1.00  0.00     0.166 C 
HETATM    2  C6  UNL     1      14.043  17.991 -19.155  1.00  0.00     0.036 C 
HETATM    3  C7  UNL     1      13.072  17.459 -18.157  1.00  0.00     0.008 C 
HETATM    4  C8  UNL     1      12.236  16.431 -18.821  1.00  0.00    -0.003 C 
HETATM    5  C9  UNL     1      11.074  16.099 -17.947  1.00  0.00     0.006 C 
HETATM    6  C10 UNL     1      10.103  15.415 -18.928  1.00  0.00     0.006 C 
HETATM    7  C11 UNL     1      10.749  14.085 -19.142  1.00  0.00    -0.005 C 
HETATM    8  C12 UNL     1       9.802  13.215 -19.890  1.00  0.00    -0.001 C 
HETATM    9  C13 UNL     1       9.761  13.298 -21.370  1.00  0.00     0.011 C 
HETATM   10  C14 UNL     1      10.488  11.957 -21.465  1.00  0.00    -0.006 C 
HETATM   11  C18 UNL     1      10.371  11.832 -19.997  1.00  0.00    -0.036 C 
HETATM   12  C19 UNL     1       9.330  10.826 -19.494  1.00  0.00     0.016 C 
HETATM   13  C20 UNL     1      11.596  11.697 -19.182  1.00  0.00     0.010 C 
HETATM   14  C21 UNL     1      12.682  12.715 -19.459  1.00  0.00     0.007 C 
HETATM   15  C22 UNL     1      12.127  14.104 -19.719  1.00  0.00     0.001 C 
HETATM   16  C23 UNL     1      13.004  15.224 -19.317  1.00  0.00    -0.003 C 
HETATM   17  C24 UNL     1      14.037  14.780 -18.291  1.00  0.00     0.019 C 
HETATM   18  C25 UNL     1      13.806  15.819 -20.478  1.00  0.00     0.089 C 
HETATM   19  C26 UNL     1      14.725  14.856 -21.152  1.00  0.00     0.049 C 
ENDROOT
BRANCH   1  20
HETATM   20  O2  UNL     1      15.920  16.755 -19.805  1.00  0.00    -0.310 OA
BRANCH  20  21
HETATM   21  C4  UNL     1      16.910  16.400 -20.677  1.00  0.00     0.284 C 
HETATM   22  O1  UNL     1      17.087  17.192 -21.664  1.00  0.00    -0.260 OA
BRANCH  21  23
HETATM   23  C3  UNL     1      17.762  15.239 -20.596  1.00  0.00     0.101 C 
HETATM   24  C2  UNL     1      18.455  14.879 -19.537  1.00  0.00     0.013 C 
HETATM   25  C1  UNL     1      18.385  15.699 -18.306  1.00  0.00     0.062 C 
HETATM   26 CL1  UNL     1      19.439  13.440 -19.611  1.00  0.00    -0.089 Cl
ENDBRANCH  21  23
ENDBRANCH  20  21
ENDBRANCH   1  20
BRANCH  18  27
HETATM   27  O3  UNL     1      12.804  16.121 -21.439  1.00  0.00    -0.387 OA
ATOM     28  H3  UNL     1      12.448  16.985 -21.270  1.00  0.00     0.210 HD
ENDBRANCH  18  27
BRANCH  10  29
HETATM   29  C15 UNL     1       9.713  11.027 -22.334  1.00  0.00     0.006 C 
BRANCH  29  30
HETATM   30  C16 UNL     1      10.469  10.591 -23.566  1.00  0.00     0.015 C 
BRANCH  30  31
HETATM   31  C17 UNL     1      10.528  11.716 -24.593  1.00  0.00     0.114 C 
HETATM   32 CL2  UNL     1      11.218  11.164 -26.120  1.00  0.00    -0.130 Cl
ENDBRANCH  30  31
ENDBRANCH  29  30
ENDBRANCH  10  29
TORSDOF 7
ENDMDL
