MODEL 1
REMARK VINA RESULT: -9.553162102      0.000      0.000
REMARK  6 active torsions:
REMARK  status: ('A' for Active; 'I' for Inactive)
REMARK    1  A    between atoms: C2_2  and  C3_3 
REMARK    2  A    between atoms: C8_8  and  O1_9 
REMARK    3  A    between atoms: O1_9  and  C9_10 
REMARK    4  A    between atoms: C9_10  and  O2_11 
REMARK    5  A    between atoms: C9_10  and  C10_13 
REMARK    6  A    between atoms: C9_10  and  C16_21 
ROOT
HETATM    1  C9  UNL     1      13.514  16.347 -20.045  1.00  0.00     0.237 C 
ENDROOT
BRANCH   1   2
HETATM    2  O1  UNL     1      14.420  15.456 -19.547  1.00  0.00    -0.341 OA
BRANCH   2   3
HETATM    3  C8  UNL     1      15.218  14.789 -20.462  1.00  0.00     0.127 C 
HETATM    4  C7  UNL     1      15.205  13.287 -20.215  1.00  0.00     0.032 C 
HETATM    5  C6  UNL     1      16.107  12.502 -21.108  1.00  0.00     0.004 C 
HETATM    6  C5  UNL     1      16.925  13.466 -21.938  1.00  0.00     0.013 C 
HETATM    7  C3  UNL     1      17.643  14.383 -20.981  1.00  0.00    -0.025 C 
HETATM    8  C4  UNL     1      18.694  15.221 -21.684  1.00  0.00     0.019 C 
HETATM    9  C29 UNL     1      16.634  15.236 -20.248  1.00  0.00     0.045 C 
BRANCH   7  10
HETATM   10  C2  UNL     1      18.361  13.537 -19.990  1.00  0.00    -0.028 C 
HETATM   11  C1  UNL     1      19.341  14.007 -19.233  1.00  0.00     0.007 C 
ENDBRANCH   7  10
ENDBRANCH   2   3
ENDBRANCH   1   2
BRANCH   1  12
HETATM   12  O2  UNL     1      14.172  17.563 -20.251  1.00  0.00    -0.357 OA
ATOM     13  H2  UNL     1      13.523  18.257 -20.215  1.00  0.00     0.214 HD
ENDBRANCH   1  12
BRANCH   1  14
HETATM   14  C10 UNL     1      12.390  16.659 -19.106  1.00  0.00     0.013 A 
HETATM   15  C11 UNL     1      11.939  15.709 -18.182  1.00  0.00     0.016 A 
HETATM   16  C12 UNL     1      10.918  15.977 -17.300  1.00  0.00     0.046 A 
HETATM   17  C13 UNL     1      10.350  17.231 -17.362  1.00  0.00     0.154 A 
HETATM   18  F1  UNL     1       9.347  17.512 -16.506  1.00  0.00    -0.203 F 
HETATM   19  C14 UNL     1      10.786  18.189 -18.274  1.00  0.00     0.155 A 
HETATM   20  F2  UNL     1      10.200  19.429 -18.312  1.00  0.00    -0.203 F 
HETATM   21  C15 UNL     1      11.808  17.906 -19.151  1.00  0.00     0.058 A 
ENDBRANCH   1  14
BRANCH   1  22
HETATM   22  C16 UNL     1      12.996  15.797 -21.321  1.00  0.00     0.083 A 
HETATM   23  N1  UNL     1      12.186  14.732 -21.366  1.00  0.00    -0.357 N 
HETATM   24  C17 UNL     1      11.670  14.177 -22.471  1.00  0.00     0.020 A 
ATOM     25  H1  UNL     1      11.938  14.303 -20.474  1.00  0.00     0.166 HD
HETATM   26  C18 UNL     1      11.985  14.734 -23.685  1.00  0.00    -0.034 A 
HETATM   27  C28 UNL     1      10.768  13.026 -22.743  1.00  0.00     0.040 C 
HETATM   28  C19 UNL     1      12.815  15.835 -23.717  1.00  0.00     0.018 A 
HETATM   29  C22 UNL     1      11.312  13.958 -24.791  1.00  0.00     0.046 C 
HETATM   30  C20 UNL     1      13.323  16.368 -22.518  1.00  0.00    -0.033 A 
HETATM   31  C21 UNL     1      14.208  17.543 -22.552  1.00  0.00     0.050 C 
HETATM   32  C23 UNL     1      11.263  12.584 -24.102  1.00  0.00    -0.000 C 
HETATM   33  C24 UNL     1      10.257  11.667 -24.709  1.00  0.00     0.005 C 
HETATM   34  C25 UNL     1       9.851  10.664 -23.631  1.00  0.00     0.000 C 
HETATM   35  C26 UNL     1      10.867  10.612 -22.507  1.00  0.00     0.001 C 
HETATM   36  C27 UNL     1      10.866  11.932 -21.723  1.00  0.00     0.011 C 
ENDBRANCH   1  22
TORSDOF 6
ENDMDL
MODEL 2
REMARK VINA RESULT: -9.504806087      3.112      6.794
REMARK  6 active torsions:
REMARK  status: ('A' for Active; 'I' for Inactive)
REMARK    1  A    between atoms: C2_2  and  C3_3 
REMARK    2  A    between atoms: C8_8  and  O1_9 
REMARK    3  A    between atoms: O1_9  and  C9_10 
REMARK    4  A    between atoms: C9_10  and  O2_11 
REMARK    5  A    between atoms: C9_10  and  C10_13 
REMARK    6  A    between atoms: C9_10  and  C16_21 
ROOT
HETATM    1  C9  UNL     1      11.268  14.393 -21.939  1.00  0.00     0.237 C 
ENDROOT
BRANCH   1   2
HETATM    2  O1  UNL     1      11.088  14.054 -20.629  1.00  0.00    -0.341 OA
BRANCH   2   3
HETATM    3  C8  UNL     1      11.635  14.900 -19.678  1.00  0.00     0.127 C 
HETATM    4  C7  UNL     1      11.993  14.143 -18.407  1.00  0.00     0.032 C 
HETATM    5  C6  UNL     1      12.511  14.998 -17.299  1.00  0.00     0.004 C 
HETATM    6  C5  UNL     1      12.390  16.449 -17.710  1.00  0.00     0.013 C 
HETATM    7  C3  UNL     1      10.944  16.695 -18.060  1.00  0.00    -0.025 C 
HETATM    8  C4  UNL     1      10.651  18.173 -18.235  1.00  0.00     0.019 C 
HETATM    9  C29 UNL     1      10.581  15.895 -19.289  1.00  0.00     0.045 C 
BRANCH   7  10
HETATM   10  C2  UNL     1      10.112  16.224 -16.921  1.00  0.00    -0.028 C 
HETATM   11  C1  UNL     1       8.966  16.801 -16.593  1.00  0.00     0.007 C 
ENDBRANCH   7  10
ENDBRANCH   2   3
ENDBRANCH   1   2
BRANCH   1  12
HETATM   12  O2  UNL     1      10.312  15.357 -22.272  1.00  0.00    -0.357 OA
ATOM     13  H2  UNL     1      10.325  15.471 -23.215  1.00  0.00     0.214 HD
ENDBRANCH   1  12
BRANCH   1  14
HETATM   14  C10 UNL     1      11.040  13.264 -22.896  1.00  0.00     0.013 A 
HETATM   15  C11 UNL     1      10.781  11.969 -22.431  1.00  0.00     0.016 A 
HETATM   16  C12 UNL     1      10.554  10.918 -23.290  1.00  0.00     0.046 A 
HETATM   17  C13 UNL     1      10.593  11.193 -24.640  1.00  0.00     0.154 A 
HETATM   18  F1  UNL     1      10.374  10.177 -25.498  1.00  0.00    -0.203 F 
HETATM   19  C14 UNL     1      10.848  12.475 -25.120  1.00  0.00     0.155 A 
HETATM   20  F2  UNL     1      10.880  12.718 -26.470  1.00  0.00    -0.203 F 
HETATM   21  C15 UNL     1      11.074  13.517 -24.249  1.00  0.00     0.058 A 
ENDBRANCH   1  14
BRANCH   1  22
HETATM   22  C16 UNL     1      12.642  14.933 -22.080  1.00  0.00     0.083 A 
HETATM   23  N1  UNL     1      13.731  14.186 -21.861  1.00  0.00    -0.357 N 
HETATM   24  C17 UNL     1      15.004  14.591 -21.971  1.00  0.00     0.020 A 
ATOM     25  H1  UNL     1      13.577  13.216 -21.584  1.00  0.00     0.166 HD
HETATM   26  C18 UNL     1      15.241  15.890 -22.344  1.00  0.00    -0.034 A 
HETATM   27  C28 UNL     1      16.330  13.944 -21.785  1.00  0.00     0.040 C 
HETATM   28  C19 UNL     1      14.167  16.720 -22.587  1.00  0.00     0.018 A 
HETATM   29  C22 UNL     1      16.728  16.140 -22.400  1.00  0.00     0.046 C 
HETATM   30  C20 UNL     1      12.855  16.230 -22.452  1.00  0.00    -0.033 A 
HETATM   31  C21 UNL     1      11.708  17.114 -22.712  1.00  0.00     0.050 C 
HETATM   32  C23 UNL     1      17.167  15.121 -21.336  1.00  0.00    -0.000 C 
HETATM   33  C24 UNL     1      18.609  14.758 -21.440  1.00  0.00     0.005 C 
HETATM   34  C25 UNL     1      18.770  13.369 -20.826  1.00  0.00     0.000 C 
HETATM   35  C26 UNL     1      17.595  13.012 -19.936  1.00  0.00     0.001 C 
HETATM   36  C27 UNL     1      16.322  12.837 -20.775  1.00  0.00     0.011 C 
ENDBRANCH   1  22
TORSDOF 6
ENDMDL
MODEL 3
REMARK VINA RESULT: -9.494027784      0.632      1.209
REMARK  6 active torsions:
REMARK  status: ('A' for Active; 'I' for Inactive)
REMARK    1  A    between atoms: C2_2  and  C3_3 
REMARK    2  A    between atoms: C8_8  and  O1_9 
REMARK    3  A    between atoms: O1_9  and  C9_10 
REMARK    4  A    between atoms: C9_10  and  O2_11 
REMARK    5  A    between atoms: C9_10  and  C10_13 
REMARK    6  A    between atoms: C9_10  and  C16_21 
ROOT
HETATM    1  C9  UNL     1      13.389  16.764 -20.166  1.00  0.00     0.237 C 
ENDROOT
BRANCH   1   2
HETATM    2  O1  UNL     1      14.409  16.038 -19.623  1.00  0.00    -0.341 OA
BRANCH   2   3
HETATM    3  C8  UNL     1      15.091  15.179 -20.470  1.00  0.00     0.127 C 
HETATM    4  C7  UNL     1      15.000  13.739 -19.986  1.00  0.00     0.032 C 
HETATM    5  C6  UNL     1      15.781  12.760 -20.798  1.00  0.00     0.004 C 
HETATM    6  C5  UNL     1      16.595  13.520 -21.822  1.00  0.00     0.013 C 
HETATM    7  C3  UNL     1      17.440  14.517 -21.070  1.00  0.00    -0.025 C 
HETATM    8  C4  UNL     1      18.488  15.155 -21.963  1.00  0.00     0.019 C 
HETATM    9  C29 UNL     1      16.545  15.546 -20.420  1.00  0.00     0.045 C 
BRANCH   7  10
HETATM   10  C2  UNL     1      18.174  13.782 -20.005  1.00  0.00    -0.028 C 
HETATM   11  C1  UNL     1      19.480  13.568 -20.061  1.00  0.00     0.007 C 
ENDBRANCH   7  10
ENDBRANCH   2   3
ENDBRANCH   1   2
BRANCH   1  12
HETATM   12  O2  UNL     1      13.892  18.020 -20.519  1.00  0.00    -0.357 OA
ATOM     13  H2  UNL     1      13.249  18.449 -21.072  1.00  0.00     0.214 HD
ENDBRANCH   1  12
BRANCH   1  14
HETATM   14  C10 UNL     1      12.268  17.043 -19.212  1.00  0.00     0.013 A 
HETATM   15  C11 UNL     1      11.514  18.218 -19.312  1.00  0.00     0.016 A 
HETATM   16  C12 UNL     1      10.471  18.490 -18.457  1.00  0.00     0.046 A 
HETATM   17  C13 UNL     1      10.195  17.550 -17.488  1.00  0.00     0.154 A 
HETATM   18  F1  UNL     1       9.176  17.799 -16.639  1.00  0.00    -0.203 F 
HETATM   19  C14 UNL     1      10.933  16.375 -17.374  1.00  0.00     0.155 A 
HETATM   20  F2  UNL     1      10.634  15.458 -16.398  1.00  0.00    -0.203 F 
HETATM   21  C15 UNL     1      11.975  16.117 -18.236  1.00  0.00     0.058 A 
ENDBRANCH   1  14
BRANCH   1  22
HETATM   22  C16 UNL     1      12.897  16.031 -21.356  1.00  0.00     0.083 A 
HETATM   23  N1  UNL     1      12.049  14.999 -21.263  1.00  0.00    -0.357 N 
HETATM   24  C17 UNL     1      11.553  14.288 -22.284  1.00  0.00     0.020 A 
ATOM     25  H1  UNL     1      11.753  14.729 -20.324  1.00  0.00     0.166 HD
HETATM   26  C18 UNL     1      11.932  14.629 -23.558  1.00  0.00    -0.034 A 
HETATM   27  C28 UNL     1      10.618  13.137 -22.404  1.00  0.00     0.040 C 
HETATM   28  C19 UNL     1      12.804  15.684 -23.733  1.00  0.00     0.018 A 
HETATM   29  C22 UNL     1      11.271  13.706 -24.552  1.00  0.00     0.046 C 
HETATM   30  C20 UNL     1      13.288  16.389 -22.616  1.00  0.00    -0.033 A 
HETATM   31  C21 UNL     1      14.218  17.514 -22.801  1.00  0.00     0.050 C 
HETATM   32  C23 UNL     1      11.144  12.465 -23.653  1.00  0.00    -0.000 C 
HETATM   33  C24 UNL     1      10.127  11.493 -24.146  1.00  0.00     0.005 C 
HETATM   34  C25 UNL     1       9.644  10.693 -22.938  1.00  0.00     0.000 C 
HETATM   35  C26 UNL     1      10.616  10.792 -21.779  1.00  0.00     0.001 C 
HETATM   36  C27 UNL     1      10.637  12.221 -21.218  1.00  0.00     0.011 C 
ENDBRANCH   1  22
TORSDOF 6
ENDMDL
MODEL 4
REMARK VINA RESULT: -9.401510205      2.821      6.371
REMARK  6 active torsions:
REMARK  status: ('A' for Active; 'I' for Inactive)
REMARK    1  A    between atoms: C2_2  and  C3_3 
REMARK    2  A    between atoms: C8_8  and  O1_9 
REMARK    3  A    between atoms: O1_9  and  C9_10 
REMARK    4  A    between atoms: C9_10  and  O2_11 
REMARK    5  A    between atoms: C9_10  and  C10_13 
REMARK    6  A    between atoms: C9_10  and  C16_21 
ROOT
HETATM    1  C9  UNL     1      14.915  15.713 -21.551  1.00  0.00     0.237 C 
ENDROOT
BRANCH   1   2
HETATM    2  O1  UNL     1      14.102  14.735 -22.047  1.00  0.00    -0.341 OA
BRANCH   2   3
HETATM    3  C8  UNL     1      13.274  14.086 -21.146  1.00  0.00     0.127 C 
HETATM    4  C7  UNL     1      13.849  12.737 -20.740  1.00  0.00     0.032 C 
HETATM    5  C6  UNL     1      12.975  11.935 -19.835  1.00  0.00     0.004 C 
HETATM    6  C5  UNL     1      11.648  12.647 -19.688  1.00  0.00     0.013 C 
HETATM    7  C3  UNL     1      11.090  12.844 -21.074  1.00  0.00    -0.025 C 
HETATM    8  C4  UNL     1       9.647  13.311 -21.040  1.00  0.00     0.019 C 
HETATM    9  C29 UNL     1      11.977  13.796 -21.842  1.00  0.00     0.045 C 
BRANCH   7  10
HETATM   10  C2  UNL     1      11.098  11.525 -21.762  1.00  0.00    -0.028 C 
HETATM   11  C1  UNL     1      10.244  11.222 -22.727  1.00  0.00     0.007 C 
ENDBRANCH   7  10
ENDBRANCH   2   3
ENDBRANCH   1   2
BRANCH   1  12
HETATM   12  O2  UNL     1      15.408  16.454 -22.629  1.00  0.00    -0.357 OA
ATOM     13  H2  UNL     1      15.233  15.966 -23.425  1.00  0.00     0.214 HD
ENDBRANCH   1  12
BRANCH   1  14
HETATM   14  C10 UNL     1      16.128  15.193 -20.842  1.00  0.00     0.013 A 
HETATM   15  C11 UNL     1      16.823  14.080 -21.329  1.00  0.00     0.016 A 
HETATM   16  C12 UNL     1      17.948  13.592 -20.703  1.00  0.00     0.046 A 
HETATM   17  C13 UNL     1      18.366  14.248 -19.566  1.00  0.00     0.154 A 
HETATM   18  F1  UNL     1      19.466  13.785 -18.939  1.00  0.00    -0.203 F 
HETATM   19  C14 UNL     1      17.688  15.358 -19.069  1.00  0.00     0.155 A 
HETATM   20  F2  UNL     1      18.129  15.991 -17.934  1.00  0.00    -0.203 F 
HETATM   21  C15 UNL     1      16.564  15.835 -19.705  1.00  0.00     0.058 A 
ENDBRANCH   1  14
BRANCH   1  22
HETATM   22  C16 UNL     1      14.101  16.560 -20.648  1.00  0.00     0.083 A 
HETATM   23  N1  UNL     1      13.175  16.050 -19.828  1.00  0.00    -0.357 N 
HETATM   24  C17 UNL     1      12.402  16.741 -18.978  1.00  0.00     0.020 A 
ATOM     25  H1  UNL     1      13.044  15.038 -19.851  1.00  0.00     0.166 HD
HETATM   26  C18 UNL     1      12.556  18.104 -18.923  1.00  0.00    -0.034 A 
HETATM   27  C28 UNL     1      11.342  16.385 -17.998  1.00  0.00     0.040 C 
HETATM   28  C19 UNL     1      13.493  18.702 -19.740  1.00  0.00     0.018 A 
HETATM   29  C22 UNL     1      11.593  18.685 -17.917  1.00  0.00     0.046 C 
HETATM   30  C20 UNL     1      14.271  17.916 -20.610  1.00  0.00    -0.033 A 
HETATM   31  C21 UNL     1      15.272  18.552 -21.480  1.00  0.00     0.050 C 
HETATM   32  C23 UNL     1      10.482  17.629 -18.035  1.00  0.00    -0.000 C 
HETATM   33  C24 UNL     1       9.564  17.619 -16.861  1.00  0.00     0.005 C 
HETATM   34  C25 UNL     1       8.959  16.219 -16.773  1.00  0.00     0.000 C 
HETATM   35  C26 UNL     1       9.096  15.469 -18.083  1.00  0.00     0.001 C 
HETATM   36  C27 UNL     1      10.571  15.154 -18.368  1.00  0.00     0.011 C 
ENDBRANCH   1  22
TORSDOF 6
ENDMDL
MODEL 5
REMARK VINA RESULT: -9.370223970      1.103      1.649
REMARK  6 active torsions:
REMARK  status: ('A' for Active; 'I' for Inactive)
REMARK    1  A    between atoms: C2_2  and  C3_3 
REMARK    2  A    between atoms: C8_8  and  O1_9 
REMARK    3  A    between atoms: O1_9  and  C9_10 
REMARK    4  A    between atoms: C9_10  and  O2_11 
REMARK    5  A    between atoms: C9_10  and  C10_13 
REMARK    6  A    between atoms: C9_10  and  C16_21 
ROOT
HETATM    1  C9  UNL     1      13.172  16.381 -20.436  1.00  0.00     0.237 C 
ENDROOT
BRANCH   1   2
HETATM    2  O1  UNL     1      14.148  15.566 -19.940  1.00  0.00    -0.341 OA
BRANCH   2   3
HETATM    3  C8  UNL     1      15.460  15.905 -20.229  1.00  0.00     0.127 C 
HETATM    4  C7  UNL     1      15.929  15.245 -21.518  1.00  0.00     0.032 C 
HETATM    5  C6  UNL     1      17.361  15.492 -21.857  1.00  0.00     0.004 C 
HETATM    6  C5  UNL     1      18.011  16.230 -20.707  1.00  0.00     0.013 C 
HETATM    7  C3  UNL     1      17.800  15.399 -19.467  1.00  0.00    -0.025 C 
HETATM    8  C4  UNL     1      18.631  15.905 -18.303  1.00  0.00     0.019 C 
HETATM    9  C29 UNL     1      16.327  15.352 -19.137  1.00  0.00     0.045 C 
BRANCH   7  10
HETATM   10  C2  UNL     1      18.268  14.017 -19.759  1.00  0.00    -0.028 C 
HETATM   11  C1  UNL     1      19.497  13.610 -19.479  1.00  0.00     0.007 C 
ENDBRANCH   7  10
ENDBRANCH   2   3
ENDBRANCH   1   2
BRANCH   1  12
HETATM   12  O2  UNL     1      13.746  17.626 -20.711  1.00  0.00    -0.357 OA
ATOM     13  H2  UNL     1      13.691  17.774 -21.648  1.00  0.00     0.214 HD
ENDBRANCH   1  12
BRANCH   1  14
HETATM   14  C10 UNL     1      12.065  16.663 -19.468  1.00  0.00     0.013 A 
HETATM   15  C11 UNL     1      11.990  17.890 -18.798  1.00  0.00     0.016 A 
HETATM   16  C12 UNL     1      10.976  18.178 -17.914  1.00  0.00     0.046 A 
HETATM   17  C13 UNL     1      10.026  17.201 -17.711  1.00  0.00     0.154 A 
HETATM   18  F1  UNL     1       9.024  17.463 -16.848  1.00  0.00    -0.203 F 
HETATM   19  C14 UNL     1      10.085  15.974 -18.369  1.00  0.00     0.155 A 
HETATM   20  F2  UNL     1       9.124  15.020 -18.145  1.00  0.00    -0.203 F 
HETATM   21  C15 UNL     1      11.106  15.700 -19.250  1.00  0.00     0.058 A 
ENDBRANCH   1  14
BRANCH   1  22
HETATM   22  C16 UNL     1      12.644  15.752 -21.670  1.00  0.00     0.083 A 
HETATM   23  N1  UNL     1      11.951  14.607 -21.650  1.00  0.00    -0.357 N 
HETATM   24  C17 UNL     1      11.436  13.975 -22.714  1.00  0.00     0.020 A 
ATOM     25  H1  UNL     1      11.802  14.173 -20.739  1.00  0.00     0.166 HD
HETATM   26  C18 UNL     1      11.619  14.536 -23.953  1.00  0.00    -0.034 A 
HETATM   27  C28 UNL     1      10.648  12.730 -22.914  1.00  0.00     0.040 C 
HETATM   28  C19 UNL     1      12.323  15.717 -24.052  1.00  0.00     0.018 A 
HETATM   29  C22 UNL     1      10.971  13.669 -25.005  1.00  0.00     0.046 C 
HETATM   30  C20 UNL     1      12.839  16.328 -22.894  1.00  0.00    -0.033 A 
HETATM   31  C21 UNL     1      13.589  17.589 -22.998  1.00  0.00     0.050 C 
HETATM   32  C23 UNL     1      11.108  12.313 -24.293  1.00  0.00    -0.000 C 
HETATM   33  C24 UNL     1      10.173  11.281 -24.825  1.00  0.00     0.005 C 
HETATM   34  C25 UNL     1       9.939  10.265 -23.709  1.00  0.00     0.000 C 
HETATM   35  C26 UNL     1      11.018  10.346 -22.647  1.00  0.00     0.001 C 
HETATM   36  C27 UNL     1      10.921  11.675 -21.885  1.00  0.00     0.011 C 
ENDBRANCH   1  22
TORSDOF 6
ENDMDL
