MODEL 1
REMARK VINA RESULT: -7.815159953      0.000      0.000
REMARK  10 active torsions:
REMARK  status: ('A' for Active; 'I' for Inactive)
REMARK    1  A    between atoms: C2_2  and  O1_3 
REMARK    2  A    between atoms: O1_3  and  C3_4 
REMARK    3  A    between atoms: C3_4  and  C6_7 
REMARK    4  A    between atoms: C9_13  and  O3_14 
REMARK    5  A    between atoms: C13_19  and  C14_20 
REMARK    6  A    between atoms: C14_20  and  C16_22 
REMARK    7  A    between atoms: C16_22  and  C17_23 
REMARK    8  A    between atoms: C22_28  and  C23_29 
REMARK    9  A    between atoms: C23_29  and  O4_30 
REMARK   10  A    between atoms: C24_32  and  O5_33 
ROOT
HETATM    1  C6  UNL     1     -18.909 -33.086  33.451  1.00  0.00     0.100 A 
HETATM    2  O2  UNL     1     -18.848 -32.124  34.328  1.00  0.00    -0.293 OA
HETATM    3  C7  UNL     1     -17.977 -31.237  34.048  1.00  0.00     0.159 A 
HETATM    4  N1  UNL     1     -17.604 -30.106  34.675  1.00  0.00    -0.343 N 
ATOM      5  H1  UNL     1     -18.064 -29.857  35.550  1.00  0.00     0.167 HD
HETATM    6  C8  UNL     1     -16.661 -29.305  34.200  1.00  0.00     0.127 A 
HETATM    7  C9  UNL     1     -16.052 -29.652  33.025  1.00  0.00     0.087 A 
HETATM    8  C10 UNL     1     -16.378 -30.824  32.299  1.00  0.00    -0.012 A 
HETATM    9  C11 UNL     1     -15.710 -31.091  31.049  1.00  0.00     0.052 C 
HETATM   10  C12 UNL     1     -17.363 -31.632  32.831  1.00  0.00     0.037 A 
HETATM   11  C13 UNL     1     -17.936 -32.804  32.427  1.00  0.00     0.014 A 
ENDROOT
BRANCH  11  12
HETATM   12  C14 UNL     1     -17.814 -33.596  31.196  1.00  0.00    -0.068 C 
HETATM   13  C15 UNL     1     -16.498 -34.051  30.729  1.00  0.00     0.044 C 
BRANCH  12  14
HETATM   14  C16 UNL     1     -18.696 -33.039  30.081  1.00  0.00     0.066 C 
BRANCH  14  15
HETATM   15  C17 UNL     1     -18.204 -31.909  29.262  1.00  0.00     0.126 C 
HETATM   16  C18 UNL     1     -19.070 -30.772  28.910  1.00  0.00     0.039 C 
HETATM   17  C19 UNL     1     -18.255 -30.195  27.712  1.00  0.00     0.023 C 
HETATM   18  C20 UNL     1     -19.054 -29.252  26.896  1.00  0.00     0.035 C 
HETATM   19  C25 UNL     1     -17.947 -31.523  27.049  1.00  0.00     0.159 C 
HETATM   20  C21 UNL     1     -19.073 -29.566  25.445  1.00  0.00    -0.019 C 
HETATM   21  C22 UNL     1     -19.102 -30.829  25.050  1.00  0.00    -0.029 C 
HETATM   22  C24 UNL     1     -19.108 -31.878  26.139  1.00  0.00     0.178 C 
HETATM   23  O6  UNL     1     -17.695 -32.423  28.035  1.00  0.00    -0.377 OA
BRANCH  21  24
HETATM   24  C23 UNL     1     -19.122 -31.260  23.643  1.00  0.00     0.200 C 
BRANCH  24  25
HETATM   25  O4  UNL     1     -20.376 -31.788  23.341  1.00  0.00    -0.397 OA
ATOM     26  H4  UNL     1     -20.637 -31.500  22.475  1.00  0.00     0.209 HD
ENDBRANCH  24  25
ENDBRANCH  21  24
BRANCH  22  27
HETATM   27  O5  UNL     1     -18.929 -33.144  25.605  1.00  0.00    -0.389 OA
ATOM     28  H5  UNL     1     -18.037 -33.443  25.734  1.00  0.00     0.210 HD
ENDBRANCH  22  27
ENDBRANCH  14  15
ENDBRANCH  12  14
ENDBRANCH  11  12
BRANCH   1  29
HETATM   29  C3  UNL     1     -19.807 -34.223  33.546  1.00  0.00     0.103 C 
HETATM   30  C4  UNL     1     -19.171 -35.599  33.532  1.00  0.00     0.053 C 
HETATM   31  C5  UNL     1     -21.010 -34.211  32.587  1.00  0.00     0.053 C 
BRANCH  29  32
HETATM   32  O1  UNL     1     -20.472 -34.166  34.790  1.00  0.00    -0.374 OA
BRANCH  32  33
HETATM   33  C2  UNL     1     -20.793 -35.349  35.383  1.00  0.00     0.165 C 
HETATM   34  C1  UNL     1     -20.712 -35.200  36.921  1.00  0.00     0.033 C 
ENDBRANCH  32  33
ENDBRANCH  29  32
ENDBRANCH   1  29
BRANCH   7  35
HETATM   35  O3  UNL     1     -15.054 -28.853  32.474  1.00  0.00    -0.359 OA
ATOM     36  H3  UNL     1     -14.841 -28.908  31.550  1.00  0.00     0.217 HD
ENDBRANCH   7  35
TORSDOF 10
ENDMDL
MODEL 2
REMARK VINA RESULT: -7.541049369      1.206      1.323
REMARK  10 active torsions:
REMARK  status: ('A' for Active; 'I' for Inactive)
REMARK    1  A    between atoms: C2_2  and  O1_3 
REMARK    2  A    between atoms: O1_3  and  C3_4 
REMARK    3  A    between atoms: C3_4  and  C6_7 
REMARK    4  A    between atoms: C9_13  and  O3_14 
REMARK    5  A    between atoms: C13_19  and  C14_20 
REMARK    6  A    between atoms: C14_20  and  C16_22 
REMARK    7  A    between atoms: C16_22  and  C17_23 
REMARK    8  A    between atoms: C22_28  and  C23_29 
REMARK    9  A    between atoms: C23_29  and  O4_30 
REMARK   10  A    between atoms: C24_32  and  O5_33 
ROOT
HETATM    1  C6  UNL     1     -17.514 -32.671  33.263  1.00  0.00     0.100 A 
HETATM    2  O2  UNL     1     -17.766 -31.736  34.136  1.00  0.00    -0.293 OA
HETATM    3  C7  UNL     1     -17.341 -30.587  33.787  1.00  0.00     0.159 A 
HETATM    4  N1  UNL     1     -17.394 -29.383  34.384  1.00  0.00    -0.343 N 
ATOM      5  H1  UNL     1     -17.843 -29.309  35.297  1.00  0.00     0.167 HD
HETATM    6  C8  UNL     1     -16.887 -28.290  33.833  1.00  0.00     0.127 A 
HETATM    7  C9  UNL     1     -16.288 -28.404  32.609  1.00  0.00     0.087 A 
HETATM    8  C10 UNL     1     -16.182 -29.630  31.907  1.00  0.00    -0.012 A 
HETATM    9  C11 UNL     1     -15.568 -29.650  30.603  1.00  0.00     0.052 C 
HETATM   10  C12 UNL     1     -16.722 -30.744  32.518  1.00  0.00     0.037 A 
HETATM   11  C13 UNL     1     -16.818 -32.059  32.160  1.00  0.00     0.014 A 
ENDROOT
BRANCH  11  12
HETATM   12  C14 UNL     1     -16.494 -32.775  30.920  1.00  0.00    -0.068 C 
HETATM   13  C15 UNL     1     -15.132 -32.741  30.372  1.00  0.00     0.044 C 
BRANCH  12  14
HETATM   14  C16 UNL     1     -17.579 -32.585  29.862  1.00  0.00     0.066 C 
BRANCH  14  15
HETATM   15  C17 UNL     1     -17.414 -31.537  28.831  1.00  0.00     0.126 C 
HETATM   16  C18 UNL     1     -18.481 -30.568  28.534  1.00  0.00     0.039 C 
HETATM   17  C19 UNL     1     -17.995 -30.081  27.133  1.00  0.00     0.023 C 
HETATM   18  C20 UNL     1     -19.059 -29.362  26.393  1.00  0.00     0.035 C 
HETATM   19  C25 UNL     1     -17.636 -31.447  26.584  1.00  0.00     0.159 C 
HETATM   20  C21 UNL     1     -19.306 -29.881  25.025  1.00  0.00    -0.019 C 
HETATM   21  C22 UNL     1     -19.233 -31.184  24.797  1.00  0.00    -0.029 C 
HETATM   22  C24 UNL     1     -18.887 -32.058  25.980  1.00  0.00     0.178 C 
HETATM   23  O6  UNL     1     -17.079 -32.161  27.596  1.00  0.00    -0.377 OA
BRANCH  21  24
HETATM   24  C23 UNL     1     -19.457 -31.812  23.485  1.00  0.00     0.200 C 
BRANCH  24  25
HETATM   25  O4  UNL     1     -20.420 -32.812  23.613  1.00  0.00    -0.397 OA
ATOM     26  H4  UNL     1     -20.919 -32.667  24.407  1.00  0.00     0.209 HD
ENDBRANCH  24  25
ENDBRANCH  21  24
BRANCH  22  27
HETATM   27  O5  UNL     1     -18.636 -33.360  25.575  1.00  0.00    -0.389 OA
ATOM     28  H5  UNL     1     -18.670 -33.433  24.629  1.00  0.00     0.210 HD
ENDBRANCH  22  27
ENDBRANCH  14  15
ENDBRANCH  12  14
ENDBRANCH  11  12
BRANCH   1  29
HETATM   29  C3  UNL     1     -17.879 -34.065  33.430  1.00  0.00     0.103 C 
HETATM   30  C4  UNL     1     -16.762 -35.083  33.313  1.00  0.00     0.053 C 
HETATM   31  C5  UNL     1     -19.089 -34.546  32.609  1.00  0.00     0.053 C 
BRANCH  29  32
HETATM   32  O1  UNL     1     -18.372 -34.246  34.741  1.00  0.00    -0.374 OA
BRANCH  32  33
HETATM   33  C2  UNL     1     -19.712 -34.442  34.884  1.00  0.00     0.165 C 
HETATM   34  C1  UNL     1     -20.274 -33.448  35.929  1.00  0.00     0.033 C 
ENDBRANCH  32  33
ENDBRANCH  29  32
ENDBRANCH   1  29
BRANCH   7  35
HETATM   35  O3  UNL     1     -15.734 -27.294  31.977  1.00  0.00    -0.359 OA
ATOM     36  H3  UNL     1     -15.997 -27.052  31.097  1.00  0.00     0.217 HD
ENDBRANCH   7  35
TORSDOF 10
ENDMDL
MODEL 3
REMARK VINA RESULT: -7.518039016      1.539      1.891
REMARK  10 active torsions:
REMARK  status: ('A' for Active; 'I' for Inactive)
REMARK    1  A    between atoms: C2_2  and  O1_3 
REMARK    2  A    between atoms: O1_3  and  C3_4 
REMARK    3  A    between atoms: C3_4  and  C6_7 
REMARK    4  A    between atoms: C9_13  and  O3_14 
REMARK    5  A    between atoms: C13_19  and  C14_20 
REMARK    6  A    between atoms: C14_20  and  C16_22 
REMARK    7  A    between atoms: C16_22  and  C17_23 
REMARK    8  A    between atoms: C22_28  and  C23_29 
REMARK    9  A    between atoms: C23_29  and  O4_30 
REMARK   10  A    between atoms: C24_32  and  O5_33 
ROOT
HETATM    1  C6  UNL     1     -18.361 -32.528  32.882  1.00  0.00     0.100 A 
HETATM    2  O2  UNL     1     -18.139 -31.828  33.959  1.00  0.00    -0.293 OA
HETATM    3  C7  UNL     1     -17.584 -30.705  33.729  1.00  0.00     0.159 A 
HETATM    4  N1  UNL     1     -17.194 -29.706  34.541  1.00  0.00    -0.343 N 
ATOM      5  H1  UNL     1     -17.337 -29.807  35.546  1.00  0.00     0.167 HD
HETATM    6  C8  UNL     1     -16.631 -28.595  34.087  1.00  0.00     0.127 A 
HETATM    7  C9  UNL     1     -16.445 -28.473  32.737  1.00  0.00     0.087 A 
HETATM    8  C10 UNL     1     -16.821 -29.474  31.808  1.00  0.00    -0.012 A 
HETATM    9  C11 UNL     1     -16.621 -29.242  30.398  1.00  0.00     0.052 C 
HETATM   10  C12 UNL     1     -17.402 -30.615  32.324  1.00  0.00     0.037 A 
HETATM   11  C13 UNL     1     -17.887 -31.760  31.759  1.00  0.00     0.014 A 
ENDROOT
BRANCH  11  12
HETATM   12  C14 UNL     1     -18.098 -32.166  30.364  1.00  0.00    -0.068 C 
HETATM   13  C15 UNL     1     -19.455 -32.382  29.846  1.00  0.00     0.044 C 
BRANCH  12  14
HETATM   14  C16 UNL     1     -17.106 -33.246  29.938  1.00  0.00     0.066 C 
BRANCH  14  15
HETATM   15  C17 UNL     1     -16.439 -33.142  28.622  1.00  0.00     0.126 C 
HETATM   16  C18 UNL     1     -15.849 -31.879  28.150  1.00  0.00     0.039 C 
HETATM   17  C19 UNL     1     -15.757 -32.198  26.625  1.00  0.00     0.023 C 
HETATM   18  C20 UNL     1     -15.541 -30.978  25.812  1.00  0.00     0.035 C 
HETATM   19  C25 UNL     1     -17.128 -32.830  26.492  1.00  0.00     0.159 C 
HETATM   20  C21 UNL     1     -16.515 -30.804  24.705  1.00  0.00    -0.019 C 
HETATM   21  C22 UNL     1     -17.779 -31.154  24.886  1.00  0.00    -0.029 C 
HETATM   22  C24 UNL     1     -18.136 -31.723  26.239  1.00  0.00     0.178 C 
HETATM   23  O6  UNL     1     -17.350 -33.564  27.613  1.00  0.00    -0.377 OA
BRANCH  21  24
HETATM   24  C23 UNL     1     -18.831 -31.028  23.863  1.00  0.00     0.200 C 
BRANCH  24  25
HETATM   25  O4  UNL     1     -19.754 -30.066  24.269  1.00  0.00    -0.397 OA
ATOM     26  H4  UNL     1     -19.513 -29.743  25.128  1.00  0.00     0.209 HD
ENDBRANCH  24  25
ENDBRANCH  21  24
BRANCH  22  27
HETATM   27  O5  UNL     1     -19.422 -32.239  26.234  1.00  0.00    -0.389 OA
ATOM     28  H5  UNL     1     -19.538 -32.855  25.520  1.00  0.00     0.210 HD
ENDBRANCH  22  27
ENDBRANCH  14  15
ENDBRANCH  12  14
ENDBRANCH  11  12
BRANCH   1  29
HETATM   29  C3  UNL     1     -18.968 -33.846  32.874  1.00  0.00     0.103 C 
HETATM   30  C4  UNL     1     -18.163 -34.965  32.244  1.00  0.00     0.053 C 
HETATM   31  C5  UNL     1     -20.418 -33.916  32.362  1.00  0.00     0.053 C 
BRANCH  29  32
HETATM   32  O1  UNL     1     -19.149 -34.264  34.210  1.00  0.00    -0.374 OA
BRANCH  32  33
HETATM   33  C2  UNL     1     -20.411 -34.205  34.719  1.00  0.00     0.165 C 
HETATM   34  C1  UNL     1     -20.382 -33.512  36.103  1.00  0.00     0.033 C 
ENDBRANCH  32  33
ENDBRANCH  29  32
ENDBRANCH   1  29
BRANCH   7  35
HETATM   35  O3  UNL     1     -15.857 -27.332  32.197  1.00  0.00    -0.359 OA
ATOM     36  H3  UNL     1     -16.320 -26.800  31.560  1.00  0.00     0.217 HD
ENDBRANCH   7  35
TORSDOF 10
ENDMDL
MODEL 4
REMARK VINA RESULT: -7.425340044      1.743      2.796
REMARK  10 active torsions:
REMARK  status: ('A' for Active; 'I' for Inactive)
REMARK    1  A    between atoms: C2_2  and  O1_3 
REMARK    2  A    between atoms: O1_3  and  C3_4 
REMARK    3  A    between atoms: C3_4  and  C6_7 
REMARK    4  A    between atoms: C9_13  and  O3_14 
REMARK    5  A    between atoms: C13_19  and  C14_20 
REMARK    6  A    between atoms: C14_20  and  C16_22 
REMARK    7  A    between atoms: C16_22  and  C17_23 
REMARK    8  A    between atoms: C22_28  and  C23_29 
REMARK    9  A    between atoms: C23_29  and  O4_30 
REMARK   10  A    between atoms: C24_32  and  O5_33 
ROOT
HETATM    1  C6  UNL     1     -17.954 -31.312  31.240  1.00  0.00     0.100 A 
HETATM    2  O2  UNL     1     -18.214 -30.901  32.449  1.00  0.00    -0.293 OA
HETATM    3  C7  UNL     1     -17.321 -30.128  32.926  1.00  0.00     0.159 A 
HETATM    4  N1  UNL     1     -17.208 -29.498  34.109  1.00  0.00    -0.343 N 
ATOM      5  H1  UNL     1     -17.943 -29.627  34.805  1.00  0.00     0.167 HD
HETATM    6  C8  UNL     1     -16.179 -28.718  34.407  1.00  0.00     0.127 A 
HETATM    7  C9  UNL     1     -15.201 -28.555  33.465  1.00  0.00     0.087 A 
HETATM    8  C10 UNL     1     -15.234 -29.180  32.194  1.00  0.00    -0.012 A 
HETATM    9  C11 UNL     1     -14.177 -28.919  31.248  1.00  0.00     0.052 C 
HETATM   10  C12 UNL     1     -16.322 -29.986  31.926  1.00  0.00     0.037 A 
HETATM   11  C13 UNL     1     -16.698 -30.728  30.842  1.00  0.00     0.014 A 
ENDROOT
BRANCH  11  12
HETATM   12  C14 UNL     1     -16.149 -30.851  29.486  1.00  0.00    -0.068 C 
HETATM   13  C15 UNL     1     -14.959 -31.674  29.235  1.00  0.00     0.044 C 
BRANCH  12  14
HETATM   14  C16 UNL     1     -16.119 -29.504  28.768  1.00  0.00     0.066 C 
BRANCH  14  15
HETATM   15  C17 UNL     1     -16.473 -29.436  27.334  1.00  0.00     0.126 C 
HETATM   16  C18 UNL     1     -17.808 -29.009  26.885  1.00  0.00     0.039 C 
HETATM   17  C19 UNL     1     -17.780 -29.580  25.433  1.00  0.00     0.023 C 
HETATM   18  C20 UNL     1     -19.132 -29.636  24.829  1.00  0.00     0.035 C 
HETATM   19  C25 UNL     1     -17.170 -30.923  25.781  1.00  0.00     0.159 C 
HETATM   20  C21 UNL     1     -19.500 -30.966  24.282  1.00  0.00    -0.019 C 
HETATM   21  C22 UNL     1     -19.110 -32.063  24.913  1.00  0.00    -0.029 C 
HETATM   22  C24 UNL     1     -18.294 -31.865  26.170  1.00  0.00     0.178 C 
HETATM   23  O6  UNL     1     -16.238 -30.711  26.745  1.00  0.00    -0.377 OA
BRANCH  21  24
HETATM   24  C23 UNL     1     -19.413 -33.432  24.466  1.00  0.00     0.200 C 
BRANCH  24  25
HETATM   25  O4  UNL     1     -20.713 -33.475  23.964  1.00  0.00    -0.397 OA
ATOM     26  H4  UNL     1     -20.892 -34.346  23.632  1.00  0.00     0.209 HD
ENDBRANCH  24  25
ENDBRANCH  21  24
BRANCH  22  27
HETATM   27  O5  UNL     1     -17.775 -33.071  26.617  1.00  0.00    -0.389 OA
ATOM     28  H5  UNL     1     -17.106 -32.928  27.275  1.00  0.00     0.210 HD
ENDBRANCH  22  27
ENDBRANCH  14  15
ENDBRANCH  12  14
ENDBRANCH  11  12
BRANCH   1  29
HETATM   29  C3  UNL     1     -18.804 -32.211  30.481  1.00  0.00     0.103 C 
HETATM   30  C4  UNL     1     -18.173 -33.499  29.991  1.00  0.00     0.053 C 
HETATM   31  C5  UNL     1     -19.602 -31.570  29.331  1.00  0.00     0.053 C 
BRANCH  29  32
HETATM   32  O1  UNL     1     -19.859 -32.641  31.314  1.00  0.00    -0.374 OA
BRANCH  32  33
HETATM   33  C2  UNL     1     -19.724 -33.855  31.918  1.00  0.00     0.165 C 
HETATM   34  C1  UNL     1     -20.844 -34.041  32.970  1.00  0.00     0.033 C 
ENDBRANCH  32  33
ENDBRANCH  29  32
ENDBRANCH   1  29
BRANCH   7  35
HETATM   35  O3  UNL     1     -14.093 -27.749  33.716  1.00  0.00    -0.359 OA
ATOM     36  H3  UNL     1     -13.250 -28.132  33.928  1.00  0.00     0.217 HD
ENDBRANCH   7  35
TORSDOF 10
ENDMDL
MODEL 5
REMARK VINA RESULT: -7.392765131      2.889      8.272
REMARK  10 active torsions:
REMARK  status: ('A' for Active; 'I' for Inactive)
REMARK    1  A    between atoms: C2_2  and  O1_3 
REMARK    2  A    between atoms: O1_3  and  C3_4 
REMARK    3  A    between atoms: C3_4  and  C6_7 
REMARK    4  A    between atoms: C9_13  and  O3_14 
REMARK    5  A    between atoms: C13_19  and  C14_20 
REMARK    6  A    between atoms: C14_20  and  C16_22 
REMARK    7  A    between atoms: C16_22  and  C17_23 
REMARK    8  A    between atoms: C22_28  and  C23_29 
REMARK    9  A    between atoms: C23_29  and  O4_30 
REMARK   10  A    between atoms: C24_32  and  O5_33 
ROOT
HETATM    1  C6  UNL     1     -17.196 -31.826  26.141  1.00  0.00     0.100 A 
HETATM    2  O2  UNL     1     -17.310 -32.903  25.416  1.00  0.00    -0.293 OA
HETATM    3  C7  UNL     1     -16.775 -33.930  25.944  1.00  0.00     0.159 A 
HETATM    4  N1  UNL     1     -16.673 -35.208  25.536  1.00  0.00    -0.343 N 
ATOM      5  H1  UNL     1     -17.076 -35.468  24.636  1.00  0.00     0.167 HD
HETATM    6  C8  UNL     1     -16.068 -36.142  26.257  1.00  0.00     0.127 A 
HETATM    7  C9  UNL     1     -15.532 -35.778  27.462  1.00  0.00     0.087 A 
HETATM    8  C10 UNL     1     -15.589 -34.458  27.971  1.00  0.00    -0.012 A 
HETATM    9  C11 UNL     1     -15.029 -34.174  29.269  1.00  0.00     0.052 C 
HETATM   10  C12 UNL     1     -16.225 -33.516  27.186  1.00  0.00     0.037 A 
HETATM   11  C13 UNL     1     -16.478 -32.183  27.339  1.00  0.00     0.014 A 
ENDROOT
BRANCH  11  12
HETATM   12  C14 UNL     1     -16.282 -31.258  28.462  1.00  0.00    -0.068 C 
HETATM   13  C15 UNL     1     -15.008 -31.231  29.193  1.00  0.00     0.044 C 
BRANCH  12  14
HETATM   14  C16 UNL     1     -17.507 -31.215  29.374  1.00  0.00     0.066 C 
BRANCH  14  15
HETATM   15  C17 UNL     1     -17.923 -32.440  30.090  1.00  0.00     0.126 C 
HETATM   16  C18 UNL     1     -19.341 -32.765  30.310  1.00  0.00     0.039 C 
HETATM   17  C19 UNL     1     -19.186 -33.802  31.465  1.00  0.00     0.023 C 
HETATM   18  C20 UNL     1     -20.467 -34.051  32.168  1.00  0.00     0.035 C 
HETATM   19  C25 UNL     1     -18.152 -33.031  32.260  1.00  0.00     0.159 C 
HETATM   20  C21 UNL     1     -20.395 -33.887  33.641  1.00  0.00    -0.019 C 
HETATM   21  C22 UNL     1     -19.637 -32.931  34.156  1.00  0.00    -0.029 C 
HETATM   22  C24 UNL     1     -18.882 -32.065  33.174  1.00  0.00     0.178 C 
HETATM   23  O6  UNL     1     -17.303 -32.452  31.372  1.00  0.00    -0.377 OA
BRANCH  21  24
HETATM   24  C23 UNL     1     -19.488 -32.674  35.598  1.00  0.00     0.200 C 
BRANCH  24  25
HETATM   25  O4  UNL     1     -20.376 -33.483  36.304  1.00  0.00    -0.397 OA
ATOM     26  H4  UNL     1     -20.600 -34.239  35.774  1.00  0.00     0.209 HD
ENDBRANCH  24  25
ENDBRANCH  21  24
BRANCH  22  27
HETATM   27  O5  UNL     1     -17.974 -31.249  33.832  1.00  0.00    -0.389 OA
ATOM     28  H5  UNL     1     -18.285 -30.352  33.862  1.00  0.00     0.210 HD
ENDBRANCH  22  27
ENDBRANCH  14  15
ENDBRANCH  12  14
ENDBRANCH  11  12
BRANCH   1  29
HETATM   29  C3  UNL     1     -17.706 -30.523  25.757  1.00  0.00     0.103 C 
HETATM   30  C4  UNL     1     -16.729 -29.365  25.804  1.00  0.00     0.053 C 
HETATM   31  C5  UNL     1     -19.028 -30.096  26.420  1.00  0.00     0.053 C 
BRANCH  29  32
HETATM   32  O1  UNL     1     -18.106 -30.579  24.404  1.00  0.00    -0.374 OA
BRANCH  32  33
HETATM   33  C2  UNL     1     -19.442 -30.561  24.145  1.00  0.00     0.165 C 
HETATM   34  C1  UNL     1     -19.807 -31.736  23.206  1.00  0.00     0.033 C 
ENDBRANCH  32  33
ENDBRANCH  29  32
ENDBRANCH   1  29
BRANCH   7  35
HETATM   35  O3  UNL     1     -14.883 -36.712  28.265  1.00  0.00    -0.359 OA
ATOM     36  H3  UNL     1     -15.326 -37.108  29.007  1.00  0.00     0.217 HD
ENDBRANCH   7  35
TORSDOF 10
ENDMDL
