MODEL 1
REMARK VINA RESULT: -10.550087841      0.000      0.000
REMARK  19 active torsions:
REMARK  status: ('A' for Active; 'I' for Inactive)
REMARK    1  A    between atoms: C2_2  and  C3_3 
REMARK    2  A    between atoms: C3_3  and  C4_4 
REMARK    3  A    between atoms: C4_4  and  C5_5 
REMARK    4  A    between atoms: C5_5  and  C6_6 
REMARK    5  A    between atoms: C7_7  and  C8_8 
REMARK    6  A    between atoms: C8_8  and  C9_9 
REMARK    7  A    between atoms: C10_10  and  C11_11 
REMARK    8  A    between atoms: C11_11  and  C12_12 
REMARK    9  A    between atoms: C13_13  and  C14_14 
REMARK   10  A    between atoms: C14_14  and  C15_15 
REMARK   11  A    between atoms: C16_16  and  C17_17 
REMARK   12  A    between atoms: C17_17  and  C18_18 
REMARK   13  A    between atoms: C19_19  and  C20_20 
REMARK   14  A    between atoms: C20_20  and  C21_21 
REMARK   15  A    between atoms: C22_22  and  C23_23 
REMARK   16  A    between atoms: C23_23  and  C24_24 
REMARK   17  A    between atoms: C24_24  and  C25_25 
REMARK   18  A    between atoms: N1_26  and  C26_28 
REMARK   19  A    between atoms: C26_28  and  C27_29 
ROOT
HETATM    1  C17 UNL     1      94.163   5.962   7.854  1.00  0.00     0.053 C 
ENDROOT
BRANCH   1   2
HETATM    2  C16 UNL     1      94.033   4.679   8.641  1.00  0.00    -0.027 C 
HETATM    3  C15 UNL     1      93.494   4.675   9.852  1.00  0.00    -0.027 C 
BRANCH   3   4
HETATM    4  C14 UNL     1      93.375   3.409  10.604  1.00  0.00     0.053 C 
BRANCH   4   5
HETATM    5  C13 UNL     1      92.144   2.706  10.195  1.00  0.00    -0.027 C 
HETATM    6  C12 UNL     1      92.157   1.429   9.928  1.00  0.00    -0.027 C 
BRANCH   6   7
HETATM    7  C11 UNL     1      90.942   0.658   9.509  1.00  0.00     0.053 C 
BRANCH   7   8
HETATM    8  C10 UNL     1      90.287   1.440   8.463  1.00  0.00    -0.027 C 
HETATM    9  C9  UNL     1      89.066   1.867   8.502  1.00  0.00    -0.027 C 
BRANCH   9  10
HETATM   10  C8  UNL     1      88.134   1.619   9.635  1.00  0.00     0.053 C 
BRANCH  10  11
HETATM   11  C7  UNL     1      87.743   0.200   9.566  1.00  0.00    -0.027 C 
HETATM   12  C6  UNL     1      86.572  -0.204   9.208  1.00  0.00    -0.030 C 
BRANCH  12  13
HETATM   13  C5  UNL     1      85.460   0.680   8.815  1.00  0.00     0.027 C 
BRANCH  13  14
HETATM   14  C4  UNL     1      84.818   0.215   7.525  1.00  0.00     0.004 C 
BRANCH  14  15
HETATM   15  C3  UNL     1      84.690   1.289   6.484  1.00  0.00    -0.000 C 
BRANCH  15  16
HETATM   16  C2  UNL     1      85.972   2.049   6.383  1.00  0.00    -0.005 C 
HETATM   17  C1  UNL     1      86.954   1.260   5.549  1.00  0.00     0.005 C 
ENDBRANCH  15  16
ENDBRANCH  14  15
ENDBRANCH  13  14
ENDBRANCH  12  13
ENDBRANCH  10  11
ENDBRANCH   9  10
ENDBRANCH   7   8
ENDBRANCH   6   7
ENDBRANCH   4   5
ENDBRANCH   3   4
ENDBRANCH   1   2
BRANCH   1  18
HETATM   18  C18 UNL     1      94.017   7.087   8.775  1.00  0.00    -0.027 C 
HETATM   19  C19 UNL     1      93.494   8.245   8.481  1.00  0.00    -0.027 C 
BRANCH  19  20
HETATM   20  C20 UNL     1      92.970   8.596   7.164  1.00  0.00     0.053 C 
BRANCH  20  21
HETATM   21  C21 UNL     1      91.622   8.182   6.856  1.00  0.00    -0.027 C 
HETATM   22  C22 UNL     1      90.660   8.760   6.254  1.00  0.00    -0.030 C 
BRANCH  22  23
HETATM   23  C23 UNL     1      90.480  10.067   5.623  1.00  0.00     0.032 C 
BRANCH  23  24
HETATM   24  C24 UNL     1      90.030  11.075   6.692  1.00  0.00     0.048 C 
BRANCH  24  25
HETATM   25  C25 UNL     1      89.293  12.155   5.986  1.00  0.00     0.056 C 
HETATM   26  N1  UNL     1      88.032  12.319   6.232  1.00  0.00    -0.398 N 
ATOM     27  H1  UNL     1      87.579  11.701   6.905  1.00  0.00     0.158 HD
BRANCH  26  28
HETATM   28  C26 UNL     1      87.256  13.332   5.595  1.00  0.00     0.157 C 
BRANCH  28  29
HETATM   29  C27 UNL     1      86.082  12.693   4.965  1.00  0.00    -0.041 A 
HETATM   30  C28 UNL     1      85.704  12.998   3.686  1.00  0.00     0.009 A 
HETATM   31  C29 UNL     1      84.586  12.369   3.130  1.00  0.00     0.001 A 
HETATM   32  C30 UNL     1      83.866  11.453   3.853  1.00  0.00     0.000 A 
HETATM   33  C31 UNL     1      84.257  11.157   5.135  1.00  0.00     0.001 A 
HETATM   34  C32 UNL     1      85.356  11.776   5.679  1.00  0.00     0.009 A 
ENDBRANCH  28  29
ENDBRANCH  26  28
ENDBRANCH  24  25
ENDBRANCH  23  24
ENDBRANCH  22  23
ENDBRANCH  20  21
ENDBRANCH  19  20
ENDBRANCH   1  18
TORSDOF 19
ENDMDL
MODEL 2
REMARK VINA RESULT: -10.427323509      1.036      1.414
REMARK  19 active torsions:
REMARK  status: ('A' for Active; 'I' for Inactive)
REMARK    1  A    between atoms: C2_2  and  C3_3 
REMARK    2  A    between atoms: C3_3  and  C4_4 
REMARK    3  A    between atoms: C4_4  and  C5_5 
REMARK    4  A    between atoms: C5_5  and  C6_6 
REMARK    5  A    between atoms: C7_7  and  C8_8 
REMARK    6  A    between atoms: C8_8  and  C9_9 
REMARK    7  A    between atoms: C10_10  and  C11_11 
REMARK    8  A    between atoms: C11_11  and  C12_12 
REMARK    9  A    between atoms: C13_13  and  C14_14 
REMARK   10  A    between atoms: C14_14  and  C15_15 
REMARK   11  A    between atoms: C16_16  and  C17_17 
REMARK   12  A    between atoms: C17_17  and  C18_18 
REMARK   13  A    between atoms: C19_19  and  C20_20 
REMARK   14  A    between atoms: C20_20  and  C21_21 
REMARK   15  A    between atoms: C22_22  and  C23_23 
REMARK   16  A    between atoms: C23_23  and  C24_24 
REMARK   17  A    between atoms: C24_24  and  C25_25 
REMARK   18  A    between atoms: N1_26  and  C26_28 
REMARK   19  A    between atoms: C26_28  and  C27_29 
ROOT
HETATM    1  C17 UNL     1      92.257   7.813   9.591  1.00  0.00     0.053 C 
ENDROOT
BRANCH   1   2
HETATM    2  C16 UNL     1      93.053   6.557   9.860  1.00  0.00    -0.027 C 
HETATM    3  C15 UNL     1      92.511   5.359   9.694  1.00  0.00    -0.027 C 
BRANCH   3   4
HETATM    4  C14 UNL     1      93.307   4.144   9.961  1.00  0.00     0.053 C 
BRANCH   4   5
HETATM    5  C13 UNL     1      92.503   2.948   9.645  1.00  0.00    -0.027 C 
HETATM    6  C12 UNL     1      92.495   1.914  10.443  1.00  0.00    -0.027 C 
BRANCH   6   7
HETATM    7  C11 UNL     1      91.700   0.671  10.178  1.00  0.00     0.053 C 
BRANCH   7   8
HETATM    8  C10 UNL     1      91.180   0.785   8.817  1.00  0.00    -0.027 C 
HETATM    9  C9  UNL     1      90.000   1.211   8.500  1.00  0.00    -0.027 C 
BRANCH   9  10
HETATM   10  C8  UNL     1      88.982   1.655   9.490  1.00  0.00     0.053 C 
BRANCH  10  11
HETATM   11  C7  UNL     1      88.194   0.465   9.858  1.00  0.00    -0.027 C 
HETATM   12  C6  UNL     1      87.031   0.196   9.370  1.00  0.00    -0.030 C 
BRANCH  12  13
HETATM   13  C5  UNL     1      86.322   1.026   8.379  1.00  0.00     0.027 C 
BRANCH  13  14
HETATM   14  C4  UNL     1      84.922   0.508   8.130  1.00  0.00     0.004 C 
BRANCH  14  15
HETATM   15  C3  UNL     1      84.620   0.227   6.687  1.00  0.00    -0.000 C 
BRANCH  15  16
HETATM   16  C2  UNL     1      83.695   1.272   6.152  1.00  0.00    -0.005 C 
HETATM   17  C1  UNL     1      83.189   0.842   4.796  1.00  0.00     0.005 C 
ENDBRANCH  15  16
ENDBRANCH  14  15
ENDBRANCH  13  14
ENDBRANCH  12  13
ENDBRANCH  10  11
ENDBRANCH   9  10
ENDBRANCH   7   8
ENDBRANCH   6   7
ENDBRANCH   4   5
ENDBRANCH   3   4
ENDBRANCH   1   2
BRANCH   1  18
HETATM   18  C18 UNL     1      92.908   8.549   8.509  1.00  0.00    -0.027 C 
HETATM   19  C19 UNL     1      92.455   8.664   7.290  1.00  0.00    -0.027 C 
BRANCH  19  20
HETATM   20  C20 UNL     1      91.211   8.061   6.819  1.00  0.00     0.053 C 
BRANCH  20  21
HETATM   21  C21 UNL     1      90.684   8.528   5.559  1.00  0.00    -0.027 C 
HETATM   22  C22 UNL     1      90.537   9.693   5.066  1.00  0.00    -0.030 C 
BRANCH  22  23
HETATM   23  C23 UNL     1      90.821  11.049   5.533  1.00  0.00     0.032 C 
BRANCH  23  24
HETATM   24  C24 UNL     1      89.728  11.468   6.528  1.00  0.00     0.048 C 
BRANCH  24  25
HETATM   25  C25 UNL     1      88.866  12.460   5.834  1.00  0.00     0.056 C 
HETATM   26  N1  UNL     1      87.671  12.675   6.283  1.00  0.00    -0.398 N 
ATOM     27  H1  UNL     1      87.353  12.158   7.102  1.00  0.00     0.158 HD
BRANCH  26  28
HETATM   28  C26 UNL     1      86.783  13.610   5.672  1.00  0.00     0.157 C 
BRANCH  28  29
HETATM   29  C27 UNL     1      85.774  12.859   4.898  1.00  0.00    -0.041 A 
HETATM   30  C28 UNL     1      85.716  12.938   3.534  1.00  0.00     0.009 A 
HETATM   31  C29 UNL     1      84.743  12.209   2.842  1.00  0.00     0.001 A 
HETATM   32  C30 UNL     1      83.849  11.420   3.517  1.00  0.00     0.000 A 
HETATM   33  C31 UNL     1      83.918  11.350   4.886  1.00  0.00     0.001 A 
HETATM   34  C32 UNL     1      84.875  12.067   5.563  1.00  0.00     0.009 A 
ENDBRANCH  28  29
ENDBRANCH  26  28
ENDBRANCH  24  25
ENDBRANCH  23  24
ENDBRANCH  22  23
ENDBRANCH  20  21
ENDBRANCH  19  20
ENDBRANCH   1  18
TORSDOF 19
ENDMDL
MODEL 3
REMARK VINA RESULT: -10.413138207      1.797      3.154
REMARK  19 active torsions:
REMARK  status: ('A' for Active; 'I' for Inactive)
REMARK    1  A    between atoms: C2_2  and  C3_3 
REMARK    2  A    between atoms: C3_3  and  C4_4 
REMARK    3  A    between atoms: C4_4  and  C5_5 
REMARK    4  A    between atoms: C5_5  and  C6_6 
REMARK    5  A    between atoms: C7_7  and  C8_8 
REMARK    6  A    between atoms: C8_8  and  C9_9 
REMARK    7  A    between atoms: C10_10  and  C11_11 
REMARK    8  A    between atoms: C11_11  and  C12_12 
REMARK    9  A    between atoms: C13_13  and  C14_14 
REMARK   10  A    between atoms: C14_14  and  C15_15 
REMARK   11  A    between atoms: C16_16  and  C17_17 
REMARK   12  A    between atoms: C17_17  and  C18_18 
REMARK   13  A    between atoms: C19_19  and  C20_20 
REMARK   14  A    between atoms: C20_20  and  C21_21 
REMARK   15  A    between atoms: C22_22  and  C23_23 
REMARK   16  A    between atoms: C23_23  and  C24_24 
REMARK   17  A    between atoms: C24_24  and  C25_25 
REMARK   18  A    between atoms: N1_26  and  C26_28 
REMARK   19  A    between atoms: C26_28  and  C27_29 
ROOT
HETATM    1  C17 UNL     1      93.521   4.917  10.114  1.00  0.00     0.053 C 
ENDROOT
BRANCH   1   2
HETATM    2  C16 UNL     1      93.128   3.486  10.401  1.00  0.00    -0.027 C 
HETATM    3  C15 UNL     1      92.779   2.665   9.421  1.00  0.00    -0.027 C 
BRANCH   3   4
HETATM    4  C14 UNL     1      92.400   1.271   9.723  1.00  0.00     0.053 C 
BRANCH   4   5
HETATM    5  C13 UNL     1      91.103   0.963   9.090  1.00  0.00    -0.027 C 
HETATM    6  C12 UNL     1      90.144   1.849   9.059  1.00  0.00    -0.027 C 
BRANCH   6   7
HETATM    7  C11 UNL     1      88.807   1.598   8.431  1.00  0.00     0.053 C 
BRANCH   7   8
HETATM    8  C10 UNL     1      88.072   0.721   9.340  1.00  0.00    -0.027 C 
HETATM    9  C9  UNL     1      86.819   0.417   9.237  1.00  0.00    -0.027 C 
BRANCH   9  10
HETATM   10  C8  UNL     1      85.926   0.924   8.160  1.00  0.00     0.053 C 
BRANCH  10  11
HETATM   11  C7  UNL     1      85.272  -0.251   7.557  1.00  0.00    -0.027 C 
HETATM   12  C6  UNL     1      84.354  -0.176   6.653  1.00  0.00    -0.030 C 
BRANCH  12  13
HETATM   13  C5  UNL     1      83.829   1.080   6.090  1.00  0.00     0.027 C 
BRANCH  13  14
HETATM   14  C4  UNL     1      83.167   0.847   4.748  1.00  0.00     0.004 C 
BRANCH  14  15
HETATM   15  C3  UNL     1      83.992   1.286   3.574  1.00  0.00    -0.000 C 
BRANCH  15  16
HETATM   16  C2  UNL     1      83.430   0.705   2.317  1.00  0.00    -0.005 C 
HETATM   17  C1  UNL     1      83.022   1.825   1.390  1.00  0.00     0.005 C 
ENDBRANCH  15  16
ENDBRANCH  14  15
ENDBRANCH  13  14
ENDBRANCH  12  13
ENDBRANCH  10  11
ENDBRANCH   9  10
ENDBRANCH   7   8
ENDBRANCH   6   7
ENDBRANCH   4   5
ENDBRANCH   3   4
ENDBRANCH   1   2
BRANCH   1  18
HETATM   18  C18 UNL     1      94.332   4.938   8.899  1.00  0.00    -0.027 C 
HETATM   19  C19 UNL     1      94.169   5.753   7.893  1.00  0.00    -0.027 C 
BRANCH  19  20
HETATM   20  C20 UNL     1      93.133   6.781   7.832  1.00  0.00     0.053 C 
BRANCH  20  21
HETATM   21  C21 UNL     1      93.489   8.107   8.277  1.00  0.00    -0.027 C 
HETATM   22  C22 UNL     1      92.814   9.046   8.810  1.00  0.00    -0.030 C 
BRANCH  22  23
HETATM   23  C23 UNL     1      91.414   9.212   9.199  1.00  0.00     0.032 C 
BRANCH  23  24
HETATM   24  C24 UNL     1      90.909  10.562   8.668  1.00  0.00     0.048 C 
BRANCH  24  25
HETATM   25  C25 UNL     1      90.561  10.362   7.236  1.00  0.00     0.056 C 
HETATM   26  N1  UNL     1      89.873  11.272   6.625  1.00  0.00    -0.398 N 
ATOM     27  H1  UNL     1      89.588  12.104   7.143  1.00  0.00     0.158 HD
BRANCH  26  28
HETATM   28  C26 UNL     1      89.499  11.154   5.254  1.00  0.00     0.157 C 
BRANCH  28  29
HETATM   29  C27 UNL     1      88.601  12.278   4.916  1.00  0.00    -0.041 A 
HETATM   30  C28 UNL     1      87.954  12.992   5.886  1.00  0.00     0.009 A 
HETATM   31  C29 UNL     1      87.114  14.047   5.520  1.00  0.00     0.001 A 
HETATM   32  C30 UNL     1      86.932  14.373   4.201  1.00  0.00     0.000 A 
HETATM   33  C31 UNL     1      87.588  13.648   3.237  1.00  0.00     0.001 A 
HETATM   34  C32 UNL     1      88.414  12.611   3.600  1.00  0.00     0.009 A 
ENDBRANCH  28  29
ENDBRANCH  26  28
ENDBRANCH  24  25
ENDBRANCH  23  24
ENDBRANCH  22  23
ENDBRANCH  20  21
ENDBRANCH  19  20
ENDBRANCH   1  18
TORSDOF 19
ENDMDL
MODEL 4
REMARK VINA RESULT: -10.384727366      1.056      1.653
REMARK  19 active torsions:
REMARK  status: ('A' for Active; 'I' for Inactive)
REMARK    1  A    between atoms: C2_2  and  C3_3 
REMARK    2  A    between atoms: C3_3  and  C4_4 
REMARK    3  A    between atoms: C4_4  and  C5_5 
REMARK    4  A    between atoms: C5_5  and  C6_6 
REMARK    5  A    between atoms: C7_7  and  C8_8 
REMARK    6  A    between atoms: C8_8  and  C9_9 
REMARK    7  A    between atoms: C10_10  and  C11_11 
REMARK    8  A    between atoms: C11_11  and  C12_12 
REMARK    9  A    between atoms: C13_13  and  C14_14 
REMARK   10  A    between atoms: C14_14  and  C15_15 
REMARK   11  A    between atoms: C16_16  and  C17_17 
REMARK   12  A    between atoms: C17_17  and  C18_18 
REMARK   13  A    between atoms: C19_19  and  C20_20 
REMARK   14  A    between atoms: C20_20  and  C21_21 
REMARK   15  A    between atoms: C22_22  and  C23_23 
REMARK   16  A    between atoms: C23_23  and  C24_24 
REMARK   17  A    between atoms: C24_24  and  C25_25 
REMARK   18  A    between atoms: N1_26  and  C26_28 
REMARK   19  A    between atoms: C26_28  and  C27_29 
ROOT
HETATM    1  C17 UNL     1      93.207   6.657   9.205  1.00  0.00     0.053 C 
ENDROOT
BRANCH   1   2
HETATM    2  C16 UNL     1      92.616   5.323   9.601  1.00  0.00    -0.027 C 
HETATM    3  C15 UNL     1      93.376   4.368  10.118  1.00  0.00    -0.027 C 
BRANCH   3   4
HETATM    4  C14 UNL     1      92.778   3.073  10.498  1.00  0.00     0.053 C 
BRANCH   4   5
HETATM    5  C13 UNL     1      91.614   2.793   9.635  1.00  0.00    -0.027 C 
HETATM    6  C12 UNL     1      91.289   1.568   9.322  1.00  0.00    -0.027 C 
BRANCH   6   7
HETATM    7  C11 UNL     1      90.120   1.220   8.452  1.00  0.00     0.053 C 
BRANCH   7   8
HETATM    8  C10 UNL     1      89.059   2.174   8.768  1.00  0.00    -0.027 C 
HETATM    9  C9  UNL     1      87.828   1.868   9.018  1.00  0.00    -0.027 C 
BRANCH   9  10
HETATM   10  C8  UNL     1      87.300   0.477   9.020  1.00  0.00     0.053 C 
BRANCH  10  11
HETATM   11  C7  UNL     1      85.906   0.548   9.491  1.00  0.00    -0.027 C 
HETATM   12  C6  UNL     1      84.881   0.493   8.710  1.00  0.00    -0.030 C 
BRANCH  12  13
HETATM   13  C5  UNL     1      84.947   0.351   7.244  1.00  0.00     0.027 C 
BRANCH  13  14
HETATM   14  C4  UNL     1      84.011   1.321   6.555  1.00  0.00     0.004 C 
BRANCH  14  15
HETATM   15  C3  UNL     1      83.719   0.978   5.123  1.00  0.00    -0.000 C 
BRANCH  15  16
HETATM   16  C2  UNL     1      84.762   1.580   4.238  1.00  0.00    -0.005 C 
HETATM   17  C1  UNL     1      84.198   1.747   2.847  1.00  0.00     0.005 C 
ENDBRANCH  15  16
ENDBRANCH  14  15
ENDBRANCH  13  14
ENDBRANCH  12  13
ENDBRANCH  10  11
ENDBRANCH   9  10
ENDBRANCH   7   8
ENDBRANCH   6   7
ENDBRANCH   4   5
ENDBRANCH   3   4
ENDBRANCH   1   2
BRANCH   1  18
HETATM   18  C18 UNL     1      92.158   7.670   9.292  1.00  0.00    -0.027 C 
HETATM   19  C19 UNL     1      91.577   8.250   8.277  1.00  0.00    -0.027 C 
BRANCH  19  20
HETATM   20  C20 UNL     1      91.898   7.966   6.880  1.00  0.00     0.053 C 
BRANCH  20  21
HETATM   21  C21 UNL     1      90.855   8.179   5.905  1.00  0.00    -0.027 C 
HETATM   22  C22 UNL     1      90.403   9.229   5.343  1.00  0.00    -0.030 C 
BRANCH  22  23
HETATM   23  C23 UNL     1      90.717  10.654   5.426  1.00  0.00     0.032 C 
BRANCH  23  24
HETATM   24  C24 UNL     1      89.843  11.291   6.517  1.00  0.00     0.048 C 
BRANCH  24  25
HETATM   25  C25 UNL     1      88.975  12.295   5.846  1.00  0.00     0.056 C 
HETATM   26  N1  UNL     1      87.760  12.453   6.264  1.00  0.00    -0.398 N 
ATOM     27  H1  UNL     1      87.430  11.883   7.043  1.00  0.00     0.158 HD
BRANCH  26  28
HETATM   28  C26 UNL     1      86.866  13.394   5.673  1.00  0.00     0.157 C 
BRANCH  28  29
HETATM   29  C27 UNL     1      85.789  12.650   4.988  1.00  0.00    -0.041 A 
HETATM   30  C28 UNL     1      85.018  11.737   5.652  1.00  0.00     0.009 A 
HETATM   31  C29 UNL     1      84.010  11.055   4.963  1.00  0.00     0.001 A 
HETATM   32  C30 UNL     1      83.789  11.292   3.631  1.00  0.00     0.000 A 
HETATM   33  C31 UNL     1      84.571  12.212   2.977  1.00  0.00     0.001 A 
HETATM   34  C32 UNL     1      85.560  12.880   3.656  1.00  0.00     0.009 A 
ENDBRANCH  28  29
ENDBRANCH  26  28
ENDBRANCH  24  25
ENDBRANCH  23  24
ENDBRANCH  22  23
ENDBRANCH  20  21
ENDBRANCH  19  20
ENDBRANCH   1  18
TORSDOF 19
ENDMDL
MODEL 5
REMARK VINA RESULT: -10.379183539      1.974      5.026
REMARK  19 active torsions:
REMARK  status: ('A' for Active; 'I' for Inactive)
REMARK    1  A    between atoms: C2_2  and  C3_3 
REMARK    2  A    between atoms: C3_3  and  C4_4 
REMARK    3  A    between atoms: C4_4  and  C5_5 
REMARK    4  A    between atoms: C5_5  and  C6_6 
REMARK    5  A    between atoms: C7_7  and  C8_8 
REMARK    6  A    between atoms: C8_8  and  C9_9 
REMARK    7  A    between atoms: C10_10  and  C11_11 
REMARK    8  A    between atoms: C11_11  and  C12_12 
REMARK    9  A    between atoms: C13_13  and  C14_14 
REMARK   10  A    between atoms: C14_14  and  C15_15 
REMARK   11  A    between atoms: C16_16  and  C17_17 
REMARK   12  A    between atoms: C17_17  and  C18_18 
REMARK   13  A    between atoms: C19_19  and  C20_20 
REMARK   14  A    between atoms: C20_20  and  C21_21 
REMARK   15  A    between atoms: C22_22  and  C23_23 
REMARK   16  A    between atoms: C23_23  and  C24_24 
REMARK   17  A    between atoms: C24_24  and  C25_25 
REMARK   18  A    between atoms: N1_26  and  C26_28 
REMARK   19  A    between atoms: C26_28  and  C27_29 
ROOT
HETATM    1  C17 UNL     1      90.525  11.357   7.668  1.00  0.00     0.053 C 
ENDROOT
BRANCH   1   2
HETATM    2  C16 UNL     1      90.880  10.392   8.775  1.00  0.00    -0.027 C 
HETATM    3  C15 UNL     1      92.071   9.812   8.817  1.00  0.00    -0.027 C 
BRANCH   3   4
HETATM    4  C14 UNL     1      92.398   8.873   9.909  1.00  0.00     0.053 C 
BRANCH   4   5
HETATM    5  C13 UNL     1      93.220   7.767   9.379  1.00  0.00    -0.027 C 
HETATM    6  C12 UNL     1      92.932   7.204   8.237  1.00  0.00    -0.027 C 
BRANCH   6   7
HETATM    7  C11 UNL     1      93.726   6.079   7.646  1.00  0.00     0.053 C 
BRANCH   7   8
HETATM    8  C10 UNL     1      94.498   5.488   8.737  1.00  0.00    -0.027 C 
HETATM    9  C9  UNL     1      94.123   4.484   9.461  1.00  0.00    -0.027 C 
BRANCH   9  10
HETATM   10  C8  UNL     1      92.829   3.771   9.287  1.00  0.00     0.053 C 
BRANCH  10  11
HETATM   11  C7  UNL     1      92.691   2.848  10.428  1.00  0.00    -0.027 C 
HETATM   12  C6  UNL     1      92.375   1.604  10.310  1.00  0.00    -0.030 C 
BRANCH  12  13
HETATM   13  C5  UNL     1      92.108   0.921   9.031  1.00  0.00     0.027 C 
BRANCH  13  14
HETATM   14  C4  UNL     1      90.666   0.472   8.937  1.00  0.00     0.004 C 
BRANCH  14  15
HETATM   15  C3  UNL     1      89.708   1.564   8.559  1.00  0.00    -0.000 C 
BRANCH  15  16
HETATM   16  C2  UNL     1      88.682   1.730   9.634  1.00  0.00    -0.005 C 
HETATM   17  C1  UNL     1      87.822   0.490   9.695  1.00  0.00     0.005 C 
ENDBRANCH  15  16
ENDBRANCH  14  15
ENDBRANCH  13  14
ENDBRANCH  12  13
ENDBRANCH  10  11
ENDBRANCH   9  10
ENDBRANCH   7   8
ENDBRANCH   6   7
ENDBRANCH   4   5
ENDBRANCH   3   4
ENDBRANCH   1   2
BRANCH   1  18
HETATM   18  C18 UNL     1      91.392  11.087   6.524  1.00  0.00    -0.027 C 
HETATM   19  C19 UNL     1      91.050  10.425   5.452  1.00  0.00    -0.027 C 
BRANCH  19  20
HETATM   20  C20 UNL     1      89.727   9.845   5.236  1.00  0.00     0.053 C 
BRANCH  20  21
HETATM   21  C21 UNL     1      88.762  10.645   4.520  1.00  0.00    -0.027 C 
HETATM   22  C22 UNL     1      87.841  10.348   3.694  1.00  0.00    -0.030 C 
BRANCH  22  23
HETATM   23  C23 UNL     1      87.352   9.101   3.106  1.00  0.00     0.032 C 
BRANCH  23  24
HETATM   24  C24 UNL     1      85.836   9.221   2.882  1.00  0.00     0.048 C 
BRANCH  24  25
HETATM   25  C25 UNL     1      85.502  10.668   2.940  1.00  0.00     0.056 C 
HETATM   26  N1  UNL     1      84.681  11.086   3.849  1.00  0.00    -0.398 N 
ATOM     27  H1  UNL     1      84.285  10.410   4.502  1.00  0.00     0.158 HD
BRANCH  26  28
HETATM   28  C26 UNL     1      84.310  12.458   3.970  1.00  0.00     0.157 C 
BRANCH  28  29
HETATM   29  C27 UNL     1      85.531  13.252   4.217  1.00  0.00    -0.041 A 
HETATM   30  C28 UNL     1      86.068  14.057   3.251  1.00  0.00     0.009 A 
HETATM   31  C29 UNL     1      87.226  14.790   3.529  1.00  0.00     0.001 A 
HETATM   32  C30 UNL     1      87.826  14.709   4.758  1.00  0.00     0.000 A 
HETATM   33  C31 UNL     1      87.277  13.898   5.719  1.00  0.00     0.001 A 
HETATM   34  C32 UNL     1      86.139  13.178   5.443  1.00  0.00     0.009 A 
ENDBRANCH  28  29
ENDBRANCH  26  28
ENDBRANCH  24  25
ENDBRANCH  23  24
ENDBRANCH  22  23
ENDBRANCH  20  21
ENDBRANCH  19  20
ENDBRANCH   1  18
TORSDOF 19
ENDMDL
