MODEL 1
REMARK VINA RESULT: -7.039156999      0.000      0.000
REMARK  9 active torsions:
REMARK  status: ('A' for Active; 'I' for Inactive)
REMARK    1  A    between atoms: C2_2  and  S1_3 
REMARK    2  A    between atoms: S1_3  and  C3_4 
REMARK    3  A    between atoms: N4_9  and  C4_10 
REMARK    4  A    between atoms: C4_10  and  N5_11 
REMARK    5  A    between atoms: C6_13  and  C7_14 
REMARK    6  A    between atoms: C7_14  and  O1_15 
REMARK    7  A    between atoms: C8_18  and  N6_19 
REMARK    8  A    between atoms: C9_22  and  N8_23 
REMARK       I    between atoms: N8_23  and  C10_24 
REMARK       I    between atoms: C10_24  and  N9_25 
REMARK       I    between atoms: C10_24  and  N10_29 
REMARK    9  A    between atoms: C12_34  and  N11_35 
ROOT
HETATM    1  N6  UNL     1      -6.663 -15.781  -4.173  1.00  0.00    -0.242 N 
HETATM    2  N7  UNL     1      -6.258 -14.864  -4.987  1.00  0.00    -0.267 N 
ATOM      3  H7  UNL     1      -6.383 -14.908  -5.999  1.00  0.00     0.190 HD
HETATM    4  C9  UNL     1      -5.638 -13.818  -4.338  1.00  0.00     0.210 A 
HETATM    5  C11 UNL     1      -5.690 -14.182  -2.989  1.00  0.00     0.112 A 
HETATM    6  C12 UNL     1      -5.239 -13.568  -1.819  1.00  0.00     0.118 A 
HETATM    7  N12 UNL     1      -5.450 -14.212  -0.616  1.00  0.00    -0.338 N 
ATOM      8  H12 UNL     1      -5.132 -13.788   0.256  1.00  0.00     0.168 HD
HETATM    9  C13 UNL     1      -6.074 -15.393  -0.601  1.00  0.00     0.183 A 
HETATM   10  N13 UNL     1      -6.507 -15.986  -1.719  1.00  0.00    -0.336 N 
ATOM     11  H13 UNL     1      -6.978 -16.889  -1.667  1.00  0.00     0.168 HD
HETATM   12  C14 UNL     1      -6.322 -15.386  -2.926  1.00  0.00     0.144 A 
ENDROOT
BRANCH   1  13
HETATM   13  C8  UNL     1      -7.371 -17.030  -4.459  1.00  0.00     0.274 C 
HETATM   14  O2  UNL     1      -7.381 -17.263  -5.805  1.00  0.00    -0.354 OA
HETATM   15  C6  UNL     1      -6.442 -18.139  -6.290  1.00  0.00     0.176 C 
HETATM   16  C5  UNL     1      -6.358 -19.462  -5.597  1.00  0.00     0.308 C 
HETATM   17  N5  UNL     1      -7.279 -19.430  -4.453  1.00  0.00     0.114 N 
HETATM   18  C15 UNL     1      -6.824 -18.212  -3.719  1.00  0.00     0.330 C 
BRANCH  15  19
HETATM   19  C7  UNL     1      -6.868 -18.447  -7.747  1.00  0.00     0.197 C 
BRANCH  19  20
HETATM   20  O1  UNL     1      -7.632 -17.391  -8.180  1.00  0.00    -0.398 OA
ATOM     21  H1  UNL     1      -8.103 -17.056  -7.426  1.00  0.00     0.209 HD
ENDBRANCH  19  20
ENDBRANCH  15  19
BRANCH  17  22
HETATM   22  C4  UNL     1      -6.935 -20.593  -3.612  1.00  0.00     0.420 C 
BRANCH  22  23
HETATM   23  N4  UNL     1      -7.931 -21.620  -3.786  1.00  0.00    -0.227 N 
HETATM   24  C3  UNL     1      -7.740 -22.983  -4.130  1.00  0.00     0.173 C 
HETATM   25  N1  UNL     1      -8.923 -23.464  -4.452  1.00  0.00    -0.264 N 
HETATM   26  N2  UNL     1      -9.874 -22.485  -4.335  1.00  0.00    -0.007 NA
ATOM     27  H1  UNL     1      -9.105 -24.424  -4.744  1.00  0.00     0.186 HD
HETATM   28  N3  UNL     1      -9.338 -21.426  -3.634  1.00  0.00    -0.003 NA
BRANCH  24  29
HETATM   29  S1  UNL     1      -6.236 -23.926  -4.155  1.00  0.00    -0.092 SA
BRANCH  29  30
HETATM   30  C2  UNL     1      -5.184 -23.678  -5.575  1.00  0.00     0.078 C 
HETATM   31  C1  UNL     1      -6.108 -23.231  -6.726  1.00  0.00     0.016 C 
ENDBRANCH  29  30
ENDBRANCH  24  29
ENDBRANCH  22  23
ENDBRANCH  17  22
ENDBRANCH   1  13
BRANCH   4  32
HETATM   32  N8  UNL     1      -5.152 -12.839  -4.861  1.00  0.00    -0.369 NA
HETATM   33  C10 UNL     1      -4.618 -11.764  -5.424  1.00  0.00     0.556 C 
HETATM   34  N9  UNL     1      -5.094 -10.457  -4.924  1.00  0.00    -0.021 N 
HETATM   35  N10 UNL     1      -3.148 -11.632  -5.398  1.00  0.00    -0.021 N 
ATOM     36  H93 UNL     1      -6.110 -10.412  -4.991  1.00  0.00     0.280 HD
ATOM     37  H92 UNL     1      -4.973 -10.412  -3.912  1.00  0.00     0.280 HD
ATOM     38  H91 UNL     1      -4.682  -9.630  -5.358  1.00  0.00     0.280 HD
ATOM     39 3H10 UNL     1      -2.822 -11.703  -4.434  1.00  0.00     0.280 HD
ATOM     40 2H10 UNL     1      -2.729 -12.468  -5.805  1.00  0.00     0.280 HD
ATOM     41 1H10 UNL     1      -2.737 -10.806  -5.832  1.00  0.00     0.280 HD
ENDBRANCH   4  32
BRANCH   6  42
HETATM   42  N11 UNL     1      -4.664 -12.453  -1.805  1.00  0.00    -0.385 N 
ATOM     43 2H11 UNL     1      -5.223 -11.617  -1.979  1.00  0.00     0.157 HD
ATOM     44 1H11 UNL     1      -3.663 -12.341  -1.640  1.00  0.00     0.157 HD
ENDBRANCH   6  42
TORSDOF 9
ENDMDL
MODEL 2
REMARK VINA RESULT: -6.840997854      1.283      1.730
REMARK  9 active torsions:
REMARK  status: ('A' for Active; 'I' for Inactive)
REMARK    1  A    between atoms: C2_2  and  S1_3 
REMARK    2  A    between atoms: S1_3  and  C3_4 
REMARK    3  A    between atoms: N4_9  and  C4_10 
REMARK    4  A    between atoms: C4_10  and  N5_11 
REMARK    5  A    between atoms: C6_13  and  C7_14 
REMARK    6  A    between atoms: C7_14  and  O1_15 
REMARK    7  A    between atoms: C8_18  and  N6_19 
REMARK    8  A    between atoms: C9_22  and  N8_23 
REMARK       I    between atoms: N8_23  and  C10_24 
REMARK       I    between atoms: C10_24  and  N9_25 
REMARK       I    between atoms: C10_24  and  N10_29 
REMARK    9  A    between atoms: C12_34  and  N11_35 
ROOT
HETATM    1  N6  UNL     1      -6.553 -15.919  -4.073  1.00  0.00    -0.242 N 
HETATM    2  N7  UNL     1      -6.221 -14.908  -4.805  1.00  0.00    -0.267 N 
ATOM      3  H7  UNL     1      -6.340 -14.878  -5.818  1.00  0.00     0.190 HD
HETATM    4  C9  UNL     1      -5.688 -13.874  -4.067  1.00  0.00     0.210 A 
HETATM    5  C11 UNL     1      -5.712 -14.352  -2.752  1.00  0.00     0.112 A 
HETATM    6  C12 UNL     1      -5.314 -13.803  -1.532  1.00  0.00     0.118 A 
HETATM    7  N12 UNL     1      -5.476 -14.559  -0.388  1.00  0.00    -0.338 N 
ATOM      8  H12 UNL     1      -5.194 -14.185   0.519  1.00  0.00     0.168 HD
HETATM    9  C13 UNL     1      -6.003 -15.783  -0.476  1.00  0.00     0.183 A 
HETATM   10  N13 UNL     1      -6.386 -16.314  -1.643  1.00  0.00    -0.336 N 
ATOM     11  H13 UNL     1      -6.783 -17.253  -1.669  1.00  0.00     0.168 HD
HETATM   12  C14 UNL     1      -6.247 -15.603  -2.795  1.00  0.00     0.144 A 
ENDROOT
BRANCH   1  13
HETATM   13  C8  UNL     1      -7.158 -17.192  -4.467  1.00  0.00     0.274 C 
HETATM   14  O2  UNL     1      -7.419 -17.190  -5.807  1.00  0.00    -0.354 OA
HETATM   15  C6  UNL     1      -6.507 -17.818  -6.619  1.00  0.00     0.176 C 
HETATM   16  C5  UNL     1      -6.132 -19.213  -6.228  1.00  0.00     0.308 C 
HETATM   17  N5  UNL     1      -6.796 -19.516  -4.952  1.00  0.00     0.114 N 
HETATM   18  C15 UNL     1      -6.340 -18.388  -4.087  1.00  0.00     0.330 C 
BRANCH  15  19
HETATM   19  C7  UNL     1      -7.187 -17.932  -8.005  1.00  0.00     0.197 C 
BRANCH  19  20
HETATM   20  O1  UNL     1      -7.932 -16.794  -8.189  1.00  0.00    -0.398 OA
ATOM     21  H1  UNL     1      -8.421 -16.644  -7.389  1.00  0.00     0.209 HD
ENDBRANCH  19  20
ENDBRANCH  15  19
BRANCH  17  22
HETATM   22  C4  UNL     1      -6.155 -20.742  -4.434  1.00  0.00     0.420 C 
BRANCH  22  23
HETATM   23  N4  UNL     1      -6.846 -21.896  -4.951  1.00  0.00    -0.227 N 
HETATM   24  C3  UNL     1      -7.672 -22.813  -4.253  1.00  0.00     0.173 C 
HETATM   25  N1  UNL     1      -7.852 -23.847  -5.050  1.00  0.00    -0.264 N 
HETATM   26  N2  UNL     1      -7.186 -23.649  -6.230  1.00  0.00    -0.007 NA
ATOM     27  H1  UNL     1      -8.407 -24.673  -4.823  1.00  0.00     0.186 HD
HETATM   28  N3  UNL     1      -6.812 -22.324  -6.314  1.00  0.00    -0.003 NA
BRANCH  24  29
HETATM   29  S1  UNL     1      -8.363 -22.675  -2.624  1.00  0.00    -0.092 SA
BRANCH  29  30
HETATM   30  C2  UNL     1      -7.235 -22.967  -1.272  1.00  0.00     0.078 C 
HETATM   31  C1  UNL     1      -6.065 -23.784  -1.853  1.00  0.00     0.016 C 
ENDBRANCH  29  30
ENDBRANCH  24  29
ENDBRANCH  22  23
ENDBRANCH  17  22
ENDBRANCH   1  13
BRANCH   4  32
HETATM   32  N8  UNL     1      -5.281 -12.819  -4.502  1.00  0.00    -0.369 NA
HETATM   33  C10 UNL     1      -4.829 -11.664  -4.972  1.00  0.00     0.556 C 
HETATM   34  N9  UNL     1      -4.967 -10.495  -4.077  1.00  0.00    -0.021 N 
HETATM   35  N10 UNL     1      -3.422 -11.602  -5.411  1.00  0.00    -0.021 N 
ATOM     36  H93 UNL     1      -5.940 -10.394  -3.790  1.00  0.00     0.280 HD
ATOM     37  H92 UNL     1      -4.528 -10.697  -3.178  1.00  0.00     0.280 HD
ATOM     38  H91 UNL     1      -4.620  -9.606  -4.439  1.00  0.00     0.280 HD
ATOM     39 3H10 UNL     1      -2.819 -11.913  -4.650  1.00  0.00     0.280 HD
ATOM     40 2H10 UNL     1      -3.254 -12.334  -6.102  1.00  0.00     0.280 HD
ATOM     41 1H10 UNL     1      -3.076 -10.713  -5.773  1.00  0.00     0.280 HD
ENDBRANCH   4  32
BRANCH   6  42
HETATM   42  N11 UNL     1      -4.830 -12.651  -1.421  1.00  0.00    -0.385 N 
ATOM     43 2H11 UNL     1      -5.381 -11.938  -0.941  1.00  0.00     0.157 HD
ATOM     44 1H11 UNL     1      -3.918 -12.388  -1.797  1.00  0.00     0.157 HD
ENDBRANCH   6  42
TORSDOF 9
ENDMDL
MODEL 3
REMARK VINA RESULT: -6.662630005      6.364      9.356
REMARK  9 active torsions:
REMARK  status: ('A' for Active; 'I' for Inactive)
REMARK    1  A    between atoms: C2_2  and  S1_3 
REMARK    2  A    between atoms: S1_3  and  C3_4 
REMARK    3  A    between atoms: N4_9  and  C4_10 
REMARK    4  A    between atoms: C4_10  and  N5_11 
REMARK    5  A    between atoms: C6_13  and  C7_14 
REMARK    6  A    between atoms: C7_14  and  O1_15 
REMARK    7  A    between atoms: C8_18  and  N6_19 
REMARK    8  A    between atoms: C9_22  and  N8_23 
REMARK       I    between atoms: N8_23  and  C10_24 
REMARK       I    between atoms: C10_24  and  N9_25 
REMARK       I    between atoms: C10_24  and  N10_29 
REMARK    9  A    between atoms: C12_34  and  N11_35 
ROOT
HETATM    1  N6  UNL     1      -8.867 -23.408  -3.236  1.00  0.00    -0.242 N 
HETATM    2  N7  UNL     1      -8.297 -22.894  -2.197  1.00  0.00    -0.267 N 
ATOM      3  H7  UNL     1      -8.762 -22.775  -1.297  1.00  0.00     0.190 HD
HETATM    4  C9  UNL     1      -6.992 -22.527  -2.439  1.00  0.00     0.210 A 
HETATM    5  C11 UNL     1      -6.790 -22.865  -3.781  1.00  0.00     0.112 A 
HETATM    6  C12 UNL     1      -5.694 -22.750  -4.638  1.00  0.00     0.118 A 
HETATM    7  N12 UNL     1      -5.829 -23.188  -5.941  1.00  0.00    -0.338 N 
ATOM      8  H12 UNL     1      -5.046 -23.117  -6.590  1.00  0.00     0.168 HD
HETATM    9  C13 UNL     1      -6.993 -23.705  -6.344  1.00  0.00     0.183 A 
HETATM   10  N13 UNL     1      -8.046 -23.817  -5.527  1.00  0.00    -0.336 N 
ATOM     11  H13 UNL     1      -8.919 -24.216  -5.873  1.00  0.00     0.168 HD
HETATM   12  C14 UNL     1      -7.956 -23.400  -4.235  1.00  0.00     0.144 A 
ENDROOT
BRANCH   1  13
HETATM   13  C8  UNL     1     -10.226 -23.930  -3.387  1.00  0.00     0.274 C 
HETATM   14  O2  UNL     1     -10.188 -25.178  -3.941  1.00  0.00    -0.354 OA
HETATM   15  C6  UNL     1     -10.293 -26.243  -3.081  1.00  0.00     0.176 C 
HETATM   16  C5  UNL     1     -11.441 -26.202  -2.123  1.00  0.00     0.308 C 
HETATM   17  N5  UNL     1     -12.126 -24.913  -2.297  1.00  0.00     0.114 N 
HETATM   18  C15 UNL     1     -11.010 -23.939  -2.112  1.00  0.00     0.330 C 
BRANCH  15  19
HETATM   19  C7  UNL     1     -10.528 -27.484  -3.976  1.00  0.00     0.197 C 
BRANCH  19  20
HETATM   20  O1  UNL     1     -11.878 -27.735  -3.979  1.00  0.00    -0.398 OA
ATOM     21  H1  UNL     1     -12.191 -27.579  -4.863  1.00  0.00     0.209 HD
ENDBRANCH  19  20
ENDBRANCH  15  19
BRANCH  17  22
HETATM   22  C4  UNL     1     -13.026 -24.763  -1.135  1.00  0.00     0.420 C 
BRANCH  22  23
HETATM   23  N4  UNL     1     -14.394 -24.769  -1.588  1.00  0.00    -0.227 N 
HETATM   24  C3  UNL     1     -15.220 -25.885  -1.880  1.00  0.00     0.173 C 
HETATM   25  N1  UNL     1     -16.274 -25.421  -2.520  1.00  0.00    -0.264 N 
HETATM   26  N2  UNL     1     -16.176 -24.062  -2.659  1.00  0.00    -0.007 NA
ATOM     27  H1  UNL     1     -17.049 -25.990  -2.861  1.00  0.00     0.186 HD
HETATM   28  N3  UNL     1     -15.180 -23.600  -1.826  1.00  0.00    -0.003 NA
BRANCH  24  29
HETATM   29  S1  UNL     1     -14.954 -27.598  -1.500  1.00  0.00    -0.092 SA
BRANCH  29  30
HETATM   30  C2  UNL     1     -15.191 -28.742  -2.849  1.00  0.00     0.078 C 
HETATM   31  C1  UNL     1     -16.393 -29.625  -2.463  1.00  0.00     0.016 C 
ENDBRANCH  29  30
ENDBRANCH  24  29
ENDBRANCH  22  23
ENDBRANCH  17  22
ENDBRANCH   1  13
BRANCH   4  32
HETATM   32  N8  UNL     1      -6.236 -22.008  -1.647  1.00  0.00    -0.369 NA
HETATM   33  C10 UNL     1      -5.401 -21.441  -0.786  1.00  0.00     0.556 C 
HETATM   34  N9  UNL     1      -4.159 -22.186  -0.490  1.00  0.00    -0.021 N 
HETATM   35  N10 UNL     1      -4.926 -20.077  -1.085  1.00  0.00    -0.021 N 
ATOM     36  H93 UNL     1      -4.390 -23.128  -0.177  1.00  0.00     0.280 HD
ATOM     37  H92 UNL     1      -3.668 -22.395  -1.360  1.00  0.00     0.280 HD
ATOM     38  H91 UNL     1      -3.518 -21.750   0.173  1.00  0.00     0.280 HD
ATOM     39 3H10 UNL     1      -4.507 -20.064  -2.016  1.00  0.00     0.280 HD
ATOM     40 2H10 UNL     1      -5.729 -19.465  -1.227  1.00  0.00     0.280 HD
ATOM     41 1H10 UNL     1      -4.284 -19.640  -0.423  1.00  0.00     0.280 HD
ENDBRANCH   4  32
BRANCH   6  42
HETATM   42  N11 UNL     1      -4.586 -22.282  -4.280  1.00  0.00    -0.385 N 
ATOM     43 2H11 UNL     1      -4.342 -22.320  -3.290  1.00  0.00     0.157 HD
ATOM     44 1H11 UNL     1      -3.923 -21.854  -4.927  1.00  0.00     0.157 HD
ENDBRANCH   6  42
TORSDOF 9
ENDMDL
MODEL 4
REMARK VINA RESULT: -6.649870552      5.497      8.121
REMARK  9 active torsions:
REMARK  status: ('A' for Active; 'I' for Inactive)
REMARK    1  A    between atoms: C2_2  and  S1_3 
REMARK    2  A    between atoms: S1_3  and  C3_4 
REMARK    3  A    between atoms: N4_9  and  C4_10 
REMARK    4  A    between atoms: C4_10  and  N5_11 
REMARK    5  A    between atoms: C6_13  and  C7_14 
REMARK    6  A    between atoms: C7_14  and  O1_15 
REMARK    7  A    between atoms: C8_18  and  N6_19 
REMARK    8  A    between atoms: C9_22  and  N8_23 
REMARK       I    between atoms: N8_23  and  C10_24 
REMARK       I    between atoms: C10_24  and  N9_25 
REMARK       I    between atoms: C10_24  and  N10_29 
REMARK    9  A    between atoms: C12_34  and  N11_35 
ROOT
HETATM    1  N6  UNL     1      -8.043 -22.192  -2.230  1.00  0.00    -0.242 N 
HETATM    2  N7  UNL     1      -7.414 -22.429  -1.126  1.00  0.00    -0.267 N 
ATOM      3  H7  UNL     1      -7.819 -22.939  -0.341  1.00  0.00     0.190 HD
HETATM    4  C9  UNL     1      -6.136 -21.916  -1.127  1.00  0.00     0.210 A 
HETATM    5  C11 UNL     1      -6.019 -21.307  -2.381  1.00  0.00     0.112 A 
HETATM    6  C12 UNL     1      -4.985 -20.607  -3.007  1.00  0.00     0.118 A 
HETATM    7  N12 UNL     1      -5.200 -20.120  -4.281  1.00  0.00    -0.338 N 
ATOM      8  H12 UNL     1      -4.464 -19.605  -4.765  1.00  0.00     0.168 HD
HETATM    9  C13 UNL     1      -6.378 -20.327  -4.876  1.00  0.00     0.183 A 
HETATM   10  N13 UNL     1      -7.371 -20.996  -4.280  1.00  0.00    -0.336 N 
ATOM     11  H13 UNL     1      -8.257 -21.132  -4.767  1.00  0.00     0.168 HD
HETATM   12  C14 UNL     1      -7.202 -21.495  -3.026  1.00  0.00     0.144 A 
ENDROOT
BRANCH   1  13
HETATM   13  C8  UNL     1      -9.399 -22.576  -2.626  1.00  0.00     0.274 C 
HETATM   14  O2  UNL     1      -9.393 -23.053  -3.906  1.00  0.00    -0.354 OA
HETATM   15  C6  UNL     1      -9.381 -24.417  -4.060  1.00  0.00     0.176 C 
HETATM   16  C5  UNL     1     -10.420 -25.173  -3.295  1.00  0.00     0.308 C 
HETATM   17  N5  UNL     1     -11.148 -24.212  -2.454  1.00  0.00     0.114 N 
HETATM   18  C15 UNL     1     -10.040 -23.558  -1.696  1.00  0.00     0.330 C 
BRANCH  15  19
HETATM   19  C7  UNL     1      -9.684 -24.673  -5.558  1.00  0.00     0.197 C 
BRANCH  19  20
HETATM   20  O1  UNL     1     -10.520 -23.671  -5.981  1.00  0.00    -0.398 OA
ATOM     21  H1  UNL     1     -11.411 -23.956  -5.813  1.00  0.00     0.209 HD
ENDBRANCH  19  20
ENDBRANCH  15  19
BRANCH  17  22
HETATM   22  C4  UNL     1     -11.920 -25.014  -1.483  1.00  0.00     0.420 C 
BRANCH  22  23
HETATM   23  N4  UNL     1     -13.300 -25.064  -1.897  1.00  0.00    -0.227 N 
HETATM   24  C3  UNL     1     -13.968 -26.094  -2.608  1.00  0.00     0.173 C 
HETATM   25  N1  UNL     1     -15.121 -25.594  -3.007  1.00  0.00    -0.264 N 
HETATM   26  N2  UNL     1     -15.236 -24.295  -2.592  1.00  0.00    -0.007 NA
ATOM     27  H1  UNL     1     -15.824 -26.102  -3.545  1.00  0.00     0.186 HD
HETATM   28  N3  UNL     1     -14.265 -24.041  -1.647  1.00  0.00    -0.003 NA
BRANCH  24  29
HETATM   29  S1  UNL     1     -13.426 -27.750  -2.944  1.00  0.00    -0.092 SA
BRANCH  29  30
HETATM   30  C2  UNL     1     -14.261 -29.042  -2.039  1.00  0.00     0.078 C 
HETATM   31  C1  UNL     1     -13.893 -28.839  -0.555  1.00  0.00     0.016 C 
ENDBRANCH  29  30
ENDBRANCH  24  29
ENDBRANCH  22  23
ENDBRANCH  17  22
ENDBRANCH   1  13
BRANCH   4  32
HETATM   32  N8  UNL     1      -5.338 -21.980  -0.217  1.00  0.00    -0.369 NA
HETATM   33  C10 UNL     1      -4.458 -22.045   0.774  1.00  0.00     0.556 C 
HETATM   34  N9  UNL     1      -3.176 -22.712   0.467  1.00  0.00    -0.021 N 
HETATM   35  N10 UNL     1      -4.049 -20.781   1.415  1.00  0.00    -0.021 N 
ATOM     36  H93 UNL     1      -3.353 -23.647   0.101  1.00  0.00     0.280 HD
ATOM     37  H92 UNL     1      -2.745 -22.273  -0.347  1.00  0.00     0.280 HD
ATOM     38  H91 UNL     1      -2.500 -22.763   1.229  1.00  0.00     0.280 HD
ATOM     39 3H10 UNL     1      -3.703 -20.139   0.701  1.00  0.00     0.280 HD
ATOM     40 2H10 UNL     1      -4.879 -20.283   1.735  1.00  0.00     0.280 HD
ATOM     41 1H10 UNL     1      -3.373 -20.832   2.177  1.00  0.00     0.280 HD
ENDBRANCH   4  32
BRANCH   6  42
HETATM   42  N11 UNL     1      -3.865 -20.412  -2.476  1.00  0.00    -0.385 N 
ATOM     43 2H11 UNL     1      -3.835 -19.957  -1.563  1.00  0.00     0.157 HD
ATOM     44 1H11 UNL     1      -2.983 -20.674  -2.916  1.00  0.00     0.157 HD
ENDBRANCH   6  42
TORSDOF 9
ENDMDL
MODEL 5
REMARK VINA RESULT: -6.604449925      2.685      8.668
REMARK  9 active torsions:
REMARK  status: ('A' for Active; 'I' for Inactive)
REMARK    1  A    between atoms: C2_2  and  S1_3 
REMARK    2  A    between atoms: S1_3  and  C3_4 
REMARK    3  A    between atoms: N4_9  and  C4_10 
REMARK    4  A    between atoms: C4_10  and  N5_11 
REMARK    5  A    between atoms: C6_13  and  C7_14 
REMARK    6  A    between atoms: C7_14  and  O1_15 
REMARK    7  A    between atoms: C8_18  and  N6_19 
REMARK    8  A    between atoms: C9_22  and  N8_23 
REMARK       I    between atoms: N8_23  and  C10_24 
REMARK       I    between atoms: C10_24  and  N9_25 
REMARK       I    between atoms: C10_24  and  N10_29 
REMARK    9  A    between atoms: C12_34  and  N11_35 
ROOT
HETATM    1  N6  UNL     1      -6.464 -20.577  -4.092  1.00  0.00    -0.242 N 
HETATM    2  N7  UNL     1      -7.441 -21.263  -4.586  1.00  0.00    -0.267 N 
ATOM      3  H7  UNL     1      -8.022 -20.944  -5.362  1.00  0.00     0.190 HD
HETATM    4  C9  UNL     1      -7.610 -22.473  -3.950  1.00  0.00     0.210 A 
HETATM    5  C11 UNL     1      -6.614 -22.479  -2.968  1.00  0.00     0.112 A 
HETATM    6  C12 UNL     1      -6.248 -23.404  -1.989  1.00  0.00     0.118 A 
HETATM    7  N12 UNL     1      -5.193 -23.095  -1.154  1.00  0.00    -0.338 N 
ATOM      8  H12 UNL     1      -4.902 -23.751  -0.429  1.00  0.00     0.168 HD
HETATM    9  C13 UNL     1      -4.555 -21.931  -1.303  1.00  0.00     0.183 A 
HETATM   10  N13 UNL     1      -4.902 -21.041  -2.239  1.00  0.00    -0.336 N 
ATOM     11  H13 UNL     1      -4.391 -20.161  -2.320  1.00  0.00     0.168 HD
HETATM   12  C14 UNL     1      -5.935 -21.306  -3.084  1.00  0.00     0.144 A 
ENDROOT
BRANCH   1  13
HETATM   13  C8  UNL     1      -5.957 -19.263  -4.491  1.00  0.00     0.274 C 
HETATM   14  O2  UNL     1      -5.968 -19.151  -5.852  1.00  0.00    -0.354 OA
HETATM   15  C6  UNL     1      -7.027 -18.481  -6.412  1.00  0.00     0.176 C 
HETATM   16  C5  UNL     1      -7.324 -17.131  -5.840  1.00  0.00     0.308 C 
HETATM   17  N5  UNL     1      -6.422 -16.916  -4.700  1.00  0.00     0.114 N 
HETATM   18  C15 UNL     1      -6.690 -18.120  -3.858  1.00  0.00     0.330 C 
BRANCH  15  19
HETATM   19  C7  UNL     1      -6.637 -18.241  -7.891  1.00  0.00     0.197 C 
BRANCH  19  20
HETATM   20  O1  UNL     1      -6.821 -16.905  -8.150  1.00  0.00    -0.398 OA
ATOM     21  H1  UNL     1      -6.756 -16.789  -9.091  1.00  0.00     0.209 HD
ENDBRANCH  19  20
ENDBRANCH  15  19
BRANCH  17  22
HETATM   22  C4  UNL     1      -6.953 -15.750  -3.965  1.00  0.00     0.420 C 
BRANCH  22  23
HETATM   23  N4  UNL     1      -6.142 -14.594  -4.254  1.00  0.00    -0.227 N 
HETATM   24  C3  UNL     1      -5.640 -13.623  -3.350  1.00  0.00     0.173 C 
HETATM   25  N1  UNL     1      -5.202 -12.616  -4.078  1.00  0.00    -0.264 N 
HETATM   26  N2  UNL     1      -5.393 -12.883  -5.407  1.00  0.00    -0.007 NA
ATOM     27  H1  UNL     1      -4.782 -11.764  -3.706  1.00  0.00     0.186 HD
HETATM   28  N3  UNL     1      -5.688 -14.221  -5.556  1.00  0.00    -0.003 NA
BRANCH  24  29
HETATM   29  S1  UNL     1      -5.584 -13.676  -1.577  1.00  0.00    -0.092 SA
BRANCH  29  30
HETATM   30  C2  UNL     1      -4.604 -12.407  -0.791  1.00  0.00     0.078 C 
HETATM   31  C1  UNL     1      -5.547 -11.209  -0.565  1.00  0.00     0.016 C 
ENDBRANCH  29  30
ENDBRANCH  24  29
ENDBRANCH  22  23
ENDBRANCH  17  22
ENDBRANCH   1  13
BRANCH   4  32
HETATM   32  N8  UNL     1      -8.459 -23.301  -4.201  1.00  0.00    -0.369 NA
HETATM   33  C10 UNL     1      -9.393 -24.201  -4.478  1.00  0.00     0.556 C 
HETATM   34  N9  UNL     1     -10.686 -24.038  -3.781  1.00  0.00    -0.021 N 
HETATM   35  N10 UNL     1      -9.779 -24.379  -5.891  1.00  0.00    -0.021 N 
ATOM     36  H93 UNL     1     -10.532 -24.001  -2.774  1.00  0.00     0.280 HD
ATOM     37  H92 UNL     1     -11.051 -23.100  -3.948  1.00  0.00     0.280 HD
ATOM     38  H91 UNL     1     -11.404 -24.731  -3.994  1.00  0.00     0.280 HD
ATOM     39 3H10 UNL     1     -10.057 -23.477  -6.279  1.00  0.00     0.280 HD
ATOM     40 2H10 UNL     1      -8.946 -24.578  -6.444  1.00  0.00     0.280 HD
ATOM     41 1H10 UNL     1     -10.497 -25.071  -6.104  1.00  0.00     0.280 HD
ENDBRANCH   4  32
BRANCH   6  42
HETATM   42  N11 UNL     1      -6.822 -24.511  -1.838  1.00  0.00    -0.385 N 
ATOM     43 2H11 UNL     1      -7.636 -24.554  -1.225  1.00  0.00     0.157 HD
ATOM     44 1H11 UNL     1      -6.507 -25.371  -2.288  1.00  0.00     0.157 HD
ENDBRANCH   6  42
TORSDOF 9
ENDMDL
