MODEL 1
REMARK VINA RESULT: -5.013256275      0.000      0.000
REMARK  11 active torsions:
REMARK  status: ('A' for Active; 'I' for Inactive)
REMARK    1  A    between atoms: N1_1  and  N2_4 
REMARK    2  A    between atoms: N2_4  and  N3_5 
REMARK       I    between atoms: N3_5  and  C1_7 
REMARK    3  A    between atoms: C1_7  and  O2_9 
REMARK    4  A    between atoms: O2_9  and  C2_10 
REMARK    5  A    between atoms: C4_12  and  N4_13 
REMARK    6  A    between atoms: C5_17  and  N5_18 
REMARK    7  A    between atoms: C7_23  and  N6_24 
REMARK    8  A    between atoms: N6_24  and  C8_26 
REMARK    9  A    between atoms: N8_32  and  C10_33 
REMARK   10  A    between atoms: C10_33  and  C11_34 
REMARK   11  A    between atoms: C11_34  and  O5_35 
ROOT
HETATM    1  C2  UNL     1      50.650  14.708  12.292  1.00  0.00     0.159 C 
HETATM    2  C3  UNL     1      49.316  14.028  12.216  1.00  0.00     0.069 C 
HETATM    3  C4  UNL     1      49.566  12.540  12.117  1.00  0.00     0.216 C 
HETATM    4  C5  UNL     1      50.089  12.133  13.481  1.00  0.00     0.216 C 
HETATM    5  C6  UNL     1      51.409  12.783  13.700  1.00  0.00     0.063 C 
HETATM    6  C7  UNL     1      51.529  14.227  13.412  1.00  0.00     0.131 C 
ENDROOT
BRANCH   6   7
HETATM    7  N6  UNL     1      52.904  14.535  13.156  1.00  0.00    -0.217 N 
ATOM      8  H6  UNL     1      53.423  13.803  12.672  1.00  0.00     0.178 HD
BRANCH   7   9
HETATM    9  C8  UNL     1      53.586  15.582  13.436  1.00  0.00     0.705 A 
HETATM   10  N7  UNL     1      53.316  16.686  14.131  1.00  0.00    -0.086 N 
HETATM   11  O3  UNL     1      54.362  17.450  14.130  1.00  0.00    -0.165 OA
ATOM     12  H7  UNL     1      52.430  16.896  14.590  1.00  0.00     0.214 HD
HETATM   13  C9  UNL     1      55.313  16.874  13.451  1.00  0.00     0.404 A 
HETATM   14  O4  UNL     1      56.462  17.372  13.265  1.00  0.00    -0.235 OA
HETATM   15  N8  UNL     1      54.884  15.704  12.994  1.00  0.00    -0.121 N 
BRANCH  15  16
HETATM   16  C10 UNL     1      55.616  14.726  12.183  1.00  0.00     0.179 C 
BRANCH  16  17
HETATM   17  C11 UNL     1      55.385  15.147  10.722  1.00  0.00     0.185 C 
BRANCH  17  18
HETATM   18  O5  UNL     1      54.145  14.686  10.288  1.00  0.00    -0.399 OA
ATOM     19  H5  UNL     1      53.786  15.284   9.641  1.00  0.00     0.209 HD
ENDBRANCH  17  18
ENDBRANCH  16  17
ENDBRANCH  15  16
ENDBRANCH   7   9
ENDBRANCH   6   7
BRANCH   1  20
HETATM   20  O2  UNL     1      50.509  16.124  12.322  1.00  0.00    -0.295 OA
BRANCH  20  21
HETATM   21  C1  UNL     1      50.889  16.911  11.264  1.00  0.00     0.378 C 
HETATM   22  N3  UNL     1      49.935  17.700  10.516  1.00  0.00    -0.230 N 
ATOM     23  H3  UNL     1      48.953  17.663  10.791  1.00  0.00     0.189 HD
HETATM   24  O1  UNL     1      52.108  16.922  10.967  1.00  0.00    -0.237 OA
BRANCH  22  25
HETATM   25  N2  UNL     1      50.288  18.500   9.449  1.00  0.00    -0.025 NA
BRANCH  25  26
HETATM   26  N1  UNL     1      51.282  19.410   9.866  1.00  0.00    -0.329 N 
ATOM     27  H12 UNL     1      51.186  20.053  10.652  1.00  0.00     0.174 HD
ATOM     28  H11 UNL     1      52.095  19.315   9.258  1.00  0.00     0.174 HD
ENDBRANCH  25  26
ENDBRANCH  22  25
ENDBRANCH  20  21
ENDBRANCH   1  20
BRANCH   4  29
HETATM   29  N5  UNL     1      50.314  10.687  13.430  1.00  0.00    -0.073 N 
ATOM     30  H53 UNL     1      50.837  10.389  12.607  1.00  0.00     0.274 HD
ATOM     31  H52 UNL     1      50.979  10.358  14.131  1.00  0.00     0.274 HD
ATOM     32  H51 UNL     1      49.398  10.244  13.507  1.00  0.00     0.274 HD
ENDBRANCH   4  29
BRANCH   3  33
HETATM   33  N4  UNL     1      48.358  11.816  11.773  1.00  0.00    -0.073 N 
ATOM     34  H43 UNL     1      47.584  12.067  12.389  1.00  0.00     0.274 HD
ATOM     35  H42 UNL     1      47.969  12.141  10.888  1.00  0.00     0.274 HD
ATOM     36  H41 UNL     1      48.513  10.808  11.763  1.00  0.00     0.274 HD
ENDBRANCH   3  33
TORSDOF 11
ENDMDL
MODEL 2
REMARK VINA RESULT: -4.996739032      5.889      9.471
REMARK  11 active torsions:
REMARK  status: ('A' for Active; 'I' for Inactive)
REMARK    1  A    between atoms: N1_1  and  N2_4 
REMARK    2  A    between atoms: N2_4  and  N3_5 
REMARK       I    between atoms: N3_5  and  C1_7 
REMARK    3  A    between atoms: C1_7  and  O2_9 
REMARK    4  A    between atoms: O2_9  and  C2_10 
REMARK    5  A    between atoms: C4_12  and  N4_13 
REMARK    6  A    between atoms: C5_17  and  N5_18 
REMARK    7  A    between atoms: C7_23  and  N6_24 
REMARK    8  A    between atoms: N6_24  and  C8_26 
REMARK    9  A    between atoms: N8_32  and  C10_33 
REMARK   10  A    between atoms: C10_33  and  C11_34 
REMARK   11  A    between atoms: C11_34  and  O5_35 
ROOT
HETATM    1  C2  UNL     1      59.122  15.945   7.287  1.00  0.00     0.159 C 
HETATM    2  C3  UNL     1      59.853  16.812   6.307  1.00  0.00     0.069 C 
HETATM    3  C4  UNL     1      59.133  18.142   6.247  1.00  0.00     0.216 C 
HETATM    4  C5  UNL     1      59.415  18.807   7.580  1.00  0.00     0.216 C 
HETATM    5  C6  UNL     1      58.770  18.009   8.658  1.00  0.00     0.063 C 
HETATM    6  C7  UNL     1      58.972  16.546   8.656  1.00  0.00     0.131 C 
ENDROOT
BRANCH   6   7
HETATM    7  N6  UNL     1      57.898  15.930   9.374  1.00  0.00    -0.217 N 
ATOM      8  H6  UNL     1      58.165  15.502  10.260  1.00  0.00     0.178 HD
BRANCH   7   9
HETATM    9  C8  UNL     1      56.655  15.829   9.083  1.00  0.00     0.705 A 
HETATM   10  N7  UNL     1      55.993  15.187   8.122  1.00  0.00    -0.086 N 
HETATM   11  O3  UNL     1      54.724  15.396   8.272  1.00  0.00    -0.165 OA
ATOM     12  H7  UNL     1      56.417  14.621   7.386  1.00  0.00     0.214 HD
HETATM   13  C9  UNL     1      54.536  16.161   9.310  1.00  0.00     0.404 A 
HETATM   14  O4  UNL     1      53.400  16.547   9.717  1.00  0.00    -0.235 OA
HETATM   15  N8  UNL     1      55.707  16.462   9.856  1.00  0.00    -0.121 N 
BRANCH  15  16
HETATM   16  C10 UNL     1      55.968  17.296  11.033  1.00  0.00     0.179 C 
BRANCH  16  17
HETATM   17  C11 UNL     1      55.834  16.356  12.242  1.00  0.00     0.185 C 
BRANCH  17  18
HETATM   18  O5  UNL     1      57.075  15.811  12.559  1.00  0.00    -0.399 OA
ATOM     19  H5  UNL     1      56.966  14.926  12.885  1.00  0.00     0.209 HD
ENDBRANCH  17  18
ENDBRANCH  16  17
ENDBRANCH  15  16
ENDBRANCH   7   9
ENDBRANCH   6   7
BRANCH   1  20
HETATM   20  O2  UNL     1      59.697  14.644   7.357  1.00  0.00    -0.295 OA
BRANCH  20  21
HETATM   21  C1  UNL     1      59.230  13.606   6.592  1.00  0.00     0.378 C 
HETATM   22  N3  UNL     1      60.058  12.467   6.262  1.00  0.00    -0.230 N 
ATOM     23  H3  UNL     1      61.015  12.444   6.614  1.00  0.00     0.189 HD
HETATM   24  O1  UNL     1      58.045  13.681   6.184  1.00  0.00    -0.237 OA
BRANCH  22  25
HETATM   25  N2  UNL     1      59.615  11.408   5.496  1.00  0.00    -0.025 NA
BRANCH  25  26
HETATM   26  N1  UNL     1      59.367  11.862   4.184  1.00  0.00    -0.329 N 
ATOM     27  H12 UNL     1      59.783  12.697   3.771  1.00  0.00     0.174 HD
ATOM     28  H11 UNL     1      58.713  11.225   3.730  1.00  0.00     0.174 HD
ENDBRANCH  25  26
ENDBRANCH  22  25
ENDBRANCH  20  21
ENDBRANCH   1  20
BRANCH   4  29
HETATM   29  N5  UNL     1      58.757  20.114   7.545  1.00  0.00    -0.073 N 
ATOM     30  H53 UNL     1      59.144  20.741   6.841  1.00  0.00     0.274 HD
ATOM     31  H52 UNL     1      57.806  20.077   7.176  1.00  0.00     0.274 HD
ATOM     32  H51 UNL     1      58.806  20.492   8.491  1.00  0.00     0.274 HD
ENDBRANCH   4  29
BRANCH   3  33
HETATM   33  N4  UNL     1      59.599  18.953   5.139  1.00  0.00    -0.073 N 
ATOM     34  H43 UNL     1      60.153  18.402   4.481  1.00  0.00     0.274 HD
ATOM     35  H42 UNL     1      58.831  19.214   4.521  1.00  0.00     0.274 HD
ATOM     36  H41 UNL     1      60.112  19.772   5.462  1.00  0.00     0.274 HD
ENDBRANCH   3  33
TORSDOF 11
ENDMDL
MODEL 3
REMARK VINA RESULT: -4.844224690      5.183      8.855
REMARK  11 active torsions:
REMARK  status: ('A' for Active; 'I' for Inactive)
REMARK    1  A    between atoms: N1_1  and  N2_4 
REMARK    2  A    between atoms: N2_4  and  N3_5 
REMARK       I    between atoms: N3_5  and  C1_7 
REMARK    3  A    between atoms: C1_7  and  O2_9 
REMARK    4  A    between atoms: O2_9  and  C2_10 
REMARK    5  A    between atoms: C4_12  and  N4_13 
REMARK    6  A    between atoms: C5_17  and  N5_18 
REMARK    7  A    between atoms: C7_23  and  N6_24 
REMARK    8  A    between atoms: N6_24  and  C8_26 
REMARK    9  A    between atoms: N8_32  and  C10_33 
REMARK   10  A    between atoms: C10_33  and  C11_34 
REMARK   11  A    between atoms: C11_34  and  O5_35 
ROOT
HETATM    1  C2  UNL     1      58.728  17.329   8.453  1.00  0.00     0.159 C 
HETATM    2  C3  UNL     1      59.272  18.606   7.888  1.00  0.00     0.069 C 
HETATM    3  C4  UNL     1      58.186  19.654   7.997  1.00  0.00     0.216 C 
HETATM    4  C5  UNL     1      58.066  19.950   9.479  1.00  0.00     0.216 C 
HETATM    5  C6  UNL     1      57.567  18.730  10.171  1.00  0.00     0.063 C 
HETATM    6  C7  UNL     1      58.217  17.441   9.862  1.00  0.00     0.131 C 
ENDROOT
BRANCH   6   7
HETATM    7  N6  UNL     1      57.306  16.379  10.165  1.00  0.00    -0.217 N 
ATOM      8  H6  UNL     1      57.640  15.714  10.862  1.00  0.00     0.178 HD
BRANCH   7   9
HETATM    9  C8  UNL     1      56.138  16.129   9.702  1.00  0.00     0.705 A 
HETATM   10  N7  UNL     1      55.698  15.726   8.511  1.00  0.00    -0.086 N 
HETATM   11  O3  UNL     1      54.409  15.607   8.557  1.00  0.00    -0.165 OA
ATOM     12  H7  UNL     1      56.281  15.540   7.695  1.00  0.00     0.214 HD
HETATM   13  C9  UNL     1      53.992  15.923   9.750  1.00  0.00     0.404 A 
HETATM   14  O4  UNL     1      52.778  15.908  10.111  1.00  0.00    -0.235 OA
HETATM   15  N8  UNL     1      55.029  16.257  10.507  1.00  0.00    -0.121 N 
BRANCH  15  16
HETATM   16  C10 UNL     1      55.025  16.682  11.911  1.00  0.00     0.179 C 
BRANCH  16  17
HETATM   17  C11 UNL     1      55.388  15.427  12.722  1.00  0.00     0.185 C 
BRANCH  17  18
HETATM   18  O5  UNL     1      56.764  15.379  12.929  1.00  0.00    -0.399 OA
ATOM     19  H5  UNL     1      57.002  14.550  13.328  1.00  0.00     0.209 HD
ENDBRANCH  17  18
ENDBRANCH  16  17
ENDBRANCH  15  16
ENDBRANCH   7   9
ENDBRANCH   6   7
BRANCH   1  20
HETATM   20  O2  UNL     1      59.668  16.266   8.331  1.00  0.00    -0.295 OA
BRANCH  20  21
HETATM   21  C1  UNL     1      59.419  15.170   7.545  1.00  0.00     0.378 C 
HETATM   22  N3  UNL     1      60.244  14.846   6.401  1.00  0.00    -0.230 N 
ATOM     23  H3  UNL     1      61.030  15.458   6.181  1.00  0.00     0.189 HD
HETATM   24  O1  UNL     1      58.441  14.449   7.858  1.00  0.00    -0.237 OA
BRANCH  22  25
HETATM   25  N2  UNL     1      60.020  13.750   5.593  1.00  0.00    -0.025 NA
BRANCH  25  26
HETATM   26  N1  UNL     1      60.470  12.590   6.257  1.00  0.00    -0.329 N 
ATOM     27  H12 UNL     1      61.267  12.558   6.892  1.00  0.00     0.174 HD
ATOM     28  H11 UNL     1      59.872  11.806   5.998  1.00  0.00     0.174 HD
ENDBRANCH  25  26
ENDBRANCH  22  25
ENDBRANCH  20  21
ENDBRANCH   1  20
BRANCH   4  29
HETATM   29  N5  UNL     1      57.040  20.986   9.619  1.00  0.00    -0.073 N 
ATOM     30  H53 UNL     1      57.414  21.933   9.567  1.00  0.00     0.274 HD
ATOM     31  H52 UNL     1      56.419  21.049   8.812  1.00  0.00     0.274 HD
ATOM     32  H51 UNL     1      56.547  20.794  10.492  1.00  0.00     0.274 HD
ENDBRANCH   4  29
BRANCH   3  33
HETATM   33  N4  UNL     1      58.515  20.847   7.241  1.00  0.00    -0.073 N 
ATOM     34  H43 UNL     1      59.167  20.640   6.484  1.00  0.00     0.274 HD
ATOM     35  H42 UNL     1      57.722  21.165   6.685  1.00  0.00     0.274 HD
ATOM     36  H41 UNL     1      58.870  21.589   7.844  1.00  0.00     0.274 HD
ENDBRANCH   3  33
TORSDOF 11
ENDMDL
MODEL 4
REMARK VINA RESULT: -4.783018975      4.101      6.743
REMARK  11 active torsions:
REMARK  status: ('A' for Active; 'I' for Inactive)
REMARK    1  A    between atoms: N1_1  and  N2_4 
REMARK    2  A    between atoms: N2_4  and  N3_5 
REMARK       I    between atoms: N3_5  and  C1_7 
REMARK    3  A    between atoms: C1_7  and  O2_9 
REMARK    4  A    between atoms: O2_9  and  C2_10 
REMARK    5  A    between atoms: C4_12  and  N4_13 
REMARK    6  A    between atoms: C5_17  and  N5_18 
REMARK    7  A    between atoms: C7_23  and  N6_24 
REMARK    8  A    between atoms: N6_24  and  C8_26 
REMARK    9  A    between atoms: N8_32  and  C10_33 
REMARK   10  A    between atoms: C10_33  and  C11_34 
REMARK   11  A    between atoms: C11_34  and  O5_35 
ROOT
HETATM    1  C2  UNL     1      55.465  15.929   7.549  1.00  0.00     0.159 C 
HETATM    2  C3  UNL     1      55.069  16.556   6.246  1.00  0.00     0.069 C 
HETATM    3  C4  UNL     1      53.752  15.944   5.825  1.00  0.00     0.216 C 
HETATM    4  C5  UNL     1      52.729  16.491   6.801  1.00  0.00     0.216 C 
HETATM    5  C6  UNL     1      53.038  15.969   8.160  1.00  0.00     0.063 C 
HETATM    6  C7  UNL     1      54.434  16.053   8.636  1.00  0.00     0.131 C 
ENDROOT
BRANCH   6   7
HETATM    7  N6  UNL     1      54.636  15.065   9.652  1.00  0.00    -0.217 N 
ATOM      8  H6  UNL     1      54.402  14.112   9.375  1.00  0.00     0.178 HD
BRANCH   7   9
HETATM    9  C8  UNL     1      55.064  15.185  10.853  1.00  0.00     0.705 A 
HETATM   10  N7  UNL     1      56.284  15.200  11.389  1.00  0.00    -0.086 N 
HETATM   11  O3  UNL     1      56.180  15.361  12.669  1.00  0.00    -0.165 OA
ATOM     12  H7  UNL     1      57.158  15.100  10.873  1.00  0.00     0.214 HD
HETATM   13  C9  UNL     1      54.920  15.453  12.988  1.00  0.00     0.404 A 
HETATM   14  O4  UNL     1      54.491  15.615  14.169  1.00  0.00    -0.235 OA
HETATM   15  N8  UNL     1      54.177  15.351  11.893  1.00  0.00    -0.121 N 
BRANCH  15  16
HETATM   16  C10 UNL     1      52.716  15.396  11.784  1.00  0.00     0.179 C 
BRANCH  16  17
HETATM   17  C11 UNL     1      52.242  13.949  11.995  1.00  0.00     0.185 C 
BRANCH  17  18
HETATM   18  O5  UNL     1      52.194  13.283  10.773  1.00  0.00    -0.399 OA
ATOM     19  H5  UNL     1      53.047  13.311  10.356  1.00  0.00     0.209 HD
ENDBRANCH  17  18
ENDBRANCH  16  17
ENDBRANCH  15  16
ENDBRANCH   7   9
ENDBRANCH   6   7
BRANCH   1  20
HETATM   20  O2  UNL     1      56.733  16.404   7.989  1.00  0.00    -0.295 OA
BRANCH  20  21
HETATM   21  C1  UNL     1      57.793  15.556   8.185  1.00  0.00     0.378 C 
HETATM   22  N3  UNL     1      59.161  15.987   8.003  1.00  0.00    -0.230 N 
ATOM     23  H3  UNL     1      59.333  16.952   7.719  1.00  0.00     0.189 HD
HETATM   24  O1  UNL     1      57.530  14.379   8.533  1.00  0.00    -0.237 OA
BRANCH  22  25
HETATM   25  N2  UNL     1      60.247  15.157   8.194  1.00  0.00    -0.025 NA
BRANCH  25  26
HETATM   26  N1  UNL     1      60.374  14.303   7.079  1.00  0.00    -0.329 N 
ATOM     27  H12 UNL     1      59.593  13.948   6.528  1.00  0.00     0.174 HD
ATOM     28  H11 UNL     1      61.362  14.105   6.922  1.00  0.00     0.174 HD
ENDBRANCH  25  26
ENDBRANCH  22  25
ENDBRANCH  20  21
ENDBRANCH   1  20
BRANCH   4  29
HETATM   29  N5  UNL     1      51.431  15.940   6.403  1.00  0.00    -0.073 N 
ATOM     30  H53 UNL     1      51.286  15.940   5.394  1.00  0.00     0.274 HD
ATOM     31  H52 UNL     1      51.362  14.932   6.542  1.00  0.00     0.274 HD
ATOM     32  H51 UNL     1      50.721  16.467   6.912  1.00  0.00     0.274 HD
ENDBRANCH   4  29
BRANCH   3  33
HETATM   33  N4  UNL     1      53.416  16.284   4.456  1.00  0.00    -0.073 N 
ATOM     34  H43 UNL     1      53.910  17.123   4.149  1.00  0.00     0.274 HD
ATOM     35  H42 UNL     1      53.816  15.615   3.798  1.00  0.00     0.274 HD
ATOM     36  H41 UNL     1      52.409  16.378   4.327  1.00  0.00     0.274 HD
ENDBRANCH   3  33
TORSDOF 11
ENDMDL
MODEL 5
REMARK VINA RESULT: -4.760016014      7.147      9.631
REMARK  11 active torsions:
REMARK  status: ('A' for Active; 'I' for Inactive)
REMARK    1  A    between atoms: N1_1  and  N2_4 
REMARK    2  A    between atoms: N2_4  and  N3_5 
REMARK       I    between atoms: N3_5  and  C1_7 
REMARK    3  A    between atoms: C1_7  and  O2_9 
REMARK    4  A    between atoms: O2_9  and  C2_10 
REMARK    5  A    between atoms: C4_12  and  N4_13 
REMARK    6  A    between atoms: C5_17  and  N5_18 
REMARK    7  A    between atoms: C7_23  and  N6_24 
REMARK    8  A    between atoms: N6_24  and  C8_26 
REMARK    9  A    between atoms: N8_32  and  C10_33 
REMARK   10  A    between atoms: C10_33  and  C11_34 
REMARK   11  A    between atoms: C11_34  and  O5_35 
ROOT
HETATM    1  C2  UNL     1      58.236  16.793   7.661  1.00  0.00     0.159 C 
HETATM    2  C3  UNL     1      57.645  17.558   8.808  1.00  0.00     0.069 C 
HETATM    3  C4  UNL     1      56.238  17.045   9.022  1.00  0.00     0.216 C 
HETATM    4  C5  UNL     1      56.405  15.647   9.584  1.00  0.00     0.216 C 
HETATM    5  C6  UNL     1      57.029  14.786   8.543  1.00  0.00     0.063 C 
HETATM    6  C7  UNL     1      58.220  15.301   7.837  1.00  0.00     0.131 C 
ENDROOT
BRANCH   6   7
HETATM    7  N6  UNL     1      58.334  14.633   6.576  1.00  0.00    -0.217 N 
ATOM      8  H6  UNL     1      57.639  14.907   5.882  1.00  0.00     0.178 HD
BRANCH   7   9
HETATM    9  C8  UNL     1      59.169  13.747   6.178  1.00  0.00     0.705 A 
HETATM   10  N7  UNL     1      60.321  13.294   6.671  1.00  0.00    -0.086 N 
HETATM   11  O3  UNL     1      60.781  12.371   5.888  1.00  0.00    -0.165 OA
ATOM     12  H7  UNL     1      60.769  13.622   7.527  1.00  0.00     0.214 HD
HETATM   13  C9  UNL     1      59.958  12.206   4.892  1.00  0.00     0.404 A 
HETATM   14  O4  UNL     1      60.129  11.373   3.953  1.00  0.00    -0.235 OA
HETATM   15  N8  UNL     1      58.933  13.038   5.022  1.00  0.00    -0.121 N 
BRANCH  15  16
HETATM   16  C10 UNL     1      57.777  13.197   4.132  1.00  0.00     0.179 C 
BRANCH  16  17
HETATM   17  C11 UNL     1      58.192  14.262   3.104  1.00  0.00     0.185 C 
BRANCH  17  18
HETATM   18  O5  UNL     1      57.769  15.519   3.527  1.00  0.00    -0.399 OA
ATOM     19  H5  UNL     1      58.514  16.105   3.592  1.00  0.00     0.209 HD
ENDBRANCH  17  18
ENDBRANCH  16  17
ENDBRANCH  15  16
ENDBRANCH   7   9
ENDBRANCH   6   7
BRANCH   1  20
HETATM   20  O2  UNL     1      59.545  17.259   7.348  1.00  0.00    -0.295 OA
BRANCH  20  21
HETATM   21  C1  UNL     1      59.865  17.723   6.097  1.00  0.00     0.378 C 
HETATM   22  N3  UNL     1      58.900  17.745   5.020  1.00  0.00    -0.230 N 
ATOM     23  H3  UNL     1      57.957  17.402   5.205  1.00  0.00     0.189 HD
HETATM   24  O1  UNL     1      61.037  18.134   5.920  1.00  0.00    -0.237 OA
BRANCH  22  25
HETATM   25  N2  UNL     1      59.192  18.207   3.752  1.00  0.00    -0.025 NA
BRANCH  25  26
HETATM   26  N1  UNL     1      60.172  17.373   3.175  1.00  0.00    -0.329 N 
ATOM     27  H12 UNL     1      60.430  16.452   3.527  1.00  0.00     0.174 HD
ATOM     28  H11 UNL     1      60.569  17.842   2.361  1.00  0.00     0.174 HD
ENDBRANCH  25  26
ENDBRANCH  22  25
ENDBRANCH  20  21
ENDBRANCH   1  20
BRANCH   4  29
HETATM   29  N5  UNL     1      55.058  15.130   9.833  1.00  0.00    -0.073 N 
ATOM     30  H53 UNL     1      55.044  14.326  10.460  1.00  0.00     0.274 HD
ATOM     31  H52 UNL     1      54.488  15.751  10.408  1.00  0.00     0.274 HD
ATOM     32  H51 UNL     1      54.645  14.936   8.920  1.00  0.00     0.274 HD
ENDBRANCH   4  29
BRANCH   3  33
HETATM   33  N4  UNL     1      55.491  17.897   9.927  1.00  0.00    -0.073 N 
ATOM     34  H43 UNL     1      54.609  17.464  10.203  1.00  0.00     0.274 HD
ATOM     35  H42 UNL     1      55.936  17.948  10.843  1.00  0.00     0.274 HD
ATOM     36  H41 UNL     1      55.342  18.826   9.534  1.00  0.00     0.274 HD
ENDBRANCH   3  33
TORSDOF 11
ENDMDL
