MODEL 1
REMARK VINA RESULT: -7.151155725      0.000      0.000
REMARK  6 active torsions:
REMARK  status: ('A' for Active; 'I' for Inactive)
REMARK    1  A    between atoms: S1_2  and  C2_4 
REMARK    2  A    between atoms: C2_4  and  C3_5 
REMARK    3  A    between atoms: C6_8  and  C7_9 
REMARK    4  A    between atoms: C12_19  and  N3_20 
REMARK    5  A    between atoms: N3_20  and  C13_22 
REMARK    6  A    between atoms: C13_22  and  C14_23 
ROOT
HETATM    1  C7  UNL     1     -30.274  -4.420 -11.513  1.00  0.00     0.046 A 
HETATM    2  C8  UNL     1     -31.116  -3.915 -10.546  1.00  0.00     0.062 A 
HETATM    3  C9  UNL     1     -32.086  -2.996 -10.782  1.00  0.00     0.069 A 
HETATM    4  N1  UNL     1     -33.015  -2.355 -10.021  1.00  0.00    -0.306 N 
ATOM      5  H1  UNL     1     -33.133  -2.496  -9.017  1.00  0.00     0.171 HD
HETATM    6  C10 UNL     1     -33.756  -1.513 -10.759  1.00  0.00     0.325 A 
HETATM    7  O2  UNL     1     -34.695  -0.761 -10.407  1.00  0.00    -0.247 OA
HETATM    8  N2  UNL     1     -33.274  -1.633 -12.028  1.00  0.00    -0.303 N 
ATOM      9  H2  UNL     1     -33.625  -1.125 -12.840  1.00  0.00     0.171 HD
HETATM   10  C11 UNL     1     -32.263  -2.523 -12.047  1.00  0.00     0.108 A 
HETATM   11  C12 UNL     1     -31.417  -3.020 -13.071  1.00  0.00     0.135 A 
HETATM   12  N5  UNL     1     -30.471  -3.943 -12.744  1.00  0.00    -0.340 N 
ATOM     13  H5  UNL     1     -29.872  -4.295 -13.491  1.00  0.00     0.167 HD
ENDROOT
BRANCH   1  14
HETATM   14  C6  UNL     1     -29.206  -5.369 -11.206  1.00  0.00    -0.006 A 
HETATM   15  C5  UNL     1     -28.271  -5.784 -12.168  1.00  0.00     0.014 A 
HETATM   16  C4  UNL     1     -27.244  -6.677 -11.819  1.00  0.00     0.012 A 
HETATM   17  C3  UNL     1     -27.106  -7.183 -10.557  1.00  0.00    -0.008 A 
HETATM   18  C20 UNL     1     -28.053  -6.757  -9.611  1.00  0.00     0.124 A 
HETATM   19  C19 UNL     1     -29.057  -5.887  -9.935  1.00  0.00     0.056 A 
HETATM   20  F1  UNL     1     -27.904  -7.280  -8.344  1.00  0.00    -0.205 F 
BRANCH  17  21
HETATM   21  C2  UNL     1     -26.174  -8.285 -10.227  1.00  0.00     0.149 C 
BRANCH  21  22
HETATM   22  S1  UNL     1     -26.850  -9.851 -10.691  1.00  0.00     0.015 S 
HETATM   23  C1  UNL     1     -25.633 -10.877 -11.538  1.00  0.00     0.127 C 
HETATM   24  O1  UNL     1     -27.556 -10.670  -9.444  1.00  0.00    -0.258 OA
ENDBRANCH  21  22
ENDBRANCH  17  21
ENDBRANCH   1  14
BRANCH  11  25
HETATM   25  N3  UNL     1     -31.602  -2.562 -14.202  1.00  0.00    -0.350 N 
ATOM     26  H3  UNL     1     -32.597  -2.357 -14.303  1.00  0.00     0.166 HD
BRANCH  25  27
HETATM   27  C13 UNL     1     -30.971  -2.225 -15.379  1.00  0.00     0.101 C 
BRANCH  27  28
HETATM   28  C14 UNL     1     -31.887  -1.375 -16.227  1.00  0.00    -0.018 A 
HETATM   29  C15 UNL     1     -31.511  -0.192 -16.770  1.00  0.00     0.030 A 
HETATM   30  C16 UNL     1     -32.393   0.524 -17.549  1.00  0.00     0.088 A 
HETATM   31  N4  UNL     1     -33.603   0.026 -17.753  1.00  0.00    -0.375 N 
HETATM   32  C17 UNL     1     -34.022  -1.139 -17.240  1.00  0.00     0.088 A 
ATOM     33  H4  UNL     1     -34.252   0.559 -18.333  1.00  0.00     0.164 HD
HETATM   34  C18 UNL     1     -33.171  -1.883 -16.452  1.00  0.00     0.030 A 
ENDBRANCH  27  28
ENDBRANCH  25  27
ENDBRANCH  11  25
TORSDOF 6
ENDMDL
MODEL 2
REMARK VINA RESULT: -7.009467386      0.869      1.127
REMARK  6 active torsions:
REMARK  status: ('A' for Active; 'I' for Inactive)
REMARK    1  A    between atoms: S1_2  and  C2_4 
REMARK    2  A    between atoms: C2_4  and  C3_5 
REMARK    3  A    between atoms: C6_8  and  C7_9 
REMARK    4  A    between atoms: C12_19  and  N3_20 
REMARK    5  A    between atoms: N3_20  and  C13_22 
REMARK    6  A    between atoms: C13_22  and  C14_23 
ROOT
HETATM    1  C7  UNL     1     -30.245  -4.482 -11.466  1.00  0.00     0.046 A 
HETATM    2  C8  UNL     1     -31.062  -3.957 -10.488  1.00  0.00     0.062 A 
HETATM    3  C9  UNL     1     -32.042  -3.048 -10.719  1.00  0.00     0.069 A 
HETATM    4  N1  UNL     1     -32.953  -2.392  -9.948  1.00  0.00    -0.306 N 
ATOM      5  H1  UNL     1     -33.043  -2.510  -8.938  1.00  0.00     0.171 HD
HETATM    6  C10 UNL     1     -33.716  -1.571 -10.685  1.00  0.00     0.325 A 
HETATM    7  O2  UNL     1     -34.649  -0.814 -10.325  1.00  0.00    -0.247 OA
HETATM    8  N2  UNL     1     -33.269  -1.719 -11.963  1.00  0.00    -0.303 N 
ATOM      9  H2  UNL     1     -33.645  -1.232 -12.777  1.00  0.00     0.171 HD
HETATM   10  C11 UNL     1     -32.256  -2.605 -11.989  1.00  0.00     0.108 A 
HETATM   11  C12 UNL     1     -31.436  -3.123 -13.024  1.00  0.00     0.135 A 
HETATM   12  N5  UNL     1     -30.477  -4.035 -12.702  1.00  0.00    -0.340 N 
ATOM     13  H5  UNL     1     -29.897  -4.402 -13.457  1.00  0.00     0.167 HD
ENDROOT
BRANCH   1  14
HETATM   14  C6  UNL     1     -29.165  -5.420 -11.165  1.00  0.00    -0.006 A 
HETATM   15  C5  UNL     1     -28.219  -5.808 -12.128  1.00  0.00     0.014 A 
HETATM   16  C4  UNL     1     -27.181  -6.691 -11.786  1.00  0.00     0.012 A 
HETATM   17  C3  UNL     1     -27.042  -7.213 -10.530  1.00  0.00    -0.008 A 
HETATM   18  C20 UNL     1     -28.001  -6.814  -9.584  1.00  0.00     0.124 A 
HETATM   19  C19 UNL     1     -29.015  -5.954  -9.902  1.00  0.00     0.056 A 
HETATM   20  F1  UNL     1     -27.852  -7.353  -8.324  1.00  0.00    -0.205 F 
BRANCH  17  21
HETATM   21  C2  UNL     1     -26.096  -8.306 -10.211  1.00  0.00     0.149 C 
BRANCH  21  22
HETATM   22  S1  UNL     1     -26.750  -9.875 -10.694  1.00  0.00     0.015 S 
HETATM   23  C1  UNL     1     -25.503 -10.894 -11.506  1.00  0.00     0.127 C 
HETATM   24  O1  UNL     1     -27.487 -10.699  -9.470  1.00  0.00    -0.258 OA
ENDBRANCH  21  22
ENDBRANCH  17  21
ENDBRANCH   1  14
BRANCH  11  25
HETATM   25  N3  UNL     1     -31.654  -2.693 -14.160  1.00  0.00    -0.350 N 
ATOM     26  H3  UNL     1     -31.234  -1.766 -14.236  1.00  0.00     0.166 HD
BRANCH  25  27
HETATM   27  C13 UNL     1     -32.252  -2.994 -15.364  1.00  0.00     0.101 C 
BRANCH  27  28
HETATM   28  C14 UNL     1     -31.707  -2.094 -16.447  1.00  0.00    -0.018 A 
HETATM   29  C15 UNL     1     -30.939  -2.543 -17.469  1.00  0.00     0.030 A 
HETATM   30  C16 UNL     1     -30.490  -1.668 -18.433  1.00  0.00     0.088 A 
HETATM   31  N4  UNL     1     -30.829  -0.392 -18.336  1.00  0.00    -0.375 N 
HETATM   32  C17 UNL     1     -31.587   0.101 -17.347  1.00  0.00     0.088 A 
ATOM     33  H4  UNL     1     -30.496   0.252 -19.054  1.00  0.00     0.164 HD
HETATM   34  C18 UNL     1     -32.053  -0.741 -16.360  1.00  0.00     0.030 A 
ENDBRANCH  27  28
ENDBRANCH  25  27
ENDBRANCH  11  25
TORSDOF 6
ENDMDL
MODEL 3
REMARK VINA RESULT: -7.002900446      4.514      9.184
REMARK  6 active torsions:
REMARK  status: ('A' for Active; 'I' for Inactive)
REMARK    1  A    between atoms: S1_2  and  C2_4 
REMARK    2  A    between atoms: C2_4  and  C3_5 
REMARK    3  A    between atoms: C6_8  and  C7_9 
REMARK    4  A    between atoms: C12_19  and  N3_20 
REMARK    5  A    between atoms: N3_20  and  C13_22 
REMARK    6  A    between atoms: C13_22  and  C14_23 
ROOT
HETATM    1  C7  UNL     1     -28.948  -5.077 -12.250  1.00  0.00     0.046 A 
HETATM    2  C8  UNL     1     -29.275  -5.709 -11.069  1.00  0.00     0.062 A 
HETATM    3  C9  UNL     1     -28.501  -6.643 -10.463  1.00  0.00     0.069 A 
HETATM    4  N1  UNL     1     -28.601  -7.394  -9.332  1.00  0.00    -0.306 N 
ATOM      5  H1  UNL     1     -29.387  -7.353  -8.682  1.00  0.00     0.171 HD
HETATM    6  C10 UNL     1     -27.536  -8.196  -9.181  1.00  0.00     0.325 A 
HETATM    7  O2  UNL     1     -27.281  -9.019  -8.271  1.00  0.00    -0.247 OA
HETATM    8  N2  UNL     1     -26.739  -7.937 -10.256  1.00  0.00    -0.303 N 
ATOM      9  H2  UNL     1     -25.840  -8.382 -10.442  1.00  0.00     0.171 HD
HETATM   10  C11 UNL     1     -27.319  -7.004 -11.035  1.00  0.00     0.108 A 
HETATM   11  C12 UNL     1     -26.946  -6.376 -12.251  1.00  0.00     0.135 A 
HETATM   12  N5  UNL     1     -27.783  -5.445 -12.788  1.00  0.00    -0.340 N 
ATOM     13  H5  UNL     1     -27.500  -4.999 -13.661  1.00  0.00     0.167 HD
ENDROOT
BRANCH   1  14
HETATM   14  C6  UNL     1     -29.836  -4.114 -12.898  1.00  0.00    -0.006 A 
HETATM   15  C5  UNL     1     -29.587  -3.611 -14.185  1.00  0.00     0.014 A 
HETATM   16  C4  UNL     1     -30.484  -2.707 -14.778  1.00  0.00     0.012 A 
HETATM   17  C3  UNL     1     -31.617  -2.274 -14.148  1.00  0.00    -0.008 A 
HETATM   18  C20 UNL     1     -31.846  -2.788 -12.861  1.00  0.00     0.124 A 
HETATM   19  C19 UNL     1     -30.983  -3.669 -12.271  1.00  0.00     0.056 A 
HETATM   20  F1  UNL     1     -32.989  -2.338 -12.236  1.00  0.00    -0.205 F 
BRANCH  17  21
HETATM   21  C2  UNL     1     -32.451  -1.164 -14.662  1.00  0.00     0.149 C 
BRANCH  21  22
HETATM   22  S1  UNL     1     -32.373  -1.072 -16.425  1.00  0.00     0.015 S 
HETATM   23  C1  UNL     1     -33.305  -2.406 -17.203  1.00  0.00     0.127 C 
HETATM   24  O1  UNL     1     -32.808   0.396 -17.040  1.00  0.00    -0.258 OA
ENDBRANCH  21  22
ENDBRANCH  17  21
ENDBRANCH   1  14
BRANCH  11  25
HETATM   25  N3  UNL     1     -25.872  -6.734 -12.743  1.00  0.00    -0.350 N 
ATOM     26  H3  UNL     1     -25.663  -7.673 -12.402  1.00  0.00     0.166 HD
BRANCH  25  27
HETATM   27  C13 UNL     1     -24.850  -6.342 -13.579  1.00  0.00     0.101 C 
BRANCH  27  28
HETATM   28  C14 UNL     1     -23.543  -6.337 -12.824  1.00  0.00    -0.018 A 
HETATM   29  C15 UNL     1     -23.231  -7.249 -11.873  1.00  0.00     0.030 A 
HETATM   30  C16 UNL     1     -22.012  -7.196 -11.234  1.00  0.00     0.088 A 
HETATM   31  N4  UNL     1     -21.161  -6.241 -11.577  1.00  0.00    -0.375 N 
HETATM   32  C17 UNL     1     -21.420  -5.316 -12.511  1.00  0.00     0.088 A 
ATOM     33  H4  UNL     1     -20.258  -6.207 -11.103  1.00  0.00     0.164 HD
HETATM   34  C18 UNL     1     -22.631  -5.333 -13.170  1.00  0.00     0.030 A 
ENDBRANCH  27  28
ENDBRANCH  25  27
ENDBRANCH  11  25
TORSDOF 6
ENDMDL
MODEL 4
REMARK VINA RESULT: -6.984101345      1.828      2.320
REMARK  6 active torsions:
REMARK  status: ('A' for Active; 'I' for Inactive)
REMARK    1  A    between atoms: S1_2  and  C2_4 
REMARK    2  A    between atoms: C2_4  and  C3_5 
REMARK    3  A    between atoms: C6_8  and  C7_9 
REMARK    4  A    between atoms: C12_19  and  N3_20 
REMARK    5  A    between atoms: N3_20  and  C13_22 
REMARK    6  A    between atoms: C13_22  and  C14_23 
ROOT
HETATM    1  C7  UNL     1     -29.846  -5.296 -10.858  1.00  0.00     0.046 A 
HETATM    2  C8  UNL     1     -30.106  -4.213 -10.045  1.00  0.00     0.062 A 
HETATM    3  C9  UNL     1     -31.201  -3.421 -10.155  1.00  0.00     0.069 A 
HETATM    4  N1  UNL     1     -31.669  -2.323  -9.499  1.00  0.00    -0.306 N 
ATOM      5  H1  UNL     1     -31.194  -1.876  -8.714  1.00  0.00     0.171 HD
HETATM    6  C10 UNL     1     -32.835  -1.905 -10.016  1.00  0.00     0.325 A 
HETATM    7  O2  UNL     1     -33.554  -0.936  -9.677  1.00  0.00    -0.247 OA
HETATM    8  N2  UNL     1     -33.106  -2.772 -11.032  1.00  0.00    -0.303 N 
ATOM      9  H2  UNL     1     -33.930  -2.734 -11.631  1.00  0.00     0.171 HD
HETATM   10  C11 UNL     1     -32.122  -3.685 -11.123  1.00  0.00     0.108 A 
HETATM   11  C12 UNL     1     -31.891  -4.793 -11.980  1.00  0.00     0.135 A 
HETATM   12  N5  UNL     1     -30.765  -5.536 -11.795  1.00  0.00    -0.340 N 
ATOM     13  H5  UNL     1     -30.614  -6.332 -12.416  1.00  0.00     0.167 HD
ENDROOT
BRANCH   1  14
HETATM   14  C6  UNL     1     -28.625  -6.091 -10.739  1.00  0.00    -0.006 A 
HETATM   15  C5  UNL     1     -27.716  -6.233 -11.800  1.00  0.00     0.014 A 
HETATM   16  C4  UNL     1     -26.542  -6.985 -11.631  1.00  0.00     0.012 A 
HETATM   17  C3  UNL     1     -26.231  -7.610 -10.456  1.00  0.00    -0.008 A 
HETATM   18  C20 UNL     1     -27.155  -7.457  -9.409  1.00  0.00     0.124 A 
HETATM   19  C19 UNL     1     -28.301  -6.727  -9.558  1.00  0.00     0.056 A 
HETATM   20  F1  UNL     1     -26.831  -8.098  -8.232  1.00  0.00    -0.205 F 
BRANCH  17  21
HETATM   21  C2  UNL     1     -25.119  -8.580 -10.328  1.00  0.00     0.149 C 
BRANCH  21  22
HETATM   22  S1  UNL     1     -25.257  -9.868 -11.531  1.00  0.00     0.015 S 
HETATM   23  C1  UNL     1     -24.004  -9.713 -12.818  1.00  0.00     0.127 C 
HETATM   24  O1  UNL     1     -25.265 -11.387 -10.886  1.00  0.00    -0.258 OA
ENDBRANCH  21  22
ENDBRANCH  17  21
ENDBRANCH   1  14
BRANCH  11  25
HETATM   25  N3  UNL     1     -32.743  -4.997 -12.848  1.00  0.00    -0.350 N 
ATOM     26  H3  UNL     1     -33.570  -5.388 -12.398  1.00  0.00     0.166 HD
BRANCH  25  27
HETATM   27  C13 UNL     1     -32.996  -4.895 -14.199  1.00  0.00     0.101 C 
BRANCH  27  28
HETATM   28  C14 UNL     1     -31.995  -3.965 -14.841  1.00  0.00    -0.018 A 
HETATM   29  C15 UNL     1     -30.875  -4.398 -15.468  1.00  0.00     0.030 A 
HETATM   30  C16 UNL     1     -30.012  -3.494 -16.047  1.00  0.00     0.088 A 
HETATM   31  N4  UNL     1     -30.308  -2.206 -15.979  1.00  0.00    -0.375 N 
HETATM   32  C17 UNL     1     -31.403  -1.727 -15.372  1.00  0.00     0.088 A 
ATOM     33  H4  UNL     1     -29.667  -1.540 -16.412  1.00  0.00     0.164 HD
HETATM   34  C18 UNL     1     -32.289  -2.599 -14.777  1.00  0.00     0.030 A 
ENDBRANCH  27  28
ENDBRANCH  25  27
ENDBRANCH  11  25
TORSDOF 6
ENDMDL
MODEL 5
REMARK VINA RESULT: -6.868074552      2.246      2.956
REMARK  6 active torsions:
REMARK  status: ('A' for Active; 'I' for Inactive)
REMARK    1  A    between atoms: S1_2  and  C2_4 
REMARK    2  A    between atoms: C2_4  and  C3_5 
REMARK    3  A    between atoms: C6_8  and  C7_9 
REMARK    4  A    between atoms: C12_19  and  N3_20 
REMARK    5  A    between atoms: N3_20  and  C13_22 
REMARK    6  A    between atoms: C13_22  and  C14_23 
ROOT
HETATM    1  C7  UNL     1     -29.339  -5.571 -10.761  1.00  0.00     0.046 A 
HETATM    2  C8  UNL     1     -29.592  -4.466  -9.977  1.00  0.00     0.062 A 
HETATM    3  C9  UNL     1     -30.713  -3.708 -10.064  1.00  0.00     0.069 A 
HETATM    4  N1  UNL     1     -31.182  -2.599  -9.427  1.00  0.00    -0.306 N 
ATOM      5  H1  UNL     1     -30.684  -2.110  -8.683  1.00  0.00     0.171 HD
HETATM    6  C10 UNL     1     -32.381  -2.232  -9.904  1.00  0.00     0.325 A 
HETATM    7  O2  UNL     1     -33.111  -1.271  -9.567  1.00  0.00    -0.247 OA
HETATM    8  N2  UNL     1     -32.674  -3.144 -10.873  1.00  0.00    -0.303 N 
ATOM      9  H2  UNL     1     -33.526  -3.151 -11.434  1.00  0.00     0.171 HD
HETATM   10  C11 UNL     1     -31.670  -4.034 -10.977  1.00  0.00     0.108 A 
HETATM   11  C12 UNL     1     -31.448  -5.166 -11.803  1.00  0.00     0.135 A 
HETATM   12  N5  UNL     1     -30.294  -5.872 -11.644  1.00  0.00    -0.340 N 
ATOM     13  H5  UNL     1     -30.148  -6.686 -12.242  1.00  0.00     0.167 HD
ENDROOT
BRANCH   1  14
HETATM   14  C6  UNL     1     -28.092  -6.329 -10.671  1.00  0.00    -0.006 A 
HETATM   15  C5  UNL     1     -27.744  -7.067  -9.528  1.00  0.00     0.014 A 
HETATM   16  C4  UNL     1     -26.547  -7.803  -9.498  1.00  0.00     0.012 A 
HETATM   17  C3  UNL     1     -25.676  -7.835 -10.550  1.00  0.00    -0.008 A 
HETATM   18  C20 UNL     1     -26.043  -7.088 -11.682  1.00  0.00     0.124 A 
HETATM   19  C19 UNL     1     -27.204  -6.368 -11.727  1.00  0.00     0.056 A 
HETATM   20  F1  UNL     1     -25.151  -7.125 -12.733  1.00  0.00    -0.205 F 
BRANCH  17  21
HETATM   21  C2  UNL     1     -24.319  -8.419 -10.456  1.00  0.00     0.149 C 
BRANCH  21  22
HETATM   22  S1  UNL     1     -24.246  -9.993 -11.258  1.00  0.00     0.015 S 
HETATM   23  C1  UNL     1     -22.704 -10.854 -10.893  1.00  0.00     0.127 C 
HETATM   24  O1  UNL     1     -25.552 -10.957 -10.960  1.00  0.00    -0.258 OA
ENDBRANCH  21  22
ENDBRANCH  17  21
ENDBRANCH   1  14
BRANCH  11  25
HETATM   25  N3  UNL     1     -32.332  -5.426 -12.622  1.00  0.00    -0.350 N 
ATOM     26  H3  UNL     1     -33.030  -6.011 -12.163  1.00  0.00     0.166 HD
BRANCH  25  27
HETATM   27  C13 UNL     1     -32.732  -5.223 -13.925  1.00  0.00     0.101 C 
BRANCH  27  28
HETATM   28  C14 UNL     1     -31.786  -4.264 -14.608  1.00  0.00    -0.018 A 
HETATM   29  C15 UNL     1     -30.666  -4.661 -15.256  1.00  0.00     0.030 A 
HETATM   30  C16 UNL     1     -29.856  -3.733 -15.873  1.00  0.00     0.088 A 
HETATM   31  N4  UNL     1     -30.204  -2.456 -15.819  1.00  0.00    -0.375 N 
HETATM   32  C17 UNL     1     -31.303  -2.013 -15.193  1.00  0.00     0.088 A 
ATOM     33  H4  UNL     1     -29.603  -1.773 -16.280  1.00  0.00     0.164 HD
HETATM   34  C18 UNL     1     -32.136  -2.910 -14.560  1.00  0.00     0.030 A 
ENDBRANCH  27  28
ENDBRANCH  25  27
ENDBRANCH  11  25
TORSDOF 6
ENDMDL
