MODEL 1
REMARK VINA RESULT: -5.621680398      0.000      0.000
REMARK  4 active torsions:
REMARK  status: ('A' for Active; 'I' for Inactive)
REMARK    1  A    between atoms: N1_1  and  C1_4 
REMARK    2  A    between atoms: C2_9  and  C3_10 
REMARK    3  A    between atoms: C3_10  and  O1_11 
REMARK    4  A    between atoms: O1_11  and  C4_12 
ROOT
HETATM    1  C1  UNL     1       8.164  25.597  -2.284  1.00  0.00     0.164 A 
HETATM    2  N2  UNL     1       9.256  24.917  -2.650  1.00  0.00    -0.282 N 
ATOM      3  H2  UNL     1       9.540  24.104  -2.104  1.00  0.00     0.188 HD
HETATM    4  N3  UNL     1       9.984  25.269  -3.707  1.00  0.00    -0.301 N 
ATOM      5  H3  UNL     1      10.807  24.717  -3.945  1.00  0.00     0.186 HD
HETATM    6  C2  UNL     1       9.671  26.326  -4.470  1.00  0.00     0.054 A 
HETATM    7  C6  UNL     1       8.554  27.055  -4.127  1.00  0.00     0.087 A 
HETATM    8  C7  UNL     1       7.802  26.693  -3.037  1.00  0.00     0.218 A 
HETATM    9  O3  UNL     1       6.768  27.338  -2.690  1.00  0.00    -0.284 OA
ENDROOT
BRANCH   6  10
HETATM   10  C3  UNL     1      10.513  26.713  -5.672  1.00  0.00     0.237 C 
BRANCH  10  11
HETATM   11  O1  UNL     1      10.588  25.844  -6.609  1.00  0.00    -0.315 OA
BRANCH  11  12
HETATM   12  C4  UNL     1      10.663  24.967  -7.554  1.00  0.00     0.242 A 
HETATM   13  N4  UNL     1      11.722  24.736  -8.404  1.00  0.00    -0.272 N 
HETATM   14  C5  UNL     1      11.435  23.761  -9.244  1.00  0.00     0.342 A 
ATOM     15  H4  UNL     1      12.605  25.247  -8.386  1.00  0.00     0.174 HD
HETATM   16  O2  UNL     1      12.126  23.246 -10.173  1.00  0.00    -0.245 OA
HETATM   17  N5  UNL     1      10.197  23.339  -8.966  1.00  0.00    -0.248 N 
HETATM   18  N6  UNL     1       9.730  24.043  -7.970  1.00  0.00    -0.261 N 
ATOM     19  H5  UNL     1       9.700  22.592  -9.450  1.00  0.00     0.192 HD
ATOM     20  H6  UNL     1       8.805  23.925  -7.558  1.00  0.00     0.190 HD
ENDBRANCH  11  12
ENDBRANCH  10  11
ENDBRANCH   6  10
BRANCH   1  21
HETATM   21  N1  UNL     1       7.493  25.227  -1.266  1.00  0.00    -0.381 N 
ATOM     22  H12 UNL     1       7.513  25.746  -0.388  1.00  0.00     0.157 HD
ATOM     23  H11 UNL     1       6.915  24.388  -1.311  1.00  0.00     0.157 HD
ENDBRANCH   1  21
TORSDOF 4
ENDMDL
MODEL 2
REMARK VINA RESULT: -5.615487778      1.548      6.503
REMARK  4 active torsions:
REMARK  status: ('A' for Active; 'I' for Inactive)
REMARK    1  A    between atoms: N1_1  and  C1_4 
REMARK    2  A    between atoms: C2_9  and  C3_10 
REMARK    3  A    between atoms: C3_10  and  O1_11 
REMARK    4  A    between atoms: O1_11  and  C4_12 
ROOT
HETATM    1  C1  UNL     1      11.077  23.607  -8.865  1.00  0.00     0.164 A 
HETATM    2  N2  UNL     1       9.851  23.862  -8.394  1.00  0.00    -0.282 N 
ATOM      3  H2  UNL     1       9.081  23.247  -8.659  1.00  0.00     0.188 HD
HETATM    4  N3  UNL     1       9.604  24.894  -7.591  1.00  0.00    -0.301 N 
ATOM      5  H3  UNL     1       8.652  25.044  -7.258  1.00  0.00     0.186 HD
HETATM    6  C2  UNL     1      10.566  25.744  -7.204  1.00  0.00     0.054 A 
HETATM    7  C6  UNL     1      11.843  25.518  -7.666  1.00  0.00     0.087 A 
HETATM    8  C7  UNL     1      12.100  24.454  -8.495  1.00  0.00     0.218 A 
HETATM    9  O3  UNL     1      13.261  24.214  -8.940  1.00  0.00    -0.284 OA
ENDROOT
BRANCH   6  10
HETATM   10  C3  UNL     1      10.266  26.915  -6.286  1.00  0.00     0.237 C 
BRANCH  10  11
HETATM   11  O1  UNL     1       9.692  26.630  -5.179  1.00  0.00    -0.315 OA
BRANCH  11  12
HETATM   12  C4  UNL     1       9.113  26.343  -4.061  1.00  0.00     0.242 A 
HETATM   13  N4  UNL     1       9.431  25.329  -3.185  1.00  0.00    -0.272 N 
HETATM   14  C5  UNL     1       8.618  25.343  -2.147  1.00  0.00     0.342 A 
ATOM     15  H4  UNL     1      10.191  24.661  -3.319  1.00  0.00     0.174 HD
HETATM   16  O2  UNL     1       8.571  24.591  -1.129  1.00  0.00    -0.245 OA
HETATM   17  N5  UNL     1       7.759  26.354  -2.321  1.00  0.00    -0.248 N 
HETATM   18  N6  UNL     1       8.041  26.952  -3.447  1.00  0.00    -0.261 N 
ATOM     19  H5  UNL     1       7.009  26.614  -1.681  1.00  0.00     0.192 HD
ATOM     20  H6  UNL     1       7.538  27.757  -3.819  1.00  0.00     0.190 HD
ENDBRANCH  11  12
ENDBRANCH  10  11
ENDBRANCH   6  10
BRANCH   1  21
HETATM   21  N1  UNL     1      11.272  22.609  -9.631  1.00  0.00    -0.381 N 
ATOM     22  H12 UNL     1      10.508  22.154 -10.130  1.00  0.00     0.157 HD
ATOM     23  H11 UNL     1      12.214  22.239  -9.759  1.00  0.00     0.157 HD
ENDBRANCH   1  21
TORSDOF 4
ENDMDL
MODEL 3
REMARK VINA RESULT: -5.486133059      1.680      6.649
REMARK  4 active torsions:
REMARK  status: ('A' for Active; 'I' for Inactive)
REMARK    1  A    between atoms: N1_1  and  C1_4 
REMARK    2  A    between atoms: C2_9  and  C3_10 
REMARK    3  A    between atoms: C3_10  and  O1_11 
REMARK    4  A    between atoms: O1_11  and  C4_12 
ROOT
HETATM    1  C1  UNL     1      11.864  23.252  -8.990  1.00  0.00     0.164 A 
HETATM    2  N2  UNL     1      10.565  23.004  -8.787  1.00  0.00    -0.282 N 
ATOM      3  H2  UNL     1      10.162  22.143  -9.155  1.00  0.00     0.188 HD
HETATM    4  N3  UNL     1       9.783  23.849  -8.119  1.00  0.00    -0.301 N 
ATOM      5  H3  UNL     1       8.799  23.613  -7.990  1.00  0.00     0.186 HD
HETATM    6  C2  UNL     1      10.245  25.000  -7.609  1.00  0.00     0.054 A 
HETATM    7  C6  UNL     1      11.577  25.293  -7.797  1.00  0.00     0.087 A 
HETATM    8  C7  UNL     1      12.386  24.423  -8.486  1.00  0.00     0.218 A 
HETATM    9  O3  UNL     1      13.615  24.659  -8.678  1.00  0.00    -0.284 OA
ENDROOT
BRANCH   6  10
HETATM   10  C3  UNL     1       9.338  25.950  -6.849  1.00  0.00     0.237 C 
BRANCH  10  11
HETATM   11  O1  UNL     1       9.457  25.943  -5.575  1.00  0.00    -0.315 OA
BRANCH  11  12
HETATM   12  C4  UNL     1       9.576  25.937  -4.289  1.00  0.00     0.242 A 
HETATM   13  N4  UNL     1       8.745  25.336  -3.370  1.00  0.00    -0.272 N 
HETATM   14  C5  UNL     1       9.184  25.542  -2.145  1.00  0.00     0.342 A 
ATOM     15  H4  UNL     1       7.906  24.805  -3.606  1.00  0.00     0.174 HD
HETATM   16  O2  UNL     1       8.716  25.166  -1.029  1.00  0.00    -0.245 OA
HETATM   17  N5  UNL     1      10.299  26.275  -2.234  1.00  0.00    -0.248 N 
HETATM   18  N6  UNL     1      10.542  26.514  -3.494  1.00  0.00    -0.261 N 
ATOM     19  H5  UNL     1      10.866  26.594  -1.449  1.00  0.00     0.192 HD
ATOM     20  H6  UNL     1      11.334  27.053  -3.842  1.00  0.00     0.190 HD
ENDBRANCH  11  12
ENDBRANCH  10  11
ENDBRANCH   6  10
BRANCH   1  21
HETATM   21  N1  UNL     1      12.579  22.418  -9.634  1.00  0.00    -0.381 N 
ATOM     22  H12 UNL     1      13.576  22.306  -9.450  1.00  0.00     0.157 HD
ATOM     23  H11 UNL     1      12.159  21.837 -10.360  1.00  0.00     0.157 HD
ENDBRANCH   1  21
TORSDOF 4
ENDMDL
MODEL 4
REMARK VINA RESULT: -5.485515359      1.838      6.854
REMARK  4 active torsions:
REMARK  status: ('A' for Active; 'I' for Inactive)
REMARK    1  A    between atoms: N1_1  and  C1_4 
REMARK    2  A    between atoms: C2_9  and  C3_10 
REMARK    3  A    between atoms: C3_10  and  O1_11 
REMARK    4  A    between atoms: O1_11  and  C4_12 
ROOT
HETATM    1  C1  UNL     1      12.952  24.129  -9.251  1.00  0.00     0.164 A 
HETATM    2  N2  UNL     1      12.994  25.161  -8.400  1.00  0.00    -0.282 N 
ATOM      3  H2  UNL     1      13.874  25.659  -8.270  1.00  0.00     0.188 HD
HETATM    4  N3  UNL     1      11.921  25.556  -7.719  1.00  0.00    -0.301 N 
ATOM      5  H3  UNL     1      12.005  26.350  -7.084  1.00  0.00     0.186 HD
HETATM    6  C2  UNL     1      10.733  24.947  -7.839  1.00  0.00     0.054 A 
HETATM    7  C6  UNL     1      10.647  23.879  -8.704  1.00  0.00     0.087 A 
HETATM    8  C7  UNL     1      11.752  23.469  -9.408  1.00  0.00     0.218 A 
HETATM    9  O3  UNL     1      11.712  22.492 -10.213  1.00  0.00    -0.284 OA
ENDROOT
BRANCH   6  10
HETATM   10  C3  UNL     1       9.521  25.413  -7.055  1.00  0.00     0.237 C 
BRANCH  10  11
HETATM   11  O1  UNL     1       9.680  25.530  -5.790  1.00  0.00    -0.315 OA
BRANCH  11  12
HETATM   12  C4  UNL     1       9.841  25.651  -4.515  1.00  0.00     0.242 A 
HETATM   13  N4  UNL     1       8.957  25.300  -3.519  1.00  0.00    -0.272 N 
HETATM   14  C5  UNL     1       9.465  25.570  -2.333  1.00  0.00     0.342 A 
ATOM     15  H4  UNL     1       8.037  24.888  -3.677  1.00  0.00     0.174 HD
HETATM   16  O2  UNL     1       8.983  25.403  -1.174  1.00  0.00    -0.245 OA
HETATM   17  N5  UNL     1      10.679  26.098  -2.525  1.00  0.00    -0.248 N 
HETATM   18  N6  UNL     1      10.913  26.151  -3.808  1.00  0.00    -0.261 N 
ATOM     19  H5  UNL     1      11.316  26.408  -1.792  1.00  0.00     0.192 HD
ATOM     20  H6  UNL     1      11.769  26.512  -4.230  1.00  0.00     0.190 HD
ENDBRANCH  11  12
ENDBRANCH  10  11
ENDBRANCH   6  10
BRANCH   1  21
HETATM   21  N1  UNL     1      14.001  23.781  -9.885  1.00  0.00    -0.381 N 
ATOM     22  H12 UNL     1      14.804  24.403  -9.982  1.00  0.00     0.157 HD
ATOM     23  H11 UNL     1      14.056  22.859 -10.315  1.00  0.00     0.157 HD
ENDBRANCH   1  21
TORSDOF 4
ENDMDL
MODEL 5
REMARK VINA RESULT: -5.372550191      3.637      5.922
REMARK  4 active torsions:
REMARK  status: ('A' for Active; 'I' for Inactive)
REMARK    1  A    between atoms: N1_1  and  C1_4 
REMARK    2  A    between atoms: C2_9  and  C3_10 
REMARK    3  A    between atoms: C3_10  and  O1_11 
REMARK    4  A    between atoms: O1_11  and  C4_12 
ROOT
HETATM    1  C1  UNL     1      10.110  25.126  -7.540  1.00  0.00     0.164 A 
HETATM    2  N2  UNL     1       9.712  24.076  -8.268  1.00  0.00    -0.282 N 
ATOM      3  H2  UNL     1       8.732  23.796  -8.238  1.00  0.00     0.188 HD
HETATM    4  N3  UNL     1      10.557  23.387  -9.031  1.00  0.00    -0.301 N 
ATOM      5  H3  UNL     1      10.204  22.595  -9.568  1.00  0.00     0.186 HD
HETATM    6  C2  UNL     1      11.858  23.698  -9.117  1.00  0.00     0.054 A 
HETATM    7  C6  UNL     1      12.310  24.771  -8.383  1.00  0.00     0.087 A 
HETATM    8  C7  UNL     1      11.440  25.484  -7.595  1.00  0.00     0.218 A 
HETATM    9  O3  UNL     1      11.817  26.477  -6.906  1.00  0.00    -0.284 OA
ENDROOT
BRANCH   6  10
HETATM   10  C3  UNL     1      12.807  22.900  -9.993  1.00  0.00     0.237 C 
BRANCH  10  11
HETATM   11  O1  UNL     1      13.260  21.815  -9.489  1.00  0.00    -0.315 OA
BRANCH  11  12
HETATM   12  C4  UNL     1      13.716  20.719  -8.979  1.00  0.00     0.242 A 
HETATM   13  N4  UNL     1      14.018  20.468  -7.659  1.00  0.00    -0.272 N 
HETATM   14  C5  UNL     1      14.462  19.235  -7.514  1.00  0.00     0.342 A 
ATOM     15  H4  UNL     1      13.913  21.141  -6.900  1.00  0.00     0.174 HD
HETATM   16  O2  UNL     1      14.843  18.615  -6.476  1.00  0.00    -0.245 OA
HETATM   17  N5  UNL     1      14.461  18.660  -8.722  1.00  0.00    -0.248 N 
HETATM   18  N6  UNL     1      14.022  19.526  -9.595  1.00  0.00    -0.261 N 
ATOM     19  H5  UNL     1      14.753  17.705  -8.926  1.00  0.00     0.192 HD
ATOM     20  H6  UNL     1      13.921  19.344 -10.593  1.00  0.00     0.190 HD
ENDBRANCH  11  12
ENDBRANCH  10  11
ENDBRANCH   6  10
BRANCH   1  21
HETATM   21  N1  UNL     1       9.270  25.760  -6.823  1.00  0.00    -0.381 N 
ATOM     22  H12 UNL     1       8.315  25.933  -7.135  1.00  0.00     0.157 HD
ATOM     23  H11 UNL     1       9.544  26.114  -5.907  1.00  0.00     0.157 HD
ENDBRANCH   1  21
TORSDOF 4
ENDMDL
