MODEL 1
REMARK VINA RESULT: -4.167430968      0.000      0.000
REMARK  1 active torsions:
REMARK  status: ('A' for Active; 'I' for Inactive)
REMARK    1  A    between atoms: O1_2  and  C2_3 
ROOT
HETATM    1  C2  UNL     1      -0.832  32.471 -13.737  1.00  0.00     0.321 C 
HETATM    2  C3  UNL     1       0.325  32.301 -12.772  1.00  0.00     0.064 C 
HETATM    3  C4  UNL     1       0.041  30.893 -12.236  1.00  0.00     0.042 C 
HETATM    4  C5  UNL     1      -0.786  30.266 -13.330  1.00  0.00     0.121 C 
HETATM    5  C6  UNL     1      -0.148  28.988 -13.845  1.00  0.00     0.046 C 
HETATM    6  C7  UNL     1      -2.218  30.033 -12.898  1.00  0.00     0.046 C 
HETATM    7  N1  UNL     1      -0.791  31.203 -14.441  1.00  0.00    -0.041 N 
ATOM      8  H11 UNL     1      -0.026  31.096 -15.107  1.00  0.00     0.281 HD
ATOM      9  H12 UNL     1      -1.530  31.061 -15.129  1.00  0.00     0.281 HD
ENDROOT
BRANCH   1  10
HETATM   10  O1  UNL     1      -0.677  33.510 -14.605  1.00  0.00    -0.364 OA
HETATM   11  C1  UNL     1      -0.486  34.739 -13.994  1.00  0.00     0.204 C 
ENDBRANCH   1  10
TORSDOF 1
ENDMDL
MODEL 2
REMARK VINA RESULT: -4.125612939      2.465      3.785
REMARK  1 active torsions:
REMARK  status: ('A' for Active; 'I' for Inactive)
REMARK    1  A    between atoms: O1_2  and  C2_3 
ROOT
HETATM    1  C2  UNL     1      -2.548  30.695 -12.050  1.00  0.00     0.321 C 
HETATM    2  C3  UNL     1      -3.119  30.594 -13.452  1.00  0.00     0.064 C 
HETATM    3  C4  UNL     1      -1.852  30.804 -14.288  1.00  0.00     0.042 C 
HETATM    4  C5  UNL     1      -0.745  30.396 -13.350  1.00  0.00     0.121 C 
HETATM    5  C6  UNL     1       0.106  29.288 -13.943  1.00  0.00     0.046 C 
HETATM    6  C7  UNL     1       0.104  31.576 -12.925  1.00  0.00     0.046 C 
HETATM    7  N1  UNL     1      -1.381  29.842 -12.167  1.00  0.00    -0.041 N 
ATOM      8  H11 UNL     1      -1.573  28.841 -12.202  1.00  0.00     0.281 HD
ATOM      9  H12 UNL     1      -0.791  29.791 -11.336  1.00  0.00     0.281 HD
ENDROOT
BRANCH   1  10
HETATM   10  O1  UNL     1      -3.387  30.237 -11.080  1.00  0.00    -0.364 OA
HETATM   11  C1  UNL     1      -4.155  29.147 -11.457  1.00  0.00     0.204 C 
ENDBRANCH   1  10
TORSDOF 1
ENDMDL
MODEL 3
REMARK VINA RESULT: -4.088238996      1.248      1.350
REMARK  1 active torsions:
REMARK  status: ('A' for Active; 'I' for Inactive)
REMARK    1  A    between atoms: O1_2  and  C2_3 
ROOT
HETATM    1  C2  UNL     1      -1.632  32.747 -14.161  1.00  0.00     0.321 C 
HETATM    2  C3  UNL     1      -0.232  33.123 -13.717  1.00  0.00     0.064 C 
HETATM    3  C4  UNL     1       0.133  31.901 -12.867  1.00  0.00     0.042 C 
HETATM    4  C5  UNL     1      -0.764  30.819 -13.412  1.00  0.00     0.121 C 
HETATM    5  C6  UNL     1       0.038  29.624 -13.896  1.00  0.00     0.046 C 
HETATM    6  C7  UNL     1      -1.825  30.404 -12.415  1.00  0.00     0.046 C 
HETATM    7  N1  UNL     1      -1.427  31.373 -14.580  1.00  0.00    -0.041 N 
ATOM      8  H11 UNL     1      -0.930  31.255 -15.463  1.00  0.00     0.281 HD
ATOM      9  H12 UNL     1      -2.266  30.878 -14.883  1.00  0.00     0.281 HD
ENDROOT
BRANCH   1  10
HETATM   10  O1  UNL     1      -2.104  33.501 -15.192  1.00  0.00    -0.364 OA
HETATM   11  C1  UNL     1      -1.357  33.410 -16.355  1.00  0.00     0.204 C 
ENDBRANCH   1  10
TORSDOF 1
ENDMDL
MODEL 4
REMARK VINA RESULT: -4.074946598      1.380      2.070
REMARK  1 active torsions:
REMARK  status: ('A' for Active; 'I' for Inactive)
REMARK    1  A    between atoms: O1_2  and  C2_3 
ROOT
HETATM    1  C2  UNL     1       0.251  32.322 -13.178  1.00  0.00     0.321 C 
HETATM    2  C3  UNL     1      -0.902  32.723 -14.077  1.00  0.00     0.064 C 
HETATM    3  C4  UNL     1      -1.465  31.346 -14.445  1.00  0.00     0.042 C 
HETATM    4  C5  UNL     1      -1.003  30.468 -13.310  1.00  0.00     0.121 C 
HETATM    5  C6  UNL     1      -2.173  29.788 -12.622  1.00  0.00     0.046 C 
HETATM    6  C7  UNL     1       0.035  29.461 -13.757  1.00  0.00     0.046 C 
HETATM    7  N1  UNL     1      -0.394  31.344 -12.323  1.00  0.00    -0.041 N 
ATOM      8  H11 UNL     1      -1.031  31.725 -11.625  1.00  0.00     0.281 HD
ATOM      9  H12 UNL     1       0.216  30.884 -11.647  1.00  0.00     0.281 HD
ENDROOT
BRANCH   1  10
HETATM   10  O1  UNL     1       0.757  33.349 -12.440  1.00  0.00    -0.364 OA
HETATM   11  C1  UNL     1       0.781  34.568 -13.099  1.00  0.00     0.204 C 
ENDBRANCH   1  10
TORSDOF 1
ENDMDL
MODEL 5
REMARK VINA RESULT: -3.911465444      4.595      7.282
REMARK  1 active torsions:
REMARK  status: ('A' for Active; 'I' for Inactive)
REMARK    1  A    between atoms: O1_2  and  C2_3 
ROOT
HETATM    1  C2  UNL     1       1.741  36.791 -14.720  1.00  0.00     0.321 C 
HETATM    2  C3  UNL     1       2.189  37.970 -13.878  1.00  0.00     0.064 C 
HETATM    3  C4  UNL     1       1.822  39.134 -14.806  1.00  0.00     0.042 C 
HETATM    4  C5  UNL     1       0.740  38.554 -15.680  1.00  0.00     0.121 C 
HETATM    5  C6  UNL     1      -0.537  39.369 -15.598  1.00  0.00     0.046 C 
HETATM    6  C7  UNL     1       1.197  38.386 -17.114  1.00  0.00     0.046 C 
HETATM    7  N1  UNL     1       0.428  37.240 -15.144  1.00  0.00    -0.041 N 
ATOM      8  H11 UNL     1      -0.294  37.221 -14.425  1.00  0.00     0.281 HD
ATOM      9  H12 UNL     1      -0.063  36.613 -15.781  1.00  0.00     0.281 HD
ENDROOT
BRANCH   1  10
HETATM   10  O1  UNL     1       1.651  35.622 -14.026  1.00  0.00    -0.364 OA
HETATM   11  C1  UNL     1       0.357  35.253 -13.696  1.00  0.00     0.204 C 
ENDBRANCH   1  10
TORSDOF 1
ENDMDL
