MODEL 1
REMARK VINA RESULT: -5.263376646      0.000      0.000
REMARK  1 active torsions:
REMARK  status: ('A' for Active; 'I' for Inactive)
REMARK    1  A    between atoms: C2_3  and  C3_4 
ROOT
HETATM    1  N1  UNL     1      11.975  21.394  15.470  1.00  0.00    -0.197 NA
HETATM    2  C1  UNL     1      12.688  20.960  16.265  1.00  0.00     0.063 C 
HETATM    3  C2  UNL     1      13.579  20.408  17.263  1.00  0.00     0.185 C 
ENDROOT
BRANCH   3   4
HETATM    4  C3  UNL     1      14.648  19.533  16.607  1.00  0.00     0.334 C 
HETATM    5  N2  UNL     1      15.504  19.046  17.661  1.00  0.00    -0.045 N 
HETATM    6  C4  UNL     1      16.864  19.181  17.167  1.00  0.00     0.273 C 
ATOM      7  H22 UNL     1      15.348  19.507  18.557  1.00  0.00     0.280 HD
ATOM      8  H21 UNL     1      15.275  18.100  17.967  1.00  0.00     0.280 HD
HETATM    9  C5  UNL     1      16.625  19.551  15.721  1.00  0.00     0.087 C 
HETATM   10  C6  UNL     1      16.476  18.305  14.909  1.00  0.00     0.040 C 
HETATM   11  C9  UNL     1      17.791  20.250  15.125  1.00  0.00     0.040 C 
HETATM   12  O1  UNL     1      15.473  20.313  15.800  1.00  0.00    -0.345 OA
HETATM   13  C7  UNL     1      17.887  17.926  14.567  1.00  0.00     0.003 C 
HETATM   14  C8  UNL     1      18.767  19.105  14.894  1.00  0.00     0.003 C 
ENDBRANCH   3   4
TORSDOF 1
ENDMDL
MODEL 2
REMARK VINA RESULT: -5.040273131      3.341      6.116
REMARK  1 active torsions:
REMARK  status: ('A' for Active; 'I' for Inactive)
REMARK    1  A    between atoms: C2_3  and  C3_4 
ROOT
HETATM    1  N1  UNL     1      14.827  19.835  18.533  1.00  0.00    -0.197 NA
HETATM    2  C1  UNL     1      14.107  19.856  17.633  1.00  0.00     0.063 C 
HETATM    3  C2  UNL     1      13.196  19.882  16.508  1.00  0.00     0.185 C 
ENDROOT
BRANCH   3   4
HETATM    4  C3  UNL     1      12.965  21.319  16.035  1.00  0.00     0.334 C 
HETATM    5  N2  UNL     1      12.638  22.103  17.201  1.00  0.00    -0.045 N 
HETATM    6  C4  UNL     1      11.524  22.951  16.813  1.00  0.00     0.273 C 
ATOM      7  H22 UNL     1      12.451  21.540  18.030  1.00  0.00     0.280 HD
ATOM      8  H21 UNL     1      13.431  22.621  17.579  1.00  0.00     0.280 HD
HETATM    9  C5  UNL     1      11.462  22.707  15.322  1.00  0.00     0.087 C 
HETATM   10  C6  UNL     1      12.394  23.648  14.628  1.00  0.00     0.040 C 
HETATM   11  C9  UNL     1      10.125  23.021  14.761  1.00  0.00     0.040 C 
HETATM   12  O1  UNL     1      11.831  21.378  15.227  1.00  0.00    -0.345 OA
HETATM   13  C7  UNL     1      11.578  24.895  14.446  1.00  0.00     0.003 C 
HETATM   14  C8  UNL     1      10.140  24.544  14.729  1.00  0.00     0.003 C 
ENDBRANCH   3   4
TORSDOF 1
ENDMDL
MODEL 3
REMARK VINA RESULT: -4.856105143      3.335      6.008
REMARK  1 active torsions:
REMARK  status: ('A' for Active; 'I' for Inactive)
REMARK    1  A    between atoms: C2_3  and  C3_4 
ROOT
HETATM    1  N1  UNL     1      14.555  19.965  18.377  1.00  0.00    -0.197 NA
HETATM    2  C1  UNL     1      13.852  20.041  17.466  1.00  0.00     0.063 C 
HETATM    3  C2  UNL     1      12.963  20.135  16.328  1.00  0.00     0.185 C 
ENDROOT
BRANCH   3   4
HETATM    4  C3  UNL     1      12.393  21.550  16.204  1.00  0.00     0.334 C 
HETATM    5  N2  UNL     1      11.220  21.464  15.370  1.00  0.00    -0.045 N 
HETATM    6  C4  UNL     1      11.298  22.588  14.452  1.00  0.00     0.273 C 
ATOM      7  H22 UNL     1      11.119  20.563  14.902  1.00  0.00     0.280 HD
ATOM      8  H21 UNL     1      10.347  21.429  15.897  1.00  0.00     0.280 HD
HETATM    9  C5  UNL     1      12.459  23.367  15.026  1.00  0.00     0.087 C 
HETATM   10  C6  UNL     1      11.958  24.294  16.086  1.00  0.00     0.040 C 
HETATM   11  C9  UNL     1      13.086  24.256  14.017  1.00  0.00     0.040 C 
HETATM   12  O1  UNL     1      13.282  22.361  15.500  1.00  0.00    -0.345 OA
HETATM   13  C7  UNL     1      11.529  25.515  15.326  1.00  0.00     0.003 C 
HETATM   14  C8  UNL     1      12.084  25.399  13.930  1.00  0.00     0.003 C 
ENDBRANCH   3   4
TORSDOF 1
ENDMDL
MODEL 4
REMARK VINA RESULT: -4.786499242      2.667      5.441
REMARK  1 active torsions:
REMARK  status: ('A' for Active; 'I' for Inactive)
REMARK    1  A    between atoms: C2_3  and  C3_4 
ROOT
HETATM    1  N1  UNL     1      16.656  19.226  18.812  1.00  0.00    -0.197 NA
HETATM    2  C1  UNL     1      15.777  19.188  18.068  1.00  0.00     0.063 C 
HETATM    3  C2  UNL     1      14.668  19.140  17.139  1.00  0.00     0.185 C 
ENDROOT
BRANCH   3   4
HETATM    4  C3  UNL     1      14.051  20.529  16.963  1.00  0.00     0.334 C 
HETATM    5  N2  UNL     1      13.112  20.717  18.041  1.00  0.00    -0.045 N 
HETATM    6  C4  UNL     1      11.928  21.309  17.443  1.00  0.00     0.273 C 
ATOM      7  H22 UNL     1      12.920  19.864  18.566  1.00  0.00     0.280 HD
ATOM      8  H21 UNL     1      13.489  21.258  18.819  1.00  0.00     0.280 HD
HETATM    9  C5  UNL     1      12.416  21.615  16.045  1.00  0.00     0.087 C 
HETATM   10  C6  UNL     1      13.071  22.959  16.032  1.00  0.00     0.040 C 
HETATM   11  C9  UNL     1      11.297  21.733  15.078  1.00  0.00     0.040 C 
HETATM   12  O1  UNL     1      13.282  20.564  15.801  1.00  0.00    -0.345 OA
HETATM   13  C7  UNL     1      11.931  23.914  15.830  1.00  0.00     0.003 C 
HETATM   14  C8  UNL     1      10.730  23.106  15.411  1.00  0.00     0.003 C 
ENDBRANCH   3   4
TORSDOF 1
ENDMDL
MODEL 5
REMARK VINA RESULT: -4.720444371      2.493      5.800
REMARK  1 active torsions:
REMARK  status: ('A' for Active; 'I' for Inactive)
REMARK    1  A    between atoms: C2_3  and  C3_4 
ROOT
HETATM    1  N1  UNL     1      16.344  19.444  15.465  1.00  0.00    -0.197 NA
HETATM    2  C1  UNL     1      15.363  19.601  16.049  1.00  0.00     0.063 C 
HETATM    3  C2  UNL     1      14.135  19.802  16.789  1.00  0.00     0.185 C 
ENDROOT
BRANCH   3   4
HETATM    4  C3  UNL     1      13.571  21.200  16.528  1.00  0.00     0.334 C 
HETATM    5  N2  UNL     1      12.749  21.544  17.661  1.00  0.00    -0.045 N 
HETATM    6  C4  UNL     1      11.543  22.143  17.114  1.00  0.00     0.273 C 
ATOM      7  H22 UNL     1      12.566  20.759  18.285  1.00  0.00     0.280 HD
ATOM      8  H21 UNL     1      13.223  22.136  18.344  1.00  0.00     0.280 HD
HETATM    9  C5  UNL     1      11.910  22.283  15.655  1.00  0.00     0.087 C 
HETATM   10  C6  UNL     1      12.624  23.580  15.447  1.00  0.00     0.040 C 
HETATM   11  C9  UNL     1      10.711  22.371  14.785  1.00  0.00     0.040 C 
HETATM   12  O1  UNL     1      12.698  21.167  15.442  1.00  0.00    -0.345 OA
HETATM   13  C7  UNL     1      11.517  24.575  15.252  1.00  0.00     0.003 C 
HETATM   14  C8  UNL     1      10.244  23.800  15.026  1.00  0.00     0.003 C 
ENDBRANCH   3   4
TORSDOF 1
ENDMDL
