MODEL 1
REMARK VINA RESULT: -6.873393976      0.000      0.000
REMARK  5 active torsions:
REMARK  status: ('A' for Active; 'I' for Inactive)
REMARK       I    between atoms: C1_2  and  N1_3 
REMARK    1  A    between atoms: C1_2  and  C13_29 
REMARK    2  A    between atoms: N1_3  and  C2_5 
REMARK    3  A    between atoms: C2_5  and  N2_7 
REMARK    4  A    between atoms: N2_7  and  C3_9 
REMARK    5  A    between atoms: C4_12  and  C5_13 
ROOT
HETATM    1  C3  UNL     1       4.069  31.938  -9.423  1.00  0.00     0.140 A 
HETATM    2  N3  UNL     1       5.332  31.683  -8.952  1.00  0.00    -0.326 N 
ATOM      3  H3  UNL     1       5.771  32.361  -8.330  1.00  0.00     0.169 HD
HETATM    4  C4  UNL     1       6.007  30.582  -9.279  1.00  0.00     0.118 A 
HETATM    5  N5  UNL     1       5.404  29.707 -10.101  1.00  0.00    -0.326 N 
ATOM      6  H5  UNL     1       5.916  28.863 -10.355  1.00  0.00     0.169 HD
HETATM    7  C10 UNL     1       4.174  29.868 -10.611  1.00  0.00     0.139 A 
HETATM    8  N6  UNL     1       3.368  29.174 -11.424  1.00  0.00    -0.337 N 
ATOM      9  H6  UNL     1       3.611  28.276 -11.842  1.00  0.00     0.168 HD
HETATM   10  C11 UNL     1       2.203  29.807 -11.620  1.00  0.00     0.182 A 
HETATM   11  N7  UNL     1       2.289  30.934 -10.902  1.00  0.00    -0.346 N 
ATOM     12  H7  UNL     1       1.551  31.635 -10.845  1.00  0.00     0.167 HD
HETATM   13  C12 UNL     1       3.470  31.026 -10.264  1.00  0.00     0.122 A 
ENDROOT
BRANCH   1  14
HETATM   14  N2  UNL     1       3.456  32.997  -9.090  1.00  0.00    -0.317 N 
ATOM     15  H2  UNL     1       3.485  33.801  -9.716  1.00  0.00     0.170 HD
BRANCH  14  16
HETATM   16  C2  UNL     1       2.735  33.099  -7.883  1.00  0.00     0.180 C 
HETATM   17  S1  UNL     1       1.201  32.487  -7.906  1.00  0.00    -0.040 SA
BRANCH  16  18
HETATM   18  N1  UNL     1       3.282  33.675  -6.702  1.00  0.00    -0.299 N 
HETATM   19  C1  UNL     1       4.074  32.922  -5.804  1.00  0.00     0.257 C 
HETATM   20  O1  UNL     1       4.290  31.692  -6.084  1.00  0.00    -0.267 OA
ATOM     21  H1  UNL     1       3.097  34.657  -6.497  1.00  0.00     0.171 HD
BRANCH  19  22
HETATM   22  C13 UNL     1       4.644  33.478  -4.598  1.00  0.00     0.032 A 
HETATM   23  C14 UNL     1       4.354  32.983  -3.355  1.00  0.00     0.017 A 
HETATM   24  C15 UNL     1       4.934  33.557  -2.212  1.00  0.00     0.001 A 
HETATM   25  C16 UNL     1       5.800  34.622  -2.314  1.00  0.00     0.000 A 
HETATM   26  C17 UNL     1       6.089  35.118  -3.578  1.00  0.00     0.001 A 
HETATM   27  C18 UNL     1       5.508  34.539  -4.679  1.00  0.00     0.017 A 
ENDBRANCH  19  22
ENDBRANCH  16  18
ENDBRANCH  14  16
ENDBRANCH   1  14
BRANCH   4  28
HETATM   28  C5  UNL     1       7.371  30.313  -8.766  1.00  0.00     0.011 A 
HETATM   29  C6  UNL     1       7.739  30.572  -7.473  1.00  0.00     0.032 A 
HETATM   30  C7  UNL     1       9.047  30.283  -7.085  1.00  0.00     0.088 A 
HETATM   31  N4  UNL     1       9.945  29.765  -7.935  1.00  0.00    -0.375 N 
HETATM   32  C8  UNL     1       9.620  29.499  -9.211  1.00  0.00     0.088 A 
ATOM     33  H4  UNL     1      10.892  29.571  -7.608  1.00  0.00     0.164 HD
HETATM   34  C9  UNL     1       8.331  29.781  -9.601  1.00  0.00     0.032 A 
ENDBRANCH   4  28
TORSDOF 5
ENDMDL
MODEL 2
REMARK VINA RESULT: -6.716319274      2.268      4.750
REMARK  5 active torsions:
REMARK  status: ('A' for Active; 'I' for Inactive)
REMARK       I    between atoms: C1_2  and  N1_3 
REMARK    1  A    between atoms: C1_2  and  C13_29 
REMARK    2  A    between atoms: N1_3  and  C2_5 
REMARK    3  A    between atoms: C2_5  and  N2_7 
REMARK    4  A    between atoms: N2_7  and  C3_9 
REMARK    5  A    between atoms: C4_12  and  C5_13 
ROOT
HETATM    1  C3  UNL     1       5.045  30.493  -9.028  1.00  0.00     0.140 A 
HETATM    2  N3  UNL     1       4.375  31.171  -8.042  1.00  0.00    -0.326 N 
ATOM      3  H3  UNL     1       4.787  31.217  -7.110  1.00  0.00     0.169 HD
HETATM    4  C4  UNL     1       3.205  31.772  -8.255  1.00  0.00     0.118 A 
HETATM    5  N5  UNL     1       2.686  31.693  -9.492  1.00  0.00    -0.326 N 
ATOM      6  H5  UNL     1       1.791  32.150  -9.661  1.00  0.00     0.169 HD
HETATM    7  C10 UNL     1       3.265  31.055 -10.519  1.00  0.00     0.139 A 
HETATM    8  N6  UNL     1       2.972  30.833 -11.807  1.00  0.00    -0.337 N 
ATOM      9  H6  UNL     1       2.129  31.174 -12.269  1.00  0.00     0.168 HD
HETATM   10  C11 UNL     1       3.924  30.110 -12.412  1.00  0.00     0.182 A 
HETATM   11  N7  UNL     1       4.842  29.874 -11.465  1.00  0.00    -0.346 N 
ATOM     12  H7  UNL     1       5.699  29.342 -11.617  1.00  0.00     0.167 HD
HETATM   13  C12 UNL     1       4.494  30.426 -10.289  1.00  0.00     0.122 A 
ENDROOT
BRANCH   1  14
HETATM   14  N2  UNL     1       6.157  29.934  -8.789  1.00  0.00    -0.317 N 
ATOM     15  H2  UNL     1       6.390  29.069  -9.277  1.00  0.00     0.170 HD
BRANCH  14  16
HETATM   16  C2  UNL     1       7.083  30.467  -7.869  1.00  0.00     0.180 C 
HETATM   17  S1  UNL     1       8.677  30.227  -8.231  1.00  0.00    -0.040 SA
BRANCH  16  18
HETATM   18  N1  UNL     1       6.691  31.185  -6.705  1.00  0.00    -0.299 N 
HETATM   19  C1  UNL     1       6.330  32.552  -6.759  1.00  0.00     0.257 C 
HETATM   20  O1  UNL     1       6.367  33.135  -7.898  1.00  0.00    -0.267 OA
ATOM     21  H1  UNL     1       6.670  30.702  -5.807  1.00  0.00     0.171 HD
BRANCH  19  22
HETATM   22  C13 UNL     1       5.927  33.308  -5.596  1.00  0.00     0.032 A 
HETATM   23  C14 UNL     1       6.338  34.596  -5.380  1.00  0.00     0.017 A 
HETATM   24  C15 UNL     1       5.917  35.290  -4.233  1.00  0.00     0.001 A 
HETATM   25  C16 UNL     1       5.091  34.696  -3.307  1.00  0.00     0.000 A 
HETATM   26  C17 UNL     1       4.679  33.390  -3.533  1.00  0.00     0.001 A 
HETATM   27  C18 UNL     1       5.104  32.733  -4.661  1.00  0.00     0.017 A 
ENDBRANCH  19  22
ENDBRANCH  16  18
ENDBRANCH  14  16
ENDBRANCH   1  14
BRANCH   4  28
HETATM   28  C5  UNL     1       2.488  32.503  -7.185  1.00  0.00     0.011 A 
HETATM   29  C6  UNL     1       1.562  31.904  -6.373  1.00  0.00     0.032 A 
HETATM   30  C7  UNL     1       0.940  32.676  -5.393  1.00  0.00     0.088 A 
HETATM   31  N4  UNL     1       1.221  33.977  -5.225  1.00  0.00    -0.375 N 
HETATM   32  C8  UNL     1       2.124  34.598  -6.003  1.00  0.00     0.088 A 
ATOM     33  H4  UNL     1       0.741  34.504  -4.495  1.00  0.00     0.164 HD
HETATM   34  C9  UNL     1       2.741  33.841  -6.973  1.00  0.00     0.032 A 
ENDBRANCH   4  28
TORSDOF 5
ENDMDL
MODEL 3
REMARK VINA RESULT: -6.584166237      2.000      5.706
REMARK  5 active torsions:
REMARK  status: ('A' for Active; 'I' for Inactive)
REMARK       I    between atoms: C1_2  and  N1_3 
REMARK    1  A    between atoms: C1_2  and  C13_29 
REMARK    2  A    between atoms: N1_3  and  C2_5 
REMARK    3  A    between atoms: C2_5  and  N2_7 
REMARK    4  A    between atoms: N2_7  and  C3_9 
REMARK    5  A    between atoms: C4_12  and  C5_13 
ROOT
HETATM    1  C3  UNL     1       3.364  33.129  -8.838  1.00  0.00     0.140 A 
HETATM    2  N3  UNL     1       4.146  33.638  -7.832  1.00  0.00    -0.326 N 
ATOM      3  H3  UNL     1       5.080  33.978  -8.061  1.00  0.00     0.169 HD
HETATM    4  C4  UNL     1       3.731  33.704  -6.568  1.00  0.00     0.118 A 
HETATM    5  N5  UNL     1       2.497  33.247  -6.297  1.00  0.00    -0.326 N 
ATOM      6  H5  UNL     1       2.175  33.294  -5.331  1.00  0.00     0.169 HD
HETATM    7  C10 UNL     1       1.660  32.733  -7.210  1.00  0.00     0.139 A 
HETATM    8  N6  UNL     1       0.421  32.226  -7.207  1.00  0.00    -0.337 N 
ATOM      9  H6  UNL     1      -0.162  32.143  -6.374  1.00  0.00     0.168 HD
HETATM   10  C11 UNL     1       0.042  31.841  -8.433  1.00  0.00     0.182 A 
HETATM   11  N7  UNL     1       1.084  32.121  -9.227  1.00  0.00    -0.346 N 
ATOM     12  H7  UNL     1       1.104  31.943 -10.231  1.00  0.00     0.167 HD
HETATM   13  C12 UNL     1       2.101  32.667  -8.537  1.00  0.00     0.122 A 
ENDROOT
BRANCH   1  14
HETATM   14  N2  UNL     1       3.791  33.083 -10.030  1.00  0.00    -0.317 N 
ATOM     15  H2  UNL     1       3.680  33.904 -10.626  1.00  0.00     0.170 HD
BRANCH  14  16
HETATM   16  C2  UNL     1       4.416  31.936 -10.561  1.00  0.00     0.180 C 
HETATM   17  S1  UNL     1       3.522  31.064 -11.642  1.00  0.00    -0.040 SA
BRANCH  16  18
HETATM   18  N1  UNL     1       5.739  31.545 -10.212  1.00  0.00    -0.299 N 
HETATM   19  C1  UNL     1       6.015  30.825  -9.026  1.00  0.00     0.257 C 
HETATM   20  O1  UNL     1       5.030  30.530  -8.263  1.00  0.00    -0.267 OA
ATOM     21  H1  UNL     1       6.510  31.791 -10.833  1.00  0.00     0.171 HD
BRANCH  19  22
HETATM   22  C13 UNL     1       7.346  30.413  -8.644  1.00  0.00     0.032 A 
HETATM   23  C14 UNL     1       7.829  30.579  -7.374  1.00  0.00     0.017 A 
HETATM   24  C15 UNL     1       9.130  30.161  -7.052  1.00  0.00     0.001 A 
HETATM   25  C16 UNL     1       9.945  29.581  -7.997  1.00  0.00     0.000 A 
HETATM   26  C17 UNL     1       9.448  29.416  -9.282  1.00  0.00     0.001 A 
HETATM   27  C18 UNL     1       8.172  29.833  -9.572  1.00  0.00     0.017 A 
ENDBRANCH  19  22
ENDBRANCH  16  18
ENDBRANCH  14  16
ENDBRANCH   1  14
BRANCH   4  28
HETATM   28  C5  UNL     1       4.581  34.255  -5.488  1.00  0.00     0.011 A 
HETATM   29  C6  UNL     1       5.628  35.104  -5.731  1.00  0.00     0.032 A 
HETATM   30  C7  UNL     1       6.370  35.571  -4.647  1.00  0.00     0.088 A 
HETATM   31  N4  UNL     1       6.090  35.215  -3.384  1.00  0.00    -0.375 N 
HETATM   32  C8  UNL     1       5.071  34.383  -3.108  1.00  0.00     0.088 A 
ATOM     33  H4  UNL     1       6.660  35.580  -2.621  1.00  0.00     0.164 HD
HETATM   34  C9  UNL     1       4.335  33.919  -4.174  1.00  0.00     0.032 A 
ENDBRANCH   4  28
TORSDOF 5
ENDMDL
MODEL 4
REMARK VINA RESULT: -6.378778030      2.471      5.620
REMARK  5 active torsions:
REMARK  status: ('A' for Active; 'I' for Inactive)
REMARK       I    between atoms: C1_2  and  N1_3 
REMARK    1  A    between atoms: C1_2  and  C13_29 
REMARK    2  A    between atoms: N1_3  and  C2_5 
REMARK    3  A    between atoms: C2_5  and  N2_7 
REMARK    4  A    between atoms: N2_7  and  C3_9 
REMARK    5  A    between atoms: C4_12  and  C5_13 
ROOT
HETATM    1  C3  UNL     1       3.636  33.871  -6.929  1.00  0.00     0.140 A 
HETATM    2  N3  UNL     1       3.949  33.289  -8.132  1.00  0.00    -0.326 N 
ATOM      3  H3  UNL     1       4.841  33.516  -8.570  1.00  0.00     0.169 HD
HETATM    4  C4  UNL     1       3.131  32.438  -8.748  1.00  0.00     0.118 A 
HETATM    5  N5  UNL     1       1.962  32.159  -8.147  1.00  0.00    -0.326 N 
ATOM      6  H5  UNL     1       1.331  31.508  -8.615  1.00  0.00     0.169 HD
HETATM    7  C10 UNL     1       1.568  32.676  -6.975  1.00  0.00     0.139 A 
HETATM    8  N6  UNL     1       0.493  32.568  -6.185  1.00  0.00    -0.337 N 
ATOM      9  H6  UNL     1      -0.315  31.980  -6.393  1.00  0.00     0.168 HD
HETATM   10  C11 UNL     1       0.609  33.327  -5.086  1.00  0.00     0.182 A 
HETATM   11  N7  UNL     1       1.801  33.927  -5.199  1.00  0.00    -0.346 N 
ATOM     12  H7  UNL     1       2.184  34.576  -4.511  1.00  0.00     0.167 HD
HETATM   13  C12 UNL     1       2.432  33.569  -6.331  1.00  0.00     0.122 A 
ENDROOT
BRANCH   1  14
HETATM   14  N2  UNL     1       4.441  34.676  -6.371  1.00  0.00    -0.317 N 
ATOM     15  H2  UNL     1       4.137  35.634  -6.195  1.00  0.00     0.170 HD
BRANCH  14  16
HETATM   16  C2  UNL     1       5.741  34.292  -5.984  1.00  0.00     0.180 C 
HETATM   17  S1  UNL     1       6.316  34.988  -4.601  1.00  0.00    -0.040 SA
BRANCH  16  18
HETATM   18  N1  UNL     1       6.519  33.352  -6.716  1.00  0.00    -0.299 N 
HETATM   19  C1  UNL     1       6.281  31.960  -6.631  1.00  0.00     0.257 C 
HETATM   20  O1  UNL     1       5.335  31.561  -5.866  1.00  0.00    -0.267 OA
ATOM     21  H1  UNL     1       7.269  33.691  -7.319  1.00  0.00     0.171 HD
BRANCH  19  22
HETATM   22  C13 UNL     1       7.053  30.981  -7.361  1.00  0.00     0.032 A 
HETATM   23  C14 UNL     1       8.398  30.813  -7.166  1.00  0.00     0.017 A 
HETATM   24  C15 UNL     1       9.103  29.847  -7.901  1.00  0.00     0.001 A 
HETATM   25  C16 UNL     1       8.466  29.053  -8.827  1.00  0.00     0.000 A 
HETATM   26  C17 UNL     1       7.103  29.229  -9.019  1.00  0.00     0.001 A 
HETATM   27  C18 UNL     1       6.436  30.181  -8.288  1.00  0.00     0.017 A 
ENDBRANCH  19  22
ENDBRANCH  16  18
ENDBRANCH  14  16
ENDBRANCH   1  14
BRANCH   4  28
HETATM   28  C5  UNL     1       3.476  31.813 -10.046  1.00  0.00     0.011 A 
HETATM   29  C6  UNL     1       2.895  30.654 -10.486  1.00  0.00     0.032 A 
HETATM   30  C7  UNL     1       3.286  30.143 -11.724  1.00  0.00     0.088 A 
HETATM   31  N4  UNL     1       4.207  30.750 -12.486  1.00  0.00    -0.375 N 
HETATM   32  C8  UNL     1       4.799  31.889 -12.087  1.00  0.00     0.088 A 
ATOM     33  H4  UNL     1       4.464  30.341 -13.385  1.00  0.00     0.164 HD
HETATM   34  C9  UNL     1       4.418  32.397 -10.866  1.00  0.00     0.032 A 
ENDBRANCH   4  28
TORSDOF 5
ENDMDL
MODEL 5
REMARK VINA RESULT: -6.350165093      2.275      6.005
REMARK  5 active torsions:
REMARK  status: ('A' for Active; 'I' for Inactive)
REMARK       I    between atoms: C1_2  and  N1_3 
REMARK    1  A    between atoms: C1_2  and  C13_29 
REMARK    2  A    between atoms: N1_3  and  C2_5 
REMARK    3  A    between atoms: C2_5  and  N2_7 
REMARK    4  A    between atoms: N2_7  and  C3_9 
REMARK    5  A    between atoms: C4_12  and  C5_13 
ROOT
HETATM    1  C3  UNL     1       3.890  33.564  -8.158  1.00  0.00     0.140 A 
HETATM    2  N3  UNL     1       4.473  33.795  -6.938  1.00  0.00    -0.326 N 
ATOM      3  H3  UNL     1       5.393  34.234  -6.909  1.00  0.00     0.169 HD
HETATM    4  C4  UNL     1       3.883  33.467  -5.789  1.00  0.00     0.118 A 
HETATM    5  N5  UNL     1       2.672  32.889  -5.859  1.00  0.00    -0.326 N 
ATOM      6  H5  UNL     1       2.216  32.635  -4.984  1.00  0.00     0.169 HD
HETATM    7  C10 UNL     1       2.023  32.623  -7.002  1.00  0.00     0.139 A 
HETATM    8  N6  UNL     1       0.849  32.074  -7.339  1.00  0.00    -0.337 N 
ATOM      9  H6  UNL     1       0.167  31.721  -6.668  1.00  0.00     0.168 HD
HETATM   10  C11 UNL     1       0.682  32.046  -8.669  1.00  0.00     0.182 A 
HETATM   11  N7  UNL     1       1.792  32.599  -9.174  1.00  0.00    -0.346 N 
ATOM     12  H7  UNL     1       1.968  32.723 -10.172  1.00  0.00     0.167 HD
HETATM   13  C12 UNL     1       2.647  32.970  -8.205  1.00  0.00     0.122 A 
ENDROOT
BRANCH   1  14
HETATM   14  N2  UNL     1       4.481  33.890  -9.231  1.00  0.00    -0.317 N 
ATOM     15  H2  UNL     1       4.541  34.878  -9.479  1.00  0.00     0.170 HD
BRANCH  14  16
HETATM   16  C2  UNL     1       5.058  32.935 -10.091  1.00  0.00     0.180 C 
HETATM   17  S1  UNL     1       4.362  32.796 -11.583  1.00  0.00    -0.040 SA
BRANCH  16  18
HETATM   18  N1  UNL     1       6.180  32.140  -9.724  1.00  0.00    -0.299 N 
HETATM   19  C1  UNL     1       6.057  30.756  -9.459  1.00  0.00     0.257 C 
HETATM   20  O1  UNL     1       4.895  30.228  -9.558  1.00  0.00    -0.267 OA
ATOM     21  H1  UNL     1       7.096  32.580  -9.649  1.00  0.00     0.171 HD
BRANCH  19  22
HETATM   22  C13 UNL     1       7.176  29.922  -9.084  1.00  0.00     0.032 A 
HETATM   23  C14 UNL     1       7.032  28.810  -8.299  1.00  0.00     0.017 A 
HETATM   24  C15 UNL     1       8.151  28.031  -7.963  1.00  0.00     0.001 A 
HETATM   25  C16 UNL     1       9.409  28.365  -8.410  1.00  0.00     0.000 A 
HETATM   26  C17 UNL     1       9.547  29.494  -9.205  1.00  0.00     0.001 A 
HETATM   27  C18 UNL     1       8.437  30.239  -9.519  1.00  0.00     0.017 A 
ENDBRANCH  19  22
ENDBRANCH  16  18
ENDBRANCH  14  16
ENDBRANCH   1  14
BRANCH   4  28
HETATM   28  C5  UNL     1       4.519  33.721  -4.476  1.00  0.00     0.011 A 
HETATM   29  C6  UNL     1       5.386  34.760  -4.263  1.00  0.00     0.032 A 
HETATM   30  C7  UNL     1       5.933  34.917  -2.990  1.00  0.00     0.088 A 
HETATM   31  N4  UNL     1       5.638  34.087  -1.979  1.00  0.00    -0.375 N 
HETATM   32  C8  UNL     1       4.792  33.057  -2.152  1.00  0.00     0.088 A 
ATOM     33  H4  UNL     1       6.062  34.239  -1.064  1.00  0.00     0.164 HD
HETATM   34  C9  UNL     1       4.249  32.896  -3.406  1.00  0.00     0.032 A 
ENDBRANCH   4  28
TORSDOF 5
ENDMDL
