MODEL 1
REMARK VINA RESULT: -6.932500570      0.000      0.000
REMARK  5 active torsions:
REMARK  status: ('A' for Active; 'I' for Inactive)
REMARK    1  A    between atoms: C2_2  and  C3_3 
REMARK    2  A    between atoms: C3_3  and  O1_4 
REMARK    3  A    between atoms: O1_4  and  C4_5 
REMARK    4  A    between atoms: C4_5  and  C5_7 
REMARK       I    between atoms: N2_12  and  C7_13 
REMARK       I    between atoms: C7_13  and  N3_15 
REMARK    5  A    between atoms: N3_15  and  C8_17 
ROOT
HETATM    1  C5  UNL     1      27.184 -24.422 140.631  1.00  0.00     0.178 C 
HETATM    2  C6  UNL     1      26.193 -24.159 141.681  1.00  0.00     0.111 C 
HETATM    3 CL1  UNL     1      26.397 -22.877 142.886  1.00  0.00    -0.067 Cl
HETATM    4  N1  UNL     1      25.220 -24.978 141.564  1.00  0.00    -0.286 N 
ATOM      5  H1  UNL     1      24.411 -24.987 142.183  1.00  0.00     0.188 HD
HETATM    6  N2  UNL     1      25.388 -25.857 140.498  1.00  0.00    -0.231 N 
HETATM    7  C7  UNL     1      24.585 -27.018 140.247  1.00  0.00     0.338 C 
HETATM    8  O3  UNL     1      24.827 -27.743 139.250  1.00  0.00    -0.245 OA
HETATM    9  N3  UNL     1      23.512 -27.370 141.109  1.00  0.00    -0.337 N 
ATOM     10  H3  UNL     1      23.319 -26.778 141.917  1.00  0.00     0.164 HD
HETATM   11  C17 UNL     1      26.495 -25.390 139.714  1.00  0.00     0.070 C 
HETATM   12  C18 UNL     1      26.056 -24.765 138.408  1.00  0.00     0.041 C 
HETATM   13  C19 UNL     1      27.373 -26.581 139.379  1.00  0.00     0.041 C 
ENDROOT
BRANCH   9  14
HETATM   14  C8  UNL     1      22.694 -28.515 140.890  1.00  0.00     0.091 C 
HETATM   15  C9  UNL     1      21.336 -28.162 140.287  1.00  0.00     0.055 C 
HETATM   16  C10 UNL     1      20.740 -29.473 139.832  1.00  0.00     0.021 C 
HETATM   17  C11 UNL     1      19.320 -29.147 139.352  1.00  0.00     0.037 C 
HETATM   18  C12 UNL     1      21.504 -29.869 138.564  1.00  0.00     0.037 C 
HETATM   19  N4  UNL     1      20.680 -30.483 140.804  1.00  0.00    -0.405 N 
HETATM   20  C13 UNL     1      21.686 -30.571 141.778  1.00  0.00     0.021 C 
ATOM     21  H4  UNL     1      19.909 -31.150 140.803  1.00  0.00     0.154 HD
HETATM   22  C14 UNL     1      22.755 -31.621 141.448  1.00  0.00     0.037 C 
HETATM   23  C15 UNL     1      21.036 -31.081 143.075  1.00  0.00     0.037 C 
HETATM   24  C16 UNL     1      22.405 -29.312 142.125  1.00  0.00     0.055 C 
ENDBRANCH   9  14
BRANCH   1  25
HETATM   25  C4  UNL     1      27.619 -23.174 139.939  1.00  0.00     0.272 C 
HETATM   26  O2  UNL     1      26.781 -22.246 139.885  1.00  0.00    -0.264 OA
BRANCH  25  27
HETATM   27  O1  UNL     1      28.823 -22.982 139.383  1.00  0.00    -0.321 OA
BRANCH  27  28
HETATM   28  C3  UNL     1      30.031 -22.498 139.773  1.00  0.00     0.178 C 
BRANCH  28  29
HETATM   29  C2  UNL     1      31.166 -22.383 138.840  1.00  0.00     0.022 C 
HETATM   30  C1  UNL     1      31.200 -21.228 137.905  1.00  0.00     0.007 C 
ENDBRANCH  28  29
ENDBRANCH  27  28
ENDBRANCH  25  27
ENDBRANCH   1  25
TORSDOF 5
ENDMDL
MODEL 2
REMARK VINA RESULT: -6.927665298      8.088      9.366
REMARK  5 active torsions:
REMARK  status: ('A' for Active; 'I' for Inactive)
REMARK    1  A    between atoms: C2_2  and  C3_3 
REMARK    2  A    between atoms: C3_3  and  O1_4 
REMARK    3  A    between atoms: O1_4  and  C4_5 
REMARK    4  A    between atoms: C4_5  and  C5_7 
REMARK       I    between atoms: N2_12  and  C7_13 
REMARK       I    between atoms: C7_13  and  N3_15 
REMARK    5  A    between atoms: N3_15  and  C8_17 
ROOT
HETATM    1  C5  UNL     1      24.439 -21.539 130.753  1.00  0.00     0.178 C 
HETATM    2  C6  UNL     1      23.088 -22.108 130.668  1.00  0.00     0.111 C 
HETATM    3 CL1  UNL     1      21.851 -21.468 129.574  1.00  0.00    -0.067 Cl
HETATM    4  N1  UNL     1      22.986 -23.089 131.480  1.00  0.00    -0.286 N 
ATOM      5  H1  UNL     1      22.138 -23.641 131.597  1.00  0.00     0.188 HD
HETATM    6  N2  UNL     1      24.162 -23.320 132.188  1.00  0.00    -0.231 N 
HETATM    7  C7  UNL     1      24.292 -24.197 133.315  1.00  0.00     0.338 C 
HETATM    8  O3  UNL     1      25.406 -24.329 133.880  1.00  0.00    -0.245 OA
HETATM    9  N3  UNL     1      23.178 -24.926 133.811  1.00  0.00    -0.337 N 
ATOM     10  H3  UNL     1      22.275 -24.815 133.350  1.00  0.00     0.164 HD
HETATM   11  C17 UNL     1      25.198 -22.529 131.589  1.00  0.00     0.070 C 
HETATM   12  C18 UNL     1      26.172 -23.362 130.787  1.00  0.00     0.041 C 
HETATM   13  C19 UNL     1      25.980 -21.854 132.700  1.00  0.00     0.041 C 
ENDROOT
BRANCH   9  14
HETATM   14  C8  UNL     1      23.271 -25.805 134.928  1.00  0.00     0.091 C 
HETATM   15  C9  UNL     1      22.058 -26.725 135.055  1.00  0.00     0.055 C 
HETATM   16  C10 UNL     1      22.452 -27.779 136.063  1.00  0.00     0.021 C 
HETATM   17  C11 UNL     1      21.196 -28.626 136.301  1.00  0.00     0.037 C 
HETATM   18  C12 UNL     1      23.427 -28.715 135.341  1.00  0.00     0.037 C 
HETATM   19  N4  UNL     1      22.925 -27.296 137.292  1.00  0.00    -0.405 N 
HETATM   20  C13 UNL     1      23.660 -26.102 137.334  1.00  0.00     0.021 C 
ATOM     21  H4  UNL     1      22.736 -27.811 138.152  1.00  0.00     0.154 HD
HETATM   22  C14 UNL     1      25.176 -26.327 137.389  1.00  0.00     0.037 C 
HETATM   23  C15 UNL     1      23.329 -25.397 138.661  1.00  0.00     0.037 C 
HETATM   24  C16 UNL     1      23.406 -25.112 136.249  1.00  0.00     0.055 C 
ENDBRANCH   9  14
BRANCH   1  25
HETATM   25  C4  UNL     1      25.047 -21.324 129.408  1.00  0.00     0.272 C 
HETATM   26  O2  UNL     1      26.006 -20.523 129.353  1.00  0.00    -0.264 OA
BRANCH  25  27
HETATM   27  O1  UNL     1      24.644 -21.920 128.278  1.00  0.00    -0.321 OA
BRANCH  27  28
HETATM   28  C3  UNL     1      24.422 -21.556 126.988  1.00  0.00     0.178 C 
BRANCH  28  29
HETATM   29  C2  UNL     1      23.601 -22.370 126.075  1.00  0.00     0.022 C 
HETATM   30  C1  UNL     1      24.156 -22.715 124.740  1.00  0.00     0.007 C 
ENDBRANCH  28  29
ENDBRANCH  27  28
ENDBRANCH  25  27
ENDBRANCH   1  25
TORSDOF 5
ENDMDL
MODEL 3
REMARK VINA RESULT: -6.643687420      2.936      3.486
REMARK  5 active torsions:
REMARK  status: ('A' for Active; 'I' for Inactive)
REMARK    1  A    between atoms: C2_2  and  C3_3 
REMARK    2  A    between atoms: C3_3  and  O1_4 
REMARK    3  A    between atoms: O1_4  and  C4_5 
REMARK    4  A    between atoms: C4_5  and  C5_7 
REMARK       I    between atoms: N2_12  and  C7_13 
REMARK       I    between atoms: C7_13  and  N3_15 
REMARK    5  A    between atoms: N3_15  and  C8_17 
ROOT
HETATM    1  C5  UNL     1      26.179 -26.114 140.362  1.00  0.00     0.178 C 
HETATM    2  C6  UNL     1      25.779 -25.036 141.274  1.00  0.00     0.111 C 
HETATM    3 CL1  UNL     1      26.951 -23.942 142.027  1.00  0.00    -0.067 Cl
HETATM    4  N1  UNL     1      24.509 -25.039 141.409  1.00  0.00    -0.286 N 
ATOM      5  H1  UNL     1      24.001 -24.379 141.995  1.00  0.00     0.188 HD
HETATM    6  N2  UNL     1      23.896 -26.044 140.666  1.00  0.00    -0.231 N 
HETATM    7  C7  UNL     1      22.522 -26.437 140.779  1.00  0.00     0.338 C 
HETATM    8  O3  UNL     1      22.074 -27.360 140.055  1.00  0.00    -0.245 OA
HETATM    9  N3  UNL     1      21.649 -25.800 141.701  1.00  0.00    -0.337 N 
ATOM     10  H3  UNL     1      22.017 -25.050 142.287  1.00  0.00     0.164 HD
HETATM   11  C17 UNL     1      24.881 -26.600 139.783  1.00  0.00     0.070 C 
HETATM   12  C18 UNL     1      24.675 -26.177 138.346  1.00  0.00     0.041 C 
HETATM   13  C19 UNL     1      24.764 -28.111 139.836  1.00  0.00     0.041 C 
ENDROOT
BRANCH   9  14
HETATM   14  C8  UNL     1      20.280 -26.165 141.839  1.00  0.00     0.091 C 
HETATM   15  C9  UNL     1      19.327 -25.058 141.391  1.00  0.00     0.055 C 
HETATM   16  C10 UNL     1      17.966 -25.705 141.301  1.00  0.00     0.021 C 
HETATM   17  C11 UNL     1      16.980 -24.574 140.985  1.00  0.00     0.037 C 
HETATM   18  C12 UNL     1      17.989 -26.571 140.036  1.00  0.00     0.037 C 
HETATM   19  N4  UNL     1      17.538 -26.385 142.451  1.00  0.00    -0.405 N 
HETATM   20  C13 UNL     1      18.478 -27.041 143.260  1.00  0.00     0.021 C 
ATOM     21  H4  UNL     1      16.550 -26.401 142.699  1.00  0.00     0.154 HD
HETATM   22  C14 UNL     1      18.560 -28.549 142.988  1.00  0.00     0.037 C 
HETATM   23  C15 UNL     1      17.992 -26.941 144.716  1.00  0.00     0.037 C 
HETATM   24  C16 UNL     1      19.874 -26.519 143.237  1.00  0.00     0.055 C 
ENDBRANCH   9  14
BRANCH   1  25
HETATM   25  C4  UNL     1      27.142 -25.648 139.323  1.00  0.00     0.272 C 
HETATM   26  O2  UNL     1      27.909 -26.514 138.846  1.00  0.00    -0.264 OA
BRANCH  25  27
HETATM   27  O1  UNL     1      27.238 -24.389 138.874  1.00  0.00    -0.321 OA
BRANCH  27  28
HETATM   28  C3  UNL     1      28.235 -23.511 138.589  1.00  0.00     0.178 C 
BRANCH  28  29
HETATM   29  C2  UNL     1      29.049 -22.883 139.645  1.00  0.00     0.022 C 
HETATM   30  C1  UNL     1      30.436 -22.463 139.315  1.00  0.00     0.007 C 
ENDBRANCH  28  29
ENDBRANCH  27  28
ENDBRANCH  25  27
ENDBRANCH   1  25
TORSDOF 5
ENDMDL
MODEL 4
REMARK VINA RESULT: -6.618657657      1.005      1.084
REMARK  5 active torsions:
REMARK  status: ('A' for Active; 'I' for Inactive)
REMARK    1  A    between atoms: C2_2  and  C3_3 
REMARK    2  A    between atoms: C3_3  and  O1_4 
REMARK    3  A    between atoms: O1_4  and  C4_5 
REMARK    4  A    between atoms: C4_5  and  C5_7 
REMARK       I    between atoms: N2_12  and  C7_13 
REMARK       I    between atoms: C7_13  and  N3_15 
REMARK    5  A    between atoms: N3_15  and  C8_17 
ROOT
HETATM    1  C5  UNL     1      27.080 -24.518 140.751  1.00  0.00     0.178 C 
HETATM    2  C6  UNL     1      26.123 -24.268 141.836  1.00  0.00     0.111 C 
HETATM    3 CL1  UNL     1      26.373 -23.011 143.058  1.00  0.00    -0.067 Cl
HETATM    4  N1  UNL     1      25.141 -25.079 141.734  1.00  0.00    -0.286 N 
ATOM      5  H1  UNL     1      24.351 -25.094 142.377  1.00  0.00     0.188 HD
HETATM    6  N2  UNL     1      25.269 -25.938 140.647  1.00  0.00    -0.231 N 
HETATM    7  C7  UNL     1      24.451 -27.089 140.398  1.00  0.00     0.338 C 
HETATM    8  O3  UNL     1      24.657 -27.796 139.382  1.00  0.00    -0.245 OA
HETATM    9  N3  UNL     1      23.402 -27.450 141.287  1.00  0.00    -0.337 N 
ATOM     10  H3  UNL     1      23.238 -26.873 142.111  1.00  0.00     0.164 HD
HETATM   11  C17 UNL     1      26.355 -25.464 139.838  1.00  0.00     0.070 C 
HETATM   12  C18 UNL     1      25.882 -24.811 138.559  1.00  0.00     0.041 C 
HETATM   13  C19 UNL     1      27.214 -26.654 139.454  1.00  0.00     0.041 C 
ENDROOT
BRANCH   9  14
HETATM   14  C8  UNL     1      22.570 -28.585 141.071  1.00  0.00     0.091 C 
HETATM   15  C9  UNL     1      21.236 -28.222 140.421  1.00  0.00     0.055 C 
HETATM   16  C10 UNL     1      20.629 -29.533 139.980  1.00  0.00     0.021 C 
HETATM   17  C11 UNL     1      19.230 -29.194 139.451  1.00  0.00     0.037 C 
HETATM   18  C12 UNL     1      21.421 -29.974 138.744  1.00  0.00     0.037 C 
HETATM   19  N4  UNL     1      20.523 -30.518 140.973  1.00  0.00    -0.405 N 
HETATM   20  C13 UNL     1      21.499 -30.601 141.978  1.00  0.00     0.021 C 
ATOM     21  H4  UNL     1      19.740 -31.171 140.965  1.00  0.00     0.154 HD
HETATM   22  C14 UNL     1      22.557 -31.677 141.703  1.00  0.00     0.037 C 
HETATM   23  C15 UNL     1      20.803 -31.067 143.267  1.00  0.00     0.037 C 
HETATM   24  C16 UNL     1      22.231 -29.347 142.315  1.00  0.00     0.055 C 
ENDBRANCH   9  14
BRANCH   1  25
HETATM   25  C4  UNL     1      27.502 -23.260 140.070  1.00  0.00     0.272 C 
HETATM   26  O2  UNL     1      26.733 -22.280 140.184  1.00  0.00    -0.264 OA
BRANCH  25  27
HETATM   27  O1  UNL     1      28.629 -23.111 139.360  1.00  0.00    -0.321 OA
BRANCH  27  28
HETATM   28  C3  UNL     1      28.963 -22.916 138.057  1.00  0.00     0.178 C 
BRANCH  28  29
HETATM   29  C2  UNL     1      27.973 -22.490 137.052  1.00  0.00     0.022 C 
HETATM   30  C1  UNL     1      28.464 -22.006 135.735  1.00  0.00     0.007 C 
ENDBRANCH  28  29
ENDBRANCH  27  28
ENDBRANCH  25  27
ENDBRANCH   1  25
TORSDOF 5
ENDMDL
MODEL 5
REMARK VINA RESULT: -6.479023290      5.814      9.486
REMARK  5 active torsions:
REMARK  status: ('A' for Active; 'I' for Inactive)
REMARK    1  A    between atoms: C2_2  and  C3_3 
REMARK    2  A    between atoms: C3_3  and  O1_4 
REMARK    3  A    between atoms: O1_4  and  C4_5 
REMARK    4  A    between atoms: C4_5  and  C5_7 
REMARK       I    between atoms: N2_12  and  C7_13 
REMARK       I    between atoms: C7_13  and  N3_15 
REMARK    5  A    between atoms: N3_15  and  C8_17 
ROOT
HETATM    1  C5  UNL     1      24.312 -25.609 138.212  1.00  0.00     0.178 C 
HETATM    2  C6  UNL     1      25.526 -24.805 138.018  1.00  0.00     0.111 C 
HETATM    3 CL1  UNL     1      26.626 -24.403 139.346  1.00  0.00    -0.067 Cl
HETATM    4  N1  UNL     1      25.627 -24.475 136.788  1.00  0.00    -0.286 N 
ATOM      5  H1  UNL     1      26.391 -23.915 136.414  1.00  0.00     0.188 HD
HETATM    6  N2  UNL     1      24.578 -24.966 136.016  1.00  0.00    -0.231 N 
HETATM    7  C7  UNL     1      24.298 -24.587 134.662  1.00  0.00     0.338 C 
HETATM    8  O3  UNL     1      23.321 -25.096 134.059  1.00  0.00    -0.245 OA
HETATM    9  N3  UNL     1      25.108 -23.638 133.981  1.00  0.00    -0.337 N 
ATOM     10  H3  UNL     1      25.900 -23.227 134.475  1.00  0.00     0.164 HD
HETATM   11  C17 UNL     1      23.846 -25.905 136.816  1.00  0.00     0.070 C 
HETATM   12  C18 UNL     1      24.091 -27.337 136.398  1.00  0.00     0.041 C 
HETATM   13  C19 UNL     1      22.366 -25.624 136.639  1.00  0.00     0.041 C 
ENDROOT
BRANCH   9  14
HETATM   14  C8  UNL     1      24.859 -23.239 132.638  1.00  0.00     0.091 C 
HETATM   15  C9  UNL     1      25.832 -22.166 132.152  1.00  0.00     0.055 C 
HETATM   16  C10 UNL     1      25.641 -22.091 130.656  1.00  0.00     0.021 C 
HETATM   17  C11 UNL     1      26.513 -20.924 130.177  1.00  0.00     0.037 C 
HETATM   18  C12 UNL     1      26.309 -23.344 130.079  1.00  0.00     0.037 C 
HETATM   19  N4  UNL     1      24.322 -21.894 130.221  1.00  0.00    -0.405 N 
HETATM   20  C13 UNL     1      23.259 -22.450 130.949  1.00  0.00     0.021 C 
ATOM     21  H4  UNL     1      24.136 -21.348 129.381  1.00  0.00     0.154 HD
HETATM   22  C14 UNL     1      22.746 -23.768 130.354  1.00  0.00     0.037 C 
HETATM   23  C15 UNL     1      22.064 -21.489 130.839  1.00  0.00     0.037 C 
HETATM   24  C16 UNL     1      23.485 -22.688 132.403  1.00  0.00     0.055 C 
ENDBRANCH   9  14
BRANCH   1  25
HETATM   25  C4  UNL     1      24.572 -26.840 139.013  1.00  0.00     0.272 C 
HETATM   26  O2  UNL     1      25.737 -27.295 138.971  1.00  0.00    -0.264 OA
BRANCH  25  27
HETATM   27  O1  UNL     1      23.660 -27.478 139.760  1.00  0.00    -0.321 OA
BRANCH  27  28
HETATM   28  C3  UNL     1      23.004 -28.667 139.724  1.00  0.00     0.178 C 
BRANCH  28  29
HETATM   29  C2  UNL     1      23.717 -29.955 139.774  1.00  0.00     0.022 C 
HETATM   30  C1  UNL     1      23.633 -30.763 141.019  1.00  0.00     0.007 C 
ENDBRANCH  28  29
ENDBRANCH  27  28
ENDBRANCH  25  27
ENDBRANCH   1  25
TORSDOF 5
ENDMDL
