MODEL 1
REMARK VINA RESULT: -6.429522969      0.000      0.000
REMARK  6 active torsions:
REMARK  status: ('A' for Active; 'I' for Inactive)
REMARK    1  A    between atoms: O1_2  and  C2_3 
REMARK    2  A    between atoms: C2_3  and  N2_7 
REMARK    3  A    between atoms: C5_15  and  C6_17 
REMARK    4  A    between atoms: C6_17  and  O4_18 
REMARK    5  A    between atoms: C6_17  and  C7_20 
REMARK    6  A    between atoms: C7_20  and  N5_22 
ROOT
HETATM    1  N2  UNL     1      53.946 -18.150  -7.133  1.00  0.00    -0.200 N 
HETATM    2  C3  UNL     1      54.153 -18.953  -8.282  1.00  0.00     0.337 C 
HETATM    3  O2  UNL     1      55.330 -19.122  -8.755  1.00  0.00    -0.246 OA
HETATM    4  N3  UNL     1      53.047 -19.561  -8.889  1.00  0.00    -0.276 N 
ATOM      5  H3  UNL     1      53.189 -20.142  -9.716  1.00  0.00     0.173 HD
HETATM    6  C4  UNL     1      51.872 -19.405  -8.433  1.00  0.00     0.239 C 
HETATM    7  N4  UNL     1      50.750 -20.023  -9.052  1.00  0.00    -0.056 NA
HETATM    8  O3  UNL     1      51.632 -18.626  -7.312  1.00  0.00    -0.260 OA
HETATM    9  C5  UNL     1      52.652 -18.111  -6.493  1.00  0.00     0.334 C 
HETATM   10  F1  UNL     1      52.351 -16.790  -6.236  1.00  0.00    -0.183 F 
ENDROOT
BRANCH   9  11
HETATM   11  C6  UNL     1      52.722 -18.929  -5.224  1.00  0.00     0.239 C 
BRANCH  11  12
HETATM   12  O4  UNL     1      52.977 -18.136  -4.111  1.00  0.00    -0.386 OA
ATOM     13  H4  UNL     1      52.929 -18.633  -3.303  1.00  0.00     0.210 HD
ENDBRANCH  11  12
BRANCH  11  14
HETATM   14  C7  UNL     1      51.487 -19.780  -5.034  1.00  0.00     0.215 C 
HETATM   15  C8  UNL     1      51.948 -21.238  -5.152  1.00  0.00     0.043 C 
BRANCH  14  16
HETATM   16  N5  UNL     1      50.889 -19.638  -3.741  1.00  0.00    -0.073 N 
ATOM     17  H53 UNL     1      50.078 -19.021  -3.784  1.00  0.00     0.274 HD
ATOM     18  H52 UNL     1      50.428 -20.503  -3.459  1.00  0.00     0.274 HD
ATOM     19  H51 UNL     1      51.542 -19.325  -3.023  1.00  0.00     0.274 HD
ENDBRANCH  14  16
ENDBRANCH  11  14
ENDBRANCH   9  11
BRANCH   1  20
HETATM   20  C2  UNL     1      55.035 -17.393  -6.638  1.00  0.00     0.227 C 
HETATM   21  N1  UNL     1      55.392 -16.293  -7.208  1.00  0.00    -0.365 N 
ATOM     22  H12 UNL     1      56.177 -15.748  -6.852  1.00  0.00     0.159 HD
ATOM     23  H11 UNL     1      54.868 -15.984  -8.026  1.00  0.00     0.159 HD
BRANCH  20  24
HETATM   24  O1  UNL     1      55.738 -17.807  -5.540  1.00  0.00    -0.327 OA
HETATM   25  C1  UNL     1      56.646 -18.895  -5.548  1.00  0.00     0.213 C 
ENDBRANCH  20  24
ENDBRANCH   1  20
TORSDOF 6
ENDMDL
MODEL 2
REMARK VINA RESULT: -6.366208368      2.185      4.608
REMARK  6 active torsions:
REMARK  status: ('A' for Active; 'I' for Inactive)
REMARK    1  A    between atoms: O1_2  and  C2_3 
REMARK    2  A    between atoms: C2_3  and  N2_7 
REMARK    3  A    between atoms: C5_15  and  C6_17 
REMARK    4  A    between atoms: C6_17  and  O4_18 
REMARK    5  A    between atoms: C6_17  and  C7_20 
REMARK    6  A    between atoms: C7_20  and  N5_22 
ROOT
HETATM    1  N2  UNL     1      53.558 -19.531  -5.335  1.00  0.00    -0.200 N 
HETATM    2  C3  UNL     1      54.591 -20.444  -5.667  1.00  0.00     0.337 C 
HETATM    3  O2  UNL     1      54.330 -21.682  -5.856  1.00  0.00    -0.246 OA
HETATM    4  N3  UNL     1      55.902 -19.966  -5.788  1.00  0.00    -0.276 N 
ATOM      5  H3  UNL     1      56.650 -20.616  -6.028  1.00  0.00     0.173 HD
HETATM    6  C4  UNL     1      56.179 -18.739  -5.605  1.00  0.00     0.239 C 
HETATM    7  N4  UNL     1      57.512 -18.256  -5.727  1.00  0.00    -0.056 NA
HETATM    8  O3  UNL     1      55.195 -17.819  -5.279  1.00  0.00    -0.260 OA
HETATM    9  C5  UNL     1      53.820 -18.112  -5.307  1.00  0.00     0.334 C 
HETATM   10  F1  UNL     1      53.265 -17.606  -4.150  1.00  0.00    -0.183 F 
ENDROOT
BRANCH   9  11
HETATM   11  C6  UNL     1      53.211 -17.489  -6.542  1.00  0.00     0.239 C 
BRANCH  11  12
HETATM   12  O4  UNL     1      52.824 -16.173  -6.320  1.00  0.00    -0.386 OA
ATOM     13  H4  UNL     1      53.556 -15.571  -6.391  1.00  0.00     0.210 HD
ENDBRANCH  11  12
BRANCH  11  14
HETATM   14  C7  UNL     1      54.123 -17.610  -7.742  1.00  0.00     0.215 C 
HETATM   15  C8  UNL     1      53.277 -18.221  -8.865  1.00  0.00     0.043 C 
BRANCH  14  16
HETATM   16  N5  UNL     1      54.603 -16.350  -8.223  1.00  0.00    -0.073 N 
ATOM     17  H53 UNL     1      54.986 -15.793  -7.460  1.00  0.00     0.274 HD
ATOM     18  H52 UNL     1      55.447 -16.474  -8.783  1.00  0.00     0.274 HD
ATOM     19  H51 UNL     1      53.902 -15.818  -8.740  1.00  0.00     0.274 HD
ENDBRANCH  14  16
ENDBRANCH  11  14
ENDBRANCH   9  11
BRANCH   1  20
HETATM   20  C2  UNL     1      52.277 -20.050  -5.033  1.00  0.00     0.227 C 
HETATM   21  N1  UNL     1      52.052 -20.658  -3.919  1.00  0.00    -0.365 N 
ATOM     22  H12 UNL     1      51.128 -21.032  -3.702  1.00  0.00     0.159 HD
ATOM     23  H11 UNL     1      52.824 -20.755  -3.261  1.00  0.00     0.159 HD
BRANCH  20  24
HETATM   24  O1  UNL     1      51.240 -19.920  -5.916  1.00  0.00    -0.327 OA
HETATM   25  C1  UNL     1      51.086 -20.717  -7.077  1.00  0.00     0.213 C 
ENDBRANCH  20  24
ENDBRANCH   1  20
TORSDOF 6
ENDMDL
MODEL 3
REMARK VINA RESULT: -6.336070265      2.123      3.401
REMARK  6 active torsions:
REMARK  status: ('A' for Active; 'I' for Inactive)
REMARK    1  A    between atoms: O1_2  and  C2_3 
REMARK    2  A    between atoms: C2_3  and  N2_7 
REMARK    3  A    between atoms: C5_15  and  C6_17 
REMARK    4  A    between atoms: C6_17  and  O4_18 
REMARK    5  A    between atoms: C6_17  and  C7_20 
REMARK    6  A    between atoms: C7_20  and  N5_22 
ROOT
HETATM    1  N2  UNL     1      54.060 -17.726  -6.726  1.00  0.00    -0.200 N 
HETATM    2  C3  UNL     1      52.783 -17.170  -6.462  1.00  0.00     0.337 C 
HETATM    3  O2  UNL     1      52.498 -15.983  -6.845  1.00  0.00    -0.246 OA
HETATM    4  N3  UNL     1      51.837 -17.943  -5.777  1.00  0.00    -0.276 N 
ATOM      5  H3  UNL     1      50.916 -17.550  -5.585  1.00  0.00     0.173 HD
HETATM    6  C4  UNL     1      52.103 -19.124  -5.389  1.00  0.00     0.239 C 
HETATM    7  N4  UNL     1      51.142 -19.908  -4.693  1.00  0.00    -0.056 NA
HETATM    8  O3  UNL     1      53.341 -19.699  -5.629  1.00  0.00    -0.260 OA
HETATM    9  C5  UNL     1      54.316 -19.121  -6.461  1.00  0.00     0.334 C 
HETATM   10  F1  UNL     1      55.526 -19.208  -5.804  1.00  0.00    -0.183 F 
ENDROOT
BRANCH   9  11
HETATM   11  C6  UNL     1      54.338 -19.861  -7.779  1.00  0.00     0.239 C 
BRANCH  11  12
HETATM   12  O4  UNL     1      55.636 -20.068  -8.234  1.00  0.00    -0.386 OA
ATOM     13  H4  UNL     1      55.656 -20.630  -9.001  1.00  0.00     0.210 HD
ENDBRANCH  11  12
BRANCH  11  14
HETATM   14  C7  UNL     1      53.556 -21.153  -7.712  1.00  0.00     0.215 C 
HETATM   15  C8  UNL     1      53.396 -21.634  -9.160  1.00  0.00     0.043 C 
BRANCH  14  16
HETATM   16  N5  UNL     1      54.234 -22.195  -7.002  1.00  0.00    -0.073 N 
ATOM     17  H53 UNL     1      54.099 -23.094  -7.464  1.00  0.00     0.274 HD
ATOM     18  H52 UNL     1      55.245 -22.103  -7.103  1.00  0.00     0.274 HD
ATOM     19  H51 UNL     1      53.973 -22.254  -6.018  1.00  0.00     0.274 HD
ENDBRANCH  14  16
ENDBRANCH  11  14
ENDBRANCH   9  11
BRANCH   1  20
HETATM   20  C2  UNL     1      55.065 -16.878  -7.249  1.00  0.00     0.227 C 
HETATM   21  N1  UNL     1      54.949 -16.354  -8.421  1.00  0.00    -0.365 N 
ATOM     22  H12 UNL     1      55.673 -15.744  -8.798  1.00  0.00     0.159 HD
ATOM     23  H11 UNL     1      54.110 -16.568  -8.960  1.00  0.00     0.159 HD
BRANCH  20  24
HETATM   24  O1  UNL     1      56.190 -16.591  -6.525  1.00  0.00    -0.327 OA
HETATM   25  C1  UNL     1      57.490 -17.030  -6.878  1.00  0.00     0.213 C 
ENDBRANCH  20  24
ENDBRANCH   1  20
TORSDOF 6
ENDMDL
MODEL 4
REMARK VINA RESULT: -6.213366190      2.235      2.663
REMARK  6 active torsions:
REMARK  status: ('A' for Active; 'I' for Inactive)
REMARK    1  A    between atoms: O1_2  and  C2_3 
REMARK    2  A    between atoms: C2_3  and  N2_7 
REMARK    3  A    between atoms: C5_15  and  C6_17 
REMARK    4  A    between atoms: C6_17  and  O4_18 
REMARK    5  A    between atoms: C6_17  and  C7_20 
REMARK    6  A    between atoms: C7_20  and  N5_22 
ROOT
HETATM    1  N2  UNL     1      55.524 -18.459  -6.811  1.00  0.00    -0.200 N 
HETATM    2  C3  UNL     1      55.245 -17.729  -7.994  1.00  0.00     0.337 C 
HETATM    3  O2  UNL     1      56.014 -17.821  -9.012  1.00  0.00    -0.246 OA
HETATM    4  N3  UNL     1      54.112 -16.907  -8.030  1.00  0.00    -0.276 N 
ATOM      5  H3  UNL     1      53.904 -16.380  -8.878  1.00  0.00     0.173 HD
HETATM    6  C4  UNL     1      53.337 -16.804  -7.028  1.00  0.00     0.239 C 
HETATM    7  N4  UNL     1      52.186 -15.968  -7.066  1.00  0.00    -0.056 NA
HETATM    8  O3  UNL     1      53.579 -17.502  -5.855  1.00  0.00    -0.260 OA
HETATM    9  C5  UNL     1      54.561 -18.500  -5.736  1.00  0.00     0.334 C 
HETATM   10  F1  UNL     1      55.240 -18.274  -4.556  1.00  0.00    -0.183 F 
ENDROOT
BRANCH   9  11
HETATM   11  C6  UNL     1      53.890 -19.854  -5.747  1.00  0.00     0.239 C 
BRANCH  11  12
HETATM   12  O4  UNL     1      54.573 -20.777  -4.964  1.00  0.00    -0.386 OA
ATOM     13  H4  UNL     1      54.349 -21.672  -5.194  1.00  0.00     0.210 HD
ENDBRANCH  11  12
BRANCH  11  14
HETATM   14  C7  UNL     1      52.431 -19.762  -5.361  1.00  0.00     0.215 C 
HETATM   15  C8  UNL     1      51.905 -21.202  -5.324  1.00  0.00     0.043 C 
BRANCH  14  16
HETATM   16  N5  UNL     1      52.220 -19.211  -4.056  1.00  0.00    -0.073 N 
ATOM     17  H53 UNL     1      51.497 -18.492  -4.080  1.00  0.00     0.274 HD
ATOM     18  H52 UNL     1      51.764 -19.889  -3.446  1.00  0.00     0.274 HD
ATOM     19  H51 UNL     1      53.071 -18.851  -3.624  1.00  0.00     0.274 HD
ENDBRANCH  14  16
ENDBRANCH  11  14
ENDBRANCH   9  11
BRANCH   1  20
HETATM   20  C2  UNL     1      56.763 -19.137  -6.717  1.00  0.00     0.227 C 
HETATM   21  N1  UNL     1      56.909 -20.322  -7.201  1.00  0.00    -0.365 N 
ATOM     22  H12 UNL     1      57.802 -20.811  -7.133  1.00  0.00     0.159 HD
ATOM     23  H11 UNL     1      56.107 -20.758  -7.654  1.00  0.00     0.159 HD
BRANCH  20  24
HETATM   24  O1  UNL     1      57.840 -18.552  -6.109  1.00  0.00    -0.327 OA
HETATM   25  C1  UNL     1      58.609 -17.515  -6.692  1.00  0.00     0.213 C 
ENDBRANCH  20  24
ENDBRANCH   1  20
TORSDOF 6
ENDMDL
MODEL 5
REMARK VINA RESULT: -6.175161713      2.221      2.651
REMARK  6 active torsions:
REMARK  status: ('A' for Active; 'I' for Inactive)
REMARK    1  A    between atoms: O1_2  and  C2_3 
REMARK    2  A    between atoms: C2_3  and  N2_7 
REMARK    3  A    between atoms: C5_15  and  C6_17 
REMARK    4  A    between atoms: C6_17  and  O4_18 
REMARK    5  A    between atoms: C6_17  and  C7_20 
REMARK    6  A    between atoms: C7_20  and  N5_22 
ROOT
HETATM    1  N2  UNL     1      55.542 -18.464  -6.699  1.00  0.00    -0.200 N 
HETATM    2  C3  UNL     1      55.326 -17.725  -7.890  1.00  0.00     0.337 C 
HETATM    3  O2  UNL     1      56.149 -17.809  -8.866  1.00  0.00    -0.246 OA
HETATM    4  N3  UNL     1      54.194 -16.905  -7.980  1.00  0.00    -0.276 N 
ATOM      5  H3  UNL     1      54.032 -16.372  -8.834  1.00  0.00     0.173 HD
HETATM    6  C4  UNL     1      53.367 -16.811  -7.021  1.00  0.00     0.239 C 
HETATM    7  N4  UNL     1      52.218 -15.976  -7.113  1.00  0.00    -0.056 NA
HETATM    8  O3  UNL     1      53.547 -17.518  -5.842  1.00  0.00    -0.260 OA
HETATM    9  C5  UNL     1      54.524 -18.515  -5.678  1.00  0.00     0.334 C 
HETATM   10  F1  UNL     1      55.139 -18.297  -4.462  1.00  0.00    -0.183 F 
ENDROOT
BRANCH   9  11
HETATM   11  C6  UNL     1      53.857 -19.870  -5.735  1.00  0.00     0.239 C 
BRANCH  11  12
HETATM   12  O4  UNL     1      54.472 -20.786  -4.890  1.00  0.00    -0.386 OA
ATOM     13  H4  UNL     1      55.396 -20.886  -5.089  1.00  0.00     0.210 HD
ENDBRANCH  11  12
BRANCH  11  14
HETATM   14  C7  UNL     1      52.371 -19.777  -5.474  1.00  0.00     0.215 C 
HETATM   15  C8  UNL     1      51.831 -21.210  -5.549  1.00  0.00     0.043 C 
BRANCH  14  16
HETATM   16  N5  UNL     1      52.051 -19.282  -4.168  1.00  0.00    -0.073 N 
ATOM     17  H53 UNL     1      51.044 -19.167  -4.063  1.00  0.00     0.274 HD
ATOM     18  H52 UNL     1      52.214 -19.998  -3.460  1.00  0.00     0.274 HD
ATOM     19  H51 UNL     1      52.540 -18.420  -3.929  1.00  0.00     0.274 HD
ENDBRANCH  14  16
ENDBRANCH  11  14
ENDBRANCH   9  11
BRANCH   1  20
HETATM   20  C2  UNL     1      56.776 -19.140  -6.544  1.00  0.00     0.227 C 
HETATM   21  N1  UNL     1      57.868 -18.490  -6.332  1.00  0.00    -0.365 N 
ATOM     22  H12 UNL     1      58.757 -18.977  -6.221  1.00  0.00     0.159 HD
ATOM     23  H11 UNL     1      57.818 -17.473  -6.279  1.00  0.00     0.159 HD
BRANCH  20  24
HETATM   24  O1  UNL     1      56.843 -20.505  -6.615  1.00  0.00    -0.327 OA
HETATM   25  C1  UNL     1      58.054 -21.239  -6.588  1.00  0.00     0.213 C 
ENDBRANCH  20  24
ENDBRANCH   1  20
TORSDOF 6
ENDMDL
