MODEL 1
REMARK VINA RESULT: -6.938911150      0.000      0.000
REMARK  5 active torsions:
REMARK  status: ('A' for Active; 'I' for Inactive)
REMARK    1  A    between atoms: C3_5  and  O2_6 
REMARK    2  A    between atoms: O2_6  and  C4_7 
REMARK    3  A    between atoms: C5_9  and  C6_10 
REMARK       I    between atoms: C6_10  and  N2_12 
REMARK    4  A    between atoms: N2_12  and  N3_13 
REMARK    5  A    between atoms: C8_17  and  N4_18 
ROOT
HETATM    1  N1  UNL     1      52.329 -21.438  -7.219  1.00  0.00    -0.194 NA
HETATM    2  C1  UNL     1      53.226 -21.336  -6.505  1.00  0.00     0.094 C 
HETATM    3  C2  UNL     1      54.376 -21.209  -5.574  1.00  0.00     0.266 C 
HETATM    4  O1  UNL     1      54.608 -19.872  -5.369  1.00  0.00    -0.339 OA
HETATM    5  C3  UNL     1      55.639 -19.330  -6.084  1.00  0.00     0.267 C 
HETATM    6  C7  UNL     1      56.936 -20.059  -5.999  1.00  0.00     0.096 C 
HETATM    7  C8  UNL     1      56.766 -21.490  -5.520  1.00  0.00     0.225 C 
HETATM    8  C9  UNL     1      55.493 -21.990  -6.171  1.00  0.00     0.243 C 
HETATM    9  F1  UNL     1      55.320 -23.334  -5.793  1.00  0.00    -0.243 F 
ENDROOT
BRANCH   5  10
HETATM   10  O2  UNL     1      55.813 -18.010  -5.699  1.00  0.00    -0.328 OA
BRANCH  10  11
HETATM   11  C4  UNL     1      55.658 -17.180  -6.786  1.00  0.00     0.303 A 
HETATM   12  O3  UNL     1      54.908 -17.743  -7.842  1.00  0.00    -0.337 OA
HETATM   13  C5  UNL     1      54.447 -16.509  -7.172  1.00  0.00     0.288 A 
BRANCH  13  14
HETATM   14  C6  UNL     1      53.119 -16.702  -6.525  1.00  0.00     0.345 C 
HETATM   15  O4  UNL     1      52.102 -16.406  -7.119  1.00  0.00    -0.252 OA
HETATM   16  N2  UNL     1      53.152 -17.254  -5.180  1.00  0.00    -0.291 NA
BRANCH  16  17
HETATM   17  N3  UNL     1      53.179 -17.715  -4.052  1.00  0.00    -0.277 N 
ATOM     18  H32 UNL     1      53.144 -17.304  -4.986  1.00  0.00     0.191 HD
ATOM     19  H31 UNL     1      53.202 -18.102  -3.109  1.00  0.00     0.191 HD
ENDBRANCH  16  17
ENDBRANCH  13  14
ENDBRANCH  10  11
ENDBRANCH   5  10
BRANCH   7  20
HETATM   20  N4  UNL     1      57.884 -22.284  -5.979  1.00  0.00    -0.072 N 
ATOM     21  H43 UNL     1      58.418 -21.813  -6.709  1.00  0.00     0.274 HD
ATOM     22  H42 UNL     1      58.623 -22.352  -5.280  1.00  0.00     0.274 HD
ATOM     23  H41 UNL     1      57.547 -23.200  -6.276  1.00  0.00     0.274 HD
ENDBRANCH   7  20
TORSDOF 5
ENDMDL
MODEL 2
REMARK VINA RESULT: -6.882331085      2.465      3.318
REMARK  5 active torsions:
REMARK  status: ('A' for Active; 'I' for Inactive)
REMARK    1  A    between atoms: C3_5  and  O2_6 
REMARK    2  A    between atoms: O2_6  and  C4_7 
REMARK    3  A    between atoms: C5_9  and  C6_10 
REMARK       I    between atoms: C6_10  and  N2_12 
REMARK    4  A    between atoms: N2_12  and  N3_13 
REMARK    5  A    between atoms: C8_17  and  N4_18 
ROOT
HETATM    1  N1  UNL     1      58.618 -18.255  -9.736  1.00  0.00    -0.194 NA
HETATM    2  C1  UNL     1      57.836 -18.851  -9.137  1.00  0.00     0.094 C 
HETATM    3  C2  UNL     1      56.820 -19.621  -8.376  1.00  0.00     0.266 C 
HETATM    4  O1  UNL     1      56.123 -18.738  -7.589  1.00  0.00    -0.339 OA
HETATM    5  C3  UNL     1      56.492 -18.691  -6.274  1.00  0.00     0.267 C 
HETATM    6  C7  UNL     1      56.558 -20.005  -5.575  1.00  0.00     0.096 C 
HETATM    7  C8  UNL     1      56.649 -21.171  -6.543  1.00  0.00     0.225 C 
HETATM    8  C9  UNL     1      57.553 -20.702  -7.665  1.00  0.00     0.243 C 
HETATM    9  F1  UNL     1      57.707 -21.772  -8.564  1.00  0.00    -0.243 F 
ENDROOT
BRANCH   5  10
HETATM   10  O2  UNL     1      55.640 -17.835  -5.595  1.00  0.00    -0.328 OA
BRANCH  10  11
HETATM   11  C4  UNL     1      54.404 -18.423  -5.446  1.00  0.00     0.303 A 
HETATM   12  O3  UNL     1      53.490 -17.664  -4.684  1.00  0.00    -0.337 OA
HETATM   13  C5  UNL     1      53.187 -18.009  -6.089  1.00  0.00     0.288 A 
BRANCH  13  14
HETATM   14  C6  UNL     1      53.039 -16.789  -6.931  1.00  0.00     0.345 C 
HETATM   15  O4  UNL     1      51.998 -16.163  -6.919  1.00  0.00    -0.252 OA
HETATM   16  N2  UNL     1      54.200 -16.433  -7.729  1.00  0.00    -0.291 NA
BRANCH  16  17
HETATM   17  N3  UNL     1      55.174 -16.134  -8.399  1.00  0.00    -0.277 N 
ATOM     18  H32 UNL     1      54.341 -16.375  -7.860  1.00  0.00     0.191 HD
ATOM     19  H31 UNL     1      55.989 -15.885  -8.959  1.00  0.00     0.191 HD
ENDBRANCH  16  17
ENDBRANCH  13  14
ENDBRANCH  10  11
ENDBRANCH   5  10
BRANCH   7  20
HETATM   20  N4  UNL     1      57.259 -22.300  -5.875  1.00  0.00    -0.072 N 
ATOM     21  H43 UNL     1      58.019 -22.706  -6.420  1.00  0.00     0.274 HD
ATOM     22  H42 UNL     1      57.801 -22.019  -5.058  1.00  0.00     0.274 HD
ATOM     23  H41 UNL     1      56.540 -22.985  -5.644  1.00  0.00     0.274 HD
ENDBRANCH   7  20
TORSDOF 5
ENDMDL
MODEL 3
REMARK VINA RESULT: -6.881347969      2.354      3.624
REMARK  5 active torsions:
REMARK  status: ('A' for Active; 'I' for Inactive)
REMARK    1  A    between atoms: C3_5  and  O2_6 
REMARK    2  A    between atoms: O2_6  and  C4_7 
REMARK    3  A    between atoms: C5_9  and  C6_10 
REMARK       I    between atoms: C6_10  and  N2_12 
REMARK    4  A    between atoms: N2_12  and  N3_13 
REMARK    5  A    between atoms: C8_17  and  N4_18 
ROOT
HETATM    1  N1  UNL     1      57.497 -16.383  -6.374  1.00  0.00    -0.194 NA
HETATM    2  C1  UNL     1      56.925 -17.369  -6.534  1.00  0.00     0.094 C 
HETATM    3  C2  UNL     1      56.186 -18.639  -6.753  1.00  0.00     0.266 C 
HETATM    4  O1  UNL     1      54.902 -18.464  -6.301  1.00  0.00    -0.339 OA
HETATM    5  C3  UNL     1      54.628 -18.981  -5.066  1.00  0.00     0.267 C 
HETATM    6  C7  UNL     1      55.016 -20.405  -4.864  1.00  0.00     0.096 C 
HETATM    7  C8  UNL     1      56.037 -20.878  -5.883  1.00  0.00     0.225 C 
HETATM    8  C9  UNL     1      56.979 -19.709  -6.090  1.00  0.00     0.243 C 
HETATM    9  F1  UNL     1      57.975 -20.119  -6.994  1.00  0.00    -0.243 F 
ENDROOT
BRANCH   5  10
HETATM   10  O2  UNL     1      53.279 -18.815  -4.795  1.00  0.00    -0.328 OA
BRANCH  10  11
HETATM   11  C4  UNL     1      52.574 -19.916  -5.225  1.00  0.00     0.303 A 
HETATM   12  O3  UNL     1      51.171 -19.759  -5.177  1.00  0.00    -0.337 OA
HETATM   13  C5  UNL     1      51.851 -20.027  -6.461  1.00  0.00     0.288 A 
BRANCH  13  14
HETATM   14  C6  UNL     1      51.643 -18.916  -7.432  1.00  0.00     0.345 C 
HETATM   15  O4  UNL     1      51.228 -19.153  -8.549  1.00  0.00    -0.252 OA
HETATM   16  N2  UNL     1      51.965 -17.587  -6.942  1.00  0.00    -0.291 NA
BRANCH  16  17
HETATM   17  N3  UNL     1      52.236 -16.471  -6.531  1.00  0.00    -0.277 N 
ATOM     18  H32 UNL     1      52.022 -17.416  -6.851  1.00  0.00     0.191 HD
ATOM     19  H31 UNL     1      52.462 -15.538  -6.188  1.00  0.00     0.191 HD
ENDBRANCH  16  17
ENDBRANCH  13  14
ENDBRANCH  10  11
ENDBRANCH   5  10
BRANCH   7  20
HETATM   20  N4  UNL     1      56.774 -21.997  -5.338  1.00  0.00    -0.072 N 
ATOM     21  H43 UNL     1      57.457 -22.368  -5.998  1.00  0.00     0.274 HD
ATOM     22  H42 UNL     1      57.422 -21.713  -4.603  1.00  0.00     0.274 HD
ATOM     23  H41 UNL     1      56.118 -22.710  -5.019  1.00  0.00     0.274 HD
ENDBRANCH   7  20
TORSDOF 5
ENDMDL
MODEL 4
REMARK VINA RESULT: -6.801942547      2.586      3.665
REMARK  5 active torsions:
REMARK  status: ('A' for Active; 'I' for Inactive)
REMARK    1  A    between atoms: C3_5  and  O2_6 
REMARK    2  A    between atoms: O2_6  and  C4_7 
REMARK    3  A    between atoms: C5_9  and  C6_10 
REMARK       I    between atoms: C6_10  and  N2_12 
REMARK    4  A    between atoms: N2_12  and  N3_13 
REMARK    5  A    between atoms: C8_17  and  N4_18 
ROOT
HETATM    1  N1  UNL     1      59.182 -16.822  -7.074  1.00  0.00    -0.194 NA
HETATM    2  C1  UNL     1      58.411 -17.670  -7.181  1.00  0.00     0.094 C 
HETATM    3  C2  UNL     1      57.417 -18.764  -7.331  1.00  0.00     0.266 C 
HETATM    4  O1  UNL     1      56.187 -18.268  -6.975  1.00  0.00    -0.339 OA
HETATM    5  C3  UNL     1      55.757 -18.589  -5.719  1.00  0.00     0.267 C 
HETATM    6  C7  UNL     1      55.809 -20.036  -5.368  1.00  0.00     0.096 C 
HETATM    7  C8  UNL     1      56.739 -20.819  -6.278  1.00  0.00     0.225 C 
HETATM    8  C9  UNL     1      57.925 -19.910  -6.530  1.00  0.00     0.243 C 
HETATM    9  F1  UNL     1      58.840 -20.615  -7.333  1.00  0.00    -0.243 F 
ENDROOT
BRANCH   5  10
HETATM   10  O2  UNL     1      54.470 -18.106  -5.544  1.00  0.00    -0.328 OA
BRANCH  10  11
HETATM   11  C4  UNL     1      53.554 -19.058  -5.932  1.00  0.00     0.303 A 
HETATM   12  O3  UNL     1      52.210 -18.700  -5.691  1.00  0.00    -0.337 OA
HETATM   13  C5  UNL     1      52.676 -18.976  -7.066  1.00  0.00     0.288 A 
BRANCH  13  14
HETATM   14  C6  UNL     1      52.525 -17.782  -7.944  1.00  0.00     0.345 C 
HETATM   15  O4  UNL     1      51.464 -17.558  -8.492  1.00  0.00    -0.252 OA
HETATM   16  N2  UNL     1      53.708 -16.948  -8.078  1.00  0.00    -0.291 NA
BRANCH  16  17
HETATM   17  N3  UNL     1      54.700 -16.249  -8.191  1.00  0.00    -0.277 N 
ATOM     18  H32 UNL     1      53.883 -16.849  -8.074  1.00  0.00     0.191 HD
ATOM     19  H31 UNL     1      55.530 -15.663  -8.285  1.00  0.00     0.191 HD
ENDBRANCH  16  17
ENDBRANCH  13  14
ENDBRANCH  10  11
ENDBRANCH   5  10
BRANCH   7  20
HETATM   20  N4  UNL     1      57.186 -22.012  -5.593  1.00  0.00    -0.072 N 
ATOM     21  H43 UNL     1      56.813 -22.076  -4.646  1.00  0.00     0.274 HD
ATOM     22  H42 UNL     1      56.762 -22.858  -5.974  1.00  0.00     0.274 HD
ATOM     23  H41 UNL     1      58.205 -22.049  -5.611  1.00  0.00     0.274 HD
ENDBRANCH   7  20
TORSDOF 5
ENDMDL
MODEL 5
REMARK VINA RESULT: -6.758520239      2.653      4.566
REMARK  5 active torsions:
REMARK  status: ('A' for Active; 'I' for Inactive)
REMARK    1  A    between atoms: C3_5  and  O2_6 
REMARK    2  A    between atoms: O2_6  and  C4_7 
REMARK    3  A    between atoms: C5_9  and  C6_10 
REMARK       I    between atoms: C6_10  and  N2_12 
REMARK    4  A    between atoms: N2_12  and  N3_13 
REMARK    5  A    between atoms: C8_17  and  N4_18 
ROOT
HETATM    1  N1  UNL     1      51.654 -21.356  -4.431  1.00  0.00    -0.194 NA
HETATM    2  C1  UNL     1      52.199 -20.741  -5.237  1.00  0.00     0.094 C 
HETATM    3  C2  UNL     1      52.903 -19.959  -6.285  1.00  0.00     0.266 C 
HETATM    4  O1  UNL     1      54.194 -19.756  -5.865  1.00  0.00    -0.339 OA
HETATM    5  C3  UNL     1      54.460 -18.527  -5.331  1.00  0.00     0.267 C 
HETATM    6  C7  UNL     1      54.036 -17.360  -6.155  1.00  0.00     0.096 C 
HETATM    7  C8  UNL     1      52.997 -17.734  -7.197  1.00  0.00     0.225 C 
HETATM    8  C9  UNL     1      52.086 -18.739  -6.524  1.00  0.00     0.243 C 
HETATM    9  F1  UNL     1      51.074 -19.079  -7.440  1.00  0.00    -0.243 F 
ENDROOT
BRANCH   5  10
HETATM   10  O2  UNL     1      55.814 -18.439  -5.049  1.00  0.00    -0.328 OA
BRANCH  10  11
HETATM   11  C4  UNL     1      56.499 -18.007  -6.161  1.00  0.00     0.303 A 
HETATM   12  O3  UNL     1      57.877 -17.785  -5.943  1.00  0.00    -0.337 OA
HETATM   13  C5  UNL     1      57.428 -18.782  -6.937  1.00  0.00     0.288 A 
BRANCH  13  14
HETATM   14  C6  UNL     1      57.898 -20.152  -6.588  1.00  0.00     0.345 C 
HETATM   15  O4  UNL     1      58.938 -20.575  -7.051  1.00  0.00    -0.252 OA
HETATM   16  N2  UNL     1      57.039 -20.898  -5.685  1.00  0.00    -0.291 NA
BRANCH  16  17
HETATM   17  N3  UNL     1      56.318 -21.525  -4.927  1.00  0.00    -0.277 N 
ATOM     18  H32 UNL     1      56.928 -21.026  -5.575  1.00  0.00     0.191 HD
ATOM     19  H31 UNL     1      55.714 -22.049  -4.293  1.00  0.00     0.191 HD
ENDBRANCH  16  17
ENDBRANCH  13  14
ENDBRANCH  10  11
ENDBRANCH   5  10
BRANCH   7  20
HETATM   20  N4  UNL     1      52.234 -16.559  -7.556  1.00  0.00    -0.072 N 
ATOM     21  H43 UNL     1      51.517 -16.339  -6.865  1.00  0.00     0.274 HD
ATOM     22  H42 UNL     1      52.782 -15.702  -7.473  1.00  0.00     0.274 HD
ATOM     23  H41 UNL     1      51.846 -16.681  -8.491  1.00  0.00     0.274 HD
ENDBRANCH   7  20
TORSDOF 5
ENDMDL
