MODEL 1
REMARK VINA RESULT: -5.995758860      0.000      0.000
REMARK  0 active torsions:
REMARK  status: ('A' for Active; 'I' for Inactive)
REMARK       I    between atoms: C2_2  and  N1_4 
REMARK       I    between atoms: N1_4  and  C3_6 
REMARK       I    between atoms: C3_6  and  N2_8 
REMARK       I    between atoms: N3_11  and  C6_12 
ROOT
HETATM    1  C1  UNL     1      28.045   4.887  55.541  1.00  0.00     0.117 C 
HETATM    2  C2  UNL     1      29.521   4.975  55.624  1.00  0.00     0.221 C 
HETATM    3  O1  UNL     1      30.183   4.986  54.572  1.00  0.00    -0.274 OA
HETATM    4  N1  UNL     1      30.121   5.043  56.899  1.00  0.00    -0.280 N 
ATOM      5  H1  UNL     1      29.550   5.032  57.745  1.00  0.00     0.173 HD
HETATM    6  C3  UNL     1      31.538   5.128  56.983  1.00  0.00     0.325 C 
HETATM    7  O2  UNL     1      32.213   5.139  55.924  1.00  0.00    -0.247 OA
HETATM    8  N2  UNL     1      32.185   5.199  58.262  1.00  0.00    -0.331 N 
HETATM    9  C4  UNL     1      31.441   5.189  59.482  1.00  0.00     0.147 C 
HETATM   10  C5  UNL     1      32.409   4.847  60.615  1.00  0.00     0.145 C 
HETATM   11  N3  UNL     1      33.473   5.827  60.635  1.00  0.00    -0.353 N 
HETATM   12  C6  UNL     1      33.930   6.380  61.854  1.00  0.00     0.184 C 
HETATM   13  N4  UNL     1      33.089   6.717  62.747  1.00  0.00    -0.374 N 
ATOM     14  H41 UNL     1      33.419   7.116  63.626  1.00  0.00     0.158 HD
ATOM     15  H42 UNL     1      32.090   6.587  62.584  1.00  0.00     0.158 HD
HETATM   16  N5  UNL     1      35.309   6.559  62.079  1.00  0.00    -0.064 NA
HETATM   17  C7  UNL     1      34.051   6.217  59.346  1.00  0.00     0.145 C 
HETATM   18  C8  UNL     1      33.631   5.283  58.264  1.00  0.00     0.147 C 
ENDROOT
TORSDOF 0
ENDMDL
MODEL 2
REMARK VINA RESULT: -5.976888525      2.869      2.956
REMARK  0 active torsions:
REMARK  status: ('A' for Active; 'I' for Inactive)
REMARK       I    between atoms: C2_2  and  N1_4 
REMARK       I    between atoms: N1_4  and  C3_6 
REMARK       I    between atoms: C3_6  and  N2_8 
REMARK       I    between atoms: N3_11  and  C6_12 
ROOT
HETATM    1  C1  UNL     1      28.039   5.057  55.199  1.00  0.00     0.117 C 
HETATM    2  C2  UNL     1      29.464   5.073  55.602  1.00  0.00     0.221 C 
HETATM    3  O1  UNL     1      30.233   4.220  55.126  1.00  0.00    -0.274 OA
HETATM    4  N1  UNL     1      29.895   6.059  56.514  1.00  0.00    -0.280 N 
ATOM      5  H1  UNL     1      29.239   6.746  56.887  1.00  0.00     0.173 HD
HETATM    6  C3  UNL     1      31.264   6.078  56.903  1.00  0.00     0.325 C 
HETATM    7  O2  UNL     1      32.045   5.218  56.426  1.00  0.00    -0.247 OA
HETATM    8  N2  UNL     1      31.740   7.065  57.828  1.00  0.00    -0.331 N 
HETATM    9  C4  UNL     1      30.872   8.054  58.385  1.00  0.00     0.147 C 
HETATM   10  C5  UNL     1      31.566   8.646  59.613  1.00  0.00     0.145 C 
HETATM   11  N3  UNL     1      32.838   9.205  59.208  1.00  0.00    -0.353 N 
HETATM   12  C6  UNL     1      33.266  10.463  59.690  1.00  0.00     0.184 C 
HETATM   13  N4  UNL     1      32.437  11.426  59.763  1.00  0.00    -0.374 N 
ATOM     14  H41 UNL     1      32.746  12.333  60.111  1.00  0.00     0.158 HD
ATOM     15  H42 UNL     1      31.468  11.288  59.476  1.00  0.00     0.158 HD
HETATM   16  N5  UNL     1      34.604  10.653  60.088  1.00  0.00    -0.064 NA
HETATM   17  C7  UNL     1      33.656   8.414  58.284  1.00  0.00     0.145 C 
HETATM   18  C8  UNL     1      33.145   7.018  58.175  1.00  0.00     0.147 C 
ENDROOT
TORSDOF 0
ENDMDL
MODEL 3
REMARK VINA RESULT: -5.476588810      2.976      6.253
REMARK  0 active torsions:
REMARK  status: ('A' for Active; 'I' for Inactive)
REMARK       I    between atoms: C2_2  and  N1_4 
REMARK       I    between atoms: N1_4  and  C3_6 
REMARK       I    between atoms: C3_6  and  N2_8 
REMARK       I    between atoms: N3_11  and  C6_12 
ROOT
HETATM    1  C1  UNL     1      33.384   6.526  64.608  1.00  0.00     0.117 C 
HETATM    2  C2  UNL     1      33.815   5.793  63.396  1.00  0.00     0.221 C 
HETATM    3  O1  UNL     1      34.652   4.881  63.510  1.00  0.00    -0.274 OA
HETATM    4  N1  UNL     1      33.257   6.160  62.152  1.00  0.00    -0.280 N 
ATOM      5  H1  UNL     1      32.572   6.914  62.091  1.00  0.00     0.173 HD
HETATM    6  C3  UNL     1      33.668   5.458  60.986  1.00  0.00     0.325 C 
HETATM    7  O2  UNL     1      34.513   4.535  61.095  1.00  0.00    -0.247 OA
HETATM    8  N2  UNL     1      33.123   5.802  59.704  1.00  0.00    -0.331 N 
HETATM    9  C4  UNL     1      32.160   6.846  59.553  1.00  0.00     0.147 C 
HETATM   10  C5  UNL     1      32.119   7.233  58.073  1.00  0.00     0.145 C 
HETATM   11  N3  UNL     1      31.779   6.063  57.293  1.00  0.00    -0.353 N 
HETATM   12  C6  UNL     1      30.845   6.141  56.234  1.00  0.00     0.184 C 
HETATM   13  N4  UNL     1      29.778   6.818  56.383  1.00  0.00    -0.374 N 
ATOM     14  H41 UNL     1      29.104   6.874  55.620  1.00  0.00     0.158 HD
ATOM     15  H42 UNL     1      29.599   7.302  57.263  1.00  0.00     0.158 HD
HETATM   16  N5  UNL     1      31.092   5.472  55.019  1.00  0.00    -0.064 NA
HETATM   17  C7  UNL     1      32.442   4.804  57.646  1.00  0.00     0.145 C 
HETATM   18  C8  UNL     1      33.592   5.041  58.564  1.00  0.00     0.147 C 
ENDROOT
TORSDOF 0
ENDMDL
MODEL 4
REMARK VINA RESULT: -5.425460590      4.020      4.272
REMARK  0 active torsions:
REMARK  status: ('A' for Active; 'I' for Inactive)
REMARK       I    between atoms: C2_2  and  N1_4 
REMARK       I    between atoms: N1_4  and  C3_6 
REMARK       I    between atoms: C3_6  and  N2_8 
REMARK       I    between atoms: N3_11  and  C6_12 
ROOT
HETATM    1  C1  UNL     1      29.697   5.006  55.612  1.00  0.00     0.117 C 
HETATM    2  C2  UNL     1      30.894   5.599  56.250  1.00  0.00     0.221 C 
HETATM    3  O1  UNL     1      32.015   5.137  55.973  1.00  0.00    -0.274 OA
HETATM    4  N1  UNL     1      30.716   6.671  57.151  1.00  0.00    -0.280 N 
ATOM      5  H1  UNL     1      29.782   7.028  57.357  1.00  0.00     0.173 HD
HETATM    6  C3  UNL     1      31.864   7.244  57.766  1.00  0.00     0.325 C 
HETATM    7  O2  UNL     1      32.998   6.781  57.491  1.00  0.00    -0.247 OA
HETATM    8  N2  UNL     1      31.723   8.335  58.687  1.00  0.00    -0.331 N 
HETATM    9  C4  UNL     1      30.444   8.880  59.016  1.00  0.00     0.147 C 
HETATM   10  C5  UNL     1      30.601   9.697  60.299  1.00  0.00     0.145 C 
HETATM   11  N3  UNL     1      31.591  10.729  60.080  1.00  0.00    -0.353 N 
HETATM   12  C6  UNL     1      31.380  12.049  60.538  1.00  0.00     0.184 C 
HETATM   13  N4  UNL     1      30.236  12.589  60.401  1.00  0.00    -0.374 N 
ATOM     14  H41 UNL     1      30.084  13.542  60.731  1.00  0.00     0.158 HD
ATOM     15  H42 UNL     1      29.476  12.069  59.962  1.00  0.00     0.158 HD
HETATM   16  N5  UNL     1      32.431  12.767  61.144  1.00  0.00    -0.064 NA
HETATM   17  C7  UNL     1      32.814  10.346  59.367  1.00  0.00     0.145 C 
HETATM   18  C8  UNL     1      32.938   8.864  59.271  1.00  0.00     0.147 C 
ENDROOT
TORSDOF 0
ENDMDL
MODEL 5
REMARK VINA RESULT: -5.386530317     11.106     11.955
REMARK  0 active torsions:
REMARK  status: ('A' for Active; 'I' for Inactive)
REMARK       I    between atoms: C2_2  and  N1_4 
REMARK       I    between atoms: N1_4  and  C3_6 
REMARK       I    between atoms: C3_6  and  N2_8 
REMARK       I    between atoms: N3_11  and  C6_12 
ROOT
HETATM    1  C1  UNL     1      29.018  11.635  59.711  1.00  0.00     0.117 C 
HETATM    2  C2  UNL     1      28.326  12.809  60.288  1.00  0.00     0.221 C 
HETATM    3  O1  UNL     1      28.603  13.942  59.859  1.00  0.00    -0.274 OA
HETATM    4  N1  UNL     1      27.374  12.596  61.309  1.00  0.00    -0.280 N 
ATOM      5  H1  UNL     1      27.168  11.653  61.640  1.00  0.00     0.173 HD
HETATM    6  C3  UNL     1      26.706  13.722  61.866  1.00  0.00     0.325 C 
HETATM    7  O2  UNL     1      26.982  14.869  61.436  1.00  0.00    -0.247 OA
HETATM    8  N2  UNL     1      25.732  13.545  62.904  1.00  0.00    -0.331 N 
HETATM    9  C4  UNL     1      25.400  12.251  63.410  1.00  0.00     0.147 C 
HETATM   10  C5  UNL     1      24.687  12.443  64.750  1.00  0.00     0.145 C 
HETATM   11  N3  UNL     1      23.514  13.264  64.544  1.00  0.00    -0.353 N 
HETATM   12  C6  UNL     1      22.282  12.938  65.155  1.00  0.00     0.184 C 
HETATM   13  N4  UNL     1      21.894  11.727  65.185  1.00  0.00    -0.374 N 
ATOM     14  H41 UNL     1      21.005  11.492  65.626  1.00  0.00     0.158 HD
ATOM     15  H42 UNL     1      22.471  10.995  64.771  1.00  0.00     0.158 HD
HETATM   16  N5  UNL     1      21.484  13.949  65.728  1.00  0.00    -0.064 NA
HETATM   17  C7  UNL     1      23.660  14.440  63.680  1.00  0.00     0.145 C 
HETATM   18  C8  UNL     1      25.097  14.740  63.420  1.00  0.00     0.147 C 
ENDROOT
TORSDOF 0
ENDMDL
