MODEL 1
REMARK VINA RESULT: -6.245902319      0.000      0.000
REMARK  5 active torsions:
REMARK  status: ('A' for Active; 'I' for Inactive)
REMARK    1  A    between atoms: N1_1  and  C1_4 
REMARK    2  A    between atoms: N4_13  and  C4_14 
REMARK    3  A    between atoms: C4_14  and  C5_15 
REMARK    4  A    between atoms: C6_16  and  C7_17 
REMARK    5  A    between atoms: C7_17  and  N5_18 
ROOT
HETATM    1  C1  UNL     1      30.541   5.357  55.419  1.00  0.00     0.186 A 
HETATM    2  C2  UNL     1      29.736   4.310  54.959  1.00  0.00     0.294 A 
HETATM    3  O1  UNL     1      30.234   3.337  54.343  1.00  0.00    -0.264 OA
HETATM    4  N2  UNL     1      28.423   4.375  55.193  1.00  0.00    -0.271 N 
ATOM      5  H2  UNL     1      27.815   3.624  54.867  1.00  0.00     0.174 HD
HETATM    6  C3  UNL     1      27.896   5.409  55.847  1.00  0.00     0.342 A 
HETATM    7  O2  UNL     1      26.672   5.529  56.099  1.00  0.00    -0.245 OA
HETATM    8  N3  UNL     1      28.707   6.406  56.279  1.00  0.00    -0.247 N 
ATOM      9  H3  UNL     1      28.294   7.193  56.780  1.00  0.00     0.192 HD
HETATM   10  N4  UNL     1      30.007   6.396  56.077  1.00  0.00    -0.257 N 
ENDROOT
BRANCH  10  11
HETATM   11  C4  UNL     1      30.822   7.476  56.554  1.00  0.00     0.245 C 
BRANCH  11  12
HETATM   12  C5  UNL     1      30.203   8.197  57.668  1.00  0.00    -0.079 C 
HETATM   13  C6  UNL     1      29.711   8.805  58.588  1.00  0.00    -0.060 C 
BRANCH  13  14
HETATM   14  C7  UNL     1      29.132   9.564  59.720  1.00  0.00     0.155 C 
BRANCH  14  15
HETATM   15  N5  UNL     1      29.421  10.902  59.599  1.00  0.00    -0.353 N 
HETATM   16  C8  UNL     1      30.698  11.408  59.728  1.00  0.00     0.139 C 
HETATM   17  C9  UNL     1      30.654  12.649  60.634  1.00  0.00     0.100 C 
HETATM   18  S1  UNL     1      29.063  13.356  60.031  1.00  0.00    -0.123 SA
HETATM   19  C10 UNL     1      28.467  11.835  59.178  1.00  0.00     0.136 C 
ENDBRANCH  14  15
ENDBRANCH  13  14
ENDBRANCH  11  12
ENDBRANCH  10  11
BRANCH   1  20
HETATM   20  N1  UNL     1      31.812   5.336  55.215  1.00  0.00    -0.380 N 
ATOM     21  H12 UNL     1      32.184   4.732  54.482  1.00  0.00     0.158 HD
ATOM     22  H11 UNL     1      32.434   5.916  55.780  1.00  0.00     0.158 HD
ENDBRANCH   1  20
TORSDOF 5
ENDMDL
MODEL 2
REMARK VINA RESULT: -6.215025190      2.161      2.628
REMARK  5 active torsions:
REMARK  status: ('A' for Active; 'I' for Inactive)
REMARK    1  A    between atoms: N1_1  and  C1_4 
REMARK    2  A    between atoms: N4_13  and  C4_14 
REMARK    3  A    between atoms: C4_14  and  C5_15 
REMARK    4  A    between atoms: C6_16  and  C7_17 
REMARK    5  A    between atoms: C7_17  and  N5_18 
ROOT
HETATM    1  C1  UNL     1      30.517   5.486  55.431  1.00  0.00     0.186 A 
HETATM    2  C2  UNL     1      29.762   4.393  54.989  1.00  0.00     0.294 A 
HETATM    3  O1  UNL     1      30.305   3.437  54.385  1.00  0.00    -0.264 OA
HETATM    4  N2  UNL     1      28.448   4.398  55.229  1.00  0.00    -0.271 N 
ATOM      5  H2  UNL     1      27.877   3.613  54.917  1.00  0.00     0.174 HD
HETATM    6  C3  UNL     1      27.874   5.415  55.870  1.00  0.00     0.342 A 
HETATM    7  O2  UNL     1      26.647   5.478  56.126  1.00  0.00    -0.245 OA
HETATM    8  N3  UNL     1      28.637   6.456  56.284  1.00  0.00    -0.247 N 
ATOM      9  H3  UNL     1      28.188   7.229  56.775  1.00  0.00     0.192 HD
HETATM   10  N4  UNL     1      29.935   6.507  56.075  1.00  0.00    -0.257 N 
ENDROOT
BRANCH  10  11
HETATM   11  C4  UNL     1      30.698   7.632  56.533  1.00  0.00     0.245 C 
BRANCH  11  12
HETATM   12  C5  UNL     1      30.104   8.273  57.708  1.00  0.00    -0.079 C 
HETATM   13  C6  UNL     1      29.636   8.805  58.686  1.00  0.00    -0.060 C 
BRANCH  13  14
HETATM   14  C7  UNL     1      29.086   9.457  59.896  1.00  0.00     0.155 C 
BRANCH  14  15
HETATM   15  N5  UNL     1      29.342   8.696  61.010  1.00  0.00    -0.353 N 
HETATM   16  C8  UNL     1      30.611   8.280  61.359  1.00  0.00     0.139 C 
HETATM   17  C9  UNL     1      30.561   6.790  61.732  1.00  0.00     0.100 C 
HETATM   18  S1  UNL     1      28.941   6.793  62.608  1.00  0.00    -0.123 SA
HETATM   19  C10 UNL     1      28.357   8.418  61.965  1.00  0.00     0.136 C 
ENDBRANCH  14  15
ENDBRANCH  13  14
ENDBRANCH  11  12
ENDBRANCH  10  11
BRANCH   1  20
HETATM   20  N1  UNL     1      31.787   5.524  55.220  1.00  0.00    -0.380 N 
ATOM     21  H12 UNL     1      32.136   5.357  54.276  1.00  0.00     0.158 HD
ATOM     22  H11 UNL     1      32.430   5.718  55.988  1.00  0.00     0.158 HD
ENDBRANCH   1  20
TORSDOF 5
ENDMDL
MODEL 3
REMARK VINA RESULT: -6.143900877      3.692      4.434
REMARK  5 active torsions:
REMARK  status: ('A' for Active; 'I' for Inactive)
REMARK    1  A    between atoms: N1_1  and  C1_4 
REMARK    2  A    between atoms: N4_13  and  C4_14 
REMARK    3  A    between atoms: C4_14  and  C5_15 
REMARK    4  A    between atoms: C6_16  and  C7_17 
REMARK    5  A    between atoms: C7_17  and  N5_18 
ROOT
HETATM    1  C1  UNL     1      30.436   5.484  55.471  1.00  0.00     0.186 A 
HETATM    2  C2  UNL     1      29.749   4.380  54.954  1.00  0.00     0.294 A 
HETATM    3  O1  UNL     1      30.354   3.488  54.311  1.00  0.00    -0.264 OA
HETATM    4  N2  UNL     1      28.433   4.302  55.163  1.00  0.00    -0.271 N 
ATOM      5  H2  UNL     1      27.910   3.507  54.796  1.00  0.00     0.174 HD
HETATM    6  C3  UNL     1      27.793   5.251  55.846  1.00  0.00     0.342 A 
HETATM    7  O2  UNL     1      26.559   5.236  56.077  1.00  0.00    -0.245 OA
HETATM    8  N3  UNL     1      28.491   6.306  56.332  1.00  0.00    -0.247 N 
ATOM      9  H3  UNL     1      27.991   7.026  56.855  1.00  0.00     0.192 HD
HETATM   10  N4  UNL     1      29.788   6.435  56.157  1.00  0.00    -0.257 N 
ENDROOT
BRANCH  10  11
HETATM   11  C4  UNL     1      30.480   7.572  56.692  1.00  0.00     0.245 C 
BRANCH  11  12
HETATM   12  C5  UNL     1      31.082   7.300  57.999  1.00  0.00    -0.079 C 
HETATM   13  C6  UNL     1      31.591   7.060  59.067  1.00  0.00    -0.060 C 
BRANCH  13  14
HETATM   14  C7  UNL     1      32.230   6.745  60.366  1.00  0.00     0.155 C 
BRANCH  14  15
HETATM   15  N5  UNL     1      33.472   6.191  60.168  1.00  0.00    -0.353 N 
HETATM   16  C8  UNL     1      34.642   6.915  60.276  1.00  0.00     0.139 C 
HETATM   17  C9  UNL     1      35.543   6.587  59.076  1.00  0.00     0.100 C 
HETATM   18  S1  UNL     1      35.170   4.787  58.951  1.00  0.00    -0.123 SA
HETATM   19  C10 UNL     1      33.654   4.814  59.999  1.00  0.00     0.136 C 
ENDBRANCH  14  15
ENDBRANCH  13  14
ENDBRANCH  11  12
ENDBRANCH  10  11
BRANCH   1  20
HETATM   20  N1  UNL     1      31.706   5.600  55.292  1.00  0.00    -0.380 N 
ATOM     21  H12 UNL     1      32.089   6.517  55.059  1.00  0.00     0.158 HD
ATOM     22  H11 UNL     1      32.315   4.786  55.380  1.00  0.00     0.158 HD
ENDBRANCH   1  20
TORSDOF 5
ENDMDL
MODEL 4
REMARK VINA RESULT: -6.062764535      2.031      2.889
REMARK  5 active torsions:
REMARK  status: ('A' for Active; 'I' for Inactive)
REMARK    1  A    between atoms: N1_1  and  C1_4 
REMARK    2  A    between atoms: N4_13  and  C4_14 
REMARK    3  A    between atoms: C4_14  and  C5_15 
REMARK    4  A    between atoms: C6_16  and  C7_17 
REMARK    5  A    between atoms: C7_17  and  N5_18 
ROOT
HETATM    1  C1  UNL     1      31.135   6.910  56.360  1.00  0.00     0.186 A 
HETATM    2  C2  UNL     1      31.034   5.619  55.831  1.00  0.00     0.294 A 
HETATM    3  O1  UNL     1      30.630   5.433  54.657  1.00  0.00    -0.264 OA
HETATM    4  N2  UNL     1      31.381   4.591  56.609  1.00  0.00    -0.271 N 
ATOM      5  H2  UNL     1      31.316   3.640  56.246  1.00  0.00     0.174 HD
HETATM    6  C3  UNL     1      31.809   4.791  57.854  1.00  0.00     0.342 A 
HETATM    7  O2  UNL     1      32.149   3.868  58.635  1.00  0.00    -0.245 OA
HETATM    8  N3  UNL     1      31.894   6.056  58.334  1.00  0.00    -0.247 N 
ATOM      9  H3  UNL     1      32.224   6.198  59.288  1.00  0.00     0.192 HD
HETATM   10  N4  UNL     1      31.566   7.107  57.614  1.00  0.00    -0.257 N 
ENDROOT
BRANCH  10  11
HETATM   11  C4  UNL     1      31.674   8.426  58.168  1.00  0.00     0.245 C 
BRANCH  11  12
HETATM   12  C5  UNL     1      30.501   8.800  58.960  1.00  0.00    -0.079 C 
HETATM   13  C6  UNL     1      29.544   9.130  59.619  1.00  0.00    -0.060 C 
BRANCH  13  14
HETATM   14  C7  UNL     1      28.383   9.555  60.434  1.00  0.00     0.155 C 
BRANCH  14  15
HETATM   15  N5  UNL     1      28.298  10.926  60.469  1.00  0.00    -0.353 N 
HETATM   16  C8  UNL     1      27.108  11.608  60.313  1.00  0.00     0.139 C 
HETATM   17  C9  UNL     1      27.324  12.767  59.329  1.00  0.00     0.100 C 
HETATM   18  S1  UNL     1      29.011  13.267  59.876  1.00  0.00    -0.123 SA
HETATM   19  C10 UNL     1      29.386  11.731  60.823  1.00  0.00     0.136 C 
ENDBRANCH  14  15
ENDBRANCH  13  14
ENDBRANCH  11  12
ENDBRANCH  10  11
BRANCH   1  20
HETATM   20  N1  UNL     1      30.810   7.932  55.646  1.00  0.00    -0.380 N 
ATOM     21  H12 UNL     1      31.444   8.238  54.907  1.00  0.00     0.158 HD
ATOM     22  H11 UNL     1      29.934   8.425  55.820  1.00  0.00     0.158 HD
ENDBRANCH   1  20
TORSDOF 5
ENDMDL
MODEL 5
REMARK VINA RESULT: -5.922990247      2.407      2.978
REMARK  5 active torsions:
REMARK  status: ('A' for Active; 'I' for Inactive)
REMARK    1  A    between atoms: N1_1  and  C1_4 
REMARK    2  A    between atoms: N4_13  and  C4_14 
REMARK    3  A    between atoms: C4_14  and  C5_15 
REMARK    4  A    between atoms: C6_16  and  C7_17 
REMARK    5  A    between atoms: C7_17  and  N5_18 
ROOT
HETATM    1  C1  UNL     1      30.445   5.491  55.438  1.00  0.00     0.186 A 
HETATM    2  C2  UNL     1      29.746   4.377  54.960  1.00  0.00     0.294 A 
HETATM    3  O1  UNL     1      30.339   3.465  54.333  1.00  0.00    -0.264 OA
HETATM    4  N2  UNL     1      28.433   4.312  55.188  1.00  0.00    -0.271 N 
ATOM      5  H2  UNL     1      27.902   3.510  54.849  1.00  0.00     0.174 HD
HETATM    6  C3  UNL     1      27.806   5.281  55.853  1.00  0.00     0.342 A 
HETATM    7  O2  UNL     1      26.575   5.278  56.100  1.00  0.00    -0.245 OA
HETATM    8  N3  UNL     1      28.515   6.345  56.303  1.00  0.00    -0.247 N 
ATOM      9  H3  UNL     1      28.026   7.081  56.812  1.00  0.00     0.192 HD
HETATM   10  N4  UNL     1      29.810   6.464  56.107  1.00  0.00    -0.257 N 
ENDROOT
BRANCH  10  11
HETATM   11  C4  UNL     1      30.515   7.611  56.603  1.00  0.00     0.245 C 
BRANCH  11  12
HETATM   12  C5  UNL     1      31.005   7.422  57.970  1.00  0.00    -0.079 C 
HETATM   13  C6  UNL     1      31.391   7.255  59.102  1.00  0.00    -0.060 C 
BRANCH  13  14
HETATM   14  C7  UNL     1      31.839   7.041  60.497  1.00  0.00     0.155 C 
BRANCH  14  15
HETATM   15  N5  UNL     1      30.860   7.428  61.381  1.00  0.00    -0.353 N 
HETATM   16  C8  UNL     1      30.535   6.699  62.506  1.00  0.00     0.139 C 
HETATM   17  C9  UNL     1      29.005   6.586  62.602  1.00  0.00     0.100 C 
HETATM   18  S1  UNL     1      28.580   8.282  62.020  1.00  0.00    -0.123 SA
HETATM   19  C10 UNL     1      30.227   8.673  61.292  1.00  0.00     0.136 C 
ENDBRANCH  14  15
ENDBRANCH  13  14
ENDBRANCH  11  12
ENDBRANCH  10  11
BRANCH   1  20
HETATM   20  N1  UNL     1      31.713   5.596  55.240  1.00  0.00    -0.380 N 
ATOM     21  H12 UNL     1      32.311   4.792  55.433  1.00  0.00     0.158 HD
ATOM     22  H11 UNL     1      32.109   6.472  54.898  1.00  0.00     0.158 HD
ENDBRANCH   1  20
TORSDOF 5
ENDMDL
