MODEL 1
REMARK VINA RESULT: -8.916130433      0.000      0.000
REMARK  7 active torsions:
REMARK  status: ('A' for Active; 'I' for Inactive)
REMARK    1  A    between atoms: C3_7  and  N2_8 
REMARK    2  A    between atoms: N2_8  and  N3_9 
REMARK    3  A    between atoms: N3_9  and  C4_11 
REMARK    4  A    between atoms: C7_20  and  C8_21 
REMARK    5  A    between atoms: C8_21  and  C9_22 
REMARK    6  A    between atoms: C8_21  and  C10_25 
REMARK    7  A    between atoms: C9_22  and  O3_23 
ROOT
HETATM    1  O1  UNL     1     -33.585 -57.224   8.809  1.00  0.00    -0.247 OA
HETATM    2  C1  UNL     1     -34.217 -56.983   9.866  1.00  0.00     0.324 C 
HETATM    3  N1  UNL     1     -33.398 -56.969  11.030  1.00  0.00    -0.276 N 
ATOM      4  H1  UNL     1     -32.402 -57.130  10.878  1.00  0.00     0.173 HD
HETATM    5  C2  UNL     1     -33.802 -56.758  12.392  1.00  0.00     0.265 C 
HETATM    6  O2  UNL     1     -33.042 -57.100  13.310  1.00  0.00    -0.269 OA
HETATM    7  C3  UNL     1     -35.127 -56.131  12.756  1.00  0.00     0.287 C 
HETATM    8  N6  UNL     1     -36.134 -56.937  12.176  1.00  0.00    -0.374 N 
ATOM      9  H6  UNL     1     -36.514 -57.741  12.675  1.00  0.00     0.157 HD
HETATM   10  C7  UNL     1     -36.604 -56.595  10.875  1.00  0.00     0.196 C 
HETATM   11  N9  UNL     1     -35.622 -56.754   9.823  1.00  0.00    -0.321 N 
ATOM     12  H9  UNL     1     -36.006 -56.690   8.879  1.00  0.00     0.166 HD
ENDROOT
BRANCH  10  13
HETATM   13  C8  UNL     1     -37.327 -55.273  10.792  1.00  0.00     0.118 C 
BRANCH  13  14
HETATM   14  C9  UNL     1     -36.400 -54.101  11.015  1.00  0.00     0.180 C 
BRANCH  14  15
HETATM   15  O3  UNL     1     -36.302 -53.643  12.286  1.00  0.00    -0.400 OA
ATOM     16  H3  UNL     1     -36.585 -52.748  12.436  1.00  0.00     0.209 HD
ENDBRANCH  14  15
ENDBRANCH  13  14
BRANCH  13  17
HETATM   17  C10 UNL     1     -38.529 -55.249  11.648  1.00  0.00     0.083 C 
HETATM   18  N7  UNL     1     -39.049 -54.163  12.167  1.00  0.00    -0.378 N 
HETATM   19  C11 UNL     1     -40.207 -54.496  12.943  1.00  0.00     0.140 C 
ATOM     20  H7  UNL     1     -38.683 -53.220  12.038  1.00  0.00     0.160 HD
HETATM   21  C12 UNL     1     -40.182 -55.995  13.146  1.00  0.00     0.140 C 
HETATM   22  N8  UNL     1     -39.294 -56.376  12.037  1.00  0.00    -0.378 N 
ATOM     23  H8  UNL     1     -39.238 -57.303  11.614  1.00  0.00     0.160 HD
ENDBRANCH  13  17
ENDBRANCH  10  13
BRANCH   7  24
HETATM   24  N2  UNL     1     -35.241 -56.174  14.203  1.00  0.00    -0.103 NA
BRANCH  24  25
HETATM   25  N3  UNL     1     -36.452 -55.646  14.629  1.00  0.00    -0.273 N 
ATOM     26  H3  UNL     1     -37.079 -55.181  13.972  1.00  0.00     0.185 HD
BRANCH  25  27
HETATM   27  C4  UNL     1     -36.799 -55.767  16.000  1.00  0.00     0.187 C 
HETATM   28  N4  UNL     1     -36.040 -56.277  16.916  1.00  0.00    -0.360 N 
HETATM   29  C5  UNL     1     -36.666 -56.260  18.200  1.00  0.00     0.142 C 
ATOM     30  H4  UNL     1     -35.105 -56.646  16.742  1.00  0.00     0.162 HD
HETATM   31  C6  UNL     1     -37.914 -55.458  17.998  1.00  0.00     0.142 C 
HETATM   32  N5  UNL     1     -38.031 -55.345  16.558  1.00  0.00    -0.360 N 
ATOM     33  H5  UNL     1     -38.849 -55.022  16.041  1.00  0.00     0.162 HD
ENDBRANCH  25  27
ENDBRANCH  24  25
ENDBRANCH   7  24
TORSDOF 7
ENDMDL
MODEL 2
REMARK VINA RESULT: -8.897552903      2.536      4.109
REMARK  7 active torsions:
REMARK  status: ('A' for Active; 'I' for Inactive)
REMARK    1  A    between atoms: C3_7  and  N2_8 
REMARK    2  A    between atoms: N2_8  and  N3_9 
REMARK    3  A    between atoms: N3_9  and  C4_11 
REMARK    4  A    between atoms: C7_20  and  C8_21 
REMARK    5  A    between atoms: C8_21  and  C9_22 
REMARK    6  A    between atoms: C8_21  and  C10_25 
REMARK    7  A    between atoms: C9_22  and  O3_23 
ROOT
HETATM    1  O1  UNL     1     -34.803 -57.493  13.384  1.00  0.00    -0.247 OA
HETATM    2  C1  UNL     1     -35.746 -57.036  14.075  1.00  0.00     0.324 C 
HETATM    3  N1  UNL     1     -35.374 -56.719  15.411  1.00  0.00    -0.276 N 
ATOM      4  H1  UNL     1     -34.393 -56.871  15.650  1.00  0.00     0.173 HD
HETATM    5  C2  UNL     1     -36.207 -56.211  16.464  1.00  0.00     0.265 C 
HETATM    6  O2  UNL     1     -35.822 -56.298  17.639  1.00  0.00    -0.269 OA
HETATM    7  C3  UNL     1     -37.548 -55.567  16.197  1.00  0.00     0.287 C 
HETATM    8  N6  UNL     1     -38.332 -56.525  15.512  1.00  0.00    -0.374 N 
ATOM      9  H6  UNL     1     -38.895 -57.204  16.024  1.00  0.00     0.157 HD
HETATM   10  C7  UNL     1     -38.314 -56.516  14.087  1.00  0.00     0.196 C 
HETATM   11  N9  UNL     1     -37.040 -56.878  13.502  1.00  0.00    -0.321 N 
ATOM     12  H9  UNL     1     -37.076 -57.052  12.497  1.00  0.00     0.166 HD
ENDROOT
BRANCH  10  13
HETATM   13  C8  UNL     1     -38.906 -55.278  13.457  1.00  0.00     0.118 C 
BRANCH  13  14
HETATM   14  C9  UNL     1     -40.081 -55.599  12.564  1.00  0.00     0.180 C 
BRANCH  14  15
HETATM   15  O3  UNL     1     -40.500 -54.609  11.740  1.00  0.00    -0.400 OA
ATOM     16  H3  UNL     1     -40.722 -53.782  12.152  1.00  0.00     0.209 HD
ENDBRANCH  14  15
ENDBRANCH  13  14
BRANCH  13  17
HETATM   17  C10 UNL     1     -37.875 -54.448  12.804  1.00  0.00     0.083 C 
HETATM   18  N7  UNL     1     -37.595 -54.482  11.524  1.00  0.00    -0.378 N 
HETATM   19  C11 UNL     1     -36.547 -53.552  11.225  1.00  0.00     0.140 C 
ATOM     20  H7  UNL     1     -38.055 -55.084  10.840  1.00  0.00     0.160 HD
HETATM   21  C12 UNL     1     -35.935 -53.142  12.547  1.00  0.00     0.140 C 
HETATM   22  N8  UNL     1     -37.041 -53.501  13.448  1.00  0.00    -0.378 N 
ATOM     23  H8  UNL     1     -37.185 -53.127  14.387  1.00  0.00     0.160 HD
ENDBRANCH  13  17
ENDBRANCH  10  13
BRANCH   7  24
HETATM   24  N2  UNL     1     -38.150 -55.274  17.485  1.00  0.00    -0.103 NA
BRANCH  24  25
HETATM   25  N3  UNL     1     -38.990 -56.301  17.894  1.00  0.00    -0.273 N 
ATOM     26  H3  UNL     1     -39.716 -56.660  17.273  1.00  0.00     0.185 HD
BRANCH  25  27
HETATM   27  C4  UNL     1     -38.817 -56.840  19.196  1.00  0.00     0.187 C 
HETATM   28  N4  UNL     1     -37.958 -56.417  20.067  1.00  0.00    -0.360 N 
HETATM   29  C5  UNL     1     -38.022 -57.160  21.285  1.00  0.00     0.142 C 
ATOM     30  H4  UNL     1     -37.313 -55.644  19.903  1.00  0.00     0.162 HD
HETATM   31  C6  UNL     1     -39.228 -58.033  21.129  1.00  0.00     0.142 C 
HETATM   32  N5  UNL     1     -39.564 -57.922  19.723  1.00  0.00    -0.360 N 
ATOM     33  H5  UNL     1     -40.218 -58.513  19.209  1.00  0.00     0.162 HD
ENDBRANCH  25  27
ENDBRANCH  24  25
ENDBRANCH   7  24
TORSDOF 7
ENDMDL
MODEL 3
REMARK VINA RESULT: -8.881647997      2.112      4.643
REMARK  7 active torsions:
REMARK  status: ('A' for Active; 'I' for Inactive)
REMARK    1  A    between atoms: C3_7  and  N2_8 
REMARK    2  A    between atoms: N2_8  and  N3_9 
REMARK    3  A    between atoms: N3_9  and  C4_11 
REMARK    4  A    between atoms: C7_20  and  C8_21 
REMARK    5  A    between atoms: C8_21  and  C9_22 
REMARK    6  A    between atoms: C8_21  and  C10_25 
REMARK    7  A    between atoms: C9_22  and  O3_23 
ROOT
HETATM    1  O1  UNL     1     -40.955 -53.922  12.388  1.00  0.00    -0.247 OA
HETATM    2  C1  UNL     1     -39.884 -54.452  12.771  1.00  0.00     0.324 C 
HETATM    3  N1  UNL     1     -40.037 -55.286  13.914  1.00  0.00    -0.276 N 
ATOM      4  H1  UNL     1     -40.986 -55.380  14.276  1.00  0.00     0.173 HD
HETATM    5  C2  UNL     1     -39.019 -56.011  14.622  1.00  0.00     0.265 C 
HETATM    6  O2  UNL     1     -39.249 -56.416  15.770  1.00  0.00    -0.269 OA
HETATM    7  C3  UNL     1     -37.665 -56.305  14.018  1.00  0.00     0.287 C 
HETATM    8  N6  UNL     1     -37.088 -55.057  13.682  1.00  0.00    -0.374 N 
ATOM      9  H6  UNL     1     -36.538 -54.535  14.363  1.00  0.00     0.157 HD
HETATM   10  C7  UNL     1     -37.297 -54.550  12.367  1.00  0.00     0.196 C 
HETATM   11  N9  UNL     1     -38.670 -54.195  12.073  1.00  0.00    -0.321 N 
ATOM     12  H9  UNL     1     -38.788 -53.664  11.210  1.00  0.00     0.166 HD
ENDROOT
BRANCH  10  13
HETATM   13  C8  UNL     1     -36.667 -55.369  11.268  1.00  0.00     0.118 C 
BRANCH  13  14
HETATM   14  C9  UNL     1     -37.564 -56.495  10.809  1.00  0.00     0.180 C 
BRANCH  14  15
HETATM   15  O3  UNL     1     -36.947 -57.613  10.358  1.00  0.00    -0.400 OA
ATOM     16  H3  UNL     1     -37.124 -57.860   9.458  1.00  0.00     0.209 HD
ENDBRANCH  14  15
ENDBRANCH  13  14
BRANCH  13  17
HETATM   17  C10 UNL     1     -35.302 -55.807  11.621  1.00  0.00     0.083 C 
HETATM   18  N7  UNL     1     -34.218 -55.099  11.413  1.00  0.00    -0.378 N 
HETATM   19  C11 UNL     1     -33.067 -55.817  11.872  1.00  0.00     0.140 C 
ATOM     20  H7  UNL     1     -34.198 -54.173  10.986  1.00  0.00     0.160 HD
HETATM   21  C12 UNL     1     -33.505 -57.247  12.101  1.00  0.00     0.140 C 
HETATM   22  N8  UNL     1     -34.957 -57.039  12.228  1.00  0.00    -0.378 N 
ATOM     23  H8  UNL     1     -35.609 -57.679  12.680  1.00  0.00     0.160 HD
ENDBRANCH  13  17
ENDBRANCH  10  13
BRANCH   7  24
HETATM   24  N2  UNL     1     -36.867 -56.952  15.042  1.00  0.00    -0.103 NA
BRANCH  24  25
HETATM   25  N3  UNL     1     -36.222 -56.019  15.843  1.00  0.00    -0.273 N 
ATOM     26  H3  UNL     1     -35.740 -55.221  15.430  1.00  0.00     0.185 HD
BRANCH  25  27
HETATM   27  C4  UNL     1     -36.248 -56.202  17.251  1.00  0.00     0.187 C 
HETATM   28  N4  UNL     1     -37.210 -55.829  18.031  1.00  0.00    -0.360 N 
HETATM   29  C5  UNL     1     -36.946 -56.151  19.398  1.00  0.00     0.142 C 
ATOM     30  H4  UNL     1     -38.056 -55.359  17.709  1.00  0.00     0.162 HD
HETATM   31  C6  UNL     1     -35.709 -56.993  19.352  1.00  0.00     0.142 C 
HETATM   32  N5  UNL     1     -35.217 -56.824  17.999  1.00  0.00    -0.360 N 
ATOM     33  H5  UNL     1     -34.300 -57.101  17.650  1.00  0.00     0.162 HD
ENDBRANCH  25  27
ENDBRANCH  24  25
ENDBRANCH   7  24
TORSDOF 7
ENDMDL
MODEL 4
REMARK VINA RESULT: -8.841604550      2.263      5.157
REMARK  7 active torsions:
REMARK  status: ('A' for Active; 'I' for Inactive)
REMARK    1  A    between atoms: C3_7  and  N2_8 
REMARK    2  A    between atoms: N2_8  and  N3_9 
REMARK    3  A    between atoms: N3_9  and  C4_11 
REMARK    4  A    between atoms: C7_20  and  C8_21 
REMARK    5  A    between atoms: C8_21  and  C9_22 
REMARK    6  A    between atoms: C8_21  and  C10_25 
REMARK    7  A    between atoms: C9_22  and  O3_23 
ROOT
HETATM    1  O1  UNL     1     -34.262 -59.355  17.925  1.00  0.00    -0.247 OA
HETATM    2  C1  UNL     1     -34.878 -58.564  17.170  1.00  0.00     0.324 C 
HETATM    3  N1  UNL     1     -35.469 -57.465  17.855  1.00  0.00    -0.276 N 
ATOM      4  H1  UNL     1     -35.311 -57.429  18.862  1.00  0.00     0.173 HD
HETATM    5  C2  UNL     1     -36.262 -56.403  17.303  1.00  0.00     0.265 C 
HETATM    6  O2  UNL     1     -36.970 -55.719  18.056  1.00  0.00    -0.269 OA
HETATM    7  C3  UNL     1     -36.269 -56.080  15.827  1.00  0.00     0.287 C 
HETATM    8  N6  UNL     1     -36.676 -57.256  15.153  1.00  0.00    -0.374 N 
ATOM      9  H6  UNL     1     -37.664 -57.452  14.993  1.00  0.00     0.157 HD
HETATM   10  C7  UNL     1     -35.669 -58.159  14.705  1.00  0.00     0.196 C 
HETATM   11  N9  UNL     1     -34.933 -58.810  15.768  1.00  0.00    -0.321 N 
ATOM     12  H9  UNL     1     -34.347 -59.586  15.457  1.00  0.00     0.166 HD
ENDROOT
BRANCH  10  13
HETATM   13  C8  UNL     1     -34.763 -57.610  13.630  1.00  0.00     0.118 C 
BRANCH  13  14
HETATM   14  C9  UNL     1     -33.562 -56.897  14.205  1.00  0.00     0.180 C 
BRANCH  14  15
HETATM   15  O3  UNL     1     -32.877 -56.091  13.360  1.00  0.00    -0.400 OA
ATOM     16  H3  UNL     1     -32.373 -55.391  13.757  1.00  0.00     0.209 HD
ENDBRANCH  14  15
ENDBRANCH  13  14
BRANCH  13  17
HETATM   17  C10 UNL     1     -35.508 -56.810  12.639  1.00  0.00     0.083 C 
HETATM   18  N7  UNL     1     -36.176 -57.313  11.629  1.00  0.00    -0.378 N 
HETATM   19  C11 UNL     1     -36.779 -56.261  10.866  1.00  0.00     0.140 C 
ATOM     20  H7  UNL     1     -36.255 -58.308  11.418  1.00  0.00     0.160 HD
HETATM   21  C12 UNL     1     -36.131 -54.969  11.313  1.00  0.00     0.140 C 
HETATM   22  N8  UNL     1     -35.613 -55.398  12.622  1.00  0.00    -0.378 N 
ATOM     23  H8  UNL     1     -35.370 -54.777  13.394  1.00  0.00     0.160 HD
ENDBRANCH  13  17
ENDBRANCH  10  13
BRANCH   7  24
HETATM   24  N2  UNL     1     -37.252 -55.033  15.619  1.00  0.00    -0.103 NA
BRANCH  24  25
HETATM   25  N3  UNL     1     -38.527 -55.561  15.465  1.00  0.00    -0.273 N 
ATOM     26  H3  UNL     1     -38.991 -56.038  16.237  1.00  0.00     0.185 HD
BRANCH  25  27
HETATM   27  C4  UNL     1     -39.169 -55.423  14.206  1.00  0.00     0.187 C 
HETATM   28  N4  UNL     1     -39.634 -56.401  13.497  1.00  0.00    -0.360 N 
HETATM   29  C5  UNL     1     -40.224 -55.946  12.279  1.00  0.00     0.142 C 
ATOM     30  H4  UNL     1     -39.584 -57.382  13.776  1.00  0.00     0.162 HD
HETATM   31  C6  UNL     1     -40.241 -54.454  12.405  1.00  0.00     0.142 C 
HETATM   32  N5  UNL     1     -39.392 -54.188  13.549  1.00  0.00    -0.360 N 
ATOM     33  H5  UNL     1     -39.022 -53.279  13.829  1.00  0.00     0.162 HD
ENDBRANCH  25  27
ENDBRANCH  24  25
ENDBRANCH   7  24
TORSDOF 7
ENDMDL
MODEL 5
REMARK VINA RESULT: -8.825037408      2.245      4.687
REMARK  7 active torsions:
REMARK  status: ('A' for Active; 'I' for Inactive)
REMARK    1  A    between atoms: C3_7  and  N2_8 
REMARK    2  A    between atoms: N2_8  and  N3_9 
REMARK    3  A    between atoms: N3_9  and  C4_11 
REMARK    4  A    between atoms: C7_20  and  C8_21 
REMARK    5  A    between atoms: C8_21  and  C9_22 
REMARK    6  A    between atoms: C8_21  and  C10_25 
REMARK    7  A    between atoms: C9_22  and  O3_23 
ROOT
HETATM    1  O1  UNL     1     -40.799 -54.086  12.846  1.00  0.00    -0.247 OA
HETATM    2  C1  UNL     1     -39.579 -54.356  12.963  1.00  0.00     0.324 C 
HETATM    3  N1  UNL     1     -39.181 -54.633  14.302  1.00  0.00    -0.276 N 
ATOM      4  H1  UNL     1     -39.922 -54.607  15.003  1.00  0.00     0.173 HD
HETATM    5  C2  UNL     1     -37.866 -54.944  14.786  1.00  0.00     0.265 C 
HETATM    6  O2  UNL     1     -37.623 -54.835  15.997  1.00  0.00    -0.269 OA
HETATM    7  C3  UNL     1     -36.754 -55.405  13.873  1.00  0.00     0.287 C 
HETATM    8  N6  UNL     1     -36.578 -54.392  12.900  1.00  0.00    -0.374 N 
ATOM      9  H6  UNL     1     -35.950 -53.607  13.070  1.00  0.00     0.157 HD
HETATM   10  C7  UNL     1     -37.300 -54.499  11.677  1.00  0.00     0.196 C 
HETATM   11  N9  UNL     1     -38.735 -54.364  11.816  1.00  0.00    -0.321 N 
ATOM     12  H9  UNL     1     -39.232 -54.255  10.932  1.00  0.00     0.166 HD
ENDROOT
BRANCH  10  13
HETATM   13  C8  UNL     1     -36.915 -55.679  10.818  1.00  0.00     0.118 C 
BRANCH  13  14
HETATM   14  C9  UNL     1     -37.907 -56.813  10.925  1.00  0.00     0.180 C 
BRANCH  14  15
HETATM   15  O3  UNL     1     -37.535 -57.993  10.377  1.00  0.00    -0.400 OA
ATOM     16  H3  UNL     1     -36.607 -58.194  10.395  1.00  0.00     0.209 HD
ENDBRANCH  14  15
ENDBRANCH  13  14
BRANCH  13  17
HETATM   17  C10 UNL     1     -35.517 -56.092  11.047  1.00  0.00     0.083 C 
HETATM   18  N7  UNL     1     -35.159 -57.206  11.638  1.00  0.00    -0.378 N 
HETATM   19  C11 UNL     1     -33.730 -57.295  11.696  1.00  0.00     0.140 C 
ATOM     20  H7  UNL     1     -35.803 -57.907  12.003  1.00  0.00     0.160 HD
HETATM   21  C12 UNL     1     -33.192 -55.919  11.367  1.00  0.00     0.140 C 
HETATM   22  N8  UNL     1     -34.363 -55.361  10.672  1.00  0.00    -0.378 N 
ATOM     23  H8  UNL     1     -34.346 -54.574  10.023  1.00  0.00     0.160 HD
ENDBRANCH  13  17
ENDBRANCH  10  13
BRANCH   7  24
HETATM   24  N2  UNL     1     -35.553 -55.521  14.680  1.00  0.00    -0.103 NA
BRANCH  24  25
HETATM   25  N3  UNL     1     -35.375 -56.821  15.133  1.00  0.00    -0.273 N 
ATOM     26  H3  UNL     1     -35.534 -57.616  14.515  1.00  0.00     0.185 HD
BRANCH  25  27
HETATM   27  C4  UNL     1     -34.964 -57.018  16.478  1.00  0.00     0.187 C 
HETATM   28  N4  UNL     1     -35.630 -56.641  17.522  1.00  0.00    -0.360 N 
HETATM   29  C5  UNL     1     -34.959 -56.981  18.736  1.00  0.00     0.142 C 
ATOM     30  H4  UNL     1     -36.528 -56.158  17.481  1.00  0.00     0.162 HD
HETATM   31  C6  UNL     1     -33.810 -57.837  18.303  1.00  0.00     0.142 C 
HETATM   32  N5  UNL     1     -33.761 -57.660  16.865  1.00  0.00    -0.360 N 
ATOM     33  H5  UNL     1     -33.002 -57.945  16.246  1.00  0.00     0.162 HD
ENDBRANCH  25  27
ENDBRANCH  24  25
ENDBRANCH   7  24
TORSDOF 7
ENDMDL
