MODEL 1
REMARK VINA RESULT: -9.482199147      0.000      0.000
REMARK  4 active torsions:
REMARK  status: ('A' for Active; 'I' for Inactive)
REMARK    1  A    between atoms: C2_2  and  N1_3 
REMARK    2  A    between atoms: C3_4  and  O1_5 
REMARK    3  A    between atoms: C10_15  and  C11_16 
REMARK    4  A    between atoms: C15_23  and  O4_25 
ROOT
HETATM    1  N1  UNL     1     -87.921  -4.427   2.747  1.00  0.00    -0.278 N 
HETATM    2  C3  UNL     1     -87.120  -5.475   2.488  1.00  0.00     0.173 A 
HETATM    3  C4  UNL     1     -86.298  -5.170   1.455  1.00  0.00     0.108 A 
HETATM    4  N2  UNL     1     -86.603  -3.895   1.069  1.00  0.00    -0.286 N 
HETATM    5  C5  UNL     1     -87.577  -3.477   1.860  1.00  0.00     0.332 A 
HETATM    6  O2  UNL     1     -88.109  -2.336   1.786  1.00  0.00    -0.246 OA
HETATM    7  C6  UNL     1     -85.812  -3.394  -0.041  1.00  0.00     0.041 C 
HETATM    8  C7  UNL     1     -86.129  -1.894  -0.141  1.00  0.00     0.039 C 
HETATM    9  C8  UNL     1     -84.340  -3.506   0.183  1.00  0.00     0.035 C 
HETATM   10  C9  UNL     1     -84.027  -4.875   0.709  1.00  0.00     0.053 C 
HETATM   11  C10 UNL     1     -85.209  -5.810   0.668  1.00  0.00     0.167 C 
HETATM   12  O3  UNL     1     -85.604  -6.232  -0.528  1.00  0.00    -0.357 OA
HETATM   13  C12 UNL     1     -85.893  -5.423  -1.539  1.00  0.00     0.065 C 
HETATM   14  C13 UNL     1     -87.049  -6.074  -2.325  1.00  0.00     0.041 C 
HETATM   15  C14 UNL     1     -86.854  -5.882  -3.813  1.00  0.00     0.040 C 
HETATM   16  C15 UNL     1     -85.740  -6.832  -4.258  1.00  0.00     0.054 C 
HETATM   17  C16 UNL     1     -86.302  -8.208  -4.479  1.00  0.00     0.045 C 
HETATM   18  C17 UNL     1     -84.734  -6.857  -3.126  1.00  0.00     0.040 C 
HETATM   19  C18 UNL     1     -84.718  -5.445  -2.530  1.00  0.00     0.041 C 
HETATM   20  C19 UNL     1     -86.281  -4.027  -1.302  1.00  0.00     0.069 C 
ENDROOT
BRANCH  11  21
HETATM   21  C11 UNL     1     -84.781  -7.045   1.480  1.00  0.00     0.393 C 
HETATM   22  F1  UNL     1     -85.465  -8.112   0.880  1.00  0.00    -0.211 F 
HETATM   23  F2  UNL     1     -83.455  -7.292   1.340  1.00  0.00    -0.211 F 
ENDBRANCH  11  21
BRANCH  16  24
HETATM   24  O4  UNL     1     -85.111  -6.324  -5.377  1.00  0.00    -0.390 OA
ATOM     25  H4  UNL     1     -84.927  -7.026  -5.989  1.00  0.00     0.210 HD
ENDBRANCH  16  24
BRANCH   2  26
HETATM   26  O1  UNL     1     -87.113  -6.691   3.154  1.00  0.00    -0.344 OA
ATOM     27  H1  UNL     1     -86.444  -7.363   3.095  1.00  0.00     0.219 HD
ENDBRANCH   2  26
BRANCH   1  28
HETATM   28  C2  UNL     1     -88.957  -4.329   3.781  1.00  0.00     0.131 C 
HETATM   29  C1  UNL     1     -90.262  -4.856   3.227  1.00  0.00     0.027 C 
ENDBRANCH   1  28
TORSDOF 4
ENDMDL
MODEL 2
REMARK VINA RESULT: -9.213275093      2.578      6.174
REMARK  4 active torsions:
REMARK  status: ('A' for Active; 'I' for Inactive)
REMARK    1  A    between atoms: C2_2  and  N1_3 
REMARK    2  A    between atoms: C3_4  and  O1_5 
REMARK    3  A    between atoms: C10_15  and  C11_16 
REMARK    4  A    between atoms: C15_23  and  O4_25 
ROOT
HETATM    1  N1  UNL     1     -85.815  -5.883  -3.274  1.00  0.00    -0.278 N 
HETATM    2  C3  UNL     1     -86.678  -5.012  -2.722  1.00  0.00     0.173 A 
HETATM    3  C4  UNL     1     -86.331  -4.791  -1.430  1.00  0.00     0.108 A 
HETATM    4  N2  UNL     1     -85.222  -5.549  -1.183  1.00  0.00    -0.286 N 
HETATM    5  C5  UNL     1     -84.935  -6.190  -2.303  1.00  0.00     0.332 A 
HETATM    6  O2  UNL     1     -83.965  -6.985  -2.437  1.00  0.00    -0.246 OA
HETATM    7  C6  UNL     1     -84.703  -5.437   0.169  1.00  0.00     0.041 C 
HETATM    8  C7  UNL     1     -83.341  -6.148   0.158  1.00  0.00     0.039 C 
HETATM    9  C8  UNL     1     -84.446  -4.028   0.591  1.00  0.00     0.035 C 
HETATM   10  C9  UNL     1     -85.627  -3.182   0.217  1.00  0.00     0.053 C 
HETATM   11  C10 UNL     1     -86.804  -3.989  -0.269  1.00  0.00     0.167 C 
HETATM   12  O3  UNL     1     -87.458  -4.709   0.635  1.00  0.00    -0.357 OA
HETATM   13  C12 UNL     1     -86.876  -5.584   1.444  1.00  0.00     0.065 C 
HETATM   14  C13 UNL     1     -87.870  -6.745   1.648  1.00  0.00     0.041 C 
HETATM   15  C14 UNL     1     -87.835  -7.228   3.082  1.00  0.00     0.040 C 
HETATM   16  C15 UNL     1     -88.556  -6.184   3.938  1.00  0.00     0.054 C 
HETATM   17  C16 UNL     1     -90.041  -6.406   3.868  1.00  0.00     0.045 C 
HETATM   18  C17 UNL     1     -88.204  -4.838   3.341  1.00  0.00     0.040 C 
HETATM   19  C18 UNL     1     -86.759  -4.951   2.841  1.00  0.00     0.041 C 
HETATM   20  C19 UNL     1     -85.586  -6.193   1.096  1.00  0.00     0.069 C 
ENDROOT
BRANCH  11  21
HETATM   21  C11 UNL     1     -87.792  -2.962  -0.850  1.00  0.00     0.393 C 
HETATM   22  F1  UNL     1     -89.007  -3.245  -0.209  1.00  0.00    -0.211 F 
HETATM   23  F2  UNL     1     -87.445  -1.696  -0.507  1.00  0.00    -0.211 F 
ENDBRANCH  11  21
BRANCH  16  24
HETATM   24  O4  UNL     1     -88.070  -6.221   5.229  1.00  0.00    -0.390 OA
ATOM     25  H4  UNL     1     -87.377  -6.867   5.294  1.00  0.00     0.210 HD
ENDBRANCH  16  24
BRANCH   2  26
HETATM   26  O1  UNL     1     -87.762  -4.418  -3.349  1.00  0.00    -0.344 OA
ATOM     27  H1  UNL     1     -87.861  -3.494  -3.549  1.00  0.00     0.219 HD
ENDBRANCH   2  26
BRANCH   1  28
HETATM   28  C2  UNL     1     -85.820  -6.396  -4.647  1.00  0.00     0.131 C 
HETATM   29  C1  UNL     1     -86.392  -7.797  -4.651  1.00  0.00     0.027 C 
ENDBRANCH   1  28
TORSDOF 4
ENDMDL
MODEL 3
REMARK VINA RESULT: -9.184510613      2.832      6.322
REMARK  4 active torsions:
REMARK  status: ('A' for Active; 'I' for Inactive)
REMARK    1  A    between atoms: C2_2  and  N1_3 
REMARK    2  A    between atoms: C3_4  and  O1_5 
REMARK    3  A    between atoms: C10_15  and  C11_16 
REMARK    4  A    between atoms: C15_23  and  O4_25 
ROOT
HETATM    1  N1  UNL     1     -86.376  -6.304  -2.681  1.00  0.00    -0.278 N 
HETATM    2  C3  UNL     1     -87.420  -5.676  -2.115  1.00  0.00     0.173 A 
HETATM    3  C4  UNL     1     -87.206  -5.555  -0.781  1.00  0.00     0.108 A 
HETATM    4  N2  UNL     1     -85.993  -6.128  -0.523  1.00  0.00    -0.286 N 
HETATM    5  C5  UNL     1     -85.519  -6.566  -1.677  1.00  0.00     0.332 A 
HETATM    6  O2  UNL     1     -84.411  -7.152  -1.812  1.00  0.00    -0.246 OA
HETATM    7  C6  UNL     1     -85.594  -6.091   0.874  1.00  0.00     0.041 C 
HETATM    8  C7  UNL     1     -84.125  -6.541   0.903  1.00  0.00     0.039 C 
HETATM    9  C8  UNL     1     -85.633  -4.721   1.466  1.00  0.00     0.035 C 
HETATM   10  C9  UNL     1     -86.925  -4.060   1.085  1.00  0.00     0.053 C 
HETATM   11  C10 UNL     1     -87.895  -4.999   0.414  1.00  0.00     0.167 C 
HETATM   12  O3  UNL     1     -88.460  -5.929   1.175  1.00  0.00    -0.357 OA
HETATM   13  C12 UNL     1     -87.779  -6.779   1.932  1.00  0.00     0.065 C 
HETATM   14  C13 UNL     1     -88.549  -8.115   1.923  1.00  0.00     0.041 C 
HETATM   15  C14 UNL     1     -88.518  -8.755   3.293  1.00  0.00     0.040 C 
HETATM   16  C15 UNL     1     -89.476  -7.969   4.192  1.00  0.00     0.054 C 
HETATM   17  C16 UNL     1     -90.885  -8.442   3.970  1.00  0.00     0.045 C 
HETATM   18  C17 UNL     1     -89.343  -6.519   3.777  1.00  0.00     0.040 C 
HETATM   19  C18 UNL     1     -87.873  -6.311   3.394  1.00  0.00     0.041 C 
HETATM   20  C19 UNL     1     -86.378  -7.100   1.633  1.00  0.00     0.069 C 
ENDROOT
BRANCH  11  21
HETATM   21  C11 UNL     1     -89.018  -4.101  -0.135  1.00  0.00     0.393 C 
HETATM   22  F1  UNL     1     -89.863  -3.886   0.964  1.00  0.00    -0.211 F 
HETATM   23  F2  UNL     1     -88.540  -2.890  -0.513  1.00  0.00    -0.211 F 
ENDBRANCH  11  21
BRANCH  16  24
HETATM   24  O4  UNL     1     -89.076  -8.076   5.508  1.00  0.00    -0.390 OA
ATOM     25  H4  UNL     1     -89.650  -7.559   6.062  1.00  0.00     0.210 HD
ENDBRANCH  16  24
BRANCH   2  26
HETATM   26  O1  UNL     1     -88.553  -5.212  -2.765  1.00  0.00    -0.344 OA
ATOM     27  H1  UNL     1     -88.950  -4.354  -2.666  1.00  0.00     0.219 HD
ENDBRANCH   2  26
BRANCH   1  28
HETATM   28  C2  UNL     1     -86.195  -6.638  -4.097  1.00  0.00     0.131 C 
HETATM   29  C1  UNL     1     -86.323  -8.136  -4.274  1.00  0.00     0.027 C 
ENDBRANCH   1  28
TORSDOF 4
ENDMDL
MODEL 4
REMARK VINA RESULT: -8.949908219      1.493      1.759
REMARK  4 active torsions:
REMARK  status: ('A' for Active; 'I' for Inactive)
REMARK    1  A    between atoms: C2_2  and  N1_3 
REMARK    2  A    between atoms: C3_4  and  O1_5 
REMARK    3  A    between atoms: C10_15  and  C11_16 
REMARK    4  A    between atoms: C15_23  and  O4_25 
ROOT
HETATM    1  N1  UNL     1     -88.507  -3.897   1.295  1.00  0.00    -0.278 N 
HETATM    2  C3  UNL     1     -88.379  -5.227   1.143  1.00  0.00     0.173 A 
HETATM    3  C4  UNL     1     -87.141  -5.510   0.670  1.00  0.00     0.108 A 
HETATM    4  N2  UNL     1     -86.489  -4.318   0.528  1.00  0.00    -0.286 N 
HETATM    5  C5  UNL     1     -87.330  -3.371   0.909  1.00  0.00     0.332 A 
HETATM    6  O2  UNL     1     -87.060  -2.140   0.908  1.00  0.00    -0.246 OA
HETATM    7  C6  UNL     1     -85.131  -4.428   0.025  1.00  0.00     0.041 C 
HETATM    8  C7  UNL     1     -84.509  -3.032   0.183  1.00  0.00     0.039 C 
HETATM    9  C8  UNL     1     -84.281  -5.367   0.814  1.00  0.00     0.035 C 
HETATM   10  C9  UNL     1     -85.046  -6.633   1.058  1.00  0.00     0.053 C 
HETATM   11  C10 UNL     1     -86.339  -6.703   0.285  1.00  0.00     0.167 C 
HETATM   12  O3  UNL     1     -86.248  -6.872  -1.029  1.00  0.00    -0.357 OA
HETATM   13  C12 UNL     1     -85.525  -6.097  -1.826  1.00  0.00     0.065 C 
HETATM   14  C13 UNL     1     -86.284  -5.987  -3.164  1.00  0.00     0.041 C 
HETATM   15  C14 UNL     1     -85.316  -6.018  -4.327  1.00  0.00     0.040 C 
HETATM   16  C15 UNL     1     -84.828  -7.460  -4.483  1.00  0.00     0.054 C 
HETATM   17  C16 UNL     1     -85.836  -8.257  -5.262  1.00  0.00     0.045 C 
HETATM   18  C17 UNL     1     -84.701  -8.013  -3.079  1.00  0.00     0.040 C 
HETATM   19  C18 UNL     1     -84.235  -6.849  -2.196  1.00  0.00     0.041 C 
HETATM   20  C19 UNL     1     -85.172  -4.728  -1.431  1.00  0.00     0.069 C 
ENDROOT
BRANCH  11  21
HETATM   21  C11 UNL     1     -87.094  -7.914   0.860  1.00  0.00     0.393 C 
HETATM   22  F1  UNL     1     -86.399  -9.027   0.365  1.00  0.00    -0.211 F 
HETATM   23  F2  UNL     1     -87.003  -7.955   2.212  1.00  0.00    -0.211 F 
ENDBRANCH  11  21
BRANCH  16  24
HETATM   24  O4  UNL     1     -83.575  -7.470  -5.062  1.00  0.00    -0.390 OA
ATOM     25  H4  UNL     1     -83.630  -7.822  -5.942  1.00  0.00     0.210 HD
ENDBRANCH  16  24
BRANCH   2  26
HETATM   26  O1  UNL     1     -89.344  -6.183   1.418  1.00  0.00    -0.344 OA
ATOM     27  H1  UNL     1     -89.487  -6.618   2.251  1.00  0.00     0.219 HD
ENDBRANCH   2  26
BRANCH   1  28
HETATM   28  C2  UNL     1     -89.679  -3.162   1.780  1.00  0.00     0.131 C 
HETATM   29  C1  UNL     1     -89.670  -3.158   3.293  1.00  0.00     0.027 C 
ENDBRANCH   1  28
TORSDOF 4
ENDMDL
MODEL 5
REMARK VINA RESULT: -8.663172372      4.643      8.226
REMARK  4 active torsions:
REMARK  status: ('A' for Active; 'I' for Inactive)
REMARK    1  A    between atoms: C2_2  and  N1_3 
REMARK    2  A    between atoms: C3_4  and  O1_5 
REMARK    3  A    between atoms: C10_15  and  C11_16 
REMARK    4  A    between atoms: C15_23  and  O4_25 
ROOT
HETATM    1  N1  UNL     1     -87.450  -2.116   0.260  1.00  0.00    -0.278 N 
HETATM    2  C3  UNL     1     -87.782  -1.534   1.425  1.00  0.00     0.173 A 
HETATM    3  C4  UNL     1     -89.003  -1.974   1.817  1.00  0.00     0.108 A 
HETATM    4  N2  UNL     1     -89.433  -2.851   0.862  1.00  0.00    -0.286 N 
HETATM    5  C5  UNL     1     -88.483  -2.917  -0.056  1.00  0.00     0.332 A 
HETATM    6  O2  UNL     1     -88.545  -3.636  -1.090  1.00  0.00    -0.246 OA
HETATM    7  C6  UNL     1     -90.741  -3.430   1.118  1.00  0.00     0.041 C 
HETATM    8  C7  UNL     1     -90.913  -4.553   0.084  1.00  0.00     0.039 C 
HETATM    9  C8  UNL     1     -90.855  -4.065   2.464  1.00  0.00     0.035 C 
HETATM   10  C9  UNL     1     -90.282  -3.138   3.493  1.00  0.00     0.053 C 
HETATM   11  C10 UNL     1     -89.954  -1.772   2.944  1.00  0.00     0.167 C 
HETATM   12  O3  UNL     1     -90.977  -0.985   2.634  1.00  0.00    -0.357 OA
HETATM   13  C12 UNL     1     -91.968  -1.343   1.829  1.00  0.00     0.065 C 
HETATM   14  C13 UNL     1     -92.395  -0.085   1.046  1.00  0.00     0.041 C 
HETATM   15  C14 UNL     1     -93.899  -0.043   0.888  1.00  0.00     0.040 C 
HETATM   16  C15 UNL     1     -94.494   0.345   2.244  1.00  0.00     0.054 C 
HETATM   17  C16 UNL     1     -94.440   1.837   2.416  1.00  0.00     0.045 C 
HETATM   18  C17 UNL     1     -93.630  -0.330   3.289  1.00  0.00     0.040 C 
HETATM   19  C18 UNL     1     -93.198  -1.674   2.691  1.00  0.00     0.041 C 
HETATM   20  C19 UNL     1     -91.788  -2.412   0.839  1.00  0.00     0.069 C 
ENDROOT
BRANCH  11  21
HETATM   21  C11 UNL     1     -89.144  -1.072   4.049  1.00  0.00     0.393 C 
HETATM   22  F1  UNL     1     -90.098  -0.339   4.770  1.00  0.00    -0.211 F 
HETATM   23  F2  UNL     1     -88.599  -1.970   4.906  1.00  0.00    -0.211 F 
ENDBRANCH  11  21
BRANCH  16  24
HETATM   24  O4  UNL     1     -95.773  -0.161   2.356  1.00  0.00    -0.390 OA
ATOM     25  H4  UNL     1     -96.137   0.068   3.203  1.00  0.00     0.210 HD
ENDBRANCH  16  24
BRANCH   2  26
HETATM   26  O1  UNL     1     -87.018  -0.625   2.139  1.00  0.00    -0.344 OA
ATOM     27  H1  UNL     1     -86.161  -0.293   1.896  1.00  0.00     0.219 HD
ENDBRANCH   2  26
BRANCH   1  28
HETATM   28  C2  UNL     1     -86.219  -1.925  -0.514  1.00  0.00     0.131 C 
HETATM   29  C1  UNL     1     -85.159  -2.876  -0.002  1.00  0.00     0.027 C 
ENDBRANCH   1  28
TORSDOF 4
ENDMDL
