MODEL 1
REMARK VINA RESULT: -6.929093268      0.000      0.000
REMARK  10 active torsions:
REMARK  status: ('A' for Active; 'I' for Inactive)
REMARK    1  A    between atoms: C4_4  and  N1_5 
REMARK       I    between atoms: N1_5  and  C5_7 
REMARK    2  A    between atoms: C5_7  and  C6_9 
REMARK    3  A    between atoms: C6_9  and  C7_10 
REMARK    4  A    between atoms: C6_9  and  N3_15 
REMARK    5  A    between atoms: C7_10  and  C8_11 
REMARK    6  A    between atoms: C8_11  and  C9_12 
REMARK       I    between atoms: N3_15  and  C10_17 
REMARK    7  A    between atoms: C10_17  and  C11_19 
REMARK    8  A    between atoms: C13_21  and  C14_22 
REMARK       I    between atoms: N4_27  and  C19_28 
REMARK    9  A    between atoms: C19_28  and  O5_30 
REMARK   10  A    between atoms: O5_30  and  C20_31 
ROOT
HETATM    1  N3  UNL     1       9.401  -3.297 -12.102  1.00  0.00    -0.346 N 
ATOM      2  H3  UNL     1       9.707  -2.344 -11.911  1.00  0.00     0.163 HD
HETATM    3  C10 UNL     1       9.642  -3.820 -13.367  1.00  0.00     0.241 C 
HETATM    4  O3  UNL     1       9.272  -4.984 -13.653  1.00  0.00    -0.271 OA
ENDROOT
BRANCH   1   5
HETATM    5  C6  UNL     1       8.734  -4.033 -11.024  1.00  0.00     0.177 C 
BRANCH   5   6
HETATM    6  C5  UNL     1       9.803  -4.631 -10.230  1.00  0.00     0.240 C 
HETATM    7  N1  UNL     1      10.672  -5.581 -10.800  1.00  0.00    -0.355 N 
ATOM      8  H1  UNL     1      10.543  -5.833 -11.781  1.00  0.00     0.162 HD
HETATM    9  O1  UNL     1       9.973  -4.317  -9.039  1.00  0.00    -0.271 OA
BRANCH   7  10
HETATM   10  C4  UNL     1      11.744  -6.219 -10.055  1.00  0.00     0.087 C 
HETATM   11  C3  UNL     1      12.828  -6.674 -11.046  1.00  0.00     0.032 C 
HETATM   12  C2  UNL     1      13.654  -7.574 -10.137  1.00  0.00     0.017 C 
HETATM   13  C1  UNL     1      14.449  -8.592 -10.886  1.00  0.00     0.013 C 
HETATM   14  C25 UNL     1      12.669  -8.185  -9.157  1.00  0.00     0.175 C 
HETATM   15  C24 UNL     1      11.323  -7.515  -9.453  1.00  0.00     0.062 C 
HETATM   16  F1  UNL     1      13.021  -7.770  -7.865  1.00  0.00    -0.249 F 
ENDBRANCH   7  10
ENDBRANCH   5   6
BRANCH   5  17
HETATM   17  C7  UNL     1       7.841  -3.068 -10.263  1.00  0.00     0.043 C 
BRANCH  17  18
HETATM   18  C8  UNL     1       6.518  -2.825 -10.878  1.00  0.00     0.102 C 
BRANCH  18  19
HETATM   19  C9  UNL     1       6.179  -1.381 -10.612  1.00  0.00     0.231 C 
HETATM   20  N2  UNL     1       6.894  -0.745  -9.539  1.00  0.00    -0.062 NA
HETATM   21  O2  UNL     1       5.350  -0.724 -11.237  1.00  0.00    -0.277 OA
ENDBRANCH  18  19
ENDBRANCH  17  18
ENDBRANCH   5  17
ENDBRANCH   1   5
BRANCH   3  22
HETATM   22  C11 UNL     1      10.340  -3.042 -14.435  1.00  0.00     0.182 C 
HETATM   23  C12 UNL     1      11.840  -3.151 -14.262  1.00  0.00     0.042 C 
HETATM   24  C13 UNL     1      12.399  -3.708 -15.521  1.00  0.00     0.013 C 
HETATM   25  C18 UNL     1      11.217  -4.279 -16.239  1.00  0.00     0.134 C 
HETATM   26  N4  UNL     1      10.075  -3.538 -15.756  1.00  0.00    -0.314 N 
HETATM   27  C19 UNL     1       8.873  -3.344 -16.496  1.00  0.00     0.364 C 
HETATM   28  O4  UNL     1       8.779  -3.832 -17.670  1.00  0.00    -0.238 OA
BRANCH  24  29
HETATM   29  C14 UNL     1      13.408  -4.827 -15.312  1.00  0.00    -0.046 C 
HETATM   30  C15 UNL     1      14.145  -4.476 -14.015  1.00  0.00     0.015 C 
HETATM   31  C16 UNL     1      12.613  -6.106 -15.110  1.00  0.00     0.015 C 
HETATM   32  C17 UNL     1      14.423  -4.925 -16.394  1.00  0.00     0.015 C 
ENDBRANCH  24  29
BRANCH  27  33
HETATM   33  O5  UNL     1       7.787  -2.663 -16.049  1.00  0.00    -0.294 OA
BRANCH  33  34
HETATM   34  C20 UNL     1       7.534  -1.311 -15.992  1.00  0.00     0.061 C 
HETATM   35  C21 UNL     1       7.382  -0.888 -14.550  1.00  0.00     0.046 C 
HETATM   36  C22 UNL     1       8.603  -0.425 -16.573  1.00  0.00     0.046 C 
HETATM   37  C23 UNL     1       6.247  -0.924 -16.716  1.00  0.00     0.046 C 
ENDBRANCH  33  34
ENDBRANCH  27  33
ENDBRANCH   3  22
TORSDOF 10
ENDMDL
MODEL 2
REMARK VINA RESULT: -6.411865987      1.494      4.127
REMARK  10 active torsions:
REMARK  status: ('A' for Active; 'I' for Inactive)
REMARK    1  A    between atoms: C4_4  and  N1_5 
REMARK       I    between atoms: N1_5  and  C5_7 
REMARK    2  A    between atoms: C5_7  and  C6_9 
REMARK    3  A    between atoms: C6_9  and  C7_10 
REMARK    4  A    between atoms: C6_9  and  N3_15 
REMARK    5  A    between atoms: C7_10  and  C8_11 
REMARK    6  A    between atoms: C8_11  and  C9_12 
REMARK       I    between atoms: N3_15  and  C10_17 
REMARK    7  A    between atoms: C10_17  and  C11_19 
REMARK    8  A    between atoms: C13_21  and  C14_22 
REMARK       I    between atoms: N4_27  and  C19_28 
REMARK    9  A    between atoms: C19_28  and  O5_30 
REMARK   10  A    between atoms: O5_30  and  C20_31 
ROOT
HETATM    1  N3  UNL     1       8.956  -4.176 -12.406  1.00  0.00    -0.346 N 
ATOM      2  H3  UNL     1       9.898  -3.826 -12.576  1.00  0.00     0.163 HD
HETATM    3  C10 UNL     1       8.179  -4.521 -13.506  1.00  0.00     0.241 C 
HETATM    4  O3  UNL     1       7.008  -4.944 -13.347  1.00  0.00    -0.271 OA
ENDROOT
BRANCH   1   5
HETATM    5  C6  UNL     1       8.504  -4.285 -11.016  1.00  0.00     0.177 C 
BRANCH   5   6
HETATM    6  C5  UNL     1       9.661  -4.749 -10.257  1.00  0.00     0.240 C 
HETATM    7  N1  UNL     1      10.580  -5.649 -10.832  1.00  0.00    -0.355 N 
ATOM      8  H1  UNL     1      10.423  -5.959 -11.792  1.00  0.00     0.162 HD
HETATM    9  O1  UNL     1       9.864  -4.363  -9.093  1.00  0.00    -0.271 OA
BRANCH   7  10
HETATM   10  C4  UNL     1      11.741  -6.155 -10.121  1.00  0.00     0.087 C 
HETATM   11  C3  UNL     1      12.759  -6.674 -11.148  1.00  0.00     0.032 C 
HETATM   12  C2  UNL     1      13.703  -7.431 -10.224  1.00  0.00     0.017 C 
HETATM   13  C1  UNL     1      14.482  -8.494 -10.926  1.00  0.00     0.013 C 
HETATM   14  C25 UNL     1      12.834  -7.969  -9.101  1.00  0.00     0.175 C 
HETATM   15  C24 UNL     1      11.437  -7.392  -9.346  1.00  0.00     0.062 C 
HETATM   16  F1  UNL     1      13.272  -7.398  -7.897  1.00  0.00    -0.249 F 
ENDBRANCH   7  10
ENDBRANCH   5   6
BRANCH   5  17
HETATM   17  C7  UNL     1       7.959  -2.935 -10.580  1.00  0.00     0.043 C 
BRANCH  17  18
HETATM   18  C8  UNL     1       6.487  -2.803 -10.655  1.00  0.00     0.102 C 
BRANCH  18  19
HETATM   19  C9  UNL     1       6.178  -1.337 -10.494  1.00  0.00     0.231 C 
HETATM   20  N2  UNL     1       6.953  -0.626  -9.513  1.00  0.00    -0.062 NA
HETATM   21  O2  UNL     1       5.326  -0.721 -11.130  1.00  0.00    -0.277 OA
ENDBRANCH  18  19
ENDBRANCH  17  18
ENDBRANCH   5  17
ENDBRANCH   1   5
BRANCH   3  22
HETATM   22  C11 UNL     1       8.682  -4.410 -14.908  1.00  0.00     0.182 C 
HETATM   23  C12 UNL     1       7.715  -3.597 -15.744  1.00  0.00     0.042 C 
HETATM   24  C13 UNL     1       8.467  -2.448 -16.311  1.00  0.00     0.013 C 
HETATM   25  C18 UNL     1       9.721  -2.379 -15.498  1.00  0.00     0.134 C 
HETATM   26  N4  UNL     1       9.937  -3.719 -15.002  1.00  0.00    -0.314 N 
HETATM   27  C19 UNL     1      11.212  -4.253 -14.660  1.00  0.00     0.364 C 
HETATM   28  O4  UNL     1      12.250  -3.527 -14.807  1.00  0.00    -0.238 OA
BRANCH  24  29
HETATM   29  C14 UNL     1       7.751  -1.112 -16.184  1.00  0.00    -0.046 C 
HETATM   30  C15 UNL     1       6.431  -1.282 -16.946  1.00  0.00     0.015 C 
HETATM   31  C16 UNL     1       7.458  -0.907 -14.708  1.00  0.00     0.015 C 
HETATM   32  C17 UNL     1       8.485   0.021 -16.806  1.00  0.00     0.015 C 
ENDBRANCH  24  29
BRANCH  27  33
HETATM   33  O5  UNL     1      11.427  -5.504 -14.179  1.00  0.00    -0.294 OA
BRANCH  33  34
HETATM   34  C20 UNL     1      11.682  -6.687 -14.834  1.00  0.00     0.061 C 
HETATM   35  C21 UNL     1      10.886  -7.799 -14.193  1.00  0.00     0.046 C 
HETATM   36  C22 UNL     1      11.324  -6.711 -16.296  1.00  0.00     0.046 C 
HETATM   37  C23 UNL     1      13.154  -7.089 -14.769  1.00  0.00     0.046 C 
ENDBRANCH  33  34
ENDBRANCH  27  33
ENDBRANCH   3  22
TORSDOF 10
ENDMDL
MODEL 3
REMARK VINA RESULT: -6.184072320      3.025      7.772
REMARK  10 active torsions:
REMARK  status: ('A' for Active; 'I' for Inactive)
REMARK    1  A    between atoms: C4_4  and  N1_5 
REMARK       I    between atoms: N1_5  and  C5_7 
REMARK    2  A    between atoms: C5_7  and  C6_9 
REMARK    3  A    between atoms: C6_9  and  C7_10 
REMARK    4  A    between atoms: C6_9  and  N3_15 
REMARK    5  A    between atoms: C7_10  and  C8_11 
REMARK    6  A    between atoms: C8_11  and  C9_12 
REMARK       I    between atoms: N3_15  and  C10_17 
REMARK    7  A    between atoms: C10_17  and  C11_19 
REMARK    8  A    between atoms: C13_21  and  C14_22 
REMARK       I    between atoms: N4_27  and  C19_28 
REMARK    9  A    between atoms: C19_28  and  O5_30 
REMARK   10  A    between atoms: O5_30  and  C20_31 
ROOT
HETATM    1  N3  UNL     1      10.105  -4.414 -13.557  1.00  0.00    -0.346 N 
ATOM      2  H3  UNL     1       9.584  -3.691 -13.060  1.00  0.00     0.163 HD
HETATM    3  C10 UNL     1      10.270  -5.645 -12.932  1.00  0.00     0.241 C 
HETATM    4  O3  UNL     1      10.915  -6.561 -13.498  1.00  0.00    -0.271 OA
ENDROOT
BRANCH   1   5
HETATM    5  C6  UNL     1      10.632  -4.091 -14.885  1.00  0.00     0.177 C 
BRANCH   5   6
HETATM    6  C5  UNL     1       9.542  -3.431 -15.596  1.00  0.00     0.240 C 
HETATM    7  N1  UNL     1       9.783  -2.268 -16.354  1.00  0.00    -0.355 N 
ATOM      8  H1  UNL     1      10.736  -1.906 -16.401  1.00  0.00     0.162 HD
HETATM    9  O1  UNL     1       8.382  -3.876 -15.554  1.00  0.00    -0.271 OA
BRANCH   7  10
HETATM   10  C4  UNL     1       8.736  -1.561 -17.072  1.00  0.00     0.087 C 
HETATM   11  C3  UNL     1       9.373  -0.794 -18.241  1.00  0.00     0.032 C 
HETATM   12  C2  UNL     1       8.208   0.103 -18.633  1.00  0.00     0.017 C 
HETATM   13  C1  UNL     1       8.636   1.337 -19.358  1.00  0.00     0.013 C 
HETATM   14  C25 UNL     1       7.461   0.395 -17.344  1.00  0.00     0.175 C 
HETATM   15  C24 UNL     1       8.147  -0.452 -16.269  1.00  0.00     0.062 C 
HETATM   16  F1  UNL     1       6.163  -0.125 -17.463  1.00  0.00    -0.249 F 
ENDBRANCH   7  10
ENDBRANCH   5   6
BRANCH   5  17
HETATM   17  C7  UNL     1      11.882  -3.245 -14.714  1.00  0.00     0.043 C 
BRANCH  17  18
HETATM   18  C8  UNL     1      13.152  -4.003 -14.706  1.00  0.00     0.102 C 
BRANCH  18  19
HETATM   19  C9  UNL     1      13.701  -3.908 -13.306  1.00  0.00     0.231 C 
HETATM   20  N2  UNL     1      15.099  -3.591 -13.188  1.00  0.00    -0.062 NA
HETATM   21  O2  UNL     1      13.049  -4.081 -12.278  1.00  0.00    -0.277 OA
ENDBRANCH  18  19
ENDBRANCH  17  18
ENDBRANCH   5  17
ENDBRANCH   1   5
BRANCH   3  22
HETATM   22  C11 UNL     1       9.703  -5.940 -11.581  1.00  0.00     0.182 C 
HETATM   23  C12 UNL     1      10.133  -7.320 -11.128  1.00  0.00     0.042 C 
HETATM   24  C13 UNL     1      10.844  -7.166  -9.832  1.00  0.00     0.013 C 
HETATM   25  C18 UNL     1      11.168  -5.708  -9.750  1.00  0.00     0.134 C 
HETATM   26  N4  UNL     1      10.177  -5.044 -10.565  1.00  0.00    -0.314 N 
HETATM   27  C19 UNL     1       9.751  -3.698 -10.373  1.00  0.00     0.364 C 
HETATM   28  O4  UNL     1      10.249  -3.018  -9.417  1.00  0.00    -0.238 OA
BRANCH  24  29
HETATM   29  C14 UNL     1      12.149  -7.943  -9.743  1.00  0.00    -0.046 C 
HETATM   30  C15 UNL     1      11.898  -9.253 -10.498  1.00  0.00     0.015 C 
HETATM   31  C16 UNL     1      13.198  -7.130 -10.482  1.00  0.00     0.015 C 
HETATM   32  C17 UNL     1      12.541  -8.294  -8.353  1.00  0.00     0.015 C 
ENDBRANCH  24  29
BRANCH  27  33
HETATM   33  O5  UNL     1       8.833  -3.057 -11.141  1.00  0.00    -0.294 OA
BRANCH  33  34
HETATM   34  C20 UNL     1       7.484  -2.857 -10.951  1.00  0.00     0.061 C 
HETATM   35  C21 UNL     1       7.033  -1.665 -11.761  1.00  0.00     0.046 C 
HETATM   36  C22 UNL     1       6.594  -3.999 -11.364  1.00  0.00     0.046 C 
HETATM   37  C23 UNL     1       7.132  -2.574  -9.493  1.00  0.00     0.046 C 
ENDBRANCH  33  34
ENDBRANCH  27  33
ENDBRANCH   3  22
TORSDOF 10
ENDMDL
MODEL 4
REMARK VINA RESULT: -6.170852653      3.267      7.396
REMARK  10 active torsions:
REMARK  status: ('A' for Active; 'I' for Inactive)
REMARK    1  A    between atoms: C4_4  and  N1_5 
REMARK       I    between atoms: N1_5  and  C5_7 
REMARK    2  A    between atoms: C5_7  and  C6_9 
REMARK    3  A    between atoms: C6_9  and  C7_10 
REMARK    4  A    between atoms: C6_9  and  N3_15 
REMARK    5  A    between atoms: C7_10  and  C8_11 
REMARK    6  A    between atoms: C8_11  and  C9_12 
REMARK       I    between atoms: N3_15  and  C10_17 
REMARK    7  A    between atoms: C10_17  and  C11_19 
REMARK    8  A    between atoms: C13_21  and  C14_22 
REMARK       I    between atoms: N4_27  and  C19_28 
REMARK    9  A    between atoms: C19_28  and  O5_30 
REMARK   10  A    between atoms: O5_30  and  C20_31 
ROOT
HETATM    1  N3  UNL     1      12.451  -6.504 -11.091  1.00  0.00    -0.346 N 
ATOM      2  H3  UNL     1      12.664  -7.494 -11.213  1.00  0.00     0.163 HD
HETATM    3  C10 UNL     1      12.861  -5.620 -12.083  1.00  0.00     0.241 C 
HETATM    4  O3  UNL     1      12.633  -4.391 -11.970  1.00  0.00    -0.271 OA
ENDROOT
BRANCH   1   5
HETATM    5  C6  UNL     1      11.731  -6.101  -9.880  1.00  0.00     0.177 C 
BRANCH   5   6
HETATM    6  C5  UNL     1      10.387  -5.738 -10.319  1.00  0.00     0.240 C 
HETATM    7  N1  UNL     1      10.014  -4.384 -10.434  1.00  0.00    -0.355 N 
ATOM      8  H1  UNL     1      10.706  -3.668 -10.215  1.00  0.00     0.162 HD
HETATM    9  O1  UNL     1       9.545  -6.607 -10.602  1.00  0.00    -0.271 OA
BRANCH   7  10
HETATM   10  C4  UNL     1       8.688  -3.963 -10.853  1.00  0.00     0.087 C 
HETATM   11  C3  UNL     1       8.813  -3.188 -12.174  1.00  0.00     0.032 C 
HETATM   12  C2  UNL     1       7.420  -2.577 -12.253  1.00  0.00     0.017 C 
HETATM   13  C1  UNL     1       7.367  -1.350 -13.102  1.00  0.00     0.013 C 
HETATM   14  C25 UNL     1       6.998  -2.330 -10.816  1.00  0.00     0.175 C 
HETATM   15  C24 UNL     1       8.110  -2.928  -9.950  1.00  0.00     0.062 C 
HETATM   16  F1  UNL     1       5.858  -3.104 -10.555  1.00  0.00    -0.249 F 
ENDBRANCH   7  10
ENDBRANCH   5   6
BRANCH   5  17
HETATM   17  C7  UNL     1      11.785  -7.247  -8.884  1.00  0.00     0.043 C 
BRANCH  17  18
HETATM   18  C8  UNL     1      12.914  -8.184  -9.071  1.00  0.00     0.102 C 
BRANCH  18  19
HETATM   19  C9  UNL     1      12.390  -9.331  -9.895  1.00  0.00     0.231 C 
HETATM   20  N2  UNL     1      13.292 -10.432 -10.103  1.00  0.00    -0.062 NA
HETATM   21  O2  UNL     1      11.268  -9.389 -10.393  1.00  0.00    -0.277 OA
ENDBRANCH  18  19
ENDBRANCH  17  18
ENDBRANCH   5  17
ENDBRANCH   1   5
BRANCH   3  22
HETATM   22  C11 UNL     1      13.580  -6.073 -13.312  1.00  0.00     0.182 C 
HETATM   23  C12 UNL     1      12.637  -6.067 -14.497  1.00  0.00     0.042 C 
HETATM   24  C13 UNL     1      13.228  -5.183 -15.536  1.00  0.00     0.013 C 
HETATM   25  C18 UNL     1      14.268  -4.390 -14.811  1.00  0.00     0.134 C 
HETATM   26  N4  UNL     1      14.660  -5.203 -13.683  1.00  0.00    -0.314 N 
HETATM   27  C19 UNL     1      15.933  -5.133 -13.047  1.00  0.00     0.364 C 
HETATM   28  O4  UNL     1      16.807  -4.320 -13.493  1.00  0.00    -0.238 OA
BRANCH  24  29
HETATM   29  C14 UNL     1      12.240  -4.208 -16.157  1.00  0.00    -0.046 C 
HETATM   30  C15 UNL     1      11.067  -5.066 -16.644  1.00  0.00     0.015 C 
HETATM   31  C16 UNL     1      11.764  -3.292 -15.042  1.00  0.00     0.015 C 
HETATM   32  C17 UNL     1      12.781  -3.477 -17.334  1.00  0.00     0.015 C 
ENDBRANCH  24  29
BRANCH  27  33
HETATM   33  O5  UNL     1      16.309  -5.881 -11.978  1.00  0.00    -0.294 OA
BRANCH  33  34
HETATM   34  C20 UNL     1      16.914  -7.115 -11.911  1.00  0.00     0.061 C 
HETATM   35  C21 UNL     1      16.156  -7.996 -10.947  1.00  0.00     0.046 C 
HETATM   36  C22 UNL     1      16.978  -7.878 -13.208  1.00  0.00     0.046 C 
HETATM   37  C23 UNL     1      18.356  -7.036 -11.415  1.00  0.00     0.046 C 
ENDBRANCH  33  34
ENDBRANCH  27  33
ENDBRANCH   3  22
TORSDOF 10
ENDMDL
MODEL 5
REMARK VINA RESULT: -6.164871473      3.321      7.212
REMARK  10 active torsions:
REMARK  status: ('A' for Active; 'I' for Inactive)
REMARK    1  A    between atoms: C4_4  and  N1_5 
REMARK       I    between atoms: N1_5  and  C5_7 
REMARK    2  A    between atoms: C5_7  and  C6_9 
REMARK    3  A    between atoms: C6_9  and  C7_10 
REMARK    4  A    between atoms: C6_9  and  N3_15 
REMARK    5  A    between atoms: C7_10  and  C8_11 
REMARK    6  A    between atoms: C8_11  and  C9_12 
REMARK       I    between atoms: N3_15  and  C10_17 
REMARK    7  A    between atoms: C10_17  and  C11_19 
REMARK    8  A    between atoms: C13_21  and  C14_22 
REMARK       I    between atoms: N4_27  and  C19_28 
REMARK    9  A    between atoms: C19_28  and  O5_30 
REMARK   10  A    between atoms: O5_30  and  C20_31 
ROOT
HETATM    1  N3  UNL     1       9.381  -3.779 -13.426  1.00  0.00    -0.346 N 
ATOM      2  H3  UNL     1       8.858  -4.584 -13.083  1.00  0.00     0.163 HD
HETATM    3  C10 UNL     1      10.691  -3.982 -13.844  1.00  0.00     0.241 C 
HETATM    4  O3  UNL     1      11.379  -3.019 -14.261  1.00  0.00    -0.271 OA
ENDROOT
BRANCH   1   5
HETATM    5  C6  UNL     1       8.705  -2.479 -13.448  1.00  0.00     0.177 C 
BRANCH   5   6
HETATM    6  C5  UNL     1       8.198  -2.318 -14.807  1.00  0.00     0.240 C 
HETATM    7  N1  UNL     1       8.224  -1.056 -15.435  1.00  0.00    -0.355 N 
ATOM      8  H1  UNL     1       8.613  -0.265 -14.922  1.00  0.00     0.162 HD
HETATM    9  O1  UNL     1       7.737  -3.282 -15.442  1.00  0.00    -0.271 OA
BRANCH   7  10
HETATM   10  C4  UNL     1       7.721  -0.833 -16.779  1.00  0.00     0.087 C 
HETATM   11  C3  UNL     1       8.190   0.551 -17.255  1.00  0.00     0.032 C 
HETATM   12  C2  UNL     1       7.314   0.716 -18.489  1.00  0.00     0.017 C 
HETATM   13  C1  UNL     1       7.113   2.144 -18.878  1.00  0.00     0.013 C 
HETATM   14  C25 UNL     1       6.017  -0.006 -18.172  1.00  0.00     0.175 C 
HETATM   15  C24 UNL     1       6.240  -0.676 -16.813  1.00  0.00     0.062 C 
HETATM   16  F1  UNL     1       5.864  -1.056 -19.090  1.00  0.00    -0.249 F 
ENDBRANCH   7  10
ENDBRANCH   5   6
BRANCH   5  17
HETATM   17  C7  UNL     1       7.637  -2.473 -12.368  1.00  0.00     0.043 C 
BRANCH  17  18
HETATM   18  C8  UNL     1       7.988  -3.218 -11.139  1.00  0.00     0.102 C 
BRANCH  18  19
HETATM   19  C9  UNL     1       7.281  -2.529 -10.001  1.00  0.00     0.231 C 
HETATM   20  N2  UNL     1       7.686  -2.910  -8.674  1.00  0.00    -0.062 NA
HETATM   21  O2  UNL     1       6.400  -1.682 -10.125  1.00  0.00    -0.277 OA
ENDBRANCH  18  19
ENDBRANCH  17  18
ENDBRANCH   5  17
ENDBRANCH   1   5
BRANCH   3  22
HETATM   22  C11 UNL     1      11.340  -5.328 -13.820  1.00  0.00     0.182 C 
HETATM   23  C12 UNL     1      12.627  -5.298 -14.619  1.00  0.00     0.042 C 
HETATM   24  C13 UNL     1      13.728  -5.718 -13.713  1.00  0.00     0.013 C 
HETATM   25  C18 UNL     1      13.152  -5.597 -12.337  1.00  0.00     0.134 C 
HETATM   26  N4  UNL     1      11.724  -5.743 -12.500  1.00  0.00    -0.314 N 
HETATM   27  C19 UNL     1      10.846  -6.225 -11.487  1.00  0.00     0.364 C 
HETATM   28  O4  UNL     1      11.328  -6.573 -10.360  1.00  0.00    -0.238 OA
BRANCH  24  29
HETATM   29  C14 UNL     1      14.963  -4.834 -13.785  1.00  0.00    -0.046 C 
HETATM   30  C15 UNL     1      15.201  -4.584 -15.278  1.00  0.00     0.015 C 
HETATM   31  C16 UNL     1      14.608  -3.522 -13.106  1.00  0.00     0.015 C 
HETATM   32  C17 UNL     1      16.188  -5.472 -13.235  1.00  0.00     0.015 C 
ENDBRANCH  24  29
BRANCH  27  33
HETATM   33  O5  UNL     1       9.501  -6.352 -11.622  1.00  0.00    -0.294 OA
BRANCH  33  34
HETATM   34  C20 UNL     1       8.733  -7.428 -12.006  1.00  0.00     0.061 C 
HETATM   35  C21 UNL     1       7.505  -6.935 -12.734  1.00  0.00     0.046 C 
HETATM   36  C22 UNL     1       9.403  -8.404 -12.936  1.00  0.00     0.046 C 
HETATM   37  C23 UNL     1       8.253  -8.260 -10.819  1.00  0.00     0.046 C 
ENDBRANCH  33  34
ENDBRANCH  27  33
ENDBRANCH   3  22
TORSDOF 10
ENDMDL
