MODEL 1
REMARK VINA RESULT: -5.962507338      0.000      0.000
REMARK  9 active torsions:
REMARK  status: ('A' for Active; 'I' for Inactive)
REMARK    1  A    between atoms: C2_2  and  C4_4 
REMARK    2  A    between atoms: C5_6  and  C6_7 
REMARK    3  A    between atoms: C9_12  and  C10_13 
REMARK    4  A    between atoms: C10_13  and  C11_14 
REMARK    5  A    between atoms: C11_14  and  C13_16 
REMARK    6  A    between atoms: C13_16  and  C14_17 
REMARK    7  A    between atoms: C14_17  and  C15_18 
REMARK    8  A    between atoms: C22_30  and  C23_31 
REMARK    9  A    between atoms: C26_36  and  O4_37 
ROOT
HETATM    1  C6  UNL     1      14.086  -6.874 -11.466  1.00  0.00     0.191 C 
HETATM    2  C7  UNL     1      12.916  -5.967 -11.846  1.00  0.00     0.306 C 
HETATM    3  O1  UNL     1      13.220  -5.209 -12.848  1.00  0.00    -0.256 OA
HETATM    4  N1  UNL     1      11.767  -6.016 -11.178  1.00  0.00    -0.385 NA
HETATM    5  C8  UNL     1      10.808  -6.058 -10.542  1.00  0.00     0.184 C 
HETATM    6  C9  UNL     1       9.439  -6.120 -11.351  1.00  0.00     0.137 C 
HETATM    7  N2  UNL     1       8.678  -7.188 -10.756  1.00  0.00    -0.349 N 
ATOM      8  H2  UNL     1       8.051  -6.947  -9.987  1.00  0.00     0.163 HD
HETATM    9  C17 UNL     1       8.731  -8.533 -11.152  1.00  0.00     0.240 C 
HETATM   10  O2  UNL     1       8.115  -9.371 -10.470  1.00  0.00    -0.271 OA
HETATM   11  C18 UNL     1       9.478  -9.030 -12.345  1.00  0.00     0.174 C 
HETATM   12  C19 UNL     1       8.563  -9.183 -13.543  1.00  0.00     0.042 C 
HETATM   13  N3  UNL     1      10.038 -10.326 -12.040  1.00  0.00    -0.342 N 
HETATM   14  C20 UNL     1       9.328 -11.509 -12.499  1.00  0.00     0.153 C 
HETATM   15  C21 UNL     1      11.243 -10.540 -11.286  1.00  0.00     0.243 C 
HETATM   16  O3  UNL     1      11.172 -11.460 -10.373  1.00  0.00    -0.271 OA
HETATM   17  C22 UNL     1      12.517  -9.853 -11.423  1.00  0.00     0.179 C 
HETATM   18  N4  UNL     1      12.713  -8.795 -10.432  1.00  0.00    -0.360 N 
ATOM     19  H4  UNL     1      12.039  -8.752  -9.667  1.00  0.00     0.162 HD
HETATM   20  C26 UNL     1      13.728  -7.840 -10.431  1.00  0.00     0.130 C 
ENDROOT
BRANCH   6  21
HETATM   21  C10 UNL     1       8.923  -4.750 -11.070  1.00  0.00     0.036 C 
BRANCH  21  22
HETATM   22  C11 UNL     1       7.896  -4.105 -11.880  1.00  0.00    -0.016 C 
HETATM   23  C12 UNL     1       8.592  -2.979 -12.669  1.00  0.00     0.010 C 
BRANCH  22  24
HETATM   24  C13 UNL     1       6.830  -3.380 -11.067  1.00  0.00     0.004 C 
BRANCH  24  25
HETATM   25  C14 UNL     1       7.473  -2.708  -9.862  1.00  0.00     0.000 C 
BRANCH  25  26
HETATM   26  C15 UNL     1       6.962  -1.314  -9.673  1.00  0.00    -0.005 C 
HETATM   27  C16 UNL     1       5.870  -1.073 -10.683  1.00  0.00     0.005 C 
ENDBRANCH  25  26
ENDBRANCH  24  25
ENDBRANCH  22  24
ENDBRANCH  21  22
ENDBRANCH   6  21
BRANCH   1  28
HETATM   28  C5  UNL     1      14.763  -7.358 -12.669  1.00  0.00     0.021 C 
HETATM   29  C4  UNL     1      16.076  -7.461 -12.726  1.00  0.00     0.036 C 
HETATM   30 CL1  UNL     1      17.072  -7.022 -11.345  1.00  0.00    -0.084 Cl
BRANCH  29  31
HETATM   31  C2  UNL     1      16.775  -7.943 -13.929  1.00  0.00    -0.050 C 
HETATM   32  C1  UNL     1      16.539  -7.496 -15.064  1.00  0.00     0.020 C 
HETATM   33  C3  UNL     1      17.767  -9.052 -13.732  1.00  0.00     0.049 C 
ENDBRANCH  29  31
ENDBRANCH   1  28
BRANCH  20  34
HETATM   34  O4  UNL     1      14.478  -7.785  -9.353  1.00  0.00    -0.349 OA
ATOM     35  H4  UNL     1      14.023  -7.996  -8.547  1.00  0.00     0.219 HD
ENDBRANCH  20  34
BRANCH  17  36
HETATM   36  C23 UNL     1      13.691 -10.802 -11.305  1.00  0.00     0.018 A 
HETATM   37  C24 UNL     1      13.810 -11.995 -12.217  1.00  0.00     0.007 A 
HETATM   38  C25 UNL     1      14.833 -10.859 -12.199  1.00  0.00     0.007 A 
ENDBRANCH  17  36
TORSDOF 9
ENDMDL
MODEL 2
REMARK VINA RESULT: -5.873854399      2.140      3.064
REMARK  9 active torsions:
REMARK  status: ('A' for Active; 'I' for Inactive)
REMARK    1  A    between atoms: C2_2  and  C4_4 
REMARK    2  A    between atoms: C5_6  and  C6_7 
REMARK    3  A    between atoms: C9_12  and  C10_13 
REMARK    4  A    between atoms: C10_13  and  C11_14 
REMARK    5  A    between atoms: C11_14  and  C13_16 
REMARK    6  A    between atoms: C13_16  and  C14_17 
REMARK    7  A    between atoms: C14_17  and  C15_18 
REMARK    8  A    between atoms: C22_30  and  C23_31 
REMARK    9  A    between atoms: C26_36  and  O4_37 
ROOT
HETATM    1  C6  UNL     1      13.815  -4.945 -14.169  1.00  0.00     0.191 C 
HETATM    2  C7  UNL     1      12.344  -4.662 -13.871  1.00  0.00     0.306 C 
HETATM    3  O1  UNL     1      11.679  -4.454 -14.962  1.00  0.00    -0.256 OA
HETATM    4  N1  UNL     1      11.888  -4.649 -12.622  1.00  0.00    -0.385 NA
HETATM    5  C8  UNL     1      11.546  -4.600 -11.523  1.00  0.00     0.184 C 
HETATM    6  C9  UNL     1      10.207  -5.387 -11.176  1.00  0.00     0.137 C 
HETATM    7  N2  UNL     1      10.501  -6.165 -10.000  1.00  0.00    -0.349 N 
ATOM      8  H2  UNL     1      10.319  -5.734  -9.093  1.00  0.00     0.163 HD
HETATM    9  C17 UNL     1      11.018  -7.470 -10.006  1.00  0.00     0.240 C 
HETATM   10  O2  UNL     1      11.342  -7.979  -8.919  1.00  0.00    -0.271 OA
HETATM   11  C18 UNL     1      11.202  -8.295 -11.236  1.00  0.00     0.174 C 
HETATM   12  C19 UNL     1      10.036  -9.241 -11.445  1.00  0.00     0.042 C 
HETATM   13  N3  UNL     1      12.401  -9.088 -11.092  1.00  0.00    -0.342 N 
HETATM   14  C20 UNL     1      12.265 -10.473 -10.673  1.00  0.00     0.153 C 
HETATM   15  C21 UNL     1      13.735  -8.599 -11.306  1.00  0.00     0.243 C 
HETATM   16  O3  UNL     1      14.601  -8.929 -10.397  1.00  0.00    -0.271 OA
HETATM   17  C22 UNL     1      14.224  -7.786 -12.408  1.00  0.00     0.179 C 
HETATM   18  N4  UNL     1      14.323  -6.364 -12.078  1.00  0.00    -0.360 N 
ATOM     19  H4  UNL     1      14.206  -6.111 -11.097  1.00  0.00     0.162 HD
HETATM   20  C26 UNL     1      14.562  -5.322 -12.971  1.00  0.00     0.130 C 
ENDROOT
BRANCH   6  21
HETATM   21  C10 UNL     1       9.293  -4.230 -10.949  1.00  0.00     0.036 C 
BRANCH  21  22
HETATM   22  C11 UNL     1       8.131  -3.958 -11.787  1.00  0.00    -0.016 C 
HETATM   23  C12 UNL     1       8.557  -2.882 -12.805  1.00  0.00     0.010 C 
BRANCH  22  24
HETATM   24  C13 UNL     1       6.966  -3.319 -11.042  1.00  0.00     0.004 C 
BRANCH  24  25
HETATM   25  C14 UNL     1       7.478  -2.621  -9.791  1.00  0.00     0.000 C 
BRANCH  25  26
HETATM   26  C15 UNL     1       6.949  -1.224  -9.685  1.00  0.00    -0.005 C 
HETATM   27  C16 UNL     1       5.850  -1.061 -10.701  1.00  0.00     0.005 C 
ENDBRANCH  25  26
ENDBRANCH  24  25
ENDBRANCH  22  24
ENDBRANCH  21  22
ENDBRANCH   6  21
BRANCH   1  28
HETATM   28  C5  UNL     1      13.939  -5.782 -15.362  1.00  0.00     0.021 C 
HETATM   29  C4  UNL     1      14.925  -5.614 -16.222  1.00  0.00     0.036 C 
HETATM   30 CL1  UNL     1      16.140  -4.371 -15.963  1.00  0.00    -0.084 Cl
BRANCH  29  31
HETATM   31  C2  UNL     1      15.064  -6.444 -17.430  1.00  0.00    -0.050 C 
HETATM   32  C1  UNL     1      15.813  -6.135 -18.371  1.00  0.00     0.020 C 
HETATM   33  C3  UNL     1      14.209  -7.676 -17.502  1.00  0.00     0.049 C 
ENDBRANCH  29  31
ENDBRANCH   1  28
BRANCH  20  34
HETATM   34  O4  UNL     1      15.601  -4.559 -12.716  1.00  0.00    -0.349 OA
ATOM     35  H4  UNL     1      16.178  -4.421 -13.458  1.00  0.00     0.219 HD
ENDBRANCH  20  34
BRANCH  17  36
HETATM   36  C23 UNL     1      15.590  -8.233 -12.884  1.00  0.00     0.018 A 
HETATM   37  C24 UNL     1      15.821  -9.654 -13.329  1.00  0.00     0.007 A 
HETATM   38  C25 UNL     1      15.980  -8.455 -14.265  1.00  0.00     0.007 A 
ENDBRANCH  17  36
TORSDOF 9
ENDMDL
MODEL 3
REMARK VINA RESULT: -5.859785056      0.954      1.121
REMARK  9 active torsions:
REMARK  status: ('A' for Active; 'I' for Inactive)
REMARK    1  A    between atoms: C2_2  and  C4_4 
REMARK    2  A    between atoms: C5_6  and  C6_7 
REMARK    3  A    between atoms: C9_12  and  C10_13 
REMARK    4  A    between atoms: C10_13  and  C11_14 
REMARK    5  A    between atoms: C11_14  and  C13_16 
REMARK    6  A    between atoms: C13_16  and  C14_17 
REMARK    7  A    between atoms: C14_17  and  C15_18 
REMARK    8  A    between atoms: C22_30  and  C23_31 
REMARK    9  A    between atoms: C26_36  and  O4_37 
ROOT
HETATM    1  C6  UNL     1      15.149  -7.068 -11.623  1.00  0.00     0.191 C 
HETATM    2  C7  UNL     1      14.080  -6.084 -12.094  1.00  0.00     0.306 C 
HETATM    3  O1  UNL     1      14.474  -5.432 -13.140  1.00  0.00    -0.256 OA
HETATM    4  N1  UNL     1      12.920  -5.975 -11.453  1.00  0.00    -0.385 NA
HETATM    5  C8  UNL     1      11.950  -5.879 -10.839  1.00  0.00     0.184 C 
HETATM    6  C9  UNL     1      10.596  -5.869 -11.675  1.00  0.00     0.137 C 
HETATM    7  N2  UNL     1       9.725  -6.813 -11.025  1.00  0.00    -0.349 N 
ATOM      8  H2  UNL     1       9.111  -6.459 -10.290  1.00  0.00     0.163 HD
HETATM    9  C17 UNL     1       9.654  -8.182 -11.324  1.00  0.00     0.240 C 
HETATM   10  O2  UNL     1       8.949  -8.907 -10.601  1.00  0.00    -0.271 OA
HETATM   11  C18 UNL     1      10.371  -8.833 -12.461  1.00  0.00     0.174 C 
HETATM   12  C19 UNL     1       9.466  -8.984 -13.668  1.00  0.00     0.042 C 
HETATM   13  N3  UNL     1      10.797 -10.151 -12.053  1.00  0.00    -0.342 N 
HETATM   14  C20 UNL     1       9.983 -11.290 -12.445  1.00  0.00     0.153 C 
HETATM   15  C21 UNL     1      11.962 -10.424 -11.257  1.00  0.00     0.243 C 
HETATM   16  O3  UNL     1      11.786 -11.264 -10.284  1.00  0.00    -0.271 OA
HETATM   17  C22 UNL     1      13.299  -9.874 -11.410  1.00  0.00     0.179 C 
HETATM   18  N4  UNL     1      13.579  -8.770 -10.492  1.00  0.00    -0.360 N 
ATOM     19  H4  UNL     1      12.899  -8.608  -9.748  1.00  0.00     0.162 HD
HETATM   20  C26 UNL     1      14.681  -7.919 -10.532  1.00  0.00     0.130 C 
ENDROOT
BRANCH   6  21
HETATM   21  C10 UNL     1      10.210  -4.439 -11.503  1.00  0.00     0.036 C 
BRANCH  21  22
HETATM   22  C11 UNL     1       8.848  -4.013 -11.202  1.00  0.00    -0.016 C 
HETATM   23  C12 UNL     1       8.336  -3.248 -12.439  1.00  0.00     0.010 C 
BRANCH  22  24
HETATM   24  C13 UNL     1       8.752  -2.994 -10.074  1.00  0.00     0.004 C 
BRANCH  24  25
HETATM   25  C14 UNL     1       7.292  -2.759  -9.716  1.00  0.00     0.000 C 
BRANCH  25  26
HETATM   26  C15 UNL     1       6.963  -1.299  -9.683  1.00  0.00    -0.005 C 
HETATM   27  C16 UNL     1       5.857  -1.045 -10.674  1.00  0.00     0.005 C 
ENDBRANCH  25  26
ENDBRANCH  24  25
ENDBRANCH  22  24
ENDBRANCH  21  22
ENDBRANCH   6  21
BRANCH   1  28
HETATM   28  C5  UNL     1      15.797  -7.701 -12.773  1.00  0.00     0.021 C 
HETATM   29  C4  UNL     1      17.107  -7.837 -12.835  1.00  0.00     0.036 C 
HETATM   30 CL1  UNL     1      18.134  -7.266 -11.527  1.00  0.00    -0.084 Cl
BRANCH  29  31
HETATM   31  C2  UNL     1      17.777  -8.467 -13.985  1.00  0.00    -0.050 C 
HETATM   32  C1  UNL     1      19.009  -8.434 -14.142  1.00  0.00     0.020 C 
HETATM   33  C3  UNL     1      16.892  -9.120 -15.006  1.00  0.00     0.049 C 
ENDBRANCH  29  31
ENDBRANCH   1  28
BRANCH  20  34
HETATM   34  O4  UNL     1      15.415  -7.859  -9.443  1.00  0.00    -0.349 OA
ATOM     35  H4  UNL     1      16.188  -8.410  -9.460  1.00  0.00     0.219 HD
ENDBRANCH  20  34
BRANCH  17  36
HETATM   36  C23 UNL     1      14.373 -10.919 -11.198  1.00  0.00     0.018 A 
HETATM   37  C24 UNL     1      14.447 -12.136 -12.082  1.00  0.00     0.007 A 
HETATM   38  C25 UNL     1      15.564 -11.094 -12.009  1.00  0.00     0.007 A 
ENDBRANCH  17  36
TORSDOF 9
ENDMDL
MODEL 4
REMARK VINA RESULT: -5.727144160      2.147      3.398
REMARK  9 active torsions:
REMARK  status: ('A' for Active; 'I' for Inactive)
REMARK    1  A    between atoms: C2_2  and  C4_4 
REMARK    2  A    between atoms: C5_6  and  C6_7 
REMARK    3  A    between atoms: C9_12  and  C10_13 
REMARK    4  A    between atoms: C10_13  and  C11_14 
REMARK    5  A    between atoms: C11_14  and  C13_16 
REMARK    6  A    between atoms: C13_16  and  C14_17 
REMARK    7  A    between atoms: C14_17  and  C15_18 
REMARK    8  A    between atoms: C22_30  and  C23_31 
REMARK    9  A    between atoms: C26_36  and  O4_37 
ROOT
HETATM    1  C6  UNL     1      14.902  -5.017 -14.357  1.00  0.00     0.191 C 
HETATM    2  C7  UNL     1      13.422  -4.697 -14.156  1.00  0.00     0.306 C 
HETATM    3  O1  UNL     1      12.830  -4.497 -15.288  1.00  0.00    -0.256 OA
HETATM    4  N1  UNL     1      12.891  -4.649 -12.937  1.00  0.00    -0.385 NA
HETATM    5  C8  UNL     1      12.484  -4.572 -11.862  1.00  0.00     0.184 C 
HETATM    6  C9  UNL     1      11.110  -5.323 -11.583  1.00  0.00     0.137 C 
HETATM    7  N2  UNL     1      11.314  -6.083 -10.377  1.00  0.00    -0.349 N 
ATOM      8  H2  UNL     1      11.087  -5.631  -9.491  1.00  0.00     0.163 HD
HETATM    9  C17 UNL     1      11.801  -7.399 -10.327  1.00  0.00     0.240 C 
HETATM   10  O2  UNL     1      12.047  -7.893  -9.213  1.00  0.00    -0.271 OA
HETATM   11  C18 UNL     1      12.042  -8.252 -11.528  1.00  0.00     0.174 C 
HETATM   12  C19 UNL     1      10.870  -9.177 -11.791  1.00  0.00     0.042 C 
HETATM   13  N3  UNL     1      13.211  -9.067 -11.296  1.00  0.00    -0.342 N 
HETATM   14  C20 UNL     1      13.019 -10.440 -10.861  1.00  0.00     0.153 C 
HETATM   15  C21 UNL     1      14.567  -8.611 -11.437  1.00  0.00     0.243 C 
HETATM   16  O3  UNL     1      15.368  -8.941 -10.471  1.00  0.00    -0.271 OA
HETATM   17  C22 UNL     1      15.140  -7.831 -12.522  1.00  0.00     0.179 C 
HETATM   18  N4  UNL     1      15.250  -6.405 -12.213  1.00  0.00    -0.360 N 
ATOM     19  H4  UNL     1      15.079  -6.130 -11.245  1.00  0.00     0.162 HD
HETATM   20  C26 UNL     1      15.567  -5.386 -13.109  1.00  0.00     0.130 C 
ENDROOT
BRANCH   6  21
HETATM   21  C10 UNL     1      10.210  -4.143 -11.434  1.00  0.00     0.036 C 
BRANCH  21  22
HETATM   22  C11 UNL     1       8.964  -4.183 -10.676  1.00  0.00    -0.016 C 
HETATM   23  C12 UNL     1       7.815  -4.131 -11.703  1.00  0.00     0.010 C 
BRANCH  22  24
HETATM   24  C13 UNL     1       8.732  -2.958  -9.802  1.00  0.00     0.004 C 
BRANCH  24  25
HETATM   25  C14 UNL     1       7.238  -2.700  -9.664  1.00  0.00     0.000 C 
BRANCH  25  26
HETATM   26  C15 UNL     1       6.921  -1.240  -9.754  1.00  0.00    -0.005 C 
HETATM   27  C16 UNL     1       5.837  -1.058 -10.784  1.00  0.00     0.005 C 
ENDBRANCH  25  26
ENDBRANCH  24  25
ENDBRANCH  22  24
ENDBRANCH  21  22
ENDBRANCH   6  21
BRANCH   1  28
HETATM   28  C5  UNL     1      15.080  -5.880 -15.524  1.00  0.00     0.021 C 
HETATM   29  C4  UNL     1      16.063  -5.685 -16.382  1.00  0.00     0.036 C 
HETATM   30 CL1  UNL     1      17.209  -4.372 -16.150  1.00  0.00    -0.084 Cl
BRANCH  29  31
HETATM   31  C2  UNL     1      16.255  -6.541 -17.564  1.00  0.00    -0.050 C 
HETATM   32  C1  UNL     1      17.013  -6.230 -18.499  1.00  0.00     0.020 C 
HETATM   33  C3  UNL     1      15.446  -7.803 -17.620  1.00  0.00     0.049 C 
ENDBRANCH  29  31
ENDBRANCH   1  28
BRANCH  20  34
HETATM   34  O4  UNL     1      16.605  -4.640 -12.805  1.00  0.00    -0.349 OA
ATOM     35  H4  UNL     1      16.475  -4.077 -12.051  1.00  0.00     0.219 HD
ENDBRANCH  20  34
BRANCH  17  36
HETATM   36  C23 UNL     1      16.522  -8.316 -12.905  1.00  0.00     0.018 A 
HETATM   37  C24 UNL     1      16.743  -9.741 -13.338  1.00  0.00     0.007 A 
HETATM   38  C25 UNL     1      16.999  -8.547 -14.256  1.00  0.00     0.007 A 
ENDBRANCH  17  36
TORSDOF 9
ENDMDL
MODEL 5
REMARK VINA RESULT: -5.718021507      3.296      7.799
REMARK  9 active torsions:
REMARK  status: ('A' for Active; 'I' for Inactive)
REMARK    1  A    between atoms: C2_2  and  C4_4 
REMARK    2  A    between atoms: C5_6  and  C6_7 
REMARK    3  A    between atoms: C9_12  and  C10_13 
REMARK    4  A    between atoms: C10_13  and  C11_14 
REMARK    5  A    between atoms: C11_14  and  C13_16 
REMARK    6  A    between atoms: C13_16  and  C14_17 
REMARK    7  A    between atoms: C14_17  and  C15_18 
REMARK    8  A    between atoms: C22_30  and  C23_31 
REMARK    9  A    between atoms: C26_36  and  O4_37 
ROOT
HETATM    1  C6  UNL     1      10.865  -5.573 -12.828  1.00  0.00     0.191 C 
HETATM    2  C7  UNL     1      11.783  -4.998 -13.906  1.00  0.00     0.306 C 
HETATM    3  O1  UNL     1      11.628  -3.719 -14.017  1.00  0.00    -0.256 OA
HETATM    4  N1  UNL     1      12.605  -5.784 -14.595  1.00  0.00    -0.385 NA
HETATM    5  C8  UNL     1      13.266  -6.508 -15.201  1.00  0.00     0.184 C 
HETATM    6  C9  UNL     1      14.783  -6.069 -15.392  1.00  0.00     0.137 C 
HETATM    7  N2  UNL     1      15.573  -7.225 -15.054  1.00  0.00    -0.349 N 
ATOM      8  H2  UNL     1      15.810  -7.870 -15.808  1.00  0.00     0.163 HD
HETATM    9  C17 UNL     1      16.043  -7.531 -13.768  1.00  0.00     0.240 C 
HETATM   10  O2  UNL     1      16.608  -8.625 -13.593  1.00  0.00    -0.271 OA
HETATM   11  C18 UNL     1      15.913  -6.626 -12.587  1.00  0.00     0.174 C 
HETATM   12  C19 UNL     1      17.180  -5.823 -12.367  1.00  0.00     0.042 C 
HETATM   13  N3  UNL     1      15.679  -7.426 -11.408  1.00  0.00    -0.342 N 
HETATM   14  C20 UNL     1      16.809  -7.726 -10.543  1.00  0.00     0.153 C 
HETATM   15  C21 UNL     1      14.407  -7.979 -11.033  1.00  0.00     0.243 C 
HETATM   16  O3  UNL     1      14.428  -9.222 -10.659  1.00  0.00    -0.271 OA
HETATM   17  C22 UNL     1      13.112  -7.318 -11.026  1.00  0.00     0.179 C 
HETATM   18  N4  UNL     1      12.302  -7.621 -12.206  1.00  0.00    -0.360 N 
ATOM     19  H4  UNL     1      12.638  -8.367 -12.816  1.00  0.00     0.162 HD
HETATM   20  C26 UNL     1      11.117  -6.990 -12.580  1.00  0.00     0.130 C 
ENDROOT
BRANCH   6  21
HETATM   21  C10 UNL     1      14.761  -5.729 -16.844  1.00  0.00     0.036 C 
BRANCH  21  22
HETATM   22  C11 UNL     1      15.055  -4.394 -17.353  1.00  0.00    -0.016 C 
HETATM   23  C12 UNL     1      13.772  -3.887 -18.041  1.00  0.00     0.010 C 
BRANCH  22  24
HETATM   24  C13 UNL     1      16.100  -4.369 -18.460  1.00  0.00     0.004 C 
BRANCH  24  25
HETATM   25  C14 UNL     1      17.397  -4.985 -17.956  1.00  0.00     0.000 C 
BRANCH  25  26
HETATM   26  C15 UNL     1      18.103  -4.074 -17.000  1.00  0.00    -0.005 C 
HETATM   27  C16 UNL     1      18.436  -4.863 -15.760  1.00  0.00     0.005 C 
ENDBRANCH  25  26
ENDBRANCH  24  25
ENDBRANCH  22  24
ENDBRANCH  21  22
ENDBRANCH   6  21
BRANCH   1  28
HETATM   28  C5  UNL     1      10.798  -4.665 -11.683  1.00  0.00     0.021 C 
HETATM   29  C4  UNL     1       9.648  -4.349 -11.121  1.00  0.00     0.036 C 
HETATM   30 CL1  UNL     1       8.139  -5.017 -11.727  1.00  0.00    -0.084 Cl
BRANCH  29  31
HETATM   31  C2  UNL     1       9.561  -3.435  -9.970  1.00  0.00    -0.050 C 
HETATM   32  C1  UNL     1      10.550  -3.127  -9.284  1.00  0.00     0.020 C 
HETATM   33  C3  UNL     1       8.195  -2.920  -9.622  1.00  0.00     0.049 C 
ENDBRANCH  29  31
ENDBRANCH   1  28
BRANCH  20  34
HETATM   34  O4  UNL     1      10.067  -7.764 -12.740  1.00  0.00    -0.349 OA
ATOM     35  H4  UNL     1      10.199  -8.485 -13.345  1.00  0.00     0.219 HD
ENDBRANCH  20  34
BRANCH  17  36
HETATM   36  C23 UNL     1      12.290  -7.688  -9.810  1.00  0.00     0.018 A 
HETATM   37  C24 UNL     1      12.854  -7.526  -8.423  1.00  0.00     0.007 A 
HETATM   38  C25 UNL     1      11.627  -6.757  -8.915  1.00  0.00     0.007 A 
ENDBRANCH  17  36
TORSDOF 9
ENDMDL
