MODEL 1
REMARK VINA RESULT: -6.934033102      0.000      0.000
REMARK  7 active torsions:
REMARK  status: ('A' for Active; 'I' for Inactive)
REMARK    1  A    between atoms: C4_4  and  N1_5 
REMARK       I    between atoms: N1_5  and  C5_7 
REMARK    2  A    between atoms: C5_7  and  C6_9 
REMARK    3  A    between atoms: C9_12  and  C10_13 
REMARK    4  A    between atoms: C10_13  and  N2_14 
REMARK    5  A    between atoms: N2_14  and  S1_16 
REMARK    6  A    between atoms: S1_16  and  N3_19 
REMARK    7  A    between atoms: N3_19  and  C11_21 
ROOT
HETATM    1  C6  UNL     1       8.845  -2.085 -13.793  1.00  0.00     0.078 C 
HETATM    2  C7  UNL     1       9.453  -3.474 -13.817  1.00  0.00     0.014 C 
HETATM    3  C8  UNL     1       9.913  -3.759 -12.413  1.00  0.00     0.007 C 
HETATM    4  C9  UNL     1       8.689  -3.971 -11.560  1.00  0.00     0.004 C 
HETATM    5  C18 UNL     1       7.478  -3.296 -12.084  1.00  0.00     0.007 C 
HETATM    6  C19 UNL     1       7.723  -1.990 -12.794  1.00  0.00     0.014 C 
ENDROOT
BRANCH   4   7
HETATM    7  C10 UNL     1       8.995  -3.395 -10.188  1.00  0.00     0.138 C 
BRANCH   7   8
HETATM    8  N2  UNL     1       9.065  -4.416  -9.185  1.00  0.00    -0.302 N 
ATOM      9  H2  UNL     1       8.259  -4.716  -8.636  1.00  0.00     0.173 HD
BRANCH   8  10
HETATM   10  S1  UNL     1      10.621  -5.082  -8.996  1.00  0.00     0.315 S 
HETATM   11  O2  UNL     1      11.635  -4.026  -9.343  1.00  0.00    -0.183 OA
HETATM   12  O3  UNL     1      10.872  -5.478  -7.548  1.00  0.00    -0.183 OA
BRANCH  10  13
HETATM   13  N3  UNL     1      10.907  -6.424 -10.029  1.00  0.00    -0.296 N 
ATOM     14  H3  UNL     1      10.176  -7.065 -10.335  1.00  0.00     0.174 HD
BRANCH  13  15
HETATM   15  C11 UNL     1      12.292  -6.549 -10.419  1.00  0.00     0.117 C 
HETATM   16  C12 UNL     1      12.995  -7.373  -9.358  1.00  0.00     0.028 C 
HETATM   17  C13 UNL     1      14.407  -7.744  -9.752  1.00  0.00     0.002 C 
HETATM   18  C14 UNL     1      14.448  -8.370 -11.132  1.00  0.00     0.002 C 
HETATM   19  C15 UNL     1      13.042  -8.495 -11.706  1.00  0.00     0.027 C 
HETATM   20  C16 UNL     1      12.484  -7.086 -11.799  1.00  0.00     0.054 C 
HETATM   21  C17 UNL     1      11.178  -7.073 -12.570  1.00  0.00     0.035 C 
HETATM   22 CL1  UNL     1      13.642  -6.096 -12.680  1.00  0.00    -0.117 Cl
ENDBRANCH  13  15
ENDBRANCH  10  13
ENDBRANCH   8  10
ENDBRANCH   7   8
ENDBRANCH   4   7
BRANCH   1  23
HETATM   23  C5  UNL     1       8.278  -1.840 -15.141  1.00  0.00     0.222 C 
HETATM   24  N1  UNL     1       8.495  -0.629 -15.850  1.00  0.00    -0.356 N 
ATOM     25  H1  UNL     1       9.059   0.107 -15.426  1.00  0.00     0.162 HD
HETATM   26  O1  UNL     1       7.584  -2.759 -15.646  1.00  0.00    -0.273 OA
BRANCH  24  27
HETATM   27  C4  UNL     1       7.934  -0.425 -17.150  1.00  0.00     0.088 C 
HETATM   28  C3  UNL     1       8.771  -1.083 -18.249  1.00  0.00     0.049 C 
HETATM   29  C2  UNL     1       7.899  -1.068 -19.470  1.00  0.00     0.077 C 
HETATM   30  C1  UNL     1       8.646  -1.739 -20.599  1.00  0.00     0.032 C 
HETATM   31  N4  UNL     1       7.361   0.204 -19.794  1.00  0.00    -0.405 N 
HETATM   32  C21 UNL     1       7.662   1.290 -18.964  1.00  0.00     0.022 C 
HETATM   33  C24 UNL     1       6.003   0.090 -20.238  1.00  0.00     0.144 C 
HETATM   34  C20 UNL     1       7.853   1.027 -17.513  1.00  0.00     0.055 C 
HETATM   35  C22 UNL     1       8.930   1.969 -19.505  1.00  0.00     0.038 C 
HETATM   36  C23 UNL     1       6.560   2.331 -19.103  1.00  0.00     0.038 C 
ENDBRANCH  24  27
ENDBRANCH   1  23
TORSDOF 7
ENDMDL
MODEL 2
REMARK VINA RESULT: -6.762659321      3.245     10.536
REMARK  7 active torsions:
REMARK  status: ('A' for Active; 'I' for Inactive)
REMARK    1  A    between atoms: C4_4  and  N1_5 
REMARK       I    between atoms: N1_5  and  C5_7 
REMARK    2  A    between atoms: C5_7  and  C6_9 
REMARK    3  A    between atoms: C9_12  and  C10_13 
REMARK    4  A    between atoms: C10_13  and  N2_14 
REMARK    5  A    between atoms: N2_14  and  S1_16 
REMARK    6  A    between atoms: S1_16  and  N3_19 
REMARK    7  A    between atoms: N3_19  and  C11_21 
ROOT
HETATM    1  C6  UNL     1      11.852  -6.810 -10.297  1.00  0.00     0.078 C 
HETATM    2  C7  UNL     1      12.212  -5.623 -11.170  1.00  0.00     0.014 C 
HETATM    3  C8  UNL     1      10.970  -4.779 -11.269  1.00  0.00     0.007 C 
HETATM    4  C9  UNL     1      10.750  -4.123  -9.931  1.00  0.00     0.004 C 
HETATM    5  C18 UNL     1      11.347  -4.872  -8.799  1.00  0.00     0.007 C 
HETATM    6  C19 UNL     1      11.351  -6.371  -8.948  1.00  0.00     0.014 C 
ENDROOT
BRANCH   4   7
HETATM    7  C10 UNL     1       9.249  -4.051  -9.710  1.00  0.00     0.138 C 
BRANCH   7   8
HETATM    8  N2  UNL     1       8.526  -4.759 -10.724  1.00  0.00    -0.302 N 
ATOM      9  H2  UNL     1       8.570  -5.772 -10.837  1.00  0.00     0.173 HD
BRANCH   8  10
HETATM   10  S1  UNL     1       7.587  -3.750 -11.724  1.00  0.00     0.315 S 
HETATM   11  O2  UNL     1       6.658  -4.614 -12.534  1.00  0.00    -0.183 OA
HETATM   12  O3  UNL     1       6.714  -2.820 -10.893  1.00  0.00    -0.183 OA
BRANCH  10  13
HETATM   13  N3  UNL     1       8.529  -2.836 -12.831  1.00  0.00    -0.296 N 
ATOM     14  H3  UNL     1       9.441  -2.442 -12.603  1.00  0.00     0.174 HD
BRANCH  13  15
HETATM   15  C11 UNL     1       7.894  -2.683 -14.119  1.00  0.00     0.117 C 
HETATM   16  C12 UNL     1       7.739  -1.197 -14.381  1.00  0.00     0.028 C 
HETATM   17  C13 UNL     1       7.267  -0.901 -15.786  1.00  0.00     0.002 C 
HETATM   18  C14 UNL     1       8.123  -1.611 -16.816  1.00  0.00     0.002 C 
HETATM   19  C15 UNL     1       9.251  -2.380 -16.137  1.00  0.00     0.027 C 
HETATM   20  C16 UNL     1       8.593  -3.401 -15.225  1.00  0.00     0.054 C 
HETATM   21  C17 UNL     1       9.620  -4.373 -14.675  1.00  0.00     0.035 C 
HETATM   22 CL1  UNL     1       7.435  -4.320 -16.180  1.00  0.00    -0.117 Cl
ENDBRANCH  13  15
ENDBRANCH  10  13
ENDBRANCH   8  10
ENDBRANCH   7   8
ENDBRANCH   4   7
BRANCH   1  23
HETATM   23  C5  UNL     1      13.099  -7.586 -10.091  1.00  0.00     0.222 C 
HETATM   24  N1  UNL     1      14.085  -7.726 -11.103  1.00  0.00    -0.356 N 
ATOM     25  H1  UNL     1      13.941  -7.282 -12.010  1.00  0.00     0.162 HD
HETATM   26  O1  UNL     1      13.258  -8.127  -8.968  1.00  0.00    -0.273 OA
BRANCH  24  27
HETATM   27  C4  UNL     1      15.278  -8.481 -10.872  1.00  0.00     0.088 C 
HETATM   28  C3  UNL     1      16.485  -7.891 -11.604  1.00  0.00     0.049 C 
HETATM   29  C2  UNL     1      17.680  -8.574 -11.006  1.00  0.00     0.077 C 
HETATM   30  C1  UNL     1      18.924  -8.015 -11.657  1.00  0.00     0.032 C 
HETATM   31  N4  UNL     1      17.606  -9.990 -10.997  1.00  0.00    -0.405 N 
HETATM   32  C21 UNL     1      16.456 -10.605 -11.508  1.00  0.00     0.022 C 
HETATM   33  C24 UNL     1      18.134 -10.525  -9.777  1.00  0.00     0.144 C 
HETATM   34  C20 UNL     1      15.159  -9.895 -11.353  1.00  0.00     0.055 C 
HETATM   35  C22 UNL     1      16.683 -10.878 -13.003  1.00  0.00     0.038 C 
HETATM   36  C23 UNL     1      16.311 -11.978 -10.867  1.00  0.00     0.038 C 
ENDBRANCH  24  27
ENDBRANCH   1  23
TORSDOF 7
ENDMDL
MODEL 3
REMARK VINA RESULT: -6.655827568      1.258      1.993
REMARK  7 active torsions:
REMARK  status: ('A' for Active; 'I' for Inactive)
REMARK    1  A    between atoms: C4_4  and  N1_5 
REMARK       I    between atoms: N1_5  and  C5_7 
REMARK    2  A    between atoms: C5_7  and  C6_9 
REMARK    3  A    between atoms: C9_12  and  C10_13 
REMARK    4  A    between atoms: C10_13  and  N2_14 
REMARK    5  A    between atoms: N2_14  and  S1_16 
REMARK    6  A    between atoms: S1_16  and  N3_19 
REMARK    7  A    between atoms: N3_19  and  C11_21 
ROOT
HETATM    1  C6  UNL     1       8.305  -3.209 -13.993  1.00  0.00     0.078 C 
HETATM    2  C7  UNL     1       7.335  -4.309 -13.607  1.00  0.00     0.014 C 
HETATM    3  C8  UNL     1       7.670  -4.692 -12.191  1.00  0.00     0.007 C 
HETATM    4  C9  UNL     1       7.234  -3.566 -11.292  1.00  0.00     0.004 C 
HETATM    5  C18 UNL     1       7.184  -2.249 -11.973  1.00  0.00     0.007 C 
HETATM    6  C19 UNL     1       8.217  -2.040 -13.049  1.00  0.00     0.014 C 
ENDROOT
BRANCH   4   7
HETATM    7  C10 UNL     1       8.247  -3.476 -10.164  1.00  0.00     0.138 C 
BRANCH   7   8
HETATM    8  N2  UNL     1       9.037  -4.666 -10.061  1.00  0.00    -0.302 N 
ATOM      9  H2  UNL     1       8.705  -5.584 -10.358  1.00  0.00     0.173 HD
BRANCH   8  10
HETATM   10  S1  UNL     1      10.582  -4.404  -9.394  1.00  0.00     0.315 S 
HETATM   11  O2  UNL     1      10.698  -2.951  -9.019  1.00  0.00    -0.183 OA
HETATM   12  O3  UNL     1      10.766  -5.208  -8.115  1.00  0.00    -0.183 OA
BRANCH  10  13
HETATM   13  N3  UNL     1      11.855  -4.751 -10.493  1.00  0.00    -0.296 N 
ATOM     14  H3  UNL     1      12.816  -4.438 -10.357  1.00  0.00     0.174 HD
BRANCH  13  15
HETATM   15  C11 UNL     1      11.423  -5.530 -11.629  1.00  0.00     0.117 C 
HETATM   16  C12 UNL     1      11.511  -4.641 -12.855  1.00  0.00     0.028 C 
HETATM   17  C13 UNL     1      11.274  -5.401 -14.141  1.00  0.00     0.002 C 
HETATM   18  C14 UNL     1      12.152  -6.633 -14.222  1.00  0.00     0.002 C 
HETATM   19  C15 UNL     1      13.063  -6.724 -13.003  1.00  0.00     0.027 C 
HETATM   20  C16 UNL     1      12.156  -6.820 -11.789  1.00  0.00     0.054 C 
HETATM   21  C17 UNL     1      12.956  -7.146 -10.543  1.00  0.00     0.035 C 
HETATM   22 CL1  UNL     1      11.017  -8.135 -12.060  1.00  0.00    -0.117 Cl
ENDBRANCH  13  15
ENDBRANCH  10  13
ENDBRANCH   8  10
ENDBRANCH   7   8
ENDBRANCH   4   7
BRANCH   1  23
HETATM   23  C5  UNL     1       7.907  -2.737 -15.341  1.00  0.00     0.222 C 
HETATM   24  N1  UNL     1       8.163  -1.415 -15.792  1.00  0.00    -0.356 N 
ATOM     25  H1  UNL     1       8.637  -0.757 -15.173  1.00  0.00     0.162 HD
HETATM   26  O1  UNL     1       7.323  -3.563 -16.087  1.00  0.00    -0.273 OA
BRANCH  24  27
HETATM   27  C4  UNL     1       7.768  -0.991 -17.099  1.00  0.00     0.088 C 
HETATM   28  C3  UNL     1       8.758  -1.441 -18.175  1.00  0.00     0.049 C 
HETATM   29  C2  UNL     1       8.049  -1.220 -19.479  1.00  0.00     0.077 C 
HETATM   30  C1  UNL     1       8.955  -1.677 -20.599  1.00  0.00     0.032 C 
HETATM   31  N4  UNL     1       7.518   0.084 -19.648  1.00  0.00    -0.405 N 
HETATM   32  C21 UNL     1       7.676   1.012 -18.610  1.00  0.00     0.022 C 
HETATM   33  C24 UNL     1       6.232   0.039 -20.279  1.00  0.00     0.144 C 
HETATM   34  C20 UNL     1       7.688   0.501 -17.214  1.00  0.00     0.055 C 
HETATM   35  C22 UNL     1       8.981   1.785 -18.856  1.00  0.00     0.038 C 
HETATM   36  C23 UNL     1       6.569   2.052 -18.712  1.00  0.00     0.038 C 
ENDBRANCH  24  27
ENDBRANCH   1  23
TORSDOF 7
ENDMDL
MODEL 4
REMARK VINA RESULT: -6.635117733      2.083      2.773
REMARK  7 active torsions:
REMARK  status: ('A' for Active; 'I' for Inactive)
REMARK    1  A    between atoms: C4_4  and  N1_5 
REMARK       I    between atoms: N1_5  and  C5_7 
REMARK    2  A    between atoms: C5_7  and  C6_9 
REMARK    3  A    between atoms: C9_12  and  C10_13 
REMARK    4  A    between atoms: C10_13  and  N2_14 
REMARK    5  A    between atoms: N2_14  and  S1_16 
REMARK    6  A    between atoms: S1_16  and  N3_19 
REMARK    7  A    between atoms: N3_19  and  C11_21 
ROOT
HETATM    1  C6  UNL     1       8.413  -4.509 -12.060  1.00  0.00     0.078 C 
HETATM    2  C7  UNL     1       8.579  -3.197 -11.318  1.00  0.00     0.014 C 
HETATM    3  C8  UNL     1       9.030  -3.552  -9.927  1.00  0.00     0.007 C 
HETATM    4  C9  UNL     1      10.453  -4.041 -10.013  1.00  0.00     0.004 C 
HETATM    5  C18 UNL     1      10.807  -4.601 -11.339  1.00  0.00     0.007 C 
HETATM    6  C19 UNL     1       9.688  -5.308 -12.060  1.00  0.00     0.014 C 
ENDROOT
BRANCH   4   7
HETATM    7  C10 UNL     1      10.612  -5.140  -8.977  1.00  0.00     0.138 C 
BRANCH   7   8
HETATM    8  N2  UNL     1      11.820  -5.885  -9.172  1.00  0.00    -0.302 N 
ATOM      9  H2  UNL     1      12.747  -5.459  -9.158  1.00  0.00     0.173 HD
BRANCH   8  10
HETATM   10  S1  UNL     1      11.563  -7.548  -9.430  1.00  0.00     0.315 S 
HETATM   11  O2  UNL     1      11.987  -8.292  -8.193  1.00  0.00    -0.183 OA
HETATM   12  O3  UNL     1      10.084  -7.845  -9.640  1.00  0.00    -0.183 OA
BRANCH  10  13
HETATM   13  N3  UNL     1      12.478  -8.174 -10.741  1.00  0.00    -0.296 N 
ATOM     14  H3  UNL     1      12.227  -9.022 -11.249  1.00  0.00     0.174 HD
BRANCH  13  15
HETATM   15  C11 UNL     1      13.641  -7.375 -11.050  1.00  0.00     0.117 C 
HETATM   16  C12 UNL     1      14.845  -8.060 -10.432  1.00  0.00     0.028 C 
HETATM   17  C13 UNL     1      16.152  -7.427 -10.853  1.00  0.00     0.002 C 
HETATM   18  C14 UNL     1      16.238  -7.292 -12.360  1.00  0.00     0.002 C 
HETATM   19  C15 UNL     1      15.000  -7.884 -13.023  1.00  0.00     0.027 C 
HETATM   20  C16 UNL     1      13.810  -7.095 -12.506  1.00  0.00     0.054 C 
HETATM   21  C17 UNL     1      12.552  -7.450 -13.275  1.00  0.00     0.035 C 
HETATM   22 CL1  UNL     1      14.136  -5.384 -12.760  1.00  0.00    -0.117 Cl
ENDBRANCH  13  15
ENDBRANCH  10  13
ENDBRANCH   8  10
ENDBRANCH   7   8
ENDBRANCH   4   7
BRANCH   1  23
HETATM   23  C5  UNL     1       8.088  -4.169 -13.467  1.00  0.00     0.222 C 
HETATM   24  N1  UNL     1       8.613  -3.019 -14.113  1.00  0.00    -0.356 N 
ATOM     25  H1  UNL     1       9.237  -2.396 -13.601  1.00  0.00     0.162 HD
HETATM   26  O1  UNL     1       7.315  -4.948 -14.080  1.00  0.00    -0.273 OA
BRANCH  24  27
HETATM   27  C4  UNL     1       8.280  -2.720 -15.472  1.00  0.00     0.088 C 
HETATM   28  C3  UNL     1       9.524  -2.555 -16.347  1.00  0.00     0.049 C 
HETATM   29  C2  UNL     1       9.017  -2.582 -17.760  1.00  0.00     0.077 C 
HETATM   30  C1  UNL     1      10.199  -2.459 -18.693  1.00  0.00     0.032 C 
HETATM   31  N4  UNL     1       7.961  -1.673 -18.025  1.00  0.00    -0.405 N 
HETATM   32  C21 UNL     1       7.486  -0.874 -16.977  1.00  0.00     0.022 C 
HETATM   33  C24 UNL     1       6.976  -2.264 -18.881  1.00  0.00     0.144 C 
HETATM   34  C20 UNL     1       7.515  -1.438 -15.602  1.00  0.00     0.055 C 
HETATM   35  C22 UNL     1       8.281   0.441 -16.979  1.00  0.00     0.038 C 
HETATM   36  C23 UNL     1       6.049  -0.474 -17.281  1.00  0.00     0.038 C 
ENDBRANCH  24  27
ENDBRANCH   1  23
TORSDOF 7
ENDMDL
MODEL 5
REMARK VINA RESULT: -6.612419957      1.595      1.993
REMARK  7 active torsions:
REMARK  status: ('A' for Active; 'I' for Inactive)
REMARK    1  A    between atoms: C4_4  and  N1_5 
REMARK       I    between atoms: N1_5  and  C5_7 
REMARK    2  A    between atoms: C5_7  and  C6_9 
REMARK    3  A    between atoms: C9_12  and  C10_13 
REMARK    4  A    between atoms: C10_13  and  N2_14 
REMARK    5  A    between atoms: N2_14  and  S1_16 
REMARK    6  A    between atoms: S1_16  and  N3_19 
REMARK    7  A    between atoms: N3_19  and  C11_21 
ROOT
HETATM    1  C6  UNL     1       8.672  -2.563 -12.903  1.00  0.00     0.078 C 
HETATM    2  C7  UNL     1       9.707  -3.432 -13.590  1.00  0.00     0.014 C 
HETATM    3  C8  UNL     1      10.235  -4.373 -12.540  1.00  0.00     0.007 C 
HETATM    4  C9  UNL     1       9.150  -5.371 -12.228  1.00  0.00     0.004 C 
HETATM    5  C18 UNL     1       7.784  -4.867 -12.506  1.00  0.00     0.007 C 
HETATM    6  C19 UNL     1       7.582  -3.391 -12.279  1.00  0.00     0.014 C 
ENDROOT
BRANCH   4   7
HETATM    7  C10 UNL     1       9.246  -5.686 -10.745  1.00  0.00     0.138 C 
BRANCH   7   8
HETATM    8  N2  UNL     1       9.656  -7.038 -10.513  1.00  0.00    -0.302 N 
ATOM      9  H2  UNL     1       9.095  -7.846 -10.784  1.00  0.00     0.173 HD
BRANCH   8  10
HETATM   10  S1  UNL     1      11.169  -7.170  -9.742  1.00  0.00     0.315 S 
HETATM   11  O2  UNL     1      11.726  -5.785  -9.550  1.00  0.00    -0.183 OA
HETATM   12  O3  UNL     1      11.023  -7.784  -8.357  1.00  0.00    -0.183 OA
BRANCH  10  13
HETATM   13  N3  UNL     1      12.316  -8.059 -10.660  1.00  0.00    -0.296 N 
ATOM     14  H3  UNL     1      12.171  -9.023 -10.960  1.00  0.00     0.174 HD
BRANCH  13  15
HETATM   15  C11 UNL     1      13.506  -7.300 -10.962  1.00  0.00     0.117 C 
HETATM   16  C12 UNL     1      14.680  -8.012 -10.317  1.00  0.00     0.028 C 
HETATM   17  C13 UNL     1      16.012  -7.424 -10.727  1.00  0.00     0.002 C 
HETATM   18  C14 UNL     1      16.124  -7.313 -12.235  1.00  0.00     0.002 C 
HETATM   19  C15 UNL     1      14.878  -7.877 -12.908  1.00  0.00     0.027 C 
HETATM   20  C16 UNL     1      13.705  -7.046 -12.419  1.00  0.00     0.054 C 
HETATM   21  C17 UNL     1      12.448  -7.374 -13.202  1.00  0.00     0.035 C 
HETATM   22 CL1  UNL     1      14.086  -5.349 -12.693  1.00  0.00    -0.117 Cl
ENDBRANCH  13  15
ENDBRANCH  10  13
ENDBRANCH   8  10
ENDBRANCH   7   8
ENDBRANCH   4   7
BRANCH   1  23
HETATM   23  C5  UNL     1       8.057  -1.715 -13.952  1.00  0.00     0.222 C 
HETATM   24  N1  UNL     1       8.330  -1.895 -15.334  1.00  0.00    -0.356 N 
ATOM     25  H1  UNL     1       8.972  -2.631 -15.627  1.00  0.00     0.162 HD
HETATM   26  O1  UNL     1       7.270  -0.812 -13.571  1.00  0.00    -0.273 OA
BRANCH  24  27
HETATM   27  C4  UNL     1       7.719  -1.060 -16.322  1.00  0.00     0.088 C 
HETATM   28  C3  UNL     1       6.826  -1.855 -17.276  1.00  0.00     0.049 C 
HETATM   29  C2  UNL     1       6.022  -0.825 -18.012  1.00  0.00     0.077 C 
HETATM   30  C1  UNL     1       5.082  -1.538 -18.957  1.00  0.00     0.032 C 
HETATM   31  N4  UNL     1       6.791   0.204 -18.614  1.00  0.00    -0.405 N 
HETATM   32  C21 UNL     1       8.182   0.181 -18.454  1.00  0.00     0.022 C 
HETATM   33  C24 UNL     1       6.147   1.477 -18.472  1.00  0.00     0.144 C 
HETATM   34  C20 UNL     1       8.730  -0.369 -17.187  1.00  0.00     0.055 C 
HETATM   35  C22 UNL     1       8.785  -0.607 -19.627  1.00  0.00     0.038 C 
HETATM   36  C23 UNL     1       8.714   1.600 -18.609  1.00  0.00     0.038 C 
ENDBRANCH  24  27
ENDBRANCH   1  23
TORSDOF 7
ENDMDL
