MODEL 1
REMARK VINA RESULT: -9.359656082      0.000      0.000
REMARK  4 active torsions:
REMARK  status: ('A' for Active; 'I' for Inactive)
REMARK    1  A    between atoms: C2_2  and  C3_3 
REMARK    2  A    between atoms: C3_3  and  C4_4 
REMARK    3  A    between atoms: C4_4  and  C5_5 
REMARK    4  A    between atoms: C5_5  and  C8_8 
ROOT
HETATM    1  C8  UNL     1      63.821  46.930  28.885  1.00  0.00     0.002 C 
HETATM    2  C9  UNL     1      64.233  45.679  28.180  1.00  0.00     0.006 C 
HETATM    3  C10 UNL     1      65.737  45.476  28.511  1.00  0.00     0.008 C 
HETATM    4  C11 UNL     1      65.796  46.179  29.848  1.00  0.00     0.028 C 
HETATM    5  C12 UNL     1      67.134  46.317  30.423  1.00  0.00     0.234 C 
HETATM    6  C13 UNL     1      67.085  47.385  31.518  1.00  0.00     0.053 C 
HETATM    7  C14 UNL     1      65.689  47.664  31.920  1.00  0.00     0.010 C 
HETATM    8  C15 UNL     1      64.836  48.190  30.788  1.00  0.00     0.010 C 
HETATM    9  C16 UNL     1      65.082  47.462  29.476  1.00  0.00    -0.034 C 
HETATM   10  C17 UNL     1      65.990  48.211  28.571  1.00  0.00     0.016 C 
HETATM   11  C18 UNL     1      67.909  46.473  32.340  1.00  0.00     0.229 C 
HETATM   12  C19 UNL     1      67.426  45.986  33.638  1.00  0.00     0.038 C 
HETATM   13  C20 UNL     1      67.406  44.481  33.445  1.00  0.00     0.032 C 
HETATM   14  C21 UNL     1      66.864  44.426  32.005  1.00  0.00     0.273 C 
HETATM   15  N1  UNL     1      67.619  45.424  31.391  1.00  0.00     0.099 N 
ENDROOT
BRANCH   1  16
HETATM   16  C5  UNL     1      62.926  47.825  28.186  1.00  0.00    -0.043 C 
HETATM   17  C6  UNL     1      63.036  49.298  28.558  1.00  0.00     0.015 C 
HETATM   18  C7  UNL     1      63.120  47.828  26.656  1.00  0.00     0.015 C 
BRANCH  16  19
HETATM   19  C4  UNL     1      61.475  47.535  28.370  1.00  0.00     0.009 C 
BRANCH  19  20
HETATM   20  C3  UNL     1      61.011  46.734  29.512  1.00  0.00     0.000 C 
BRANCH  20  21
HETATM   21  C2  UNL     1      59.500  46.471  29.200  1.00  0.00    -0.005 C 
HETATM   22  C1  UNL     1      59.097  47.363  28.073  1.00  0.00     0.005 C 
ENDBRANCH  20  21
ENDBRANCH  19  20
ENDBRANCH  16  19
ENDBRANCH   1  16
TORSDOF 4
ENDMDL
MODEL 2
REMARK VINA RESULT: -8.411872602      1.081      1.430
REMARK  4 active torsions:
REMARK  status: ('A' for Active; 'I' for Inactive)
REMARK    1  A    between atoms: C2_2  and  C3_3 
REMARK    2  A    between atoms: C3_3  and  C4_4 
REMARK    3  A    between atoms: C4_4  and  C5_5 
REMARK    4  A    between atoms: C5_5  and  C8_8 
ROOT
HETATM    1  C8  UNL     1      63.632  47.151  29.006  1.00  0.00     0.002 C 
HETATM    2  C9  UNL     1      64.781  46.718  28.155  1.00  0.00     0.006 C 
HETATM    3  C10 UNL     1      66.063  47.193  28.893  1.00  0.00     0.008 C 
HETATM    4  C11 UNL     1      65.550  47.188  30.314  1.00  0.00     0.028 C 
HETATM    5  C12 UNL     1      66.471  47.731  31.313  1.00  0.00     0.234 C 
HETATM    6  C13 UNL     1      65.679  48.047  32.584  1.00  0.00     0.053 C 
HETATM    7  C14 UNL     1      64.361  47.376  32.564  1.00  0.00     0.010 C 
HETATM    8  C15 UNL     1      63.487  47.813  31.411  1.00  0.00     0.010 C 
HETATM    9  C16 UNL     1      64.254  47.943  30.104  1.00  0.00    -0.034 C 
HETATM   10  C17 UNL     1      64.622  49.349  29.799  1.00  0.00     0.016 C 
HETATM   11  C18 UNL     1      66.793  47.436  33.340  1.00  0.00     0.229 C 
HETATM   12  C19 UNL     1      66.565  46.279  34.213  1.00  0.00     0.038 C 
HETATM   13  C20 UNL     1      67.470  45.220  33.609  1.00  0.00     0.032 C 
HETATM   14  C21 UNL     1      67.222  45.509  32.118  1.00  0.00     0.273 C 
HETATM   15  N1  UNL     1      67.289  46.901  32.094  1.00  0.00     0.099 N 
ENDROOT
BRANCH   1  16
HETATM   16  C5  UNL     1      62.458  47.660  28.333  1.00  0.00    -0.043 C 
HETATM   17  C6  UNL     1      62.104  49.112  28.624  1.00  0.00     0.015 C 
HETATM   18  C7  UNL     1      62.559  47.619  26.794  1.00  0.00     0.015 C 
BRANCH  16  19
HETATM   19  C4  UNL     1      61.193  46.933  28.636  1.00  0.00     0.009 C 
BRANCH  19  20
HETATM   20  C3  UNL     1      59.891  47.514  28.275  1.00  0.00     0.000 C 
BRANCH  20  21
HETATM   21  C2  UNL     1      58.860  46.670  29.096  1.00  0.00    -0.005 C 
HETATM   22  C1  UNL     1      59.490  46.308  30.399  1.00  0.00     0.005 C 
ENDBRANCH  20  21
ENDBRANCH  19  20
ENDBRANCH  16  19
ENDBRANCH   1  16
TORSDOF 4
ENDMDL
MODEL 3
REMARK VINA RESULT: -8.286730780      2.184      6.093
REMARK  4 active torsions:
REMARK  status: ('A' for Active; 'I' for Inactive)
REMARK    1  A    between atoms: C2_2  and  C3_3 
REMARK    2  A    between atoms: C3_3  and  C4_4 
REMARK    3  A    between atoms: C4_4  and  C5_5 
REMARK    4  A    between atoms: C5_5  and  C8_8 
ROOT
HETATM    1  C8  UNL     1      67.458  47.000  31.517  1.00  0.00     0.002 C 
HETATM    2  C9  UNL     1      68.525  46.805  30.488  1.00  0.00     0.006 C 
HETATM    3  C10 UNL     1      67.793  46.366  29.190  1.00  0.00     0.008 C 
HETATM    4  C11 UNL     1      66.453  47.026  29.424  1.00  0.00     0.028 C 
HETATM    5  C12 UNL     1      65.419  46.707  28.439  1.00  0.00     0.234 C 
HETATM    6  C13 UNL     1      64.056  47.085  29.025  1.00  0.00     0.053 C 
HETATM    7  C14 UNL     1      64.214  47.980  30.192  1.00  0.00     0.010 C 
HETATM    8  C15 UNL     1      64.992  47.350  31.325  1.00  0.00     0.010 C 
HETATM    9  C16 UNL     1      66.202  46.563  30.844  1.00  0.00    -0.034 C 
HETATM   10  C17 UNL     1      65.942  45.102  30.780  1.00  0.00     0.016 C 
HETATM   11  C18 UNL     1      63.734  47.666  27.703  1.00  0.00     0.229 C 
HETATM   12  C19 UNL     1      63.392  49.087  27.569  1.00  0.00     0.038 C 
HETATM   13  C20 UNL     1      64.465  49.602  26.627  1.00  0.00     0.032 C 
HETATM   14  C21 UNL     1      65.674  48.835  27.190  1.00  0.00     0.273 C 
HETATM   15  N1  UNL     1      65.133  47.561  27.363  1.00  0.00     0.099 N 
ENDROOT
BRANCH   1  16
HETATM   16  C5  UNL     1      67.741  46.555  32.863  1.00  0.00    -0.043 C 
HETATM   17  C6  UNL     1      67.193  45.184  33.237  1.00  0.00     0.015 C 
HETATM   18  C7  UNL     1      69.248  46.434  33.173  1.00  0.00     0.015 C 
BRANCH  16  19
HETATM   19  C4  UNL     1      67.216  47.439  33.942  1.00  0.00     0.009 C 
BRANCH  19  20
HETATM   20  C3  UNL     1      66.190  46.950  34.876  1.00  0.00     0.000 C 
BRANCH  20  21
HETATM   21  C2  UNL     1      65.061  48.032  34.796  1.00  0.00    -0.005 C 
HETATM   22  C1  UNL     1      65.707  49.377  34.794  1.00  0.00     0.005 C 
ENDBRANCH  20  21
ENDBRANCH  19  20
ENDBRANCH  16  19
ENDBRANCH   1  16
TORSDOF 4
ENDMDL
MODEL 4
REMARK VINA RESULT: -8.269341929      1.360      2.547
REMARK  4 active torsions:
REMARK  status: ('A' for Active; 'I' for Inactive)
REMARK    1  A    between atoms: C2_2  and  C3_3 
REMARK    2  A    between atoms: C3_3  and  C4_4 
REMARK    3  A    between atoms: C4_4  and  C5_5 
REMARK    4  A    between atoms: C5_5  and  C8_8 
ROOT
HETATM    1  C8  UNL     1      65.026  48.565  28.848  1.00  0.00     0.002 C 
HETATM    2  C9  UNL     1      64.132  49.108  29.916  1.00  0.00     0.006 C 
HETATM    3  C10 UNL     1      64.190  48.086  31.084  1.00  0.00     0.008 C 
HETATM    4  C11 UNL     1      65.568  47.511  30.845  1.00  0.00     0.028 C 
HETATM    5  C12 UNL     1      65.929  46.379  31.699  1.00  0.00     0.234 C 
HETATM    6  C13 UNL     1      67.127  45.661  31.072  1.00  0.00     0.053 C 
HETATM    7  C14 UNL     1      67.778  46.513  30.053  1.00  0.00     0.010 C 
HETATM    8  C15 UNL     1      66.864  46.874  28.905  1.00  0.00     0.010 C 
HETATM    9  C16 UNL     1      65.458  47.234  29.361  1.00  0.00    -0.034 C 
HETATM   10  C17 UNL     1      64.504  46.107  29.204  1.00  0.00     0.016 C 
HETATM   11  C18 UNL     1      67.701  45.590  32.433  1.00  0.00     0.229 C 
HETATM   12  C19 UNL     1      68.999  46.203  32.736  1.00  0.00     0.038 C 
HETATM   13  C20 UNL     1      68.650  47.211  33.816  1.00  0.00     0.032 C 
HETATM   14  C21 UNL     1      67.320  47.733  33.243  1.00  0.00     0.273 C 
HETATM   15  N1  UNL     1      66.703  46.543  32.858  1.00  0.00     0.099 N 
ENDROOT
BRANCH   1  16
HETATM   16  C5  UNL     1      64.583  48.695  27.478  1.00  0.00    -0.043 C 
HETATM   17  C6  UNL     1      65.323  49.727  26.637  1.00  0.00     0.015 C 
HETATM   18  C7  UNL     1      64.722  47.398  26.655  1.00  0.00     0.015 C 
BRANCH  16  19
HETATM   19  C4  UNL     1      63.153  49.082  27.312  1.00  0.00     0.009 C 
BRANCH  19  20
HETATM   20  C3  UNL     1      62.129  48.062  27.039  1.00  0.00     0.000 C 
BRANCH  20  21
HETATM   21  C2  UNL     1      61.085  48.258  28.188  1.00  0.00    -0.005 C 
HETATM   22  C1  UNL     1      61.045  47.005  28.997  1.00  0.00     0.005 C 
ENDBRANCH  20  21
ENDBRANCH  19  20
ENDBRANCH  16  19
ENDBRANCH   1  16
TORSDOF 4
ENDMDL
MODEL 5
REMARK VINA RESULT: -7.871154098      1.334      2.961
REMARK  4 active torsions:
REMARK  status: ('A' for Active; 'I' for Inactive)
REMARK    1  A    between atoms: C2_2  and  C3_3 
REMARK    2  A    between atoms: C3_3  and  C4_4 
REMARK    3  A    between atoms: C4_4  and  C5_5 
REMARK    4  A    between atoms: C5_5  and  C8_8 
ROOT
HETATM    1  C8  UNL     1      64.523  46.561  28.857  1.00  0.00     0.002 C 
HETATM    2  C9  UNL     1      64.798  45.175  28.369  1.00  0.00     0.006 C 
HETATM    3  C10 UNL     1      66.205  44.801  28.914  1.00  0.00     0.008 C 
HETATM    4  C11 UNL     1      66.233  45.669  30.151  1.00  0.00     0.028 C 
HETATM    5  C12 UNL     1      67.506  45.688  30.872  1.00  0.00     0.234 C 
HETATM    6  C13 UNL     1      67.514  46.895  31.813  1.00  0.00     0.053 C 
HETATM    7  C14 UNL     1      66.147  47.431  31.995  1.00  0.00     0.010 C 
HETATM    8  C15 UNL     1      65.519  47.913  30.707  1.00  0.00     0.010 C 
HETATM    9  C16 UNL     1      65.782  46.978  29.536  1.00  0.00    -0.034 C 
HETATM   10  C17 UNL     1      66.893  47.450  28.670  1.00  0.00     0.016 C 
HETATM   11  C18 UNL     1      68.083  45.996  32.840  1.00  0.00     0.229 C 
HETATM   12  C19 UNL     1      67.390  45.774  34.114  1.00  0.00     0.038 C 
HETATM   13  C20 UNL     1      67.146  44.276  34.105  1.00  0.00     0.032 C 
HETATM   14  C21 UNL     1      66.761  44.099  32.626  1.00  0.00     0.273 C 
HETATM   15  N1  UNL     1      67.731  44.879  31.996  1.00  0.00     0.099 N 
ENDROOT
BRANCH   1  16
HETATM   16  C5  UNL     1      63.867  47.471  27.945  1.00  0.00    -0.043 C 
HETATM   17  C6  UNL     1      64.016  47.148  26.464  1.00  0.00     0.015 C 
HETATM   18  C7  UNL     1      62.338  47.550  28.140  1.00  0.00     0.015 C 
BRANCH  16  19
HETATM   19  C4  UNL     1      64.321  48.888  28.032  1.00  0.00     0.009 C 
BRANCH  19  20
HETATM   20  C3  UNL     1      64.550  49.677  26.813  1.00  0.00     0.000 C 
BRANCH  20  21
HETATM   21  C2  UNL     1      65.984  50.272  27.013  1.00  0.00    -0.005 C 
HETATM   22  C1  UNL     1      66.919  49.543  26.106  1.00  0.00     0.005 C 
ENDBRANCH  20  21
ENDBRANCH  19  20
ENDBRANCH  16  19
ENDBRANCH   1  16
TORSDOF 4
ENDMDL
