MODEL 1
REMARK VINA RESULT: -7.806502024      0.000      0.000
REMARK  4 active torsions:
REMARK  status: ('A' for Active; 'I' for Inactive)
REMARK    1  A    between atoms: N1_2  and  C1_4 
REMARK    2  A    between atoms: C4_7  and  N2_8 
REMARK    3  A    between atoms: N2_8  and  N3_10 
REMARK    4  A    between atoms: N3_10  and  C5_12 
ROOT
HETATM    1  N2  UNL     1      21.447   5.109  47.208  1.00  0.00    -0.300 N 
ATOM      2  H2  UNL     1      22.137   4.658  46.608  1.00  0.00     0.187 HD
ENDROOT
BRANCH   1   3
HETATM    3  C4  UNL     1      20.456   5.890  46.591  1.00  0.00     0.048 A 
HETATM    4  C3  UNL     1      19.502   6.565  47.308  1.00  0.00     0.033 A 
HETATM    5  C2  UNL     1      18.532   7.329  46.669  1.00  0.00     0.038 A 
HETATM    6  C1  UNL     1      18.493   7.436  45.298  1.00  0.00     0.103 A 
HETATM    7  C12 UNL     1      19.447   6.762  44.569  1.00  0.00     0.038 A 
HETATM    8  C11 UNL     1      20.409   6.005  45.204  1.00  0.00     0.033 A 
BRANCH   6   9
HETATM    9  N1  UNL     1      17.492   8.221  44.632  1.00  0.00    -0.116 N 
HETATM   10  O1  UNL     1      17.737   9.357  44.194  1.00  0.00    -0.532 OA
HETATM   11  O2  UNL     1      16.232   7.701  44.470  1.00  0.00    -0.532 OA
ENDBRANCH   6   9
ENDBRANCH   1   3
BRANCH   1  12
HETATM   12  N3  UNL     1      21.551   4.912  48.544  1.00  0.00    -0.289 N 
ATOM     13  H3  UNL     1      20.688   4.554  48.954  1.00  0.00     0.188 HD
BRANCH  12  14
HETATM   14  C5  UNL     1      22.442   5.063  49.382  1.00  0.00     0.094 C 
HETATM   15  C6  UNL     1      23.038   3.936  50.340  1.00  0.00     0.084 C 
HETATM   16  C7  UNL     1      24.221   4.669  51.016  1.00  0.00     0.012 C 
HETATM   17  C8  UNL     1      23.827   5.804  51.955  1.00  0.00     0.026 C 
HETATM   18  C10 UNL     1      24.596   5.590  49.760  1.00  0.00     0.129 C 
HETATM   19  C9  UNL     1      23.344   6.996  50.918  1.00  0.00     0.124 C 
HETATM   20  N4  UNL     1      23.224   6.017  49.939  1.00  0.00    -0.369 N 
ENDBRANCH  12  14
ENDBRANCH   1  12
TORSDOF 4
ENDMDL
MODEL 2
REMARK VINA RESULT: -7.778384562      1.614      2.363
REMARK  4 active torsions:
REMARK  status: ('A' for Active; 'I' for Inactive)
REMARK    1  A    between atoms: N1_2  and  C1_4 
REMARK    2  A    between atoms: C4_7  and  N2_8 
REMARK    3  A    between atoms: N2_8  and  N3_10 
REMARK    4  A    between atoms: N3_10  and  C5_12 
ROOT
HETATM    1  N2  UNL     1      21.236   5.294  47.164  1.00  0.00    -0.300 N 
ATOM      2  H2  UNL     1      20.950   4.379  47.512  1.00  0.00     0.187 HD
ENDROOT
BRANCH   1   3
HETATM    3  C4  UNL     1      20.277   6.061  46.481  1.00  0.00     0.048 A 
HETATM    4  C3  UNL     1      20.260   6.164  45.114  1.00  0.00     0.033 A 
HETATM    5  C2  UNL     1      19.300   6.933  44.466  1.00  0.00     0.038 A 
HETATM    6  C1  UNL     1      18.335   7.617  45.169  1.00  0.00     0.103 A 
HETATM    7  C12 UNL     1      18.344   7.519  46.542  1.00  0.00     0.038 A 
HETATM    8  C11 UNL     1      19.296   6.756  47.184  1.00  0.00     0.033 A 
BRANCH   6   9
HETATM    9  N1  UNL     1      17.343   8.415  44.506  1.00  0.00    -0.116 N 
HETATM   10  O1  UNL     1      17.613   9.528  44.025  1.00  0.00    -0.532 OA
HETATM   11  O2  UNL     1      16.062   7.934  44.395  1.00  0.00    -0.532 OA
ENDBRANCH   6   9
ENDBRANCH   1   3
BRANCH   1  12
HETATM   12  N3  UNL     1      22.513   5.683  47.393  1.00  0.00    -0.289 N 
ATOM     13  H3  UNL     1      23.190   5.118  46.881  1.00  0.00     0.188 HD
BRANCH  12  14
HETATM   14  C5  UNL     1      23.049   6.558  48.075  1.00  0.00     0.094 C 
HETATM   15  C6  UNL     1      22.401   7.313  49.322  1.00  0.00     0.084 C 
HETATM   16  C7  UNL     1      23.591   8.143  49.859  1.00  0.00     0.012 C 
HETATM   17  C8  UNL     1      24.070   9.260  48.938  1.00  0.00     0.026 C 
HETATM   18  C10 UNL     1      24.730   7.084  49.474  1.00  0.00     0.129 C 
HETATM   19  C9  UNL     1      24.850   8.442  47.733  1.00  0.00     0.124 C 
HETATM   20  N4  UNL     1      24.179   7.300  48.152  1.00  0.00    -0.369 N 
ENDBRANCH  12  14
ENDBRANCH   1  12
TORSDOF 4
ENDMDL
MODEL 3
REMARK VINA RESULT: -7.755167810      0.831      1.911
REMARK  4 active torsions:
REMARK  status: ('A' for Active; 'I' for Inactive)
REMARK    1  A    between atoms: N1_2  and  C1_4 
REMARK    2  A    between atoms: C4_7  and  N2_8 
REMARK    3  A    between atoms: N2_8  and  N3_10 
REMARK    4  A    between atoms: N3_10  and  C5_12 
ROOT
HETATM    1  N2  UNL     1      21.373   5.179  47.006  1.00  0.00    -0.300 N 
ATOM      2  H2  UNL     1      21.883   4.509  46.430  1.00  0.00     0.187 HD
ENDROOT
BRANCH   1   3
HETATM    3  C4  UNL     1      20.386   5.958  46.381  1.00  0.00     0.048 A 
HETATM    4  C3  UNL     1      20.324   6.110  45.020  1.00  0.00     0.033 A 
HETATM    5  C2  UNL     1      19.335   6.889  44.429  1.00  0.00     0.038 A 
HETATM    6  C1  UNL     1      18.386   7.536  45.187  1.00  0.00     0.103 A 
HETATM    7  C12 UNL     1      18.439   7.390  46.554  1.00  0.00     0.038 A 
HETATM    8  C11 UNL     1      19.420   6.616  47.138  1.00  0.00     0.033 A 
BRANCH   6   9
HETATM    9  N1  UNL     1      17.364   8.345  44.583  1.00  0.00    -0.116 N 
HETATM   10  O1  UNL     1      17.586   9.509  44.212  1.00  0.00    -0.532 OA
HETATM   11  O2  UNL     1      16.109   7.818  44.408  1.00  0.00    -0.532 OA
ENDBRANCH   6   9
ENDBRANCH   1   3
BRANCH   1  12
HETATM   12  N3  UNL     1      21.697   5.254  48.319  1.00  0.00    -0.289 N 
ATOM     13  H3  UNL     1      21.100   4.667  48.901  1.00  0.00     0.188 HD
BRANCH  12  14
HETATM   14  C5  UNL     1      22.543   5.864  48.975  1.00  0.00     0.094 C 
HETATM   15  C6  UNL     1      22.577   7.436  49.242  1.00  0.00     0.084 C 
HETATM   16  C7  UNL     1      23.739   7.573  50.255  1.00  0.00     0.012 C 
HETATM   17  C8  UNL     1      25.122   7.245  49.703  1.00  0.00     0.026 C 
HETATM   18  C10 UNL     1      23.495   6.171  50.990  1.00  0.00     0.129 C 
HETATM   19  C9  UNL     1      25.090   5.599  49.569  1.00  0.00     0.124 C 
HETATM   20  N4  UNL     1      23.704   5.677  49.645  1.00  0.00    -0.369 N 
ENDBRANCH  12  14
ENDBRANCH   1  12
TORSDOF 4
ENDMDL
MODEL 4
REMARK VINA RESULT: -7.752335474      1.566      2.287
REMARK  4 active torsions:
REMARK  status: ('A' for Active; 'I' for Inactive)
REMARK    1  A    between atoms: N1_2  and  C1_4 
REMARK    2  A    between atoms: C4_7  and  N2_8 
REMARK    3  A    between atoms: N2_8  and  N3_10 
REMARK    4  A    between atoms: N3_10  and  C5_12 
ROOT
HETATM    1  N2  UNL     1      21.554   4.708  48.767  1.00  0.00    -0.300 N 
ATOM      2  H2  UNL     1      21.119   3.888  49.190  1.00  0.00     0.187 HD
ENDROOT
BRANCH   1   3
HETATM    3  C4  UNL     1      20.835   5.387  47.771  1.00  0.00     0.048 A 
HETATM    4  C3  UNL     1      19.752   6.178  48.059  1.00  0.00     0.033 A 
HETATM    5  C2  UNL     1      19.058   6.838  47.051  1.00  0.00     0.038 A 
HETATM    6  C1  UNL     1      19.430   6.721  45.731  1.00  0.00     0.103 A 
HETATM    7  C12 UNL     1      20.516   5.930  45.432  1.00  0.00     0.038 A 
HETATM    8  C11 UNL     1      21.203   5.277  46.433  1.00  0.00     0.033 A 
BRANCH   6   9
HETATM    9  N1  UNL     1      18.715   7.398  44.685  1.00  0.00    -0.116 N 
HETATM   10  O1  UNL     1      17.479   7.515  44.707  1.00  0.00    -0.532 OA
HETATM   11  O2  UNL     1      19.416   7.933  43.633  1.00  0.00    -0.532 OA
ENDBRANCH   6   9
ENDBRANCH   1   3
BRANCH   1  12
HETATM   12  N3  UNL     1      22.784   5.064  49.208  1.00  0.00    -0.289 N 
ATOM     13  H3  UNL     1      23.357   4.258  49.458  1.00  0.00     0.188 HD
BRANCH  12  14
HETATM   14  C5  UNL     1      23.374   6.131  49.379  1.00  0.00     0.094 C 
HETATM   15  C6  UNL     1      23.056   7.217  50.504  1.00  0.00     0.084 C 
HETATM   16  C7  UNL     1      24.218   8.223  50.330  1.00  0.00     0.012 C 
HETATM   17  C8  UNL     1      24.206   9.008  49.022  1.00  0.00     0.026 C 
HETATM   18  C10 UNL     1      25.318   7.144  49.887  1.00  0.00     0.129 C 
HETATM   19  C9  UNL     1      24.670   7.882  47.906  1.00  0.00     0.124 C 
HETATM   20  N4  UNL     1      24.346   6.905  48.841  1.00  0.00    -0.369 N 
ENDBRANCH  12  14
ENDBRANCH   1  12
TORSDOF 4
ENDMDL
MODEL 5
REMARK VINA RESULT: -7.743567709      0.818      1.537
REMARK  4 active torsions:
REMARK  status: ('A' for Active; 'I' for Inactive)
REMARK    1  A    between atoms: N1_2  and  C1_4 
REMARK    2  A    between atoms: C4_7  and  N2_8 
REMARK    3  A    between atoms: N2_8  and  N3_10 
REMARK    4  A    between atoms: N3_10  and  C5_12 
ROOT
HETATM    1  N2  UNL     1      21.332   5.184  47.054  1.00  0.00    -0.300 N 
ATOM      2  H2  UNL     1      21.830   4.523  46.458  1.00  0.00     0.187 HD
ENDROOT
BRANCH   1   3
HETATM    3  C4  UNL     1      20.338   5.978  46.459  1.00  0.00     0.048 A 
HETATM    4  C3  UNL     1      19.387   6.636  47.195  1.00  0.00     0.033 A 
HETATM    5  C2  UNL     1      18.414   7.414  46.578  1.00  0.00     0.038 A 
HETATM    6  C1  UNL     1      18.369   7.552  45.210  1.00  0.00     0.103 A 
HETATM    7  C12 UNL     1      19.319   6.896  44.462  1.00  0.00     0.038 A 
HETATM    8  C11 UNL     1      20.284   6.125  45.075  1.00  0.00     0.033 A 
BRANCH   6   9
HETATM    9  N1  UNL     1      17.365   8.352  44.567  1.00  0.00    -0.116 N 
HETATM   10  O1  UNL     1      17.605   9.500  44.158  1.00  0.00    -0.532 OA
HETATM   11  O2  UNL     1      16.105   7.833  44.394  1.00  0.00    -0.532 OA
ENDBRANCH   6   9
ENDBRANCH   1   3
BRANCH   1  12
HETATM   12  N3  UNL     1      21.676   5.232  48.363  1.00  0.00    -0.289 N 
ATOM     13  H3  UNL     1      21.098   4.622  48.941  1.00  0.00     0.188 HD
BRANCH  12  14
HETATM   14  C5  UNL     1      22.521   5.840  49.021  1.00  0.00     0.094 C 
HETATM   15  C6  UNL     1      22.557   7.413  49.290  1.00  0.00     0.084 C 
HETATM   16  C7  UNL     1      23.718   7.548  50.303  1.00  0.00     0.012 C 
HETATM   17  C8  UNL     1      25.101   7.220  49.752  1.00  0.00     0.026 C 
HETATM   18  C10 UNL     1      23.473   6.144  51.036  1.00  0.00     0.129 C 
HETATM   19  C9  UNL     1      25.068   5.574  49.615  1.00  0.00     0.124 C 
HETATM   20  N4  UNL     1      23.682   5.652  49.691  1.00  0.00    -0.369 N 
ENDBRANCH  12  14
ENDBRANCH   1  12
TORSDOF 4
ENDMDL
