MODEL 1
REMARK VINA RESULT: -9.492185649      0.000      0.000
REMARK  4 active torsions:
REMARK  status: ('A' for Active; 'I' for Inactive)
REMARK       I    between atoms: C1_2  and  N1_3 
REMARK    1  A    between atoms: C1_2  and  C8_16 
REMARK    2  A    between atoms: N1_3  and  N2_5 
REMARK    3  A    between atoms: N2_5  and  C2_7 
REMARK    4  A    between atoms: C7_12  and  N3_13 
ROOT
HETATM    1  N2  UNL     1      17.234   8.376  46.115  1.00  0.00    -0.295 N 
ATOM      2  H2  UNL     1      16.620   8.190  46.908  1.00  0.00     0.187 HD
ENDROOT
BRANCH   1   3
HETATM    3  N1  UNL     1      16.912   9.436  45.279  1.00  0.00    -0.264 N 
HETATM    4  C1  UNL     1      15.971   9.300  44.245  1.00  0.00     0.293 C 
HETATM    5  O1  UNL     1      15.411   8.185  44.090  1.00  0.00    -0.264 OA
ATOM      6  H1  UNL     1      17.370  10.337  45.420  1.00  0.00     0.190 HD
BRANCH   4   7
HETATM    7  C8  UNL     1      15.641  10.436  43.350  1.00  0.00     0.144 A 
HETATM    8  C9  UNL     1      16.009  11.751  43.539  1.00  0.00     0.045 A 
HETATM    9  C10 UNL     1      15.494  12.460  42.478  1.00  0.00     0.027 A 
HETATM   10  C11 UNL     1      14.828  11.558  41.675  1.00  0.00     0.143 A 
HETATM   11  O4  UNL     1      14.954  10.396  42.243  1.00  0.00    -0.317 OA
ENDBRANCH   4   7
ENDBRANCH   1   3
BRANCH   1  12
HETATM   12  C2  UNL     1      18.349   7.545  45.942  1.00  0.00     0.081 A 
HETATM   13  C3  UNL     1      18.855   7.426  44.647  1.00  0.00     0.033 A 
HETATM   14  C4  UNL     1      19.949   6.643  44.335  1.00  0.00     0.002 A 
HETATM   15  C5  UNL     1      20.568   5.946  45.362  1.00  0.00     0.003 A 
HETATM   16  C6  UNL     1      20.094   6.042  46.645  1.00  0.00     0.038 A 
HETATM   17  C7  UNL     1      18.975   6.849  46.946  1.00  0.00     0.130 A 
BRANCH  17  18
HETATM   18  N3  UNL     1      18.549   6.912  48.295  1.00  0.00    -0.113 N 
HETATM   19  O2  UNL     1      18.292   7.964  48.853  1.00  0.00    -0.532 OA
HETATM   20  O3  UNL     1      18.477   5.679  48.956  1.00  0.00    -0.532 OA
ENDBRANCH  17  18
ENDBRANCH   1  12
TORSDOF 4
ENDMDL
MODEL 2
REMARK VINA RESULT: -8.641317949      2.070      2.487
REMARK  4 active torsions:
REMARK  status: ('A' for Active; 'I' for Inactive)
REMARK       I    between atoms: C1_2  and  N1_3 
REMARK    1  A    between atoms: C1_2  and  C8_16 
REMARK    2  A    between atoms: N1_3  and  N2_5 
REMARK    3  A    between atoms: N2_5  and  C2_7 
REMARK    4  A    between atoms: C7_12  and  N3_13 
ROOT
HETATM    1  N2  UNL     1      17.987   7.593  44.533  1.00  0.00    -0.295 N 
ATOM      2  H2  UNL     1      17.915   6.793  43.903  1.00  0.00     0.187 HD
ENDROOT
BRANCH   1   3
HETATM    3  N1  UNL     1      17.617   8.838  44.046  1.00  0.00    -0.264 N 
HETATM    4  C1  UNL     1      16.274   9.160  43.787  1.00  0.00     0.293 C 
HETATM    5  O1  UNL     1      15.397   8.288  44.014  1.00  0.00    -0.264 OA
ATOM      6  H1  UNL     1      18.338   9.539  43.871  1.00  0.00     0.190 HD
BRANCH   4   7
HETATM    7  C8  UNL     1      15.889  10.490  43.256  1.00  0.00     0.144 A 
HETATM    8  C9  UNL     1      16.093  11.703  43.881  1.00  0.00     0.045 A 
HETATM    9  C10 UNL     1      15.586  12.668  43.042  1.00  0.00     0.027 A 
HETATM   10  C11 UNL     1      15.087  12.016  41.932  1.00  0.00     0.143 A 
HETATM   11  O4  UNL     1      15.298  10.749  42.124  1.00  0.00    -0.317 OA
ENDBRANCH   4   7
ENDBRANCH   1   3
BRANCH   1  12
HETATM   12  C2  UNL     1      18.453   7.361  45.835  1.00  0.00     0.081 A 
HETATM   13  C3  UNL     1      17.742   7.957  46.877  1.00  0.00     0.033 A 
HETATM   14  C4  UNL     1      18.090   7.810  48.205  1.00  0.00     0.002 A 
HETATM   15  C5  UNL     1      19.196   7.031  48.509  1.00  0.00     0.003 A 
HETATM   16  C6  UNL     1      19.914   6.432  47.507  1.00  0.00     0.038 A 
HETATM   17  C7  UNL     1      19.544   6.592  46.154  1.00  0.00     0.130 A 
BRANCH  17  18
HETATM   18  N3  UNL     1      20.324   5.934  45.173  1.00  0.00    -0.113 N 
HETATM   19  O2  UNL     1      20.407   6.332  44.025  1.00  0.00    -0.532 OA
HETATM   20  O3  UNL     1      20.966   4.767  45.606  1.00  0.00    -0.532 OA
ENDBRANCH  17  18
ENDBRANCH   1  12
TORSDOF 4
ENDMDL
MODEL 3
REMARK VINA RESULT: -8.252257531      4.534      6.822
REMARK  4 active torsions:
REMARK  status: ('A' for Active; 'I' for Inactive)
REMARK       I    between atoms: C1_2  and  N1_3 
REMARK    1  A    between atoms: C1_2  and  C8_16 
REMARK    2  A    between atoms: N1_3  and  N2_5 
REMARK    3  A    between atoms: N2_5  and  C2_7 
REMARK    4  A    between atoms: C7_12  and  N3_13 
ROOT
HETATM    1  N2  UNL     1      22.467   5.191  48.869  1.00  0.00    -0.295 N 
ATOM      2  H2  UNL     1      22.318   4.224  49.160  1.00  0.00     0.187 HD
ENDROOT
BRANCH   1   3
HETATM    3  N1  UNL     1      21.864   5.615  47.694  1.00  0.00    -0.264 N 
HETATM    4  C1  UNL     1      20.495   5.927  47.638  1.00  0.00     0.293 C 
HETATM    5  O1  UNL     1      19.815   5.819  48.690  1.00  0.00    -0.264 OA
ATOM      6  H1  UNL     1      22.429   5.703  46.848  1.00  0.00     0.190 HD
BRANCH   4   7
HETATM    7  C8  UNL     1      19.857   6.370  46.375  1.00  0.00     0.144 A 
HETATM    8  C9  UNL     1      20.299   6.087  45.100  1.00  0.00     0.045 A 
HETATM    9  C10 UNL     1      19.417   6.691  44.234  1.00  0.00     0.027 A 
HETATM   10  C11 UNL     1      18.463   7.323  45.006  1.00  0.00     0.143 A 
HETATM   11  O4  UNL     1      18.782   7.094  46.244  1.00  0.00    -0.317 OA
ENDBRANCH   4   7
ENDBRANCH   1   3
BRANCH   1  12
HETATM   12  C2  UNL     1      23.269   6.003  49.683  1.00  0.00     0.081 A 
HETATM   13  C3  UNL     1      23.332   7.359  49.359  1.00  0.00     0.033 A 
HETATM   14  C4  UNL     1      24.080   8.270  50.077  1.00  0.00     0.002 A 
HETATM   15  C5  UNL     1      24.799   7.809  51.170  1.00  0.00     0.003 A 
HETATM   16  C6  UNL     1      24.758   6.483  51.513  1.00  0.00     0.038 A 
HETATM   17  C7  UNL     1      23.986   5.565  50.769  1.00  0.00     0.130 A 
BRANCH  17  18
HETATM   18  N3  UNL     1      23.979   4.213  51.189  1.00  0.00    -0.113 N 
HETATM   19  O2  UNL     1      23.030   3.472  51.001  1.00  0.00    -0.532 OA
HETATM   20  O3  UNL     1      25.128   3.794  51.872  1.00  0.00    -0.532 OA
ENDBRANCH  17  18
ENDBRANCH   1  12
TORSDOF 4
ENDMDL
MODEL 4
REMARK VINA RESULT: -8.132035174      3.695      7.496
REMARK  4 active torsions:
REMARK  status: ('A' for Active; 'I' for Inactive)
REMARK       I    between atoms: C1_2  and  N1_3 
REMARK    1  A    between atoms: C1_2  and  C8_16 
REMARK    2  A    between atoms: N1_3  and  N2_5 
REMARK    3  A    between atoms: N2_5  and  C2_7 
REMARK    4  A    between atoms: C7_12  and  N3_13 
ROOT
HETATM    1  N2  UNL     1      20.912   5.410  47.210  1.00  0.00    -0.295 N 
ATOM      2  H2  UNL     1      20.533   4.587  47.680  1.00  0.00     0.187 HD
ENDROOT
BRANCH   1   3
HETATM    3  N1  UNL     1      22.259   5.693  47.384  1.00  0.00    -0.264 N 
HETATM    4  C1  UNL     1      22.714   6.496  48.444  1.00  0.00     0.293 C 
HETATM    5  O1  UNL     1      21.865   6.957  49.250  1.00  0.00    -0.264 OA
ATOM      6  H1  UNL     1      22.937   5.309  46.725  1.00  0.00     0.190 HD
BRANCH   4   7
HETATM    7  C8  UNL     1      24.155   6.802  48.615  1.00  0.00     0.144 A 
HETATM    8  C9  UNL     1      24.711   8.060  48.705  1.00  0.00     0.045 A 
HETATM    9  C10 UNL     1      26.067   7.881  48.857  1.00  0.00     0.027 A 
HETATM   10  C11 UNL     1      26.297   6.520  48.854  1.00  0.00     0.143 A 
HETATM   11  O4  UNL     1      25.137   5.952  48.710  1.00  0.00    -0.317 OA
ENDBRANCH   4   7
ENDBRANCH   1   3
BRANCH   1  12
HETATM   12  C2  UNL     1      20.037   6.180  46.432  1.00  0.00     0.081 A 
HETATM   13  C3  UNL     1      20.296   6.242  45.062  1.00  0.00     0.033 A 
HETATM   14  C4  UNL     1      19.514   6.961  44.180  1.00  0.00     0.002 A 
HETATM   15  C5  UNL     1      18.422   7.650  44.687  1.00  0.00     0.003 A 
HETATM   16  C6  UNL     1      18.142   7.609  46.028  1.00  0.00     0.038 A 
HETATM   17  C7  UNL     1      18.952   6.867  46.915  1.00  0.00     0.130 A 
BRANCH  17  18
HETATM   18  N3  UNL     1      18.595   6.858  48.285  1.00  0.00    -0.113 N 
HETATM   19  O2  UNL     1      18.304   7.873  48.894  1.00  0.00    -0.532 OA
HETATM   20  O3  UNL     1      18.635   5.602  48.904  1.00  0.00    -0.532 OA
ENDBRANCH  17  18
ENDBRANCH   1  12
TORSDOF 4
ENDMDL
MODEL 5
REMARK VINA RESULT: -8.100448155      4.453      6.771
REMARK  4 active torsions:
REMARK  status: ('A' for Active; 'I' for Inactive)
REMARK       I    between atoms: C1_2  and  N1_3 
REMARK    1  A    between atoms: C1_2  and  C8_16 
REMARK    2  A    between atoms: N1_3  and  N2_5 
REMARK    3  A    between atoms: N2_5  and  C2_7 
REMARK    4  A    between atoms: C7_12  and  N3_13 
ROOT
HETATM    1  N2  UNL     1      22.276   5.100  48.937  1.00  0.00    -0.295 N 
ATOM      2  H2  UNL     1      22.890   5.822  49.315  1.00  0.00     0.187 HD
ENDROOT
BRANCH   1   3
HETATM    3  N1  UNL     1      21.629   5.361  47.738  1.00  0.00    -0.264 N 
HETATM    4  C1  UNL     1      20.549   6.257  47.662  1.00  0.00     0.293 C 
HETATM    5  O1  UNL     1      20.176   6.833  48.716  1.00  0.00    -0.264 OA
ATOM      6  H1  UNL     1      21.945   4.891  46.889  1.00  0.00     0.190 HD
BRANCH   4   7
HETATM    7  C8  UNL     1      19.857   6.522  46.377  1.00  0.00     0.144 A 
HETATM    8  C9  UNL     1      20.297   6.145  45.126  1.00  0.00     0.045 A 
HETATM    9  C10 UNL     1      19.356   6.591  44.227  1.00  0.00     0.027 A 
HETATM   10  C11 UNL     1      18.371   7.227  44.956  1.00  0.00     0.143 A 
HETATM   11  O4  UNL     1      18.728   7.148  46.203  1.00  0.00    -0.317 OA
ENDBRANCH   4   7
ENDBRANCH   1   3
BRANCH   1  12
HETATM   12  C2  UNL     1      22.141   3.909  49.665  1.00  0.00     0.081 A 
HETATM   13  C3  UNL     1      21.173   3.005  49.226  1.00  0.00     0.033 A 
HETATM   14  C4  UNL     1      20.936   1.796  49.847  1.00  0.00     0.002 A 
HETATM   15  C5  UNL     1      21.701   1.470  50.957  1.00  0.00     0.003 A 
HETATM   16  C6  UNL     1      22.660   2.337  51.413  1.00  0.00     0.038 A 
HETATM   17  C7  UNL     1      22.889   3.570  50.764  1.00  0.00     0.130 A 
BRANCH  17  18
HETATM   18  N3  UNL     1      23.905   4.410  51.281  1.00  0.00    -0.113 N 
HETATM   19  O2  UNL     1      23.860   5.624  51.194  1.00  0.00    -0.532 OA
HETATM   20  O3  UNL     1      24.988   3.744  51.868  1.00  0.00    -0.532 OA
ENDBRANCH  17  18
ENDBRANCH   1  12
TORSDOF 4
ENDMDL
