MODEL 1
REMARK VINA RESULT: -6.328433135      0.000      0.000
REMARK  5 active torsions:
REMARK  status: ('A' for Active; 'I' for Inactive)
REMARK    1  A    between atoms: C2_2  and  N1_3 
REMARK    2  A    between atoms: N1_3  and  C3_5 
REMARK    3  A    between atoms: C6_10  and  N3_11 
REMARK    4  A    between atoms: N3_11  and  C7_13 
REMARK    5  A    between atoms: C7_13  and  C8_14 
ROOT
HETATM    1  C3  UNL     1      19.931  19.221  -6.590  1.00  0.00     0.679 A 
HETATM    2  N2  UNL     1      20.079  18.927  -7.891  1.00  0.00    -0.202 N 
ATOM      3  H2  UNL     1      20.458  18.016  -8.149  1.00  0.00     0.183 HD
HETATM    4  C4  UNL     1      19.746  19.787  -8.860  1.00  0.00     0.110 A 
HETATM    5  C5  UNL     1      19.230  21.028  -8.575  1.00  0.00     0.066 A 
HETATM    6  C6  UNL     1      19.068  21.351  -7.218  1.00  0.00     0.118 A 
HETATM    7  N5  UNL     1      19.417  20.455  -6.298  1.00  0.00    -0.177 N 
ATOM      8  H5  UNL     1      19.295  20.702  -5.317  1.00  0.00     0.185 HD
ENDROOT
BRANCH   6   9
HETATM    9  N3  UNL     1      18.593  22.493  -6.949  1.00  0.00    -0.372 N 
ATOM     10  H3  UNL     1      18.992  22.993  -6.154  1.00  0.00     0.161 HD
BRANCH   9  11
HETATM   11  C7  UNL     1      17.545  23.133  -7.667  1.00  0.00     0.160 C 
BRANCH  11  12
HETATM   12  C8  UNL     1      16.232  22.520  -7.278  1.00  0.00    -0.038 A 
HETATM   13  C9  UNL     1      15.348  22.165  -8.297  1.00  0.00     0.025 A 
HETATM   14  C10 UNL     1      14.149  21.606  -7.911  1.00  0.00     0.088 A 
HETATM   15  N4  UNL     1      13.835  21.407  -6.618  1.00  0.00    -0.375 N 
HETATM   16  C11 UNL     1      14.667  21.738  -5.616  1.00  0.00     0.088 A 
ATOM     17  H4  UNL     1      12.933  20.989  -6.390  1.00  0.00     0.164 HD
HETATM   18  C12 UNL     1      15.877  22.300  -5.964  1.00  0.00     0.025 A 
ENDBRANCH  11  12
ENDBRANCH   9  11
ENDBRANCH   6   9
BRANCH   1  19
HETATM   19  N1  UNL     1      20.246  18.406  -5.632  1.00  0.00    -0.226 N 
ATOM     20  H1  UNL     1      21.169  18.464  -5.203  1.00  0.00     0.177 HD
BRANCH  19  21
HETATM   21  C2  UNL     1      19.300  17.415  -5.164  1.00  0.00     0.133 C 
HETATM   22  C1  UNL     1      18.872  17.733  -3.744  1.00  0.00     0.027 C 
ENDBRANCH  19  21
ENDBRANCH   1  19
TORSDOF 5
ENDMDL
MODEL 2
REMARK VINA RESULT: -6.313076974      2.033      6.397
REMARK  5 active torsions:
REMARK  status: ('A' for Active; 'I' for Inactive)
REMARK    1  A    between atoms: C2_2  and  N1_3 
REMARK    2  A    between atoms: N1_3  and  C3_5 
REMARK    3  A    between atoms: C6_10  and  N3_11 
REMARK    4  A    between atoms: N3_11  and  C7_13 
REMARK    5  A    between atoms: C7_13  and  C8_14 
ROOT
HETATM    1  C3  UNL     1      13.914  22.007  -9.316  1.00  0.00     0.679 A 
HETATM    2  N2  UNL     1      13.394  21.046  -8.538  1.00  0.00    -0.202 N 
ATOM      3  H2  UNL     1      12.560  20.552  -8.855  1.00  0.00     0.183 HD
HETATM    4  C4  UNL     1      13.932  20.712  -7.359  1.00  0.00     0.110 A 
HETATM    5  C5  UNL     1      15.056  21.340  -6.877  1.00  0.00     0.066 A 
HETATM    6  C6  UNL     1      15.612  22.349  -7.681  1.00  0.00     0.118 A 
HETATM    7  N5  UNL     1      15.032  22.637  -8.844  1.00  0.00    -0.177 N 
ATOM      8  H5  UNL     1      15.446  23.371  -9.418  1.00  0.00     0.185 HD
ENDROOT
BRANCH   6   9
HETATM    9  N3  UNL     1      16.647  22.931  -7.244  1.00  0.00    -0.372 N 
ATOM     10  H3  UNL     1      16.626  23.265  -6.280  1.00  0.00     0.161 HD
BRANCH   9  11
HETATM   11  C7  UNL     1      17.836  23.157  -7.990  1.00  0.00     0.160 C 
BRANCH  11  12
HETATM   12  C8  UNL     1      18.666  21.906  -7.989  1.00  0.00    -0.038 A 
HETATM   13  C9  UNL     1      19.166  21.453  -6.768  1.00  0.00     0.025 A 
HETATM   14  C10 UNL     1      19.926  20.304  -6.797  1.00  0.00     0.088 A 
HETATM   15  N4  UNL     1      20.180  19.642  -7.941  1.00  0.00    -0.375 N 
HETATM   16  C11 UNL     1      19.712  20.055  -9.131  1.00  0.00     0.088 A 
ATOM     17  H4  UNL     1      20.749  18.797  -7.903  1.00  0.00     0.164 HD
HETATM   18  C12 UNL     1      18.946  21.202  -9.141  1.00  0.00     0.025 A 
ENDBRANCH  11  12
ENDBRANCH   9  11
ENDBRANCH   6   9
BRANCH   1  19
HETATM   19  N1  UNL     1      13.411  22.350 -10.462  1.00  0.00    -0.226 N 
ATOM     20  H1  UNL     1      13.245  21.638 -11.173  1.00  0.00     0.177 HD
BRANCH  19  21
HETATM   21  C2  UNL     1      13.083  23.732 -10.741  1.00  0.00     0.133 C 
HETATM   22  C1  UNL     1      11.927  24.180  -9.867  1.00  0.00     0.027 C 
ENDBRANCH  19  21
ENDBRANCH   1  19
TORSDOF 5
ENDMDL
MODEL 3
REMARK VINA RESULT: -6.304938286      0.063      1.154
REMARK  5 active torsions:
REMARK  status: ('A' for Active; 'I' for Inactive)
REMARK    1  A    between atoms: C2_2  and  N1_3 
REMARK    2  A    between atoms: N1_3  and  C3_5 
REMARK    3  A    between atoms: C6_10  and  N3_11 
REMARK    4  A    between atoms: N3_11  and  C7_13 
REMARK    5  A    between atoms: C7_13  and  C8_14 
ROOT
HETATM    1  C3  UNL     1      19.925  19.255  -6.597  1.00  0.00     0.679 A 
HETATM    2  N2  UNL     1      20.088  18.983  -7.900  1.00  0.00    -0.202 N 
ATOM      3  H2  UNL     1      20.486  18.082  -8.169  1.00  0.00     0.183 HD
HETATM    4  C4  UNL     1      19.749  19.851  -8.860  1.00  0.00     0.110 A 
HETATM    5  C5  UNL     1      19.209  21.079  -8.560  1.00  0.00     0.066 A 
HETATM    6  C6  UNL     1      19.031  21.379  -7.200  1.00  0.00     0.118 A 
HETATM    7  N5  UNL     1      19.388  20.475  -6.291  1.00  0.00    -0.177 N 
ATOM      8  H5  UNL     1      19.254  20.705  -5.307  1.00  0.00     0.185 HD
ENDROOT
BRANCH   6   9
HETATM    9  N3  UNL     1      18.535  22.508  -6.917  1.00  0.00    -0.372 N 
ATOM     10  H3  UNL     1      18.904  22.993  -6.100  1.00  0.00     0.161 HD
BRANCH   9  11
HETATM   11  C7  UNL     1      17.500  23.153  -7.650  1.00  0.00     0.160 C 
BRANCH  11  12
HETATM   12  C8  UNL     1      16.184  22.514  -7.316  1.00  0.00    -0.038 A 
HETATM   13  C9  UNL     1      15.862  22.342  -5.970  1.00  0.00     0.025 A 
HETATM   14  C10 UNL     1      14.649  21.750  -5.694  1.00  0.00     0.088 A 
HETATM   15  N4  UNL     1      13.807  21.354  -6.666  1.00  0.00    -0.375 N 
HETATM   16  C11 UNL     1      14.091  21.507  -7.970  1.00  0.00     0.088 A 
ATOM     17  H4  UNL     1      12.922  20.921  -6.402  1.00  0.00     0.164 HD
HETATM   18  C12 UNL     1      15.297  22.096  -8.286  1.00  0.00     0.025 A 
ENDBRANCH  11  12
ENDBRANCH   9  11
ENDBRANCH   6   9
BRANCH   1  19
HETATM   19  N1  UNL     1      20.247  18.431  -5.648  1.00  0.00    -0.226 N 
ATOM     20  H1  UNL     1      21.174  18.483  -5.227  1.00  0.00     0.177 HD
BRANCH  19  21
HETATM   21  C2  UNL     1      19.303  17.437  -5.181  1.00  0.00     0.133 C 
HETATM   22  C1  UNL     1      18.903  17.733  -3.747  1.00  0.00     0.027 C 
ENDBRANCH  19  21
ENDBRANCH   1  19
TORSDOF 5
ENDMDL
MODEL 4
REMARK VINA RESULT: -6.292823824      2.022      6.287
REMARK  5 active torsions:
REMARK  status: ('A' for Active; 'I' for Inactive)
REMARK    1  A    between atoms: C2_2  and  N1_3 
REMARK    2  A    between atoms: N1_3  and  C3_5 
REMARK    3  A    between atoms: C6_10  and  N3_11 
REMARK    4  A    between atoms: N3_11  and  C7_13 
REMARK    5  A    between atoms: C7_13  and  C8_14 
ROOT
HETATM    1  C3  UNL     1      13.924  22.003  -9.310  1.00  0.00     0.679 A 
HETATM    2  N2  UNL     1      13.408  21.041  -8.530  1.00  0.00    -0.202 N 
ATOM      3  H2  UNL     1      12.571  20.549  -8.843  1.00  0.00     0.183 HD
HETATM    4  C4  UNL     1      13.953  20.706  -7.354  1.00  0.00     0.110 A 
HETATM    5  C5  UNL     1      15.080  21.332  -6.878  1.00  0.00     0.066 A 
HETATM    6  C6  UNL     1      15.632  22.341  -7.684  1.00  0.00     0.118 A 
HETATM    7  N5  UNL     1      15.046  22.631  -8.843  1.00  0.00    -0.177 N 
ATOM      8  H5  UNL     1      15.458  23.365  -9.419  1.00  0.00     0.185 HD
ENDROOT
BRANCH   6   9
HETATM    9  N3  UNL     1      16.670  22.921  -7.252  1.00  0.00    -0.372 N 
ATOM     10  H3  UNL     1      16.647  23.274  -6.295  1.00  0.00     0.161 HD
BRANCH   9  11
HETATM   11  C7  UNL     1      17.866  23.121  -7.996  1.00  0.00     0.160 C 
BRANCH  11  12
HETATM   12  C8  UNL     1      18.682  21.861  -7.968  1.00  0.00    -0.038 A 
HETATM   13  C9  UNL     1      18.972  21.242  -9.184  1.00  0.00     0.025 A 
HETATM   14  C10 UNL     1      19.720  20.087  -9.129  1.00  0.00     0.088 A 
HETATM   15  N4  UNL     1      20.156  19.570  -7.965  1.00  0.00    -0.375 N 
HETATM   16  C11 UNL     1      19.892  20.145  -6.780  1.00  0.00     0.088 A 
ATOM     17  H4  UNL     1      20.706  18.712  -7.985  1.00  0.00     0.164 HD
HETATM   18  C12 UNL     1      19.145  21.304  -6.796  1.00  0.00     0.025 A 
ENDBRANCH  11  12
ENDBRANCH   9  11
ENDBRANCH   6   9
BRANCH   1  19
HETATM   19  N1  UNL     1      13.415  22.347 -10.452  1.00  0.00    -0.226 N 
ATOM     20  H1  UNL     1      13.245  21.637 -11.164  1.00  0.00     0.177 HD
BRANCH  19  21
HETATM   21  C2  UNL     1      13.086  23.730 -10.728  1.00  0.00     0.133 C 
HETATM   22  C1  UNL     1      11.930  24.174  -9.853  1.00  0.00     0.027 C 
ENDBRANCH  19  21
ENDBRANCH   1  19
TORSDOF 5
ENDMDL
MODEL 5
REMARK VINA RESULT: -6.206274375      1.209      1.540
REMARK  5 active torsions:
REMARK  status: ('A' for Active; 'I' for Inactive)
REMARK    1  A    between atoms: C2_2  and  N1_3 
REMARK    2  A    between atoms: N1_3  and  C3_5 
REMARK    3  A    between atoms: C6_10  and  N3_11 
REMARK    4  A    between atoms: N3_11  and  C7_13 
REMARK    5  A    between atoms: C7_13  and  C8_14 
ROOT
HETATM    1  C3  UNL     1      19.372  17.883  -5.402  1.00  0.00     0.679 A 
HETATM    2  N2  UNL     1      19.595  17.574  -6.688  1.00  0.00    -0.202 N 
ATOM      3  H2  UNL     1      19.765  16.600  -6.938  1.00  0.00     0.183 HD
HETATM    4  C4  UNL     1      19.601  18.500  -7.655  1.00  0.00     0.110 A 
HETATM    5  C5  UNL     1      19.378  19.827  -7.381  1.00  0.00     0.066 A 
HETATM    6  C6  UNL     1      19.143  20.167  -6.039  1.00  0.00     0.118 A 
HETATM    7  N5  UNL     1      19.149  19.203  -5.122  1.00  0.00    -0.177 N 
ATOM      8  H5  UNL     1      18.976  19.463  -4.151  1.00  0.00     0.185 HD
ENDROOT
BRANCH   6   9
HETATM    9  N3  UNL     1      18.936  21.388  -5.780  1.00  0.00    -0.372 N 
ATOM     10  H3  UNL     1      19.209  21.726  -4.858  1.00  0.00     0.161 HD
BRANCH   9  11
HETATM   11  C7  UNL     1      18.351  22.327  -6.675  1.00  0.00     0.160 C 
BRANCH  11  12
HETATM   12  C8  UNL     1      16.867  22.109  -6.722  1.00  0.00    -0.038 A 
HETATM   13  C9  UNL     1      16.251  22.062  -7.972  1.00  0.00     0.025 A 
HETATM   14  C10 UNL     1      14.888  21.863  -7.984  1.00  0.00     0.088 A 
HETATM   15  N4  UNL     1      14.175  21.718  -6.852  1.00  0.00    -0.375 N 
HETATM   16  C11 UNL     1      14.742  21.758  -5.635  1.00  0.00     0.088 A 
ATOM     17  H4  UNL     1      13.168  21.572  -6.922  1.00  0.00     0.164 HD
HETATM   18  C12 UNL     1      16.105  21.956  -5.583  1.00  0.00     0.025 A 
ENDBRANCH  11  12
ENDBRANCH   9  11
ENDBRANCH   6   9
BRANCH   1  19
HETATM   19  N1  UNL     1      19.361  17.006  -4.447  1.00  0.00    -0.226 N 
ATOM     20  H1  UNL     1      19.622  16.040  -4.646  1.00  0.00     0.177 HD
BRANCH  19  21
HETATM   21  C2  UNL     1      18.982  17.383  -3.101  1.00  0.00     0.133 C 
HETATM   22  C1  UNL     1      19.402  16.305  -2.121  1.00  0.00     0.027 C 
ENDBRANCH  19  21
ENDBRANCH   1  19
TORSDOF 5
ENDMDL
