MODEL 1
REMARK VINA RESULT: -6.361972994      0.000      0.000
REMARK  5 active torsions:
REMARK  status: ('A' for Active; 'I' for Inactive)
REMARK    1  A    between atoms: N1_1  and  C1_5 
REMARK    2  A    between atoms: C1_5  and  C2_6 
REMARK    3  A    between atoms: C2_6  and  C3_7 
REMARK    4  A    between atoms: N2_8  and  C4_10 
REMARK    5  A    between atoms: N4_14  and  O1_15 
ROOT
HETATM    1  C4  UNL     1      17.937  20.804  -5.312  1.00  0.00     0.118 A 
HETATM    2  N3  UNL     1      16.783  21.563  -5.205  1.00  0.00    -0.336 N 
ATOM      3  H3  UNL     1      16.298  21.585  -4.308  1.00  0.00     0.168 HD
HETATM    4  C5  UNL     1      16.280  22.264  -6.214  1.00  0.00     0.215 A 
HETATM    5  N4  UNL     1      16.870  22.280  -7.417  1.00  0.00    -0.220 N 
HETATM    6  C6  UNL     1      17.992  21.571  -7.605  1.00  0.00     0.077 A 
HETATM    7  C7  UNL     1      18.620  21.569  -8.835  1.00  0.00     0.033 A 
HETATM    8  C8  UNL     1      19.761  20.859  -9.054  1.00  0.00     0.002 A 
HETATM    9  C9  UNL     1      20.296  20.123  -8.012  1.00  0.00     0.001 A 
HETATM   10  C10 UNL     1      19.695  20.101  -6.766  1.00  0.00     0.017 A 
HETATM   11  C11 UNL     1      18.542  20.820  -6.548  1.00  0.00     0.037 A 
ENDROOT
BRANCH   1  12
HETATM   12  N2  UNL     1      18.343  20.183  -4.339  1.00  0.00    -0.355 N 
HETATM   13  C3  UNL     1      18.447  19.920  -3.022  1.00  0.00     0.064 C 
ATOM     14  H2  UNL     1      18.929  19.462  -4.760  1.00  0.00     0.166 HD
BRANCH  13  15
HETATM   15  C2  UNL     1      19.355  18.724  -2.670  1.00  0.00     0.072 C 
BRANCH  15  16
HETATM   16  C1  UNL     1      18.675  17.477  -3.199  1.00  0.00     0.234 C 
BRANCH  16  17
HETATM   17  N1  UNL     1      19.398  16.905  -4.294  1.00  0.00    -0.079 N 
ATOM     18  H13 UNL     1      19.327  17.485  -5.131  1.00  0.00     0.274 HD
ATOM     19  H12 UNL     1      20.406  16.963  -4.146  1.00  0.00     0.274 HD
ATOM     20  H11 UNL     1      19.104  15.946  -4.480  1.00  0.00     0.274 HD
ENDBRANCH  16  17
ENDBRANCH  15  16
ENDBRANCH  13  15
ENDBRANCH   1  12
BRANCH   5  21
HETATM   21  O1  UNL     1      16.388  22.986  -8.483  1.00  0.00    -0.282 OA
ATOM     22  H1  UNL     1      16.006  22.578  -9.252  1.00  0.00     0.245 HD
ENDBRANCH   5  21
TORSDOF 5
ENDMDL
MODEL 2
REMARK VINA RESULT: -6.284513846      2.437      3.334
REMARK  5 active torsions:
REMARK  status: ('A' for Active; 'I' for Inactive)
REMARK    1  A    between atoms: N1_1  and  C1_5 
REMARK    2  A    between atoms: C1_5  and  C2_6 
REMARK    3  A    between atoms: C2_6  and  C3_7 
REMARK    4  A    between atoms: N2_8  and  C4_10 
REMARK    5  A    between atoms: N4_14  and  O1_15 
ROOT
HETATM    1  C4  UNL     1      19.268  19.031  -4.888  1.00  0.00     0.118 A 
HETATM    2  N3  UNL     1      19.619  17.751  -5.282  1.00  0.00    -0.336 N 
ATOM      3  H3  UNL     1      19.787  17.049  -4.561  1.00  0.00     0.168 HD
HETATM    4  C5  UNL     1      19.750  17.394  -6.555  1.00  0.00     0.215 A 
HETATM    5  N4  UNL     1      19.542  18.266  -7.550  1.00  0.00    -0.220 N 
HETATM    6  C6  UNL     1      19.198  19.527  -7.254  1.00  0.00     0.077 A 
HETATM    7  C7  UNL     1      18.980  20.447  -8.260  1.00  0.00     0.033 A 
HETATM    8  C8  UNL     1      18.628  21.735  -7.988  1.00  0.00     0.002 A 
HETATM    9  C9  UNL     1      18.490  22.121  -6.667  1.00  0.00     0.001 A 
HETATM   10  C10 UNL     1      18.701  21.228  -5.632  1.00  0.00     0.017 A 
HETATM   11  C11 UNL     1      19.056  19.927  -5.911  1.00  0.00     0.037 A 
ENDROOT
BRANCH   1  12
HETATM   12  N2  UNL     1      19.166  19.289  -3.696  1.00  0.00    -0.355 N 
HETATM   13  C3  UNL     1      18.489  19.486  -2.548  1.00  0.00     0.064 C 
ATOM     14  H2  UNL     1      20.136  19.437  -3.414  1.00  0.00     0.166 HD
BRANCH  13  15
HETATM   15  C2  UNL     1      19.366  19.846  -1.332  1.00  0.00     0.072 C 
BRANCH  15  16
HETATM   16  C1  UNL     1      20.304  18.679  -1.097  1.00  0.00     0.234 C 
BRANCH  16  17
HETATM   17  N1  UNL     1      21.609  18.935  -1.626  1.00  0.00    -0.079 N 
ATOM     18  H13 UNL     1      21.836  18.290  -2.383  1.00  0.00     0.274 HD
ATOM     19  H12 UNL     1      21.633  19.810  -2.150  1.00  0.00     0.274 HD
ATOM     20  H11 UNL     1      22.322  18.917  -0.896  1.00  0.00     0.274 HD
ENDBRANCH  16  17
ENDBRANCH  15  16
ENDBRANCH  13  15
ENDBRANCH   1  12
BRANCH   5  21
HETATM   21  O1  UNL     1      19.664  17.944  -8.872  1.00  0.00    -0.282 OA
ATOM     22  H1  UNL     1      19.829  18.585  -9.555  1.00  0.00     0.245 HD
ENDBRANCH   5  21
TORSDOF 5
ENDMDL
MODEL 3
REMARK VINA RESULT: -6.254973825      1.970      2.930
REMARK  5 active torsions:
REMARK  status: ('A' for Active; 'I' for Inactive)
REMARK    1  A    between atoms: N1_1  and  C1_5 
REMARK    2  A    between atoms: C1_5  and  C2_6 
REMARK    3  A    between atoms: C2_6  and  C3_7 
REMARK    4  A    between atoms: N2_8  and  C4_10 
REMARK    5  A    between atoms: N4_14  and  O1_15 
ROOT
HETATM    1  C4  UNL     1      19.036  19.553  -5.828  1.00  0.00     0.118 A 
HETATM    2  N3  UNL     1      20.307  19.532  -6.378  1.00  0.00    -0.336 N 
ATOM      3  H3  UNL     1      21.015  18.940  -5.943  1.00  0.00     0.168 HD
HETATM    4  C5  UNL     1      20.647  20.245  -7.445  1.00  0.00     0.215 A 
HETATM    5  N4  UNL     1      19.764  21.039  -8.065  1.00  0.00    -0.220 N 
HETATM    6  C6  UNL     1      18.511  21.117  -7.596  1.00  0.00     0.077 A 
HETATM    7  C7  UNL     1      17.582  21.929  -8.215  1.00  0.00     0.033 A 
HETATM    8  C8  UNL     1      16.301  22.026  -7.760  1.00  0.00     0.002 A 
HETATM    9  C9  UNL     1      15.933  21.291  -6.649  1.00  0.00     0.001 A 
HETATM   10  C10 UNL     1      16.837  20.466  -6.001  1.00  0.00     0.017 A 
HETATM   11  C11 UNL     1      18.130  20.370  -6.464  1.00  0.00     0.037 A 
ENDROOT
BRANCH   1  12
HETATM   12  N2  UNL     1      18.794  18.869  -4.842  1.00  0.00    -0.355 N 
HETATM   13  C3  UNL     1      18.781  17.726  -4.129  1.00  0.00     0.064 C 
ATOM     14  H2  UNL     1      18.360  19.537  -4.205  1.00  0.00     0.166 HD
BRANCH  13  15
HETATM   15  C2  UNL     1      18.152  17.845  -2.726  1.00  0.00     0.072 C 
BRANCH  15  16
HETATM   16  C1  UNL     1      19.056  17.098  -1.766  1.00  0.00     0.234 C 
BRANCH  16  17
HETATM   17  N1  UNL     1      19.704  15.991  -2.402  1.00  0.00    -0.079 N 
ATOM     18  H13 UNL     1      19.067  15.498  -3.029  1.00  0.00     0.274 HD
ATOM     19  H12 UNL     1      20.391  16.305  -3.087  1.00  0.00     0.274 HD
ATOM     20  H11 UNL     1      20.120  15.356  -1.721  1.00  0.00     0.274 HD
ENDBRANCH  16  17
ENDBRANCH  15  16
ENDBRANCH  13  15
ENDBRANCH   1  12
BRANCH   5  21
HETATM   21  O1  UNL     1      20.069  21.791  -9.165  1.00  0.00    -0.282 OA
ATOM     22  H1  UNL     1      19.642  21.684 -10.007  1.00  0.00     0.245 HD
ENDBRANCH   5  21
TORSDOF 5
ENDMDL
MODEL 4
REMARK VINA RESULT: -6.213278315      1.059      1.213
REMARK  5 active torsions:
REMARK  status: ('A' for Active; 'I' for Inactive)
REMARK    1  A    between atoms: N1_1  and  C1_5 
REMARK    2  A    between atoms: C1_5  and  C2_6 
REMARK    3  A    between atoms: C2_6  and  C3_7 
REMARK    4  A    between atoms: N2_8  and  C4_10 
REMARK    5  A    between atoms: N4_14  and  O1_15 
ROOT
HETATM    1  C4  UNL     1      17.949  20.767  -5.252  1.00  0.00     0.118 A 
HETATM    2  N3  UNL     1      16.781  21.502  -5.141  1.00  0.00    -0.336 N 
ATOM      3  H3  UNL     1      16.296  21.512  -4.243  1.00  0.00     0.168 HD
HETATM    4  C5  UNL     1      16.262  22.195  -6.148  1.00  0.00     0.215 A 
HETATM    5  N4  UNL     1      16.849  22.226  -7.351  1.00  0.00    -0.220 N 
HETATM    6  C6  UNL     1      17.984  21.540  -7.543  1.00  0.00     0.077 A 
HETATM    7  C7  UNL     1      18.610  21.554  -8.774  1.00  0.00     0.033 A 
HETATM    8  C8  UNL     1      19.765  20.867  -8.996  1.00  0.00     0.002 A 
HETATM    9  C9  UNL     1      20.317  20.140  -7.958  1.00  0.00     0.001 A 
HETATM   10  C10 UNL     1      19.719  20.102  -6.710  1.00  0.00     0.017 A 
HETATM   11  C11 UNL     1      18.551  20.798  -6.489  1.00  0.00     0.037 A 
ENDROOT
BRANCH   1  12
HETATM   12  N2  UNL     1      18.369  20.152  -4.281  1.00  0.00    -0.355 N 
HETATM   13  C3  UNL     1      18.545  19.934  -2.963  1.00  0.00     0.064 C 
ATOM     14  H2  UNL     1      18.859  19.365  -4.707  1.00  0.00     0.166 HD
BRANCH  13  15
HETATM   15  C2  UNL     1      19.370  18.677  -2.619  1.00  0.00     0.072 C 
BRANCH  15  16
HETATM   16  C1  UNL     1      20.250  19.031  -1.437  1.00  0.00     0.234 C 
BRANCH  16  17
HETATM   17  N1  UNL     1      21.640  18.893  -1.751  1.00  0.00    -0.079 N 
ATOM     18  H13 UNL     1      21.994  17.976  -1.477  1.00  0.00     0.274 HD
ATOM     19  H12 UNL     1      21.788  18.825  -2.759  1.00  0.00     0.274 HD
ATOM     20  H11 UNL     1      22.196  19.644  -1.343  1.00  0.00     0.274 HD
ENDBRANCH  16  17
ENDBRANCH  15  16
ENDBRANCH  13  15
ENDBRANCH   1  12
BRANCH   5  21
HETATM   21  O1  UNL     1      16.351  22.924  -8.415  1.00  0.00    -0.282 OA
ATOM     22  H1  UNL     1      16.727  23.738  -8.730  1.00  0.00     0.245 HD
ENDBRANCH   5  21
TORSDOF 5
ENDMDL
MODEL 5
REMARK VINA RESULT: -6.106037410      1.704      2.837
REMARK  5 active torsions:
REMARK  status: ('A' for Active; 'I' for Inactive)
REMARK    1  A    between atoms: N1_1  and  C1_5 
REMARK    2  A    between atoms: C1_5  and  C2_6 
REMARK    3  A    between atoms: C2_6  and  C3_7 
REMARK    4  A    between atoms: N2_8  and  C4_10 
REMARK    5  A    between atoms: N4_14  and  O1_15 
ROOT
HETATM    1  C4  UNL     1      18.240  20.522  -5.339  1.00  0.00     0.118 A 
HETATM    2  N3  UNL     1      19.094  21.471  -5.875  1.00  0.00    -0.336 N 
ATOM      3  H3  UNL     1      20.064  21.485  -5.560  1.00  0.00     0.168 HD
HETATM    4  C5  UNL     1      18.710  22.362  -6.782  1.00  0.00     0.215 A 
HETATM    5  N4  UNL     1      17.453  22.396  -7.240  1.00  0.00    -0.220 N 
HETATM    6  C6  UNL     1      16.562  21.511  -6.772  1.00  0.00     0.077 A 
HETATM    7  C7  UNL     1      15.258  21.524  -7.226  1.00  0.00     0.033 A 
HETATM    8  C8  UNL     1      14.332  20.636  -6.768  1.00  0.00     0.002 A 
HETATM    9  C9  UNL     1      14.717  19.702  -5.824  1.00  0.00     0.001 A 
HETATM   10  C10 UNL     1      16.014  19.658  -5.344  1.00  0.00     0.017 A 
HETATM   11  C11 UNL     1      16.947  20.557  -5.810  1.00  0.00     0.037 A 
ENDROOT
BRANCH   1  12
HETATM   12  N2  UNL     1      18.663  19.731  -4.507  1.00  0.00    -0.355 N 
HETATM   13  C3  UNL     1      19.307  18.617  -4.105  1.00  0.00     0.064 C 
ATOM     14  H2  UNL     1      18.360  20.146  -3.626  1.00  0.00     0.166 HD
BRANCH  13  15
HETATM   15  C2  UNL     1      19.331  18.398  -2.578  1.00  0.00     0.072 C 
BRANCH  15  16
HETATM   16  C1  UNL     1      18.779  17.011  -2.318  1.00  0.00     0.234 C 
BRANCH  16  17
HETATM   17  N1  UNL     1      19.773  16.000  -2.513  1.00  0.00    -0.079 N 
ATOM     18  H13 UNL     1      20.714  16.380  -2.410  1.00  0.00     0.274 HD
ATOM     19  H12 UNL     1      19.784  15.335  -1.740  1.00  0.00     0.274 HD
ATOM     20  H11 UNL     1      19.658  15.527  -3.409  1.00  0.00     0.274 HD
ENDBRANCH  16  17
ENDBRANCH  15  16
ENDBRANCH  13  15
ENDBRANCH   1  12
BRANCH   5  21
HETATM   21  O1  UNL     1      17.013  23.294  -8.171  1.00  0.00    -0.282 OA
ATOM     22  H1  UNL     1      16.101  23.385  -8.422  1.00  0.00     0.245 HD
ENDBRANCH   5  21
TORSDOF 5
ENDMDL
