MODEL 1
REMARK VINA RESULT: -8.509393777      0.000      0.000
REMARK  1 active torsions:
REMARK  status: ('A' for Active; 'I' for Inactive)
REMARK    1  A    between atoms: C4_5  and  N2_6 
ROOT
HETATM    1  N2  UNL     1      10.276   5.128  22.723  1.00  0.00    -0.321 N 
HETATM    2  C5  UNL     1      10.308   6.257  22.004  1.00  0.00     0.098 A 
HETATM    3  C6  UNL     1      10.111   5.981  20.668  1.00  0.00     0.031 A 
HETATM    4  C7  UNL     1       9.952   4.633  20.549  1.00  0.00    -0.005 A 
HETATM    5  C8  UNL     1       9.729   3.793  19.486  1.00  0.00     0.044 A 
HETATM    6  C9  UNL     1       9.614   2.449  19.710  1.00  0.00     0.048 A 
HETATM    7  C10 UNL     1       9.719   1.935  20.992  1.00  0.00     0.022 A 
HETATM    8  C11 UNL     1       9.941   2.777  22.053  1.00  0.00     0.047 A 
HETATM    9  C12 UNL     1      10.061   4.132  21.854  1.00  0.00     0.050 A 
HETATM   10  C13 UNL     1       9.622   0.536  21.425  1.00  0.00     0.077 A 
HETATM   11  N3  UNL     1       9.624   0.477  22.755  1.00  0.00    -0.306 N 
ATOM     12  H3  UNL     1       9.685   1.320  23.325  1.00  0.00     0.171 HD
HETATM   13  C14 UNL     1       9.540  -0.756  23.317  1.00  0.00     0.324 A 
HETATM   14  O1  UNL     1       9.540  -0.834  24.588  1.00  0.00    -0.247 OA
HETATM   15  N4  UNL     1       9.461  -1.856  22.548  1.00  0.00    -0.317 N 
ATOM     16  H4  UNL     1       9.399  -2.765  23.007  1.00  0.00     0.170 HD
HETATM   17  C15 UNL     1       9.459  -1.818  21.201  1.00  0.00     0.124 A 
HETATM   18  C16 UNL     1       9.542  -0.577  20.602  1.00  0.00     0.078 A 
HETATM   19  N5  UNL     1       9.533  -0.626  19.182  1.00  0.00    -0.327 N 
ATOM     20  H5  UNL     1       9.587  -1.568  18.795  1.00  0.00     0.168 HD
HETATM   21  C17 UNL     1       9.468   0.311  18.289  1.00  0.00     0.193 C 
HETATM   22  N6  UNL     1       9.481  -0.088  16.930  1.00  0.00    -0.063 NA
HETATM   23  N7  UNL     1       9.385   1.720  18.509  1.00  0.00    -0.330 N 
ATOM     24  H7  UNL     1       9.127   2.279  17.696  1.00  0.00     0.168 HD
ENDROOT
BRANCH   1  25
HETATM   25  C4  UNL     1      10.442   5.018  24.145  1.00  0.00     0.041 A 
HETATM   26  C3  UNL     1       9.375   5.027  24.994  1.00  0.00     0.047 A 
HETATM   27  C2  UNL     1       9.545   4.923  26.355  1.00  0.00     0.092 A 
HETATM   28  N1  UNL     1      10.764   4.807  26.913  1.00  0.00    -0.371 N 
HETATM   29  C1  UNL     1      10.933   4.696  28.362  1.00  0.00     0.154 C 
HETATM   30  C19 UNL     1      11.805   4.799  26.068  1.00  0.00     0.092 A 
HETATM   31  C18 UNL     1      11.702   4.900  24.706  1.00  0.00     0.047 A 
ENDBRANCH   1  25
TORSDOF 1
ENDMDL
MODEL 2
REMARK VINA RESULT: -8.489107003      2.763      4.649
REMARK  1 active torsions:
REMARK  status: ('A' for Active; 'I' for Inactive)
REMARK    1  A    between atoms: C4_5  and  N2_6 
ROOT
HETATM    1  N2  UNL     1      10.452   5.055  25.900  1.00  0.00    -0.321 N 
HETATM    2  C5  UNL     1      10.521   4.486  27.109  1.00  0.00     0.098 A 
HETATM    3  C6  UNL     1      10.412   3.116  27.002  1.00  0.00     0.031 A 
HETATM    4  C7  UNL     1      10.268   2.821  25.679  1.00  0.00    -0.005 A 
HETATM    5  C8  UNL     1      10.118   1.650  24.978  1.00  0.00     0.044 A 
HETATM    6  C9  UNL     1       9.996   1.698  23.618  1.00  0.00     0.048 A 
HETATM    7  C10 UNL     1      10.023   2.911  22.948  1.00  0.00     0.022 A 
HETATM    8  C11 UNL     1      10.173   4.080  23.651  1.00  0.00     0.047 A 
HETATM    9  C12 UNL     1      10.298   4.058  25.020  1.00  0.00     0.050 A 
HETATM   10  C13 UNL     1       9.908   3.159  21.506  1.00  0.00     0.077 A 
HETATM   11  N3  UNL     1      10.137   4.446  21.254  1.00  0.00    -0.306 N 
ATOM     12  H3  UNL     1      10.353   5.105  22.001  1.00  0.00     0.171 HD
HETATM   13  C14 UNL     1      10.068   4.842  19.957  1.00  0.00     0.324 A 
HETATM   14  O1  UNL     1      10.283   6.069  19.695  1.00  0.00    -0.247 OA
HETATM   15  N4  UNL     1       9.780   3.958  18.985  1.00  0.00    -0.317 N 
ATOM     16  H4  UNL     1       9.737   4.293  18.022  1.00  0.00     0.170 HD
HETATM   17  C15 UNL     1       9.545   2.652  19.220  1.00  0.00     0.124 A 
HETATM   18  C16 UNL     1       9.609   2.221  20.529  1.00  0.00     0.078 A 
HETATM   19  N5  UNL     1       9.350   0.833  20.688  1.00  0.00    -0.327 N 
ATOM     20  H5  UNL     1       9.036   0.366  19.838  1.00  0.00     0.168 HD
HETATM   21  C17 UNL     1       9.442   0.054  21.719  1.00  0.00     0.193 C 
HETATM   22  N6  UNL     1       9.101  -1.309  21.533  1.00  0.00    -0.063 NA
HETATM   23  N7  UNL     1       9.849   0.404  23.043  1.00  0.00    -0.330 N 
ATOM     24  H7  UNL     1      10.064  -0.380  23.660  1.00  0.00     0.168 HD
ENDROOT
BRANCH   1  25
HETATM   25  C4  UNL     1      10.528   6.461  25.614  1.00  0.00     0.041 A 
HETATM   26  C3  UNL     1       9.513   7.121  24.984  1.00  0.00     0.047 A 
HETATM   27  C2  UNL     1       9.597   8.466  24.714  1.00  0.00     0.092 A 
HETATM   28  N1  UNL     1      10.674   9.196  25.056  1.00  0.00    -0.371 N 
HETATM   29  C1  UNL     1      10.752  10.627  24.764  1.00  0.00     0.154 C 
HETATM   30  C19 UNL     1      11.665   8.536  25.674  1.00  0.00     0.092 A 
HETATM   31  C18 UNL     1      11.643   7.199  25.970  1.00  0.00     0.047 A 
ENDBRANCH   1  25
TORSDOF 1
ENDMDL
MODEL 3
REMARK VINA RESULT: -8.465842639      2.947      5.106
REMARK  1 active torsions:
REMARK  status: ('A' for Active; 'I' for Inactive)
REMARK    1  A    between atoms: C4_5  and  N2_6 
ROOT
HETATM    1  N2  UNL     1      10.514   6.021  26.001  1.00  0.00    -0.321 N 
HETATM    2  C5  UNL     1      10.624   5.617  27.273  1.00  0.00     0.098 A 
HETATM    3  C6  UNL     1      10.566   4.242  27.346  1.00  0.00     0.031 A 
HETATM    4  C7  UNL     1      10.413   3.772  26.076  1.00  0.00    -0.005 A 
HETATM    5  C8  UNL     1      10.298   2.515  25.536  1.00  0.00     0.044 A 
HETATM    6  C9  UNL     1      10.153   2.381  24.184  1.00  0.00     0.048 A 
HETATM    7  C10 UNL     1      10.123   3.496  23.362  1.00  0.00     0.022 A 
HETATM    8  C11 UNL     1      10.239   4.751  23.905  1.00  0.00     0.047 A 
HETATM    9  C12 UNL     1      10.385   4.913  25.262  1.00  0.00     0.050 A 
HETATM   10  C13 UNL     1       9.977   3.550  21.903  1.00  0.00     0.077 A 
HETATM   11  N3  UNL     1      10.151   4.801  21.481  1.00  0.00    -0.306 N 
ATOM     12  H3  UNL     1      10.354   5.559  22.132  1.00  0.00     0.171 HD
HETATM   13  C14 UNL     1      10.048   5.021  20.145  1.00  0.00     0.324 A 
HETATM   14  O1  UNL     1      10.211   6.210  19.722  1.00  0.00    -0.247 OA
HETATM   15  N4  UNL     1       9.779   4.009  19.302  1.00  0.00    -0.317 N 
ATOM     16  H4  UNL     1       9.709   4.213  18.305  1.00  0.00     0.170 HD
HETATM   17  C15 UNL     1       9.599   2.737  19.709  1.00  0.00     0.124 A 
HETATM   18  C16 UNL     1       9.699   2.483  21.062  1.00  0.00     0.078 A 
HETATM   19  N5  UNL     1       9.496   1.119  21.405  1.00  0.00    -0.327 N 
ATOM     20  H5  UNL     1       9.187   0.534  20.629  1.00  0.00     0.168 HD
HETATM   21  C17 UNL     1       9.634   0.485  22.526  1.00  0.00     0.193 C 
HETATM   22  N6  UNL     1       9.343  -0.902  22.525  1.00  0.00    -0.063 NA
HETATM   23  N7  UNL     1      10.047   1.019  23.785  1.00  0.00    -0.330 N 
ATOM     24  H7  UNL     1      10.301   0.331  24.494  1.00  0.00     0.168 HD
ENDROOT
BRANCH   1  25
HETATM   25  C4  UNL     1      10.531   7.380  25.534  1.00  0.00     0.041 A 
HETATM   26  C3  UNL     1      11.596   8.202  25.761  1.00  0.00     0.047 A 
HETATM   27  C2  UNL     1      11.601   9.501  25.311  1.00  0.00     0.092 A 
HETATM   28  N1  UNL     1      10.566  10.023  24.628  1.00  0.00    -0.371 N 
HETATM   29  C1  UNL     1      10.584  11.407  24.153  1.00  0.00     0.154 C 
HETATM   30  C19 UNL     1       9.526   9.205  24.412  1.00  0.00     0.092 A 
HETATM   31  C18 UNL     1       9.459   7.904  24.834  1.00  0.00     0.047 A 
ENDBRANCH   1  25
TORSDOF 1
ENDMDL
MODEL 4
REMARK VINA RESULT: -8.443996251      1.916      6.636
REMARK  1 active torsions:
REMARK  status: ('A' for Active; 'I' for Inactive)
REMARK    1  A    between atoms: C4_5  and  N2_6 
ROOT
HETATM    1  N2  UNL     1      10.013   3.238  20.556  1.00  0.00    -0.321 N 
HETATM    2  C5  UNL     1      10.097   3.858  19.372  1.00  0.00     0.098 A 
HETATM    3  C6  UNL     1      10.146   5.224  19.548  1.00  0.00     0.031 A 
HETATM    4  C7  UNL     1      10.090   5.465  20.888  1.00  0.00    -0.005 A 
HETATM    5  C8  UNL     1      10.100   6.608  21.649  1.00  0.00     0.044 A 
HETATM    6  C9  UNL     1      10.028   6.504  23.010  1.00  0.00     0.048 A 
HETATM    7  C10 UNL     1       9.946   5.263  23.621  1.00  0.00     0.022 A 
HETATM    8  C11 UNL     1       9.936   4.122  22.857  1.00  0.00     0.047 A 
HETATM    9  C12 UNL     1      10.007   4.200  21.487  1.00  0.00     0.050 A 
HETATM   10  C13 UNL     1       9.862   4.955  25.053  1.00  0.00     0.077 A 
HETATM   11  N3  UNL     1       9.954   3.640  25.235  1.00  0.00    -0.306 N 
ATOM     12  H3  UNL     1      10.066   3.000  24.448  1.00  0.00     0.171 HD
HETATM   13  C14 UNL     1       9.894   3.188  26.514  1.00  0.00     0.324 A 
HETATM   14  O1  UNL     1       9.980   1.933  26.708  1.00  0.00    -0.247 OA
HETATM   15  N4  UNL     1       9.746   4.047  27.538  1.00  0.00    -0.317 N 
ATOM     16  H4  UNL     1       9.704   3.670  28.485  1.00  0.00     0.170 HD
HETATM   17  C15 UNL     1       9.650   5.381  27.375  1.00  0.00     0.124 A 
HETATM   18  C16 UNL     1       9.709   5.869  26.085  1.00  0.00     0.078 A 
HETATM   19  N5  UNL     1       9.601   7.283  26.003  1.00  0.00    -0.327 N 
ATOM     20  H5  UNL     1       9.376   7.738  26.887  1.00  0.00     0.168 HD
HETATM   21  C17 UNL     1       9.738   8.099  25.006  1.00  0.00     0.193 C 
HETATM   22  N6  UNL     1       9.560   9.480  25.270  1.00  0.00    -0.063 NA
HETATM   23  N7  UNL     1      10.050   7.775  23.650  1.00  0.00    -0.330 N 
ATOM     24  H7  UNL     1      10.326   8.561  23.061  1.00  0.00     0.168 HD
ENDROOT
BRANCH   1  25
HETATM   25  C4  UNL     1       9.942   1.820  20.772  1.00  0.00     0.041 A 
HETATM   26  C3  UNL     1       8.798   1.217  21.206  1.00  0.00     0.047 A 
HETATM   27  C2  UNL     1       8.742  -0.141  21.412  1.00  0.00     0.092 A 
HETATM   28  N1  UNL     1       9.803  -0.939  21.195  1.00  0.00    -0.371 N 
HETATM   29  C1  UNL     1       9.731  -2.383  21.417  1.00  0.00     0.154 C 
HETATM   30  C19 UNL     1      10.922  -0.335  20.769  1.00  0.00     0.092 A 
HETATM   31  C18 UNL     1      11.042   1.012  20.547  1.00  0.00     0.047 A 
ENDBRANCH   1  25
TORSDOF 1
ENDMDL
MODEL 5
REMARK VINA RESULT: -7.990571317      3.006      3.233
REMARK  1 active torsions:
REMARK  status: ('A' for Active; 'I' for Inactive)
REMARK    1  A    between atoms: C4_5  and  N2_6 
ROOT
HETATM    1  N2  UNL     1      12.601   3.471  22.069  1.00  0.00    -0.321 N 
HETATM    2  C5  UNL     1      13.344   4.526  21.711  1.00  0.00     0.098 A 
HETATM    3  C6  UNL     1      13.904   4.319  20.469  1.00  0.00     0.031 A 
HETATM    4  C7  UNL     1      13.497   3.092  20.037  1.00  0.00    -0.005 A 
HETATM    5  C8  UNL     1      13.729   2.361  18.898  1.00  0.00     0.044 A 
HETATM    6  C9  UNL     1      13.157   1.127  18.770  1.00  0.00     0.048 A 
HETATM    7  C10 UNL     1      12.349   0.614  19.773  1.00  0.00     0.022 A 
HETATM    8  C11 UNL     1      12.119   1.348  20.910  1.00  0.00     0.047 A 
HETATM    9  C12 UNL     1      12.684   2.591  21.064  1.00  0.00     0.050 A 
HETATM   10  C13 UNL     1      11.654  -0.677  19.813  1.00  0.00     0.077 A 
HETATM   11  N3  UNL     1      10.860  -0.725  20.881  1.00  0.00    -0.306 N 
ATOM     12  H3  UNL     1      10.794   0.057  21.531  1.00  0.00     0.171 HD
HETATM   13  C14 UNL     1      10.141  -1.863  21.064  1.00  0.00     0.324 A 
HETATM   14  O1  UNL     1       9.376  -1.928  22.079  1.00  0.00    -0.247 OA
HETATM   15  N4  UNL     1      10.242  -2.885  20.196  1.00  0.00    -0.317 N 
ATOM     16  H4  UNL     1       9.687  -3.723  20.367  1.00  0.00     0.170 HD
HETATM   17  C15 UNL     1      11.041  -2.856  19.111  1.00  0.00     0.124 A 
HETATM   18  C16 UNL     1      11.783  -1.712  18.898  1.00  0.00     0.078 A 
HETATM   19  N5  UNL     1      12.595  -1.764  17.734  1.00  0.00    -0.327 N 
ATOM     20  H5  UNL     1      12.616  -2.677  17.279  1.00  0.00     0.168 HD
HETATM   21  C17 UNL     1      13.315  -0.861  17.147  1.00  0.00     0.193 C 
HETATM   22  N6  UNL     1      14.018  -1.252  15.980  1.00  0.00    -0.063 NA
HETATM   23  N7  UNL     1      13.493   0.502  17.536  1.00  0.00    -0.330 N 
ATOM     24  H7  UNL     1      13.919   1.108  16.836  1.00  0.00     0.168 HD
ENDROOT
BRANCH   1  25
HETATM   25  C4  UNL     1      11.866   3.323  23.294  1.00  0.00     0.041 A 
HETATM   26  C3  UNL     1      10.876   2.393  23.428  1.00  0.00     0.047 A 
HETATM   27  C2  UNL     1      10.177   2.261  24.604  1.00  0.00     0.092 A 
HETATM   28  N1  UNL     1      10.432   3.035  25.675  1.00  0.00    -0.371 N 
HETATM   29  C1  UNL     1       9.682   2.885  26.922  1.00  0.00     0.154 C 
HETATM   30  C19 UNL     1      11.406   3.945  25.531  1.00  0.00     0.092 A 
HETATM   31  C18 UNL     1      12.138   4.126  24.387  1.00  0.00     0.047 A 
ENDBRANCH   1  25
TORSDOF 1
ENDMDL
