MODEL 1
REMARK VINA RESULT: -5.789971593      0.000      0.000
REMARK  5 active torsions:
REMARK  status: ('A' for Active; 'I' for Inactive)
REMARK    1  A    between atoms: C6_6  and  O1_7 
REMARK    2  A    between atoms: C7_9  and  O2_10 
REMARK    3  A    between atoms: C8_12  and  O3_13 
REMARK    4  A    between atoms: C11_17  and  C12_18 
REMARK    5  A    between atoms: C12_18  and  O4_19 
ROOT
HETATM    1  C1  UNL     1     105.841  18.240  15.105  1.00  0.00     0.015 C 
HETATM    2  C2  UNL     1     104.408  17.978  14.614  1.00  0.00    -0.043 C 
HETATM    3  C3  UNL     1     104.218  18.984  13.471  1.00  0.00     0.015 C 
HETATM    4  C4  UNL     1     104.343  16.572  14.147  1.00  0.00     0.012 C 
HETATM    5  C5  UNL     1     103.118  15.817  14.440  1.00  0.00     0.042 C 
HETATM    6  C6  UNL     1     102.382  16.149  15.675  1.00  0.00     0.092 C 
HETATM    7  C7  UNL     1     101.016  16.756  15.323  1.00  0.00     0.181 C 
HETATM    8  C8  UNL     1     101.145  18.095  14.688  1.00  0.00     0.150 C 
HETATM    9  C9  UNL     1     102.187  18.985  15.216  1.00  0.00     0.040 C 
HETATM   10  C10 UNL     1     103.441  18.325  15.708  1.00  0.00     0.005 C 
HETATM   11  C11 UNL     1     103.050  17.163  16.562  1.00  0.00     0.051 C 
ENDROOT
BRANCH  11  12
HETATM   12  C12 UNL     1     104.131  16.579  17.388  1.00  0.00     0.172 C 
BRANCH  12  13
HETATM   13  O4  UNL     1     103.672  16.192  18.636  1.00  0.00    -0.400 OA
ATOM     14  H4  UNL     1     103.367  16.934  19.144  1.00  0.00     0.209 HD
ENDBRANCH  12  13
ENDBRANCH  11  12
BRANCH   6  15
HETATM   15  O1  UNL     1     102.100  15.037  16.475  1.00  0.00    -0.387 OA
ATOM     16  H1  UNL     1     101.258  14.638  16.289  1.00  0.00     0.210 HD
ENDBRANCH   6  15
BRANCH   7  17
HETATM   17  O2  UNL     1     100.218  16.805  16.466  1.00  0.00    -0.390 OA
ATOM     18  H2  UNL     1      99.572  17.495  16.374  1.00  0.00     0.210 HD
ENDBRANCH   7  17
BRANCH   8  19
HETATM   19  O3  UNL     1      99.894  18.741  14.861  1.00  0.00    -0.393 OA
ATOM     20  H3  UNL     1      99.917  19.141  15.722  1.00  0.00     0.210 HD
ENDBRANCH   8  19
TORSDOF 5
ENDMDL
MODEL 2
REMARK VINA RESULT: -5.321603448      1.443      1.686
REMARK  5 active torsions:
REMARK  status: ('A' for Active; 'I' for Inactive)
REMARK    1  A    between atoms: C6_6  and  O1_7 
REMARK    2  A    between atoms: C7_9  and  O2_10 
REMARK    3  A    between atoms: C8_12  and  O3_13 
REMARK    4  A    between atoms: C11_17  and  C12_18 
REMARK    5  A    between atoms: C12_18  and  O4_19 
ROOT
HETATM    1  C1  UNL     1     106.213  20.087  14.147  1.00  0.00     0.015 C 
HETATM    2  C2  UNL     1     104.915  19.283  13.965  1.00  0.00    -0.043 C 
HETATM    3  C3  UNL     1     104.182  20.014  12.832  1.00  0.00     0.015 C 
HETATM    4  C4  UNL     1     105.293  17.899  13.592  1.00  0.00     0.012 C 
HETATM    5  C5  UNL     1     104.497  16.803  14.162  1.00  0.00     0.042 C 
HETATM    6  C6  UNL     1     103.908  17.002  15.500  1.00  0.00     0.092 C 
HETATM    7  C7  UNL     1     102.377  17.046  15.397  1.00  0.00     0.181 C 
HETATM    8  C8  UNL     1     101.898  18.259  14.681  1.00  0.00     0.150 C 
HETATM    9  C9  UNL     1     102.615  19.514  14.945  1.00  0.00     0.040 C 
HETATM   10  C10 UNL     1     104.086  19.398  15.210  1.00  0.00     0.005 C 
HETATM   11  C11 UNL     1     104.297  18.284  16.183  1.00  0.00     0.051 C 
ENDROOT
BRANCH  11  12
HETATM   12  C12 UNL     1     105.638  18.219  16.806  1.00  0.00     0.172 C 
BRANCH  12  13
HETATM   13  O4  UNL     1     105.568  17.852  18.140  1.00  0.00    -0.400 OA
ATOM     14  H4  UNL     1     104.711  17.512  18.367  1.00  0.00     0.209 HD
ENDBRANCH  12  13
ENDBRANCH  11  12
BRANCH   6  15
HETATM   15  O1  UNL     1     104.191  15.966  16.396  1.00  0.00    -0.387 OA
ATOM     16  H1  UNL     1     103.419  15.597  16.808  1.00  0.00     0.210 HD
ENDBRANCH   6  15
BRANCH   7  17
HETATM   17  O2  UNL     1     101.819  16.949  16.672  1.00  0.00    -0.390 OA
ATOM     18  H2  UNL     1     100.952  17.335  16.670  1.00  0.00     0.210 HD
ENDBRANCH   7  17
BRANCH   8  19
HETATM   19  O3  UNL     1     100.546  18.442  15.067  1.00  0.00    -0.393 OA
ATOM     20  H3  UNL     1     100.306  17.675  15.574  1.00  0.00     0.210 HD
ENDBRANCH   8  19
TORSDOF 5
ENDMDL
MODEL 3
REMARK VINA RESULT: -4.970687242      1.773      3.512
REMARK  5 active torsions:
REMARK  status: ('A' for Active; 'I' for Inactive)
REMARK    1  A    between atoms: C6_6  and  O1_7 
REMARK    2  A    between atoms: C7_9  and  O2_10 
REMARK    3  A    between atoms: C8_12  and  O3_13 
REMARK    4  A    between atoms: C11_17  and  C12_18 
REMARK    5  A    between atoms: C12_18  and  O4_19 
ROOT
HETATM    1  C1  UNL     1     105.821  20.628  13.414  1.00  0.00     0.015 C 
HETATM    2  C2  UNL     1     105.759  19.201  13.982  1.00  0.00    -0.043 C 
HETATM    3  C3  UNL     1     106.726  18.406  13.095  1.00  0.00     0.015 C 
HETATM    4  C4  UNL     1     106.207  19.261  15.394  1.00  0.00     0.012 C 
HETATM    5  C5  UNL     1     105.504  18.409  16.364  1.00  0.00     0.042 C 
HETATM    6  C6  UNL     1     104.077  18.122  16.123  1.00  0.00     0.092 C 
HETATM    7  C7  UNL     1     103.887  16.629  15.821  1.00  0.00     0.181 C 
HETATM    8  C8  UNL     1     104.489  16.240  14.518  1.00  0.00     0.150 C 
HETATM    9  C9  UNL     1     104.358  17.197  13.411  1.00  0.00     0.040 C 
HETATM   10  C10 UNL     1     104.378  18.650  13.780  1.00  0.00     0.005 C 
HETATM   11  C11 UNL     1     103.471  18.845  14.951  1.00  0.00     0.051 C 
ENDROOT
BRANCH  11  12
HETATM   12  C12 UNL     1     103.115  20.247  15.264  1.00  0.00     0.172 C 
BRANCH  12  13
HETATM   13  O4  UNL     1     101.778  20.375  15.604  1.00  0.00    -0.400 OA
ATOM     14  H4  UNL     1     101.637  20.233  16.533  1.00  0.00     0.209 HD
ENDBRANCH  12  13
ENDBRANCH  11  12
BRANCH   6  15
HETATM   15  O1  UNL     1     103.259  18.386  17.227  1.00  0.00    -0.387 OA
ATOM     16  H1  UNL     1     103.638  18.116  18.054  1.00  0.00     0.210 HD
ENDBRANCH   6  15
BRANCH   7  17
HETATM   17  O2  UNL     1     102.529  16.310  15.874  1.00  0.00    -0.390 OA
ATOM     18  H2  UNL     1     102.397  15.584  16.471  1.00  0.00     0.210 HD
ENDBRANCH   7  17
BRANCH   8  19
HETATM   19  O3  UNL     1     103.853  15.035  14.128  1.00  0.00    -0.393 OA
ATOM     20  H3  UNL     1     104.228  14.347  14.666  1.00  0.00     0.210 HD
ENDBRANCH   8  19
TORSDOF 5
ENDMDL
MODEL 4
REMARK VINA RESULT: -4.896521237      3.081      5.022
REMARK  5 active torsions:
REMARK  status: ('A' for Active; 'I' for Inactive)
REMARK    1  A    between atoms: C6_6  and  O1_7 
REMARK    2  A    between atoms: C7_9  and  O2_10 
REMARK    3  A    between atoms: C8_12  and  O3_13 
REMARK    4  A    between atoms: C11_17  and  C12_18 
REMARK    5  A    between atoms: C12_18  and  O4_19 
ROOT
HETATM    1  C1  UNL     1     102.045  17.058  15.299  1.00  0.00     0.015 C 
HETATM    2  C2  UNL     1     103.574  17.210  15.271  1.00  0.00    -0.043 C 
HETATM    3  C3  UNL     1     104.039  16.512  16.556  1.00  0.00     0.015 C 
HETATM    4  C4  UNL     1     104.070  16.532  14.048  1.00  0.00     0.012 C 
HETATM    5  C5  UNL     1     105.176  17.170  13.323  1.00  0.00     0.042 C 
HETATM    6  C6  UNL     1     105.267  18.642  13.359  1.00  0.00     0.092 C 
HETATM    7  C7  UNL     1     106.528  19.070  14.124  1.00  0.00     0.181 C 
HETATM    8  C8  UNL     1     106.441  18.745  15.573  1.00  0.00     0.150 C 
HETATM    9  C9  UNL     1     105.136  18.932  16.220  1.00  0.00     0.040 C 
HETATM   10  C10 UNL     1     103.927  18.664  15.374  1.00  0.00     0.005 C 
HETATM   11  C11 UNL     1     104.127  19.334  14.053  1.00  0.00     0.051 C 
ENDROOT
BRANCH  11  12
HETATM   12  C12 UNL     1     102.922  19.451  13.201  1.00  0.00     0.172 C 
BRANCH  12  13
HETATM   13  O4  UNL     1     102.945  20.602  12.432  1.00  0.00    -0.400 OA
ATOM     14  H4  UNL     1     103.833  20.883  12.246  1.00  0.00     0.209 HD
ENDBRANCH  12  13
ENDBRANCH  11  12
BRANCH   6  15
HETATM   15  O1  UNL     1     105.384  19.227  12.093  1.00  0.00    -0.387 OA
ATOM     16  H1  UNL     1     106.278  19.274  11.777  1.00  0.00     0.210 HD
ENDBRANCH   6  15
BRANCH   7  17
HETATM   17  O2  UNL     1     106.762  20.430  13.916  1.00  0.00    -0.390 OA
ATOM     18  H2  UNL     1     106.157  20.940  14.441  1.00  0.00     0.210 HD
ENDBRANCH   7  17
BRANCH   8  19
HETATM   19  O3  UNL     1     107.375  19.587  16.228  1.00  0.00    -0.393 OA
ATOM     20  H3  UNL     1     107.191  20.471  15.933  1.00  0.00     0.210 HD
ENDBRANCH   8  19
TORSDOF 5
ENDMDL
MODEL 5
REMARK VINA RESULT: -4.817621745      2.392      4.486
REMARK  5 active torsions:
REMARK  status: ('A' for Active; 'I' for Inactive)
REMARK    1  A    between atoms: C6_6  and  O1_7 
REMARK    2  A    between atoms: C7_9  and  O2_10 
REMARK    3  A    between atoms: C8_12  and  O3_13 
REMARK    4  A    between atoms: C11_17  and  C12_18 
REMARK    5  A    between atoms: C12_18  and  O4_19 
ROOT
HETATM    1  C1  UNL     1     100.774  16.705  15.373  1.00  0.00     0.015 C 
HETATM    2  C2  UNL     1     102.275  16.617  15.691  1.00  0.00    -0.043 C 
HETATM    3  C3  UNL     1     102.336  15.742  16.950  1.00  0.00     0.015 C 
HETATM    4  C4  UNL     1     102.944  15.983  14.529  1.00  0.00     0.012 C 
HETATM    5  C5  UNL     1     104.262  16.501  14.141  1.00  0.00     0.042 C 
HETATM    6  C6  UNL     1     104.537  17.932  14.376  1.00  0.00     0.092 C 
HETATM    7  C7  UNL     1     105.633  18.086  15.441  1.00  0.00     0.181 C 
HETATM    8  C8  UNL     1     105.173  17.650  16.786  1.00  0.00     0.150 C 
HETATM    9  C9  UNL     1     103.791  17.981  17.157  1.00  0.00     0.040 C 
HETATM   10  C10 UNL     1     102.784  17.983  16.045  1.00  0.00     0.005 C 
HETATM   11  C11 UNL     1     103.369  18.729  14.890  1.00  0.00     0.051 C 
ENDROOT
BRANCH  11  12
HETATM   12  C12 UNL     1     102.419  19.109  13.821  1.00  0.00     0.172 C 
BRANCH  12  13
HETATM   13  O4  UNL     1     102.768  20.310  13.226  1.00  0.00    -0.400 OA
ATOM     14  H4  UNL     1     102.036  20.913  13.194  1.00  0.00     0.209 HD
ENDBRANCH  12  13
ENDBRANCH  11  12
BRANCH   6  15
HETATM   15  O1  UNL     1     105.017  18.603  13.247  1.00  0.00    -0.387 OA
ATOM     16  H1  UNL     1     105.547  18.058  12.677  1.00  0.00     0.210 HD
ENDBRANCH   6  15
BRANCH   7  17
HETATM   17  O2  UNL     1     106.086  19.406  15.456  1.00  0.00    -0.390 OA
ATOM     18  H2  UNL     1     106.939  19.444  15.873  1.00  0.00     0.210 HD
ENDBRANCH   7  17
BRANCH   8  19
HETATM   19  O3  UNL     1     106.035  18.273  17.724  1.00  0.00    -0.393 OA
ATOM     20  H3  UNL     1     106.921  18.125  17.413  1.00  0.00     0.210 HD
ENDBRANCH   8  19
TORSDOF 5
ENDMDL
