MODEL 1
REMARK VINA RESULT: -9.502106873      0.000      0.000
REMARK  12 active torsions:
REMARK  status: ('A' for Active; 'I' for Inactive)
REMARK    1  A    between atoms: C2_3  and  O1_4 
REMARK    2  A    between atoms: C5_8  and  O2_9 
REMARK    3  A    between atoms: N3_16  and  C8_18 
REMARK    4  A    between atoms: C8_18  and  C9_19 
REMARK    5  A    between atoms: C9_19  and  C10_20 
REMARK    6  A    between atoms: C10_20  and  C11_21 
REMARK    7  A    between atoms: C11_21  and  C12_22 
REMARK    8  A    between atoms: C12_22  and  C13_23 
REMARK    9  A    between atoms: C13_23  and  C14_24 
REMARK   10  A    between atoms: C14_24  and  O3_25 
REMARK   11  A    between atoms: C14_24  and  N4_27 
REMARK   12  A    between atoms: N4_27  and  O4_29 
ROOT
HETATM    1  C1  UNL     1       9.483  35.532  -6.023  1.00  0.00     0.160 C 
HETATM    2  N1  UNL     1      10.551  34.592  -6.295  1.00  0.00    -0.311 N 
HETATM    3  C2  UNL     1      10.985  34.325  -7.532  1.00  0.00     0.152 A 
HETATM    4  C3  UNL     1      12.023  33.371  -7.387  1.00  0.00     0.029 A 
HETATM    5  C4  UNL     1      12.176  33.100  -6.055  1.00  0.00     0.095 A 
HETATM    6  C5  UNL     1      11.243  33.878  -5.391  1.00  0.00     0.172 A 
HETATM    7  N2  UNL     1      13.164  32.167  -5.661  1.00  0.00    -0.346 N 
ATOM      8  H2  UNL     1      13.291  31.954  -4.672  1.00  0.00     0.167 HD
HETATM    9  C6  UNL     1      13.992  31.515  -6.644  1.00  0.00     0.090 A 
HETATM   10  S1  UNL     1      15.200  30.383  -6.236  1.00  0.00    -0.036 SA
HETATM   11  C7  UNL     1      16.030  29.768  -7.600  1.00  0.00     0.149 A 
HETATM   12  N3  UNL     1      16.975  28.905  -7.521  1.00  0.00    -0.370 N 
ATOM     13  H3  UNL     1      17.450  28.559  -8.356  1.00  0.00     0.161 HD
HETATM   14  N5  UNL     1      15.586  30.286  -8.756  1.00  0.00    -0.303 N 
ATOM     15  H5  UNL     1      16.049  29.952  -9.601  1.00  0.00     0.171 HD
HETATM   16  C15 UNL     1      14.629  31.171  -8.937  1.00  0.00     0.256 A 
HETATM   17  O5  UNL     1      14.386  31.512 -10.156  1.00  0.00    -0.267 OA
HETATM   18  C16 UNL     1      13.838  31.788  -7.970  1.00  0.00     0.048 A 
HETATM   19  C17 UNL     1      12.825  32.753  -8.446  1.00  0.00     0.092 A 
ENDROOT
BRANCH  12  20
HETATM   20  C8  UNL     1      17.343  28.440  -6.191  1.00  0.00     0.121 C 
BRANCH  20  21
HETATM   21  C9  UNL     1      18.160  27.150  -6.385  1.00  0.00     0.020 C 
BRANCH  21  22
HETATM   22  C10 UNL     1      17.174  26.144  -6.937  1.00  0.00     0.002 C 
BRANCH  22  23
HETATM   23  C11 UNL     1      17.701  24.765  -6.770  1.00  0.00     0.000 C 
BRANCH  23  24
HETATM   24  C12 UNL     1      18.853  24.736  -5.825  1.00  0.00     0.008 C 
BRANCH  24  25
HETATM   25  C13 UNL     1      18.635  23.910  -4.591  1.00  0.00     0.086 C 
BRANCH  25  26
HETATM   26  C14 UNL     1      19.235  24.468  -3.375  1.00  0.00     0.135 C 
BRANCH  26  27
HETATM   27  O3  UNL     1      18.478  25.448  -2.693  1.00  0.00    -0.348 OA
ATOM     28  H3  UNL     1      18.542  26.337  -3.023  1.00  0.00     0.219 HD
ENDBRANCH  26  27
BRANCH  26  29
HETATM   29  N4  UNL     1      20.380  24.131  -2.902  1.00  0.00    -0.251 N 
ATOM     30  H4  UNL     1      20.462  23.963  -1.899  1.00  0.00     0.196 HD
BRANCH  29  31
HETATM   31  O4  UNL     1      21.483  23.989  -3.673  1.00  0.00    -0.288 OA
ATOM     32  H4  UNL     1      22.326  24.363  -3.444  1.00  0.00     0.244 HD
ENDBRANCH  29  31
ENDBRANCH  26  29
ENDBRANCH  25  26
ENDBRANCH  24  25
ENDBRANCH  23  24
ENDBRANCH  22  23
ENDBRANCH  21  22
ENDBRANCH  20  21
ENDBRANCH  12  20
BRANCH   6  33
HETATM   33  O2  UNL     1      11.069  33.896  -4.017  1.00  0.00    -0.344 OA
ATOM     34  H2  UNL     1      11.325  33.216  -3.405  1.00  0.00     0.219 HD
ENDBRANCH   6  33
BRANCH   3  35
HETATM   35  O1  UNL     1      10.526  34.861  -8.730  1.00  0.00    -0.345 OA
ATOM     36  H1  UNL     1      10.780  35.681  -9.136  1.00  0.00     0.219 HD
ENDBRANCH   3  35
TORSDOF 12
ENDMDL
MODEL 2
REMARK VINA RESULT: -9.469472835      0.917      1.215
REMARK  12 active torsions:
REMARK  status: ('A' for Active; 'I' for Inactive)
REMARK    1  A    between atoms: C2_3  and  O1_4 
REMARK    2  A    between atoms: C5_8  and  O2_9 
REMARK    3  A    between atoms: N3_16  and  C8_18 
REMARK    4  A    between atoms: C8_18  and  C9_19 
REMARK    5  A    between atoms: C9_19  and  C10_20 
REMARK    6  A    between atoms: C10_20  and  C11_21 
REMARK    7  A    between atoms: C11_21  and  C12_22 
REMARK    8  A    between atoms: C12_22  and  C13_23 
REMARK    9  A    between atoms: C13_23  and  C14_24 
REMARK   10  A    between atoms: C14_24  and  O3_25 
REMARK   11  A    between atoms: C14_24  and  N4_27 
REMARK   12  A    between atoms: N4_27  and  O4_29 
ROOT
HETATM    1  C1  UNL     1      10.011  35.515  -5.462  1.00  0.00     0.160 C 
HETATM    2  N1  UNL     1      10.997  34.537  -5.876  1.00  0.00    -0.311 N 
HETATM    3  C2  UNL     1      11.302  34.314  -7.159  1.00  0.00     0.152 A 
HETATM    4  C3  UNL     1      12.295  33.302  -7.157  1.00  0.00     0.029 A 
HETATM    5  C4  UNL     1      12.551  32.954  -5.859  1.00  0.00     0.095 A 
HETATM    6  C5  UNL     1      11.726  33.742  -5.075  1.00  0.00     0.172 A 
HETATM    7  N2  UNL     1      13.518  31.953  -5.603  1.00  0.00    -0.346 N 
ATOM      8  H2  UNL     1      13.722  31.682  -4.642  1.00  0.00     0.167 HD
HETATM    9  C6  UNL     1      14.217  31.313  -6.689  1.00  0.00     0.090 A 
HETATM   10  S1  UNL     1      15.393  30.101  -6.449  1.00  0.00    -0.036 SA
HETATM   11  C7  UNL     1      16.061  29.518  -7.912  1.00  0.00     0.149 A 
HETATM   12  N3  UNL     1      16.961  28.605  -7.962  1.00  0.00    -0.370 N 
ATOM     13  H3  UNL     1      17.339  28.280  -8.853  1.00  0.00     0.161 HD
HETATM   14  N5  UNL     1      15.545  30.118  -8.996  1.00  0.00    -0.303 N 
ATOM     15  H5  UNL     1      15.911  29.806  -9.895  1.00  0.00     0.171 HD
HETATM   16  C15 UNL     1      14.625  31.058  -9.045  1.00  0.00     0.256 A 
HETATM   17  O5  UNL     1      14.293  31.474 -10.218  1.00  0.00    -0.267 OA
HETATM   18  C16 UNL     1      13.960  31.663  -7.981  1.00  0.00     0.048 A 
HETATM   19  C17 UNL     1      12.963  32.701  -8.314  1.00  0.00     0.092 A 
ENDROOT
BRANCH  12  20
HETATM   20  C8  UNL     1      17.421  28.052  -6.696  1.00  0.00     0.121 C 
BRANCH  20  21
HETATM   21  C9  UNL     1      16.968  26.581  -6.666  1.00  0.00     0.020 C 
BRANCH  21  22
HETATM   22  C10 UNL     1      18.204  25.802  -6.277  1.00  0.00     0.002 C 
BRANCH  22  23
HETATM   23  C11 UNL     1      18.913  26.488  -5.165  1.00  0.00     0.000 C 
BRANCH  23  24
HETATM   24  C12 UNL     1      18.565  25.885  -3.847  1.00  0.00     0.008 C 
BRANCH  24  25
HETATM   25  C13 UNL     1      18.752  24.398  -3.765  1.00  0.00     0.086 C 
BRANCH  25  26
HETATM   26  C14 UNL     1      20.140  23.952  -3.920  1.00  0.00     0.135 C 
BRANCH  26  27
HETATM   27  O3  UNL     1      20.404  23.078  -4.999  1.00  0.00    -0.348 OA
ATOM     28  H3  UNL     1      19.937  23.251  -5.807  1.00  0.00     0.219 HD
ENDBRANCH  26  27
BRANCH  26  29
HETATM   29  N4  UNL     1      21.110  24.298  -3.152  1.00  0.00    -0.251 N 
ATOM     30  H4  UNL     1      21.987  24.594  -3.580  1.00  0.00     0.196 HD
BRANCH  29  31
HETATM   31  O4  UNL     1      21.021  24.287  -1.802  1.00  0.00    -0.288 OA
ATOM     32  H4  UNL     1      21.594  24.795  -1.241  1.00  0.00     0.244 HD
ENDBRANCH  29  31
ENDBRANCH  26  29
ENDBRANCH  25  26
ENDBRANCH  24  25
ENDBRANCH  23  24
ENDBRANCH  22  23
ENDBRANCH  21  22
ENDBRANCH  20  21
ENDBRANCH  12  20
BRANCH   6  33
HETATM   33  O2  UNL     1      11.678  33.697  -3.691  1.00  0.00    -0.344 OA
ATOM     34  H2  UNL     1      12.420  33.723  -3.098  1.00  0.00     0.219 HD
ENDBRANCH   6  33
BRANCH   3  35
HETATM   35  O1  UNL     1      10.768  34.934  -8.283  1.00  0.00    -0.345 OA
ATOM     36  H1  UNL     1      10.876  34.684  -9.193  1.00  0.00     0.219 HD
ENDBRANCH   3  35
TORSDOF 12
ENDMDL
MODEL 3
REMARK VINA RESULT: -9.276010548      1.336      1.491
REMARK  12 active torsions:
REMARK  status: ('A' for Active; 'I' for Inactive)
REMARK    1  A    between atoms: C2_3  and  O1_4 
REMARK    2  A    between atoms: C5_8  and  O2_9 
REMARK    3  A    between atoms: N3_16  and  C8_18 
REMARK    4  A    between atoms: C8_18  and  C9_19 
REMARK    5  A    between atoms: C9_19  and  C10_20 
REMARK    6  A    between atoms: C10_20  and  C11_21 
REMARK    7  A    between atoms: C11_21  and  C12_22 
REMARK    8  A    between atoms: C12_22  and  C13_23 
REMARK    9  A    between atoms: C13_23  and  C14_24 
REMARK   10  A    between atoms: C14_24  and  O3_25 
REMARK   11  A    between atoms: C14_24  and  N4_27 
REMARK   12  A    between atoms: N4_27  and  O4_29 
ROOT
HETATM    1  C1  UNL     1       9.641  36.095  -4.504  1.00  0.00     0.160 C 
HETATM    2  N1  UNL     1      10.658  35.217  -5.046  1.00  0.00    -0.311 N 
HETATM    3  C2  UNL     1      11.128  35.335  -6.293  1.00  0.00     0.152 A 
HETATM    4  C3  UNL     1      12.095  34.310  -6.447  1.00  0.00     0.029 A 
HETATM    5  C4  UNL     1      12.170  33.610  -5.274  1.00  0.00     0.095 A 
HETATM    6  C5  UNL     1      11.260  34.197  -4.412  1.00  0.00     0.172 A 
HETATM    7  N2  UNL     1      13.077  32.528  -5.187  1.00  0.00    -0.346 N 
ATOM      8  H2  UNL     1      13.146  31.995  -4.320  1.00  0.00     0.167 HD
HETATM    9  C6  UNL     1      13.905  32.171  -6.312  1.00  0.00     0.090 A 
HETATM   10  S1  UNL     1      15.018  30.880  -6.272  1.00  0.00    -0.036 SA
HETATM   11  C7  UNL     1      15.867  30.682  -7.744  1.00  0.00     0.149 A 
HETATM   12  N3  UNL     1      16.751  29.771  -7.932  1.00  0.00    -0.370 N 
ATOM     13  H3  UNL     1      17.239  29.681  -8.824  1.00  0.00     0.161 HD
HETATM   14  N5  UNL     1      15.510  31.580  -8.675  1.00  0.00    -0.303 N 
ATOM     15  H5  UNL     1      15.989  31.505  -9.573  1.00  0.00     0.171 HD
HETATM   16  C15 UNL     1      14.621  32.545  -8.577  1.00  0.00     0.256 A 
HETATM   17  O5  UNL     1      14.455  33.281  -9.621  1.00  0.00    -0.267 OA
HETATM   18  C16 UNL     1      13.829  32.872  -7.478  1.00  0.00     0.048 A 
HETATM   19  C17 UNL     1      12.902  34.012  -7.633  1.00  0.00     0.092 A 
ENDROOT
BRANCH  12  20
HETATM   20  C8  UNL     1      17.028  28.872  -6.821  1.00  0.00     0.121 C 
BRANCH  20  21
HETATM   21  C9  UNL     1      16.589  27.467  -7.271  1.00  0.00     0.020 C 
BRANCH  21  22
HETATM   22  C10 UNL     1      17.450  26.515  -6.470  1.00  0.00     0.002 C 
BRANCH  22  23
HETATM   23  C11 UNL     1      18.643  27.227  -5.940  1.00  0.00     0.000 C 
BRANCH  23  24
HETATM   24  C12 UNL     1      19.049  26.688  -4.612  1.00  0.00     0.008 C 
BRANCH  24  25
HETATM   25  C13 UNL     1      18.496  25.331  -4.286  1.00  0.00     0.086 C 
BRANCH  25  26
HETATM   26  C14 UNL     1      19.476  24.244  -4.361  1.00  0.00     0.135 C 
BRANCH  26  27
HETATM   27  O3  UNL     1      18.988  22.938  -4.126  1.00  0.00    -0.348 OA
ATOM     28  H3  UNL     1      19.136  22.301  -4.814  1.00  0.00     0.219 HD
ENDBRANCH  26  27
BRANCH  26  29
HETATM   29  N4  UNL     1      20.725  24.399  -4.621  1.00  0.00    -0.251 N 
ATOM     30  H4  UNL     1      20.987  24.862  -5.491  1.00  0.00     0.196 HD
BRANCH  29  31
HETATM   31  O4  UNL     1      21.708  23.977  -3.792  1.00  0.00    -0.288 OA
ATOM     32  H4  UNL     1      21.950  24.440  -2.999  1.00  0.00     0.244 HD
ENDBRANCH  29  31
ENDBRANCH  26  29
ENDBRANCH  25  26
ENDBRANCH  24  25
ENDBRANCH  23  24
ENDBRANCH  22  23
ENDBRANCH  21  22
ENDBRANCH  20  21
ENDBRANCH  12  20
BRANCH   6  33
HETATM   33  O2  UNL     1      11.026  33.780  -3.112  1.00  0.00    -0.344 OA
ATOM     34  H2  UNL     1      11.639  33.328  -2.544  1.00  0.00     0.219 HD
ENDBRANCH   6  33
BRANCH   3  35
HETATM   35  O1  UNL     1      10.759  36.265  -7.259  1.00  0.00    -0.345 OA
ATOM     36  H1  UNL     1      11.110  36.363  -8.136  1.00  0.00     0.219 HD
ENDBRANCH   3  35
TORSDOF 12
ENDMDL
MODEL 4
REMARK VINA RESULT: -9.223727751      1.137      1.358
REMARK  12 active torsions:
REMARK  status: ('A' for Active; 'I' for Inactive)
REMARK    1  A    between atoms: C2_3  and  O1_4 
REMARK    2  A    between atoms: C5_8  and  O2_9 
REMARK    3  A    between atoms: N3_16  and  C8_18 
REMARK    4  A    between atoms: C8_18  and  C9_19 
REMARK    5  A    between atoms: C9_19  and  C10_20 
REMARK    6  A    between atoms: C10_20  and  C11_21 
REMARK    7  A    between atoms: C11_21  and  C12_22 
REMARK    8  A    between atoms: C12_22  and  C13_23 
REMARK    9  A    between atoms: C13_23  and  C14_24 
REMARK   10  A    between atoms: C14_24  and  O3_25 
REMARK   11  A    between atoms: C14_24  and  N4_27 
REMARK   12  A    between atoms: N4_27  and  O4_29 
ROOT
HETATM    1  C1  UNL     1      10.633  35.504  -5.193  1.00  0.00     0.160 C 
HETATM    2  N1  UNL     1      11.463  34.417  -5.672  1.00  0.00    -0.311 N 
HETATM    3  C2  UNL     1      11.685  34.195  -6.972  1.00  0.00     0.152 A 
HETATM    4  C3  UNL     1      12.533  33.060  -7.037  1.00  0.00     0.029 A 
HETATM    5  C4  UNL     1      12.791  32.642  -5.761  1.00  0.00     0.095 A 
HETATM    6  C5  UNL     1      12.109  33.508  -4.923  1.00  0.00     0.172 A 
HETATM    7  N2  UNL     1      13.624  31.515  -5.571  1.00  0.00    -0.346 N 
ATOM      8  H2  UNL     1      13.826  31.189  -4.626  1.00  0.00     0.167 HD
HETATM    9  C6  UNL     1      14.189  30.821  -6.702  1.00  0.00     0.090 A 
HETATM   10  S1  UNL     1      15.200  29.457  -6.542  1.00  0.00    -0.036 SA
HETATM   11  C7  UNL     1      15.728  28.835  -8.046  1.00  0.00     0.149 A 
HETATM   12  N3  UNL     1      16.494  27.813  -8.157  1.00  0.00    -0.370 N 
ATOM     13  H3  UNL     1      16.791  27.468  -9.070  1.00  0.00     0.161 HD
HETATM   14  N5  UNL     1      15.255  29.531  -9.092  1.00  0.00    -0.303 N 
ATOM     15  H5  UNL     1      15.541  29.200 -10.013  1.00  0.00     0.171 HD
HETATM   16  C15 UNL     1      14.468  30.585  -9.078  1.00  0.00     0.256 A 
HETATM   17  O5  UNL     1      14.149  31.078 -10.226  1.00  0.00    -0.267 OA
HETATM   18  C16 UNL     1      13.931  31.241  -7.972  1.00  0.00     0.048 A 
HETATM   19  C17 UNL     1      13.069  32.411  -8.237  1.00  0.00     0.092 A 
ENDROOT
BRANCH  12  20
HETATM   20  C8  UNL     1      16.924  27.165  -6.925  1.00  0.00     0.121 C 
BRANCH  20  21
HETATM   21  C9  UNL     1      17.219  25.697  -7.278  1.00  0.00     0.020 C 
BRANCH  21  22
HETATM   22  C10 UNL     1      18.163  25.219  -6.197  1.00  0.00     0.002 C 
BRANCH  22  23
HETATM   23  C11 UNL     1      18.764  26.381  -5.491  1.00  0.00     0.000 C 
BRANCH  23  24
HETATM   24  C12 UNL     1      18.786  26.166  -4.017  1.00  0.00     0.008 C 
BRANCH  24  25
HETATM   25  C13 UNL     1      18.831  24.728  -3.590  1.00  0.00     0.086 C 
BRANCH  25  26
HETATM   26  C14 UNL     1      20.183  24.202  -3.377  1.00  0.00     0.135 C 
BRANCH  26  27
HETATM   27  O3  UNL     1      20.699  24.304  -2.065  1.00  0.00    -0.348 OA
ATOM     28  H3  UNL     1      21.643  24.373  -1.986  1.00  0.00     0.219 HD
ENDBRANCH  26  27
BRANCH  26  29
HETATM   29  N4  UNL     1      20.912  23.666  -4.288  1.00  0.00    -0.251 N 
ATOM     30  H4  UNL     1      21.884  23.965  -4.372  1.00  0.00     0.196 HD
BRANCH  29  31
HETATM   31  O4  UNL     1      20.451  22.722  -5.141  1.00  0.00    -0.288 OA
ATOM     32  H4  UNL     1      20.823  22.576  -6.002  1.00  0.00     0.244 HD
ENDBRANCH  29  31
ENDBRANCH  26  29
ENDBRANCH  25  26
ENDBRANCH  24  25
ENDBRANCH  23  24
ENDBRANCH  22  23
ENDBRANCH  21  22
ENDBRANCH  20  21
ENDBRANCH  12  20
BRANCH   6  33
HETATM   33  O2  UNL     1      12.108  33.428  -3.540  1.00  0.00    -0.344 OA
ATOM     34  H2  UNL     1      12.487  32.733  -3.014  1.00  0.00     0.219 HD
ENDBRANCH   6  33
BRANCH   3  35
HETATM   35  O1  UNL     1      11.196  34.914  -8.057  1.00  0.00    -0.345 OA
ATOM     36  H1  UNL     1      10.895  34.576  -8.892  1.00  0.00     0.219 HD
ENDBRANCH   3  35
TORSDOF 12
ENDMDL
MODEL 5
REMARK VINA RESULT: -9.222821281      1.075      1.127
REMARK  12 active torsions:
REMARK  status: ('A' for Active; 'I' for Inactive)
REMARK    1  A    between atoms: C2_3  and  O1_4 
REMARK    2  A    between atoms: C5_8  and  O2_9 
REMARK    3  A    between atoms: N3_16  and  C8_18 
REMARK    4  A    between atoms: C8_18  and  C9_19 
REMARK    5  A    between atoms: C9_19  and  C10_20 
REMARK    6  A    between atoms: C10_20  and  C11_21 
REMARK    7  A    between atoms: C11_21  and  C12_22 
REMARK    8  A    between atoms: C12_22  and  C13_23 
REMARK    9  A    between atoms: C13_23  and  C14_24 
REMARK   10  A    between atoms: C14_24  and  O3_25 
REMARK   11  A    between atoms: C14_24  and  N4_27 
REMARK   12  A    between atoms: N4_27  and  O4_29 
ROOT
HETATM    1  C1  UNL     1       9.672  36.014  -4.413  1.00  0.00     0.160 C 
HETATM    2  N1  UNL     1      10.694  35.127  -4.931  1.00  0.00    -0.311 N 
HETATM    3  C2  UNL     1      11.154  35.203  -6.184  1.00  0.00     0.152 A 
HETATM    4  C3  UNL     1      12.130  34.183  -6.308  1.00  0.00     0.029 A 
HETATM    5  C4  UNL     1      12.221  33.527  -5.111  1.00  0.00     0.095 A 
HETATM    6  C5  UNL     1      11.312  34.137  -4.264  1.00  0.00     0.172 A 
HETATM    7  N2  UNL     1      13.140  32.459  -4.991  1.00  0.00    -0.346 N 
ATOM      8  H2  UNL     1      13.221  31.959  -4.106  1.00  0.00     0.167 HD
HETATM    9  C6  UNL     1      13.964  32.069  -6.108  1.00  0.00     0.090 A 
HETATM   10  S1  UNL     1      15.090  30.791  -6.029  1.00  0.00    -0.036 SA
HETATM   11  C7  UNL     1      15.931  30.548  -7.500  1.00  0.00     0.149 A 
HETATM   12  N3  UNL     1      16.822  29.640  -7.661  1.00  0.00    -0.370 N 
ATOM     13  H3  UNL     1      17.304  29.521  -8.552  1.00  0.00     0.161 HD
HETATM   14  N5  UNL     1      15.557  31.407  -8.461  1.00  0.00    -0.303 N 
ATOM     15  H5  UNL     1      16.029  31.304  -9.359  1.00  0.00     0.171 HD
HETATM   16  C15 UNL     1      14.658  32.365  -8.391  1.00  0.00     0.256 A 
HETATM   17  O5  UNL     1      14.478  33.061  -9.460  1.00  0.00    -0.267 OA
HETATM   18  C16 UNL     1      13.872  32.725  -7.299  1.00  0.00     0.048 A 
HETATM   19  C17 UNL     1      12.932  33.849  -7.489  1.00  0.00     0.092 A 
ENDROOT
BRANCH  12  20
HETATM   20  C8  UNL     1      17.116  28.785  -6.519  1.00  0.00     0.121 C 
BRANCH  20  21
HETATM   21  C9  UNL     1      16.629  27.372  -6.888  1.00  0.00     0.020 C 
BRANCH  21  22
HETATM   22  C10 UNL     1      17.868  26.506  -6.832  1.00  0.00     0.002 C 
BRANCH  22  23
HETATM   23  C11 UNL     1      17.489  25.069  -6.845  1.00  0.00     0.000 C 
BRANCH  23  24
HETATM   24  C12 UNL     1      18.108  24.335  -5.706  1.00  0.00     0.008 C 
BRANCH  24  25
HETATM   25  C13 UNL     1      19.219  25.068  -5.013  1.00  0.00     0.086 C 
BRANCH  25  26
HETATM   26  C14 UNL     1      19.349  24.761  -3.585  1.00  0.00     0.135 C 
BRANCH  26  27
HETATM   27  O3  UNL     1      18.387  25.341  -2.727  1.00  0.00    -0.348 OA
ATOM     28  H3  UNL     1      18.130  26.234  -2.922  1.00  0.00     0.219 HD
ENDBRANCH  26  27
BRANCH  26  29
HETATM   29  N4  UNL     1      20.263  24.015  -3.076  1.00  0.00    -0.251 N 
ATOM     30  H4  UNL     1      20.013  23.401  -2.302  1.00  0.00     0.196 HD
BRANCH  29  31
HETATM   31  O4  UNL     1      21.540  24.008  -3.522  1.00  0.00    -0.288 OA
ATOM     32  H4  UNL     1      22.243  23.554  -3.071  1.00  0.00     0.244 HD
ENDBRANCH  29  31
ENDBRANCH  26  29
ENDBRANCH  25  26
ENDBRANCH  24  25
ENDBRANCH  23  24
ENDBRANCH  22  23
ENDBRANCH  21  22
ENDBRANCH  20  21
ENDBRANCH  12  20
BRANCH   6  33
HETATM   33  O2  UNL     1      11.092  33.766  -2.948  1.00  0.00    -0.344 OA
ATOM     34  H2  UNL     1      11.755  33.578  -2.294  1.00  0.00     0.219 HD
ENDBRANCH   6  33
BRANCH   3  35
HETATM   35  O1  UNL     1      10.768  36.093  -7.181  1.00  0.00    -0.345 OA
ATOM     36  H1  UNL     1      10.932  36.027  -8.115  1.00  0.00     0.219 HD
ENDBRANCH   3  35
TORSDOF 12
ENDMDL
