MODEL 1
REMARK VINA RESULT: -9.133118063      0.000      0.000
REMARK  10 active torsions:
REMARK  status: ('A' for Active; 'I' for Inactive)
REMARK    1  A    between atoms: O1_2  and  C2_3 
REMARK    2  A    between atoms: C2_3  and  N4_14 
REMARK    3  A    between atoms: N1_4  and  C3_6 
REMARK    4  A    between atoms: C3_6  and  C4_7 
REMARK    5  A    between atoms: C4_7  and  C5_8 
REMARK    6  A    between atoms: C5_8  and  C6_9 
REMARK    7  A    between atoms: N4_14  and  N5_16 
REMARK    8  A    between atoms: C7_18  and  C8_19 
REMARK    9  A    between atoms: C10_23  and  N7_24 
REMARK   10  A    between atoms: C13_36  and  C14_37 
ROOT
HETATM    1  C8  UNL     1      13.877  30.692  -8.076  1.00  0.00     0.073 A 
HETATM    2  N6  UNL     1      14.595  29.574  -8.535  1.00  0.00    -0.347 N 
ATOM      3  H6  UNL     1      14.380  29.186  -9.453  1.00  0.00     0.166 HD
HETATM    4  C9  UNL     1      15.550  29.010  -7.797  1.00  0.00     0.121 A 
HETATM    5  C10 UNL     1      16.311  27.958  -8.353  1.00  0.00     0.132 A 
HETATM    6  N8  UNL     1      17.339  27.477  -7.609  1.00  0.00    -0.318 N 
ATOM      7  H8  UNL     1      17.915  26.716  -7.972  1.00  0.00     0.170 HD
HETATM    8  C11 UNL     1      17.604  27.996  -6.399  1.00  0.00     0.179 A 
HETATM    9  S1  UNL     1      18.890  27.386  -5.583  1.00  0.00    -0.040 SA
HETATM   10  N9  UNL     1      16.857  29.008  -5.871  1.00  0.00    -0.317 N 
ATOM     11  H9  UNL     1      17.080  29.369  -4.944  1.00  0.00     0.170 HD
HETATM   12  C12 UNL     1      15.830  29.533  -6.560  1.00  0.00     0.139 A 
HETATM   13  N10 UNL     1      15.146  30.612  -6.066  1.00  0.00    -0.341 N 
ATOM     14  H10 UNL     1      15.356  30.986  -5.141  1.00  0.00     0.167 HD
HETATM   15  C13 UNL     1      14.170  31.176  -6.850  1.00  0.00     0.049 A 
ENDROOT
BRANCH   1  16
HETATM   16  C7  UNL     1      13.133  31.375  -9.093  1.00  0.00     0.138 C 
HETATM   17  N5  UNL     1      13.174  32.490  -9.511  1.00  0.00    -0.307 N 
ATOM     18  H5  UNL     1      12.440  32.521 -10.219  1.00  0.00     0.186 HD
BRANCH  17  19
HETATM   19  N4  UNL     1      13.696  33.724  -9.521  1.00  0.00    -0.265 N 
ATOM     20  H4  UNL     1      13.118  34.547  -9.690  1.00  0.00     0.190 HD
BRANCH  19  21
HETATM   21  C2  UNL     1      15.136  33.837  -9.279  1.00  0.00     0.237 C 
HETATM   22  N1  UNL     1      15.643  34.480  -8.433  1.00  0.00    -0.335 N 
ATOM     23  H1  UNL     1      16.631  34.294  -8.608  1.00  0.00     0.168 HD
BRANCH  21  24
HETATM   24  O1  UNL     1      16.002  33.097 -10.164  1.00  0.00    -0.326 OA
HETATM   25  C1  UNL     1      16.827  32.109  -9.532  1.00  0.00     0.213 C 
ENDBRANCH  21  24
BRANCH  22  26
HETATM   26  C3  UNL     1      15.719  35.323  -7.358  1.00  0.00     0.065 C 
BRANCH  26  27
HETATM   27  C4  UNL     1      16.132  36.725  -7.725  1.00  0.00     0.052 C 
BRANCH  27  28
HETATM   28  C5  UNL     1      16.882  37.364  -6.561  1.00  0.00     0.077 C 
BRANCH  28  29
HETATM   29  C6  UNL     1      18.038  38.127  -6.981  1.00  0.00     0.086 C 
HETATM   30  N2  UNL     1      18.010  39.409  -7.134  1.00  0.00    -0.391 N 
ATOM     31  H22 UNL     1      17.131  39.881  -6.925  1.00  0.00     0.157 HD
ATOM     32  H21 UNL     1      18.825  39.947  -7.430  1.00  0.00     0.157 HD
HETATM   33  N3  UNL     1      19.279  37.460  -7.277  1.00  0.00    -0.088 NA
ENDBRANCH  28  29
ENDBRANCH  27  28
ENDBRANCH  26  27
ENDBRANCH  22  26
ENDBRANCH  19  21
ENDBRANCH  17  19
ENDBRANCH   1  16
BRANCH  15  34
HETATM   34  C14 UNL     1      13.376  32.326  -6.288  1.00  0.00     0.145 C 
HETATM   35  S2  UNL     1      13.614  32.410  -4.482  1.00  0.00    -0.091 SA
ENDBRANCH  15  34
BRANCH   5  36
HETATM   36  N7  UNL     1      16.025  27.482  -9.502  1.00  0.00    -0.383 N 
ATOM     37  H72 UNL     1      15.288  26.789  -9.634  1.00  0.00     0.157 HD
ATOM     38  H71 UNL     1      16.525  27.794 -10.335  1.00  0.00     0.157 HD
ENDBRANCH   5  36
TORSDOF 10
ENDMDL
MODEL 2
REMARK VINA RESULT: -9.070508434      3.315      7.839
REMARK  10 active torsions:
REMARK  status: ('A' for Active; 'I' for Inactive)
REMARK    1  A    between atoms: O1_2  and  C2_3 
REMARK    2  A    between atoms: C2_3  and  N4_14 
REMARK    3  A    between atoms: N1_4  and  C3_6 
REMARK    4  A    between atoms: C3_6  and  C4_7 
REMARK    5  A    between atoms: C4_7  and  C5_8 
REMARK    6  A    between atoms: C5_8  and  C6_9 
REMARK    7  A    between atoms: N4_14  and  N5_16 
REMARK    8  A    between atoms: C7_18  and  C8_19 
REMARK    9  A    between atoms: C10_23  and  N7_24 
REMARK   10  A    between atoms: C13_36  and  C14_37 
ROOT
HETATM    1  C8  UNL     1      15.941  32.588  -9.461  1.00  0.00     0.073 A 
HETATM    2  N6  UNL     1      14.684  32.003  -9.232  1.00  0.00    -0.347 N 
ATOM      3  H6  UNL     1      14.559  31.006  -9.408  1.00  0.00     0.166 HD
HETATM    4  C9  UNL     1      13.652  32.721  -8.792  1.00  0.00     0.121 A 
HETATM    5  C10 UNL     1      12.444  32.060  -8.477  1.00  0.00     0.132 A 
HETATM    6  N8  UNL     1      11.450  32.810  -7.937  1.00  0.00    -0.318 N 
ATOM      7  H8  UNL     1      10.560  32.373  -7.695  1.00  0.00     0.170 HD
HETATM    8  C11 UNL     1      11.631  34.123  -7.719  1.00  0.00     0.179 A 
HETATM    9  S1  UNL     1      10.394  34.947  -7.025  1.00  0.00    -0.040 SA
HETATM   10  N9  UNL     1      12.800  34.750  -8.034  1.00  0.00    -0.317 N 
ATOM     11  H9  UNL     1      12.898  35.751  -7.865  1.00  0.00     0.170 HD
HETATM   12  C12 UNL     1      13.826  34.063  -8.564  1.00  0.00     0.139 A 
HETATM   13  N10 UNL     1      15.029  34.678  -8.787  1.00  0.00    -0.341 N 
ATOM     14  H10 UNL     1      15.143  35.678  -8.623  1.00  0.00     0.167 HD
HETATM   15  C13 UNL     1      16.076  33.913  -9.237  1.00  0.00     0.049 A 
ENDROOT
BRANCH   1  16
HETATM   16  C7  UNL     1      17.014  31.648  -9.608  1.00  0.00     0.138 C 
HETATM   17  N5  UNL     1      17.111  30.489  -9.353  1.00  0.00    -0.307 N 
ATOM     18  H5  UNL     1      18.069  30.253  -9.613  1.00  0.00     0.186 HD
BRANCH  17  19
HETATM   19  N4  UNL     1      16.599  29.338  -8.896  1.00  0.00    -0.265 N 
ATOM     20  H4  UNL     1      16.419  28.550  -9.518  1.00  0.00     0.190 HD
BRANCH  19  21
HETATM   21  C2  UNL     1      16.309  29.263  -7.462  1.00  0.00     0.237 C 
HETATM   22  N1  UNL     1      16.980  28.735  -6.651  1.00  0.00    -0.335 N 
ATOM     23  H1  UNL     1      16.435  28.902  -5.805  1.00  0.00     0.168 HD
BRANCH  21  24
HETATM   24  O1  UNL     1      15.090  29.891  -7.015  1.00  0.00    -0.326 OA
HETATM   25  C1  UNL     1      15.208  30.689  -5.830  1.00  0.00     0.213 C 
ENDBRANCH  21  24
BRANCH  22  26
HETATM   26  C3  UNL     1      18.042  28.034  -6.149  1.00  0.00     0.065 C 
BRANCH  26  27
HETATM   27  C4  UNL     1      17.756  26.566  -5.959  1.00  0.00     0.052 C 
BRANCH  27  28
HETATM   28  C5  UNL     1      19.066  25.790  -5.890  1.00  0.00     0.077 C 
BRANCH  28  29
HETATM   29  C6  UNL     1      19.125  24.876  -4.769  1.00  0.00     0.086 C 
HETATM   30  N2  UNL     1      19.656  23.702  -4.853  1.00  0.00    -0.391 N 
ATOM     31  H22 UNL     1      20.061  23.440  -5.751  1.00  0.00     0.157 HD
ATOM     32  H21 UNL     1      19.698  23.058  -4.062  1.00  0.00     0.157 HD
HETATM   33  N3  UNL     1      18.552  25.246  -3.500  1.00  0.00    -0.088 NA
ENDBRANCH  28  29
ENDBRANCH  27  28
ENDBRANCH  26  27
ENDBRANCH  22  26
ENDBRANCH  19  21
ENDBRANCH  17  19
ENDBRANCH   1  16
BRANCH  15  34
HETATM   34  C14 UNL     1      17.384  34.596  -9.539  1.00  0.00     0.145 C 
HETATM   35  S2  UNL     1      17.410  35.127 -11.283  1.00  0.00    -0.091 SA
ENDBRANCH  15  34
BRANCH   5  36
HETATM   36  N7  UNL     1      12.305  30.813  -8.707  1.00  0.00    -0.383 N 
ATOM     37  H72 UNL     1      12.968  30.120  -8.360  1.00  0.00     0.157 HD
ATOM     38  H71 UNL     1      11.509  30.467  -9.244  1.00  0.00     0.157 HD
ENDBRANCH   5  36
TORSDOF 10
ENDMDL
MODEL 3
REMARK VINA RESULT: -9.048646173      1.160      1.211
REMARK  10 active torsions:
REMARK  status: ('A' for Active; 'I' for Inactive)
REMARK    1  A    between atoms: O1_2  and  C2_3 
REMARK    2  A    between atoms: C2_3  and  N4_14 
REMARK    3  A    between atoms: N1_4  and  C3_6 
REMARK    4  A    between atoms: C3_6  and  C4_7 
REMARK    5  A    between atoms: C4_7  and  C5_8 
REMARK    6  A    between atoms: C5_8  and  C6_9 
REMARK    7  A    between atoms: N4_14  and  N5_16 
REMARK    8  A    between atoms: C7_18  and  C8_19 
REMARK    9  A    between atoms: C10_23  and  N7_24 
REMARK   10  A    between atoms: C13_36  and  C14_37 
ROOT
HETATM    1  C8  UNL     1      14.237  31.670  -7.825  1.00  0.00     0.073 A 
HETATM    2  N6  UNL     1      14.725  30.483  -8.397  1.00  0.00    -0.347 N 
ATOM      3  H6  UNL     1      14.441  30.233  -9.344  1.00  0.00     0.166 HD
HETATM    4  C9  UNL     1      15.549  29.677  -7.731  1.00  0.00     0.121 A 
HETATM    5  C10 UNL     1      16.092  28.555  -8.394  1.00  0.00     0.132 A 
HETATM    6  N8  UNL     1      17.005  27.815  -7.715  1.00  0.00    -0.318 N 
ATOM      7  H8  UNL     1      17.423  26.995  -8.156  1.00  0.00     0.170 HD
HETATM    8  C11 UNL     1      17.362  28.155  -6.466  1.00  0.00     0.179 A 
HETATM    9  S1  UNL     1      18.503  27.233  -5.731  1.00  0.00    -0.040 SA
HETATM   10  N9  UNL     1      16.825  29.238  -5.834  1.00  0.00    -0.317 N 
ATOM     11  H9  UNL     1      17.112  29.460  -4.881  1.00  0.00     0.170 HD
HETATM   12  C12 UNL     1      15.922  30.016  -6.454  1.00  0.00     0.139 A 
HETATM   13  N10 UNL     1      15.460  31.155  -5.852  1.00  0.00    -0.341 N 
ATOM     14  H10 UNL     1      15.737  31.393  -4.899  1.00  0.00     0.167 HD
HETATM   15  C13 UNL     1      14.615  31.970  -6.563  1.00  0.00     0.049 A 
ENDROOT
BRANCH   1  16
HETATM   16  C7  UNL     1      13.643  32.579  -8.761  1.00  0.00     0.138 C 
HETATM   17  N5  UNL     1      14.106  33.337  -9.555  1.00  0.00    -0.307 N 
ATOM     18  H5  UNL     1      13.294  33.784  -9.980  1.00  0.00     0.186 HD
BRANCH  17  19
HETATM   19  N4  UNL     1      15.155  33.900 -10.171  1.00  0.00    -0.265 N 
ATOM     20  H4  UNL     1      15.186  34.003 -11.185  1.00  0.00     0.190 HD
BRANCH  19  21
HETATM   21  C2  UNL     1      16.256  34.359  -9.321  1.00  0.00     0.237 C 
HETATM   22  N1  UNL     1      16.155  35.076  -8.392  1.00  0.00    -0.335 N 
ATOM     23  H1  UNL     1      17.127  35.149  -8.092  1.00  0.00     0.168 HD
BRANCH  21  24
HETATM   24  O1  UNL     1      17.577  33.892  -9.663  1.00  0.00    -0.326 OA
HETATM   25  C1  UNL     1      18.329  34.755 -10.527  1.00  0.00     0.213 C 
ENDBRANCH  21  24
BRANCH  22  26
HETATM   26  C3  UNL     1      15.533  35.870  -7.468  1.00  0.00     0.065 C 
BRANCH  26  27
HETATM   27  C4  UNL     1      16.465  36.839  -6.786  1.00  0.00     0.052 C 
BRANCH  27  28
HETATM   28  C5  UNL     1      16.909  37.911  -7.775  1.00  0.00     0.077 C 
BRANCH  28  29
HETATM   29  C6  UNL     1      18.332  37.882  -8.042  1.00  0.00     0.086 C 
HETATM   30  N2  UNL     1      18.844  38.310  -9.147  1.00  0.00    -0.391 N 
ATOM     31  H22 UNL     1      18.200  38.698  -9.836  1.00  0.00     0.157 HD
ATOM     32  H21 UNL     1      19.847  38.290  -9.335  1.00  0.00     0.157 HD
HETATM   33  N3  UNL     1      19.241  37.334  -7.068  1.00  0.00    -0.088 NA
ENDBRANCH  28  29
ENDBRANCH  27  28
ENDBRANCH  26  27
ENDBRANCH  22  26
ENDBRANCH  19  21
ENDBRANCH  17  19
ENDBRANCH   1  16
BRANCH  15  34
HETATM   34  C14 UNL     1      14.059  33.194  -5.884  1.00  0.00     0.145 C 
HETATM   35  S2  UNL     1      13.104  32.696  -4.412  1.00  0.00    -0.091 SA
ENDBRANCH  15  34
BRANCH   5  36
HETATM   36  N7  UNL     1      15.722  28.255  -9.578  1.00  0.00    -0.383 N 
ATOM     37  H72 UNL     1      15.042  28.815 -10.092  1.00  0.00     0.157 HD
ATOM     38  H71 UNL     1      16.108  27.440 -10.055  1.00  0.00     0.157 HD
ENDBRANCH   5  36
TORSDOF 10
ENDMDL
MODEL 4
REMARK VINA RESULT: -8.933224280      3.452      6.344
REMARK  10 active torsions:
REMARK  status: ('A' for Active; 'I' for Inactive)
REMARK    1  A    between atoms: O1_2  and  C2_3 
REMARK    2  A    between atoms: C2_3  and  N4_14 
REMARK    3  A    between atoms: N1_4  and  C3_6 
REMARK    4  A    between atoms: C3_6  and  C4_7 
REMARK    5  A    between atoms: C4_7  and  C5_8 
REMARK    6  A    between atoms: C5_8  and  C6_9 
REMARK    7  A    between atoms: N4_14  and  N5_16 
REMARK    8  A    between atoms: C7_18  and  C8_19 
REMARK    9  A    between atoms: C10_23  and  N7_24 
REMARK   10  A    between atoms: C13_36  and  C14_37 
ROOT
HETATM    1  C8  UNL     1      15.870  32.318  -9.446  1.00  0.00     0.073 A 
HETATM    2  N6  UNL     1      14.570  31.815  -9.265  1.00  0.00    -0.347 N 
ATOM      3  H6  UNL     1      14.393  30.824  -9.428  1.00  0.00     0.166 HD
HETATM    4  C9  UNL     1      13.566  32.603  -8.886  1.00  0.00     0.121 A 
HETATM    5  C10 UNL     1      12.307  32.023  -8.615  1.00  0.00     0.132 A 
HETATM    6  N8  UNL     1      11.337  32.842  -8.135  1.00  0.00    -0.318 N 
ATOM      7  H8  UNL     1      10.412  32.466  -7.926  1.00  0.00     0.170 HD
HETATM    8  C11 UNL     1      11.588  34.147  -7.933  1.00  0.00     0.179 A 
HETATM    9  S1  UNL     1      10.375  35.058  -7.311  1.00  0.00    -0.040 SA
HETATM   10  N9  UNL     1      12.807  34.695  -8.205  1.00  0.00    -0.317 N 
ATOM     11  H9  UNL     1      12.958  35.692  -8.050  1.00  0.00     0.170 HD
HETATM   12  C12 UNL     1      13.811  33.937  -8.675  1.00  0.00     0.139 A 
HETATM   13  N10 UNL     1      15.058  34.473  -8.854  1.00  0.00    -0.341 N 
ATOM     14  H10 UNL     1      15.227  35.467  -8.703  1.00  0.00     0.167 HD
HETATM   15  C13 UNL     1      16.076  33.637  -9.241  1.00  0.00     0.049 A 
ENDROOT
BRANCH   1  16
HETATM   16  C7  UNL     1      16.888  31.312  -9.527  1.00  0.00     0.138 C 
HETATM   17  N5  UNL     1      16.854  30.122  -9.473  1.00  0.00    -0.307 N 
ATOM     18  H5  UNL     1      17.829  29.838  -9.558  1.00  0.00     0.186 HD
BRANCH  17  19
HETATM   19  N4  UNL     1      16.180  28.969  -9.357  1.00  0.00    -0.265 N 
ATOM     20  H4  UNL     1      15.742  28.524 -10.164  1.00  0.00     0.190 HD
BRANCH  19  21
HETATM   21  C2  UNL     1      16.102  28.378  -8.020  1.00  0.00     0.237 C 
HETATM   22  N1  UNL     1      15.407  28.747  -7.144  1.00  0.00    -0.335 N 
ATOM     23  H1  UNL     1      15.654  28.088  -6.405  1.00  0.00     0.168 HD
BRANCH  21  24
HETATM   24  O1  UNL     1      16.960  27.247  -7.762  1.00  0.00    -0.326 OA
HETATM   25  C1  UNL     1      17.687  27.297  -6.527  1.00  0.00     0.213 C 
ENDBRANCH  21  24
BRANCH  22  26
HETATM   26  C3  UNL     1      14.472  29.518  -6.510  1.00  0.00     0.065 C 
BRANCH  26  27
HETATM   27  C4  UNL     1      15.061  30.708  -5.797  1.00  0.00     0.052 C 
BRANCH  27  28
HETATM   28  C5  UNL     1      14.083  31.212  -4.741  1.00  0.00     0.077 C 
BRANCH  28  29
HETATM   29  C6  UNL     1      13.626  32.563  -4.990  1.00  0.00     0.086 C 
HETATM   30  N2  UNL     1      12.437  32.965  -4.687  1.00  0.00    -0.391 N 
ATOM     31  H22 UNL     1      11.821  32.289  -4.236  1.00  0.00     0.157 HD
ATOM     32  H21 UNL     1      12.115  33.917  -4.862  1.00  0.00     0.157 HD
HETATM   33  N3  UNL     1      14.496  33.517  -5.627  1.00  0.00    -0.088 NA
ENDBRANCH  28  29
ENDBRANCH  27  28
ENDBRANCH  26  27
ENDBRANCH  22  26
ENDBRANCH  19  21
ENDBRANCH  17  19
ENDBRANCH   1  16
BRANCH  15  34
HETATM   34  C14 UNL     1      17.436  34.233  -9.495  1.00  0.00     0.145 C 
HETATM   35  S2  UNL     1      17.436  35.094 -11.102  1.00  0.00    -0.091 SA
ENDBRANCH  15  34
BRANCH   5  36
HETATM   36  N7  UNL     1      12.102  30.781  -8.828  1.00  0.00    -0.383 N 
ATOM     37  H72 UNL     1      12.571  30.275  -9.579  1.00  0.00     0.157 HD
ATOM     38  H71 UNL     1      11.460  30.250  -8.239  1.00  0.00     0.157 HD
ENDBRANCH   5  36
TORSDOF 10
ENDMDL
MODEL 5
REMARK VINA RESULT: -8.659642451      1.296      1.576
REMARK  10 active torsions:
REMARK  status: ('A' for Active; 'I' for Inactive)
REMARK    1  A    between atoms: O1_2  and  C2_3 
REMARK    2  A    between atoms: C2_3  and  N4_14 
REMARK    3  A    between atoms: N1_4  and  C3_6 
REMARK    4  A    between atoms: C3_6  and  C4_7 
REMARK    5  A    between atoms: C4_7  and  C5_8 
REMARK    6  A    between atoms: C5_8  and  C6_9 
REMARK    7  A    between atoms: N4_14  and  N5_16 
REMARK    8  A    between atoms: C7_18  and  C8_19 
REMARK    9  A    between atoms: C10_23  and  N7_24 
REMARK   10  A    between atoms: C13_36  and  C14_37 
ROOT
HETATM    1  C8  UNL     1      14.128  30.128  -8.090  1.00  0.00     0.073 A 
HETATM    2  N6  UNL     1      14.864  29.025  -8.556  1.00  0.00    -0.347 N 
ATOM      3  H6  UNL     1      14.689  28.671  -9.496  1.00  0.00     0.166 HD
HETATM    4  C9  UNL     1      15.785  28.433  -7.797  1.00  0.00     0.121 A 
HETATM    5  C10 UNL     1      16.569  27.400  -8.356  1.00  0.00     0.132 A 
HETATM    6  N8  UNL     1      17.563  26.890  -7.585  1.00  0.00    -0.318 N 
ATOM      7  H8  UNL     1      18.153  26.141  -7.948  1.00  0.00     0.170 HD
HETATM    8  C11 UNL     1      17.774  27.365  -6.346  1.00  0.00     0.179 A 
HETATM    9  S1  UNL     1      19.022  26.724  -5.497  1.00  0.00    -0.040 SA
HETATM   10  N9  UNL     1      17.005  28.360  -5.817  1.00  0.00    -0.317 N 
ATOM     11  H9  UNL     1      17.187  28.688  -4.868  1.00  0.00     0.170 HD
HETATM   12  C12 UNL     1      16.010  28.912  -6.531  1.00  0.00     0.139 A 
HETATM   13  N10 UNL     1      15.306  29.974  -6.030  1.00  0.00    -0.341 N 
ATOM     14  H10 UNL     1      15.476  30.315  -5.084  1.00  0.00     0.167 HD
HETATM   15  C13 UNL     1      14.367  30.568  -6.835  1.00  0.00     0.049 A 
ENDROOT
BRANCH   1  16
HETATM   16  C7  UNL     1      13.430  30.849  -9.114  1.00  0.00     0.138 C 
HETATM   17  N5  UNL     1      13.600  31.921  -9.606  1.00  0.00    -0.307 N 
ATOM     18  H5  UNL     1      12.840  32.013 -10.279  1.00  0.00     0.186 HD
BRANCH  17  19
HETATM   19  N4  UNL     1      14.287  33.066  -9.721  1.00  0.00    -0.265 N 
ATOM     20  H4  UNL     1      14.987  33.197 -10.450  1.00  0.00     0.190 HD
BRANCH  19  21
HETATM   21  C2  UNL     1      13.984  34.122  -8.752  1.00  0.00     0.237 C 
HETATM   22  N1  UNL     1      14.771  34.833  -8.241  1.00  0.00    -0.335 N 
ATOM     23  H1  UNL     1      14.167  35.402  -7.648  1.00  0.00     0.168 HD
BRANCH  21  24
HETATM   24  O1  UNL     1      12.597  34.293  -8.393  1.00  0.00    -0.326 OA
HETATM   25  C1  UNL     1      12.363  34.884  -7.108  1.00  0.00     0.213 C 
ENDBRANCH  21  24
BRANCH  22  26
HETATM   26  C3  UNL     1      15.999  35.365  -7.956  1.00  0.00     0.065 C 
BRANCH  26  27
HETATM   27  C4  UNL     1      15.932  36.598  -7.092  1.00  0.00     0.052 C 
BRANCH  27  28
HETATM   28  C5  UNL     1      16.895  37.653  -7.624  1.00  0.00     0.077 C 
BRANCH  28  29
HETATM   29  C6  UNL     1      17.990  37.931  -6.717  1.00  0.00     0.086 C 
HETATM   30  N2  UNL     1      18.739  38.976  -6.828  1.00  0.00    -0.391 N 
ATOM     31  H22 UNL     1      18.517  39.628  -7.580  1.00  0.00     0.157 HD
ATOM     32  H21 UNL     1      19.510  39.172  -6.189  1.00  0.00     0.157 HD
HETATM   33  N3  UNL     1      18.303  37.010  -5.655  1.00  0.00    -0.088 NA
ENDBRANCH  28  29
ENDBRANCH  27  28
ENDBRANCH  26  27
ENDBRANCH  22  26
ENDBRANCH  19  21
ENDBRANCH  17  19
ENDBRANCH   1  16
BRANCH  15  34
HETATM   34  C14 UNL     1      13.549  31.700  -6.269  1.00  0.00     0.145 C 
HETATM   35  S2  UNL     1      14.488  32.529  -4.943  1.00  0.00    -0.091 SA
ENDBRANCH  15  34
BRANCH   5  36
HETATM   36  N7  UNL     1      16.333  26.966  -9.533  1.00  0.00    -0.383 N 
ATOM     37  H72 UNL     1      15.491  27.224 -10.047  1.00  0.00     0.157 HD
ATOM     38  H71 UNL     1      16.994  26.348 -10.003  1.00  0.00     0.157 HD
ENDBRANCH   5  36
TORSDOF 10
ENDMDL
