MODEL 1
REMARK VINA RESULT: -8.024815666      0.000      0.000
REMARK  9 active torsions:
REMARK  status: ('A' for Active; 'I' for Inactive)
REMARK    1  A    between atoms: C2_2  and  C3_3 
REMARK    2  A    between atoms: C4_6  and  S1_7 
REMARK    3  A    between atoms: S1_7  and  C5_8 
REMARK    4  A    between atoms: C5_8  and  C6_9 
REMARK    5  A    between atoms: C6_9  and  C7_10 
REMARK    6  A    between atoms: C7_10  and  C8_11 
REMARK    7  A    between atoms: C9_13  and  N2_14 
REMARK    8  A    between atoms: C12_21  and  C13_22 
REMARK    9  A    between atoms: C14_25  and  N5_26 
ROOT
HETATM    1  C3  UNL     1      14.085  32.971  -6.661  1.00  0.00     0.084 A 
HETATM    2  N1  UNL     1      14.564  31.797  -7.062  1.00  0.00    -0.338 N 
ATOM      3  H1  UNL     1      14.338  30.901  -6.629  1.00  0.00     0.168 HD
HETATM    4  C4  UNL     1      15.391  31.951  -8.124  1.00  0.00     0.102 A 
HETATM    5  C12 UNL     1      15.435  33.300  -8.406  1.00  0.00     0.115 A 
HETATM    6  N9  UNL     1      14.629  33.897  -7.498  1.00  0.00    -0.336 N 
HETATM    7  C16 UNL     1      14.347  35.312  -7.380  1.00  0.00     0.158 C 
ENDROOT
BRANCH   5   8
HETATM    8  C13 UNL     1      16.174  34.011  -9.451  1.00  0.00     0.166 A 
HETATM    9  N4  UNL     1      17.377  34.571  -9.121  1.00  0.00    -0.173 N 
HETATM   10  C14 UNL     1      18.150  35.238  -9.980  1.00  0.00     0.692 A 
ATOM     11  H4  UNL     1      17.704  34.472  -8.160  1.00  0.00     0.186 HD
HETATM   12  N6  UNL     1      17.741  35.386 -11.259  1.00  0.00    -0.023 N 
HETATM   13  C15 UNL     1      16.570  34.848 -11.599  1.00  0.00     0.692 A 
ATOM     14  H6  UNL     1      18.308  35.892 -11.940  1.00  0.00     0.203 HD
HETATM   15  N7  UNL     1      16.146  34.972 -12.815  1.00  0.00    -0.234 N 
HETATM   16  N8  UNL     1      15.787  34.162 -10.699  1.00  0.00    -0.173 N 
ATOM     17  H72 UNL     1      16.726  35.480 -13.482  1.00  0.00     0.174 HD
ATOM     18  H71 UNL     1      15.249  34.560 -13.076  1.00  0.00     0.174 HD
ATOM     19  H8  UNL     1      14.898  33.766 -11.003  1.00  0.00     0.186 HD
BRANCH  10  20
HETATM   20  N5  UNL     1      19.280  35.758  -9.663  1.00  0.00    -0.234 N 
ATOM     21  H52 UNL     1      19.437  35.965  -8.677  1.00  0.00     0.174 HD
ATOM     22  H51 UNL     1      20.014  35.970 -10.339  1.00  0.00     0.174 HD
ENDBRANCH  10  20
ENDBRANCH   5   8
BRANCH   4  23
HETATM   23  S1  UNL     1      16.253  30.607  -8.970  1.00  0.00    -0.110 SA
BRANCH  23  24
HETATM   24  C5  UNL     1      15.693  29.052  -8.162  1.00  0.00     0.081 C 
BRANCH  24  25
HETATM   25  C6  UNL     1      16.572  28.761  -6.962  1.00  0.00     0.016 C 
BRANCH  25  26
HETATM   26  C7  UNL     1      16.186  27.436  -6.368  1.00  0.00     0.049 C 
BRANCH  26  27
HETATM   27  C8  UNL     1      17.432  26.666  -5.988  1.00  0.00     0.008 A 
HETATM   28  S2  UNL     1      18.773  27.107  -5.028  1.00  0.00    -0.057 SA
HETATM   29  C9  UNL     1      19.666  25.656  -5.163  1.00  0.00     0.142 A 
HETATM   30  N3  UNL     1      18.887  24.899  -5.942  1.00  0.00    -0.340 N 
HETATM   31  C10 UNL     1      17.761  25.392  -6.365  1.00  0.00     0.020 A 
ATOM     32  H3  UNL     1      19.171  23.954  -6.199  1.00  0.00     0.168 HD
HETATM   33  C11 UNL     1      16.804  24.606  -7.250  1.00  0.00     0.069 C 
BRANCH  29  34
HETATM   34  N2  UNL     1      20.834  25.355  -4.632  1.00  0.00    -0.380 N 
ATOM     35  H22 UNL     1      21.198  25.609  -3.714  1.00  0.00     0.158 HD
ATOM     36  H21 UNL     1      21.598  24.813  -5.036  1.00  0.00     0.158 HD
ENDBRANCH  29  34
ENDBRANCH  26  27
ENDBRANCH  25  26
ENDBRANCH  24  25
ENDBRANCH  23  24
ENDBRANCH   4  23
BRANCH   1  37
HETATM   37  C2  UNL     1      13.134  33.255  -5.532  1.00  0.00     0.072 C 
HETATM   38  C1  UNL     1      11.698  33.238  -5.956  1.00  0.00     0.013 C 
ENDBRANCH   1  37
TORSDOF 9
ENDMDL
MODEL 2
REMARK VINA RESULT: -7.982313975      0.120      1.515
REMARK  9 active torsions:
REMARK  status: ('A' for Active; 'I' for Inactive)
REMARK    1  A    between atoms: C2_2  and  C3_3 
REMARK    2  A    between atoms: C4_6  and  S1_7 
REMARK    3  A    between atoms: S1_7  and  C5_8 
REMARK    4  A    between atoms: C5_8  and  C6_9 
REMARK    5  A    between atoms: C6_9  and  C7_10 
REMARK    6  A    between atoms: C7_10  and  C8_11 
REMARK    7  A    between atoms: C9_13  and  N2_14 
REMARK    8  A    between atoms: C12_21  and  C13_22 
REMARK    9  A    between atoms: C14_25  and  N5_26 
ROOT
HETATM    1  C3  UNL     1      13.968  32.905  -6.654  1.00  0.00     0.084 A 
HETATM    2  N1  UNL     1      14.428  31.735  -7.086  1.00  0.00    -0.338 N 
ATOM      3  H1  UNL     1      14.144  30.828  -6.713  1.00  0.00     0.168 HD
HETATM    4  C4  UNL     1      15.324  31.908  -8.088  1.00  0.00     0.102 A 
HETATM    5  C12 UNL     1      15.434  33.267  -8.297  1.00  0.00     0.115 A 
HETATM    6  N9  UNL     1      14.596  33.849  -7.408  1.00  0.00    -0.336 N 
HETATM    7  C16 UNL     1      14.359  35.267  -7.235  1.00  0.00     0.158 C 
ENDROOT
BRANCH   5   8
HETATM    8  C13 UNL     1      16.260  33.999  -9.258  1.00  0.00     0.166 A 
HETATM    9  N4  UNL     1      15.781  34.160 -10.529  1.00  0.00    -0.173 N 
HETATM   10  C14 UNL     1      16.431  34.812 -11.494  1.00  0.00     0.692 A 
ATOM     11  H4  UNL     1      14.871  33.757 -10.752  1.00  0.00     0.186 HD
HETATM   12  N6  UNL     1      17.639  35.354 -11.227  1.00  0.00    -0.023 N 
HETATM   13  C15 UNL     1      18.124  35.208  -9.994  1.00  0.00     0.692 A 
ATOM     14  H6  UNL     1      18.162  35.858 -11.944  1.00  0.00     0.203 HD
HETATM   15  N7  UNL     1      19.278  35.712  -9.703  1.00  0.00    -0.234 N 
HETATM   16  N8  UNL     1      17.437  34.532  -9.011  1.00  0.00    -0.173 N 
ATOM     17  H72 UNL     1      19.787  36.213 -10.432  1.00  0.00     0.174 HD
ATOM     18  H71 UNL     1      19.649  35.600  -8.759  1.00  0.00     0.174 HD
ATOM     19  H8  UNL     1      17.845  34.445  -8.080  1.00  0.00     0.186 HD
BRANCH  10  20
HETATM   20  N5  UNL     1      15.973  34.961 -12.684  1.00  0.00    -0.234 N 
ATOM     21  H52 UNL     1      14.963  34.890 -12.806  1.00  0.00     0.174 HD
ATOM     22  H51 UNL     1      16.561  35.144 -13.497  1.00  0.00     0.174 HD
ENDBRANCH  10  20
ENDBRANCH   5   8
BRANCH   4  23
HETATM   23  S1  UNL     1      16.186  30.575  -8.950  1.00  0.00    -0.110 SA
BRANCH  23  24
HETATM   24  C5  UNL     1      15.663  29.014  -8.130  1.00  0.00     0.081 C 
BRANCH  24  25
HETATM   25  C6  UNL     1      16.578  28.729  -6.955  1.00  0.00     0.016 C 
BRANCH  25  26
HETATM   26  C7  UNL     1      16.202  27.414  -6.334  1.00  0.00     0.049 C 
BRANCH  26  27
HETATM   27  C8  UNL     1      17.454  26.649  -5.963  1.00  0.00     0.008 A 
HETATM   28  S2  UNL     1      18.801  27.098  -5.016  1.00  0.00    -0.057 SA
HETATM   29  C9  UNL     1      19.699  25.650  -5.155  1.00  0.00     0.142 A 
HETATM   30  N3  UNL     1      18.917  24.889  -5.926  1.00  0.00    -0.340 N 
HETATM   31  C10 UNL     1      17.785  25.376  -6.340  1.00  0.00     0.020 A 
ATOM     32  H3  UNL     1      19.202  23.944  -6.184  1.00  0.00     0.168 HD
HETATM   33  C11 UNL     1      16.823  24.584  -7.216  1.00  0.00     0.069 C 
BRANCH  29  34
HETATM   34  N2  UNL     1      20.873  25.355  -4.633  1.00  0.00    -0.380 N 
ATOM     35  H22 UNL     1      21.492  24.577  -4.863  1.00  0.00     0.158 HD
ATOM     36  H21 UNL     1      21.387  25.846  -3.902  1.00  0.00     0.158 HD
ENDBRANCH  29  34
ENDBRANCH  26  27
ENDBRANCH  25  26
ENDBRANCH  24  25
ENDBRANCH  23  24
ENDBRANCH   4  23
BRANCH   1  37
HETATM   37  C2  UNL     1      12.961  33.170  -5.570  1.00  0.00     0.072 C 
HETATM   38  C1  UNL     1      11.566  33.323  -6.090  1.00  0.00     0.013 C 
ENDBRANCH   1  37
TORSDOF 9
ENDMDL
MODEL 3
REMARK VINA RESULT: -7.962237584      1.560      4.547
REMARK  9 active torsions:
REMARK  status: ('A' for Active; 'I' for Inactive)
REMARK    1  A    between atoms: C2_2  and  C3_3 
REMARK    2  A    between atoms: C4_6  and  S1_7 
REMARK    3  A    between atoms: S1_7  and  C5_8 
REMARK    4  A    between atoms: C5_8  and  C6_9 
REMARK    5  A    between atoms: C6_9  and  C7_10 
REMARK    6  A    between atoms: C7_10  and  C8_11 
REMARK    7  A    between atoms: C9_13  and  N2_14 
REMARK    8  A    between atoms: C12_21  and  C13_22 
REMARK    9  A    between atoms: C14_25  and  N5_26 
ROOT
HETATM    1  C3  UNL     1      16.773  33.797  -9.565  1.00  0.00     0.084 A 
HETATM    2  N1  UNL     1      16.794  32.489  -9.804  1.00  0.00    -0.338 N 
ATOM      3  H1  UNL     1      17.408  32.035 -10.481  1.00  0.00     0.168 HD
HETATM    4  C4  UNL     1      15.891  31.842  -9.029  1.00  0.00     0.102 A 
HETATM    5  C12 UNL     1      15.265  32.798  -8.257  1.00  0.00     0.115 A 
HETATM    6  N9  UNL     1      15.824  33.981  -8.606  1.00  0.00    -0.336 N 
HETATM    7  C16 UNL     1      15.500  35.288  -8.073  1.00  0.00     0.158 C 
ENDROOT
BRANCH   5   8
HETATM    8  C13 UNL     1      14.212  32.645  -7.253  1.00  0.00     0.166 A 
HETATM    9  N4  UNL     1      14.341  31.642  -6.332  1.00  0.00    -0.173 N 
HETATM   10  C14 UNL     1      13.457  31.401  -5.363  1.00  0.00     0.692 A 
ATOM     11  H4  UNL     1      15.163  31.042  -6.391  1.00  0.00     0.186 HD
HETATM   12  N6  UNL     1      12.357  32.179  -5.264  1.00  0.00    -0.023 N 
HETATM   13  C15 UNL     1      12.213  33.162  -6.152  1.00  0.00     0.692 A 
ATOM     14  H6  UNL     1      11.661  32.021  -4.535  1.00  0.00     0.203 HD
HETATM   15  N7  UNL     1      11.171  33.926  -6.089  1.00  0.00    -0.234 N 
HETATM   16  N8  UNL     1      13.137  33.396  -7.145  1.00  0.00    -0.173 N 
ATOM     17  H72 UNL     1      10.486  33.753  -5.353  1.00  0.00     0.174 HD
ATOM     18  H71 UNL     1      11.061  34.679  -6.769  1.00  0.00     0.174 HD
ATOM     19  H8  UNL     1      12.987  34.160  -7.804  1.00  0.00     0.186 HD
BRANCH  10  20
HETATM   20  N5  UNL     1      13.586  30.459  -4.501  1.00  0.00    -0.234 N 
ATOM     21  H52 UNL     1      14.450  30.441  -3.959  1.00  0.00     0.174 HD
ATOM     22  H51 UNL     1      12.879  29.743  -4.336  1.00  0.00     0.174 HD
ENDBRANCH  10  20
ENDBRANCH   5   8
BRANCH   4  23
HETATM   23  S1  UNL     1      15.599  30.059  -9.046  1.00  0.00    -0.110 SA
BRANCH  23  24
HETATM   24  C5  UNL     1      16.266  29.416  -7.457  1.00  0.00     0.081 C 
BRANCH  24  25
HETATM   25  C6  UNL     1      16.294  27.901  -7.496  1.00  0.00     0.016 C 
BRANCH  25  26
HETATM   26  C7  UNL     1      16.288  27.364  -6.093  1.00  0.00     0.049 C 
BRANCH  26  27
HETATM   27  C8  UNL     1      17.544  26.555  -5.852  1.00  0.00     0.008 A 
HETATM   28  S2  UNL     1      18.961  26.921  -4.973  1.00  0.00    -0.057 SA
HETATM   29  C9  UNL     1      19.814  25.468  -5.256  1.00  0.00     0.142 A 
HETATM   30  N3  UNL     1      18.965  24.768  -6.015  1.00  0.00    -0.340 N 
HETATM   31  C10 UNL     1      17.820  25.300  -6.323  1.00  0.00     0.020 A 
ATOM     32  H3  UNL     1      19.212  23.835  -6.345  1.00  0.00     0.168 HD
HETATM   33  C11 UNL     1      16.785  24.580  -7.176  1.00  0.00     0.069 C 
BRANCH  29  34
HETATM   34  N2  UNL     1      21.013  25.120  -4.832  1.00  0.00    -0.380 N 
ATOM     35  H22 UNL     1      21.276  24.718  -3.932  1.00  0.00     0.158 HD
ATOM     36  H21 UNL     1      21.906  25.185  -5.321  1.00  0.00     0.158 HD
ENDBRANCH  29  34
ENDBRANCH  26  27
ENDBRANCH  25  26
ENDBRANCH  24  25
ENDBRANCH  23  24
ENDBRANCH   4  23
BRANCH   1  37
HETATM   37  C2  UNL     1      17.611  34.875 -10.192  1.00  0.00     0.072 C 
HETATM   38  C1  UNL     1      18.561  34.354 -11.225  1.00  0.00     0.013 C 
ENDBRANCH   1  37
TORSDOF 9
ENDMDL
MODEL 4
REMARK VINA RESULT: -7.818722418      1.554      4.653
REMARK  9 active torsions:
REMARK  status: ('A' for Active; 'I' for Inactive)
REMARK    1  A    between atoms: C2_2  and  C3_3 
REMARK    2  A    between atoms: C4_6  and  S1_7 
REMARK    3  A    between atoms: S1_7  and  C5_8 
REMARK    4  A    between atoms: C5_8  and  C6_9 
REMARK    5  A    between atoms: C6_9  and  C7_10 
REMARK    6  A    between atoms: C7_10  and  C8_11 
REMARK    7  A    between atoms: C9_13  and  N2_14 
REMARK    8  A    between atoms: C12_21  and  C13_22 
REMARK    9  A    between atoms: C14_25  and  N5_26 
ROOT
HETATM    1  C3  UNL     1      16.716  33.737  -9.677  1.00  0.00     0.084 A 
HETATM    2  N1  UNL     1      16.764  32.431  -9.923  1.00  0.00    -0.338 N 
ATOM      3  H1  UNL     1      17.348  31.998 -10.639  1.00  0.00     0.168 HD
HETATM    4  C4  UNL     1      15.933  31.753  -9.094  1.00  0.00     0.102 A 
HETATM    5  C12 UNL     1      15.328  32.687  -8.281  1.00  0.00     0.115 A 
HETATM    6  N9  UNL     1      15.824  33.888  -8.660  1.00  0.00    -0.336 N 
HETATM    7  C16 UNL     1      15.493  35.182  -8.102  1.00  0.00     0.158 C 
ENDROOT
BRANCH   5   8
HETATM    8  C13 UNL     1      14.346  32.498  -7.212  1.00  0.00     0.166 A 
HETATM    9  N4  UNL     1      13.254  33.321  -7.187  1.00  0.00    -0.173 N 
HETATM   10  C14 UNL     1      12.286  33.248  -6.273  1.00  0.00     0.692 A 
ATOM     11  H4  UNL     1      13.176  34.035  -7.912  1.00  0.00     0.186 HD
HETATM   12  N6  UNL     1      12.365  32.314  -5.300  1.00  0.00    -0.023 N 
HETATM   13  C15 UNL     1      13.422  31.502  -5.307  1.00  0.00     0.692 A 
ATOM     14  H6  UNL     1      11.641  32.233  -4.585  1.00  0.00     0.203 HD
HETATM   15  N7  UNL     1      13.532  30.597  -4.390  1.00  0.00    -0.234 N 
HETATM   16  N8  UNL     1      14.411  31.593  -6.260  1.00  0.00    -0.173 N 
ATOM     17  H72 UNL     1      12.799  30.530  -3.683  1.00  0.00     0.174 HD
ATOM     18  H71 UNL     1      14.341  29.976  -4.395  1.00  0.00     0.174 HD
ATOM     19  H8  UNL     1      15.203  30.950  -6.228  1.00  0.00     0.186 HD
BRANCH  10  20
HETATM   20  N5  UNL     1      11.262  34.023  -6.258  1.00  0.00    -0.234 N 
ATOM     21  H52 UNL     1      11.158  34.670  -7.039  1.00  0.00     0.174 HD
ATOM     22  H51 UNL     1      10.563  34.020  -5.516  1.00  0.00     0.174 HD
ENDBRANCH  10  20
ENDBRANCH   5   8
BRANCH   4  23
HETATM   23  S1  UNL     1      15.698  29.962  -9.100  1.00  0.00    -0.110 SA
BRANCH  23  24
HETATM   24  C5  UNL     1      16.269  29.366  -7.456  1.00  0.00     0.081 C 
BRANCH  24  25
HETATM   25  C6  UNL     1      16.299  27.850  -7.449  1.00  0.00     0.016 C 
BRANCH  25  26
HETATM   26  C7  UNL     1      16.334  27.356  -6.031  1.00  0.00     0.049 C 
BRANCH  26  27
HETATM   27  C8  UNL     1      17.595  26.550  -5.804  1.00  0.00     0.008 A 
HETATM   28  S2  UNL     1      19.018  26.919  -4.936  1.00  0.00    -0.057 SA
HETATM   29  C9  UNL     1      19.873  25.468  -5.231  1.00  0.00     0.142 A 
HETATM   30  N3  UNL     1      19.020  24.768  -5.984  1.00  0.00    -0.340 N 
HETATM   31  C10 UNL     1      17.871  25.297  -6.280  1.00  0.00     0.020 A 
ATOM     32  H3  UNL     1      19.266  23.836  -6.319  1.00  0.00     0.168 HD
HETATM   33  C11 UNL     1      16.830  24.576  -7.126  1.00  0.00     0.069 C 
BRANCH  29  34
HETATM   34  N2  UNL     1      21.077  25.123  -4.819  1.00  0.00    -0.380 N 
ATOM     35  H22 UNL     1      21.791  25.708  -4.387  1.00  0.00     0.158 HD
ATOM     36  H21 UNL     1      21.524  24.207  -4.852  1.00  0.00     0.158 HD
ENDBRANCH  29  34
ENDBRANCH  26  27
ENDBRANCH  25  26
ENDBRANCH  24  25
ENDBRANCH  23  24
ENDBRANCH   4  23
BRANCH   1  37
HETATM   37  C2  UNL     1      17.478  34.843 -10.353  1.00  0.00     0.072 C 
HETATM   38  C1  UNL     1      18.592  34.344 -11.219  1.00  0.00     0.013 C 
ENDBRANCH   1  37
TORSDOF 9
ENDMDL
MODEL 5
REMARK VINA RESULT: -7.707559650      2.932      8.131
REMARK  9 active torsions:
REMARK  status: ('A' for Active; 'I' for Inactive)
REMARK    1  A    between atoms: C2_2  and  C3_3 
REMARK    2  A    between atoms: C4_6  and  S1_7 
REMARK    3  A    between atoms: S1_7  and  C5_8 
REMARK    4  A    between atoms: C5_8  and  C6_9 
REMARK    5  A    between atoms: C6_9  and  C7_10 
REMARK    6  A    between atoms: C7_10  and  C8_11 
REMARK    7  A    between atoms: C9_13  and  N2_14 
REMARK    8  A    between atoms: C12_21  and  C13_22 
REMARK    9  A    between atoms: C14_25  and  N5_26 
ROOT
HETATM    1  C3  UNL     1      13.896  32.361  -6.169  1.00  0.00     0.084 A 
HETATM    2  N1  UNL     1      14.487  32.709  -7.309  1.00  0.00    -0.338 N 
ATOM      3  H1  UNL     1      14.383  33.618  -7.761  1.00  0.00     0.168 HD
HETATM    4  C4  UNL     1      15.246  31.693  -7.789  1.00  0.00     0.102 A 
HETATM    5  C12 UNL     1      15.124  30.646  -6.899  1.00  0.00     0.115 A 
HETATM    6  N9  UNL     1      14.295  31.082  -5.922  1.00  0.00    -0.336 N 
HETATM    7  C16 UNL     1      13.857  30.343  -4.758  1.00  0.00     0.158 C 
ENDROOT
BRANCH   5   8
HETATM    8  C13 UNL     1      15.732  29.315  -6.936  1.00  0.00     0.166 A 
HETATM    9  N4  UNL     1      15.538  28.550  -8.052  1.00  0.00    -0.173 N 
HETATM   10  C14 UNL     1      16.043  27.325  -8.213  1.00  0.00     0.692 A 
ATOM     11  H4  UNL     1      14.974  28.938  -8.807  1.00  0.00     0.186 HD
HETATM   12  N6  UNL     1      16.792  26.784  -7.227  1.00  0.00    -0.023 N 
HETATM   13  C15 UNL     1      16.992  27.515  -6.131  1.00  0.00     0.692 A 
ATOM     14  H6  UNL     1      17.191  25.850  -7.319  1.00  0.00     0.203 HD
HETATM   15  N7  UNL     1      17.703  27.029  -5.166  1.00  0.00    -0.234 N 
HETATM   16  N8  UNL     1      16.464  28.778  -5.984  1.00  0.00    -0.173 N 
ATOM     17  H72 UNL     1      18.094  26.093  -5.275  1.00  0.00     0.174 HD
ATOM     18  H71 UNL     1      17.856  27.589  -4.327  1.00  0.00     0.174 HD
ATOM     19  H8  UNL     1      16.642  29.303  -5.127  1.00  0.00     0.186 HD
BRANCH  10  20
HETATM   20  N5  UNL     1      15.859  26.613  -9.265  1.00  0.00    -0.234 N 
ATOM     21  H52 UNL     1      15.381  27.057 -10.049  1.00  0.00     0.174 HD
ATOM     22  H51 UNL     1      16.163  25.643  -9.351  1.00  0.00     0.174 HD
ENDBRANCH  10  20
ENDBRANCH   5   8
BRANCH   4  23
HETATM   23  S1  UNL     1      16.212  31.752  -9.315  1.00  0.00    -0.110 SA
BRANCH  23  24
HETATM   24  C5  UNL     1      16.104  33.486  -9.921  1.00  0.00     0.081 C 
BRANCH  24  25
HETATM   25  C6  UNL     1      17.190  34.318  -9.267  1.00  0.00     0.016 C 
BRANCH  25  26
HETATM   26  C7  UNL     1      16.981  35.767  -9.604  1.00  0.00     0.049 C 
BRANCH  26  27
HETATM   27  C8  UNL     1      17.111  36.606  -8.351  1.00  0.00     0.008 A 
HETATM   28  S2  UNL     1      18.359  37.645  -7.823  1.00  0.00    -0.057 SA
HETATM   29  C9  UNL     1      17.667  38.133  -6.339  1.00  0.00     0.142 A 
HETATM   30  N3  UNL     1      16.506  37.472  -6.320  1.00  0.00    -0.340 N 
HETATM   31  C10 UNL     1      16.212  36.700  -7.324  1.00  0.00     0.020 A 
ATOM     32  H3  UNL     1      15.864  37.571  -5.534  1.00  0.00     0.168 HD
HETATM   33  C11 UNL     1      14.911  35.912  -7.398  1.00  0.00     0.069 C 
BRANCH  29  34
HETATM   34  N2  UNL     1      18.156  38.957  -5.433  1.00  0.00    -0.380 N 
ATOM     35  H22 UNL     1      17.709  39.768  -5.007  1.00  0.00     0.158 HD
ATOM     36  H21 UNL     1      19.072  38.941  -4.985  1.00  0.00     0.158 HD
ENDBRANCH  29  34
ENDBRANCH  26  27
ENDBRANCH  25  26
ENDBRANCH  24  25
ENDBRANCH  23  24
ENDBRANCH   4  23
BRANCH   1  37
HETATM   37  C2  UNL     1      12.982  33.181  -5.304  1.00  0.00     0.072 C 
HETATM   38  C1  UNL     1      11.821  33.755  -6.054  1.00  0.00     0.013 C 
ENDBRANCH   1  37
TORSDOF 9
ENDMDL
