MODEL 1
REMARK VINA RESULT: -8.093714919      0.000      0.000
REMARK  18 active torsions:
REMARK  status: ('A' for Active; 'I' for Inactive)
REMARK    1  A    between atoms: C2_2  and  C4_4 
REMARK    2  A    between atoms: C4_4  and  O1_6 
REMARK    3  A    between atoms: O1_6  and  C6_7 
REMARK    4  A    between atoms: C7_9  and  C8_10 
REMARK    5  A    between atoms: C8_10  and  O3_11 
REMARK    6  A    between atoms: C9_13  and  O4_14 
REMARK    7  A    between atoms: C10_16  and  O5_17 
REMARK    8  A    between atoms: O5_17  and  C11_18 
REMARK    9  A    between atoms: C12_19  and  O6_20 
REMARK   10  A    between atoms: C15_25  and  O8_26 
REMARK   11  A    between atoms: O8_26  and  C16_27 
REMARK   12  A    between atoms: C19_31  and  O10_32 
REMARK   13  A    between atoms: C20_34  and  O11_35 
REMARK   14  A    between atoms: O11_35  and  C21_36 
REMARK   15  A    between atoms: C24_40  and  O13_41 
REMARK   16  A    between atoms: C25_43  and  O14_44 
REMARK   17  A    between atoms: C26_46  and  O15_47 
REMARK   18  A    between atoms: C27_49  and  O16_50 
ROOT
HETATM    1  C11 UNL     1       0.593  33.083 -10.418  1.00  0.00     0.212 C 
HETATM    2  C12 UNL     1      -0.351  34.308 -10.450  1.00  0.00     0.176 C 
HETATM    3  C13 UNL     1      -0.470  34.653 -11.885  1.00  0.00     0.031 C 
HETATM    4  C14 UNL     1       0.543  34.412 -12.689  1.00  0.00     0.137 C 
HETATM    5  O7  UNL     1       1.759  33.838 -12.274  1.00  0.00    -0.330 OA
HETATM    6  C15 UNL     1       1.952  33.523 -10.894  1.00  0.00     0.300 C 
ENDROOT
BRANCH   6   7
HETATM    7  O8  UNL     1       3.012  32.766 -10.594  1.00  0.00    -0.326 OA
BRANCH   7   8
HETATM    8  C16 UNL     1       3.545  31.959 -11.550  1.00  0.00     0.294 C 
HETATM    9  O9  UNL     1       4.728  32.303 -12.127  1.00  0.00    -0.351 OA
HETATM   10  C17 UNL     1       4.824  31.715 -13.411  1.00  0.00     0.152 C 
HETATM   11  C18 UNL     1       6.297  31.694 -13.759  1.00  0.00     0.042 C 
HETATM   12  C19 UNL     1       4.372  30.254 -13.265  1.00  0.00     0.178 C 
HETATM   13  C20 UNL     1       4.720  29.834 -11.871  1.00  0.00     0.189 C 
HETATM   14  C27 UNL     1       3.693  30.561 -10.979  1.00  0.00     0.205 C 
BRANCH  12  15
HETATM   15  O10 UNL     1       4.955  29.529 -14.266  1.00  0.00    -0.390 OA
ATOM     16  H10 UNL     1       4.267  29.079 -14.742  1.00  0.00     0.210 HD
ENDBRANCH  12  15
BRANCH  13  17
HETATM   17  O11 UNL     1       4.569  28.504 -11.587  1.00  0.00    -0.348 OA
BRANCH  17  18
HETATM   18  C21 UNL     1       5.668  27.912 -11.001  1.00  0.00     0.292 C 
HETATM   19  O12 UNL     1       6.555  28.841 -10.459  1.00  0.00    -0.351 OA
HETATM   20  C22 UNL     1       7.830  28.292 -10.554  1.00  0.00     0.152 C 
HETATM   21  C23 UNL     1       8.834  29.184  -9.862  1.00  0.00     0.042 C 
HETATM   22  C24 UNL     1       7.885  26.865 -10.083  1.00  0.00     0.178 C 
HETATM   23  C25 UNL     1       6.657  26.440  -9.327  1.00  0.00     0.183 C 
HETATM   24  C26 UNL     1       5.375  26.908  -9.939  1.00  0.00     0.204 C 
BRANCH  22  25
HETATM   25  O13 UNL     1       8.129  25.981 -11.134  1.00  0.00    -0.390 OA
ATOM     26  H13 UNL     1       8.975  26.136 -11.537  1.00  0.00     0.210 HD
ENDBRANCH  22  25
BRANCH  23  27
HETATM   27  O14 UNL     1       6.758  26.776  -7.976  1.00  0.00    -0.390 OA
ATOM     28  H14 UNL     1       6.337  27.609  -7.798  1.00  0.00     0.210 HD
ENDBRANCH  23  27
BRANCH  24  29
HETATM   29  O15 UNL     1       4.664  27.575  -8.917  1.00  0.00    -0.388 OA
ATOM     30  H15 UNL     1       4.061  26.946  -8.538  1.00  0.00     0.210 HD
ENDBRANCH  24  29
ENDBRANCH  17  18
ENDBRANCH  13  17
BRANCH  14  31
HETATM   31  O16 UNL     1       4.137  30.599  -9.664  1.00  0.00    -0.388 OA
ATOM     32  H16 UNL     1       3.935  29.790  -9.209  1.00  0.00     0.210 HD
ENDBRANCH  14  31
ENDBRANCH   7   8
ENDBRANCH   6   7
BRANCH   1  33
HETATM   33  O5  UNL     1       0.067  32.047 -11.123  1.00  0.00    -0.345 OA
BRANCH  33  34
HETATM   34  C10 UNL     1      -0.837  31.240 -10.460  1.00  0.00     0.297 C 
HETATM   35  C9  UNL     1      -0.205  29.951  -9.958  1.00  0.00     0.204 C 
HETATM   36  C7  UNL     1       0.407  29.337 -11.220  1.00  0.00     0.184 C 
HETATM   37  O2  UNL     1      -0.253  29.585 -12.363  1.00  0.00    -0.329 OA
HETATM   38  C6  UNL     1      -1.452  30.184 -12.414  1.00  0.00     0.416 C 
HETATM   39  O17 UNL     1      -1.905  30.885 -11.310  1.00  0.00    -0.305 OA
BRANCH  35  40
HETATM   40  O4  UNL     1       0.664  30.095  -8.925  1.00  0.00    -0.388 OA
ATOM     41  H4  UNL     1       0.468  30.821  -8.344  1.00  0.00     0.210 HD
ENDBRANCH  35  40
BRANCH  36  42
HETATM   42  C8  UNL     1       0.632  27.858 -10.920  1.00  0.00     0.199 C 
BRANCH  42  43
HETATM   43  O3  UNL     1       1.858  27.622 -10.308  1.00  0.00    -0.398 OA
ATOM     44  H3  UNL     1       2.382  26.987 -10.782  1.00  0.00     0.209 HD
ENDBRANCH  42  43
ENDBRANCH  36  42
BRANCH  38  45
HETATM   45  O1  UNL     1      -2.471  29.296 -12.767  1.00  0.00    -0.334 OA
BRANCH  45  46
HETATM   46  C4  UNL     1      -2.125  28.358 -13.701  1.00  0.00     0.126 C 
HETATM   47  C5  UNL     1      -2.491  28.748 -15.120  1.00  0.00     0.040 C 
BRANCH  46  48
HETATM   48  C2  UNL     1      -2.624  26.969 -13.362  1.00  0.00     0.006 C 
HETATM   49  C1  UNL     1      -3.674  27.145 -12.266  1.00  0.00     0.012 C 
HETATM   50  C3  UNL     1      -3.335  26.424 -14.572  1.00  0.00     0.012 C 
ENDBRANCH  46  48
ENDBRANCH  45  46
ENDBRANCH  38  45
ENDBRANCH  33  34
ENDBRANCH   1  33
BRANCH   2  51
HETATM   51  O6  UNL     1       0.335  35.350  -9.839  1.00  0.00    -0.389 OA
ATOM     52  H6  UNL     1       0.503  35.996 -10.516  1.00  0.00     0.210 HD
ENDBRANCH   2  51
TORSDOF 18
ENDMDL
MODEL 2
REMARK VINA RESULT: -8.053682732      1.916      8.231
REMARK  18 active torsions:
REMARK  status: ('A' for Active; 'I' for Inactive)
REMARK    1  A    between atoms: C2_2  and  C4_4 
REMARK    2  A    between atoms: C4_4  and  O1_6 
REMARK    3  A    between atoms: O1_6  and  C6_7 
REMARK    4  A    between atoms: C7_9  and  C8_10 
REMARK    5  A    between atoms: C8_10  and  O3_11 
REMARK    6  A    between atoms: C9_13  and  O4_14 
REMARK    7  A    between atoms: C10_16  and  O5_17 
REMARK    8  A    between atoms: O5_17  and  C11_18 
REMARK    9  A    between atoms: C12_19  and  O6_20 
REMARK   10  A    between atoms: C15_25  and  O8_26 
REMARK   11  A    between atoms: O8_26  and  C16_27 
REMARK   12  A    between atoms: C19_31  and  O10_32 
REMARK   13  A    between atoms: C20_34  and  O11_35 
REMARK   14  A    between atoms: O11_35  and  C21_36 
REMARK   15  A    between atoms: C24_40  and  O13_41 
REMARK   16  A    between atoms: C25_43  and  O14_44 
REMARK   17  A    between atoms: C26_46  and  O15_47 
REMARK   18  A    between atoms: C27_49  and  O16_50 
ROOT
HETATM    1  C11 UNL     1       3.370  31.028 -12.324  1.00  0.00     0.212 C 
HETATM    2  C12 UNL     1       3.278  32.334 -13.149  1.00  0.00     0.176 C 
HETATM    3  C13 UNL     1       3.861  33.374 -12.272  1.00  0.00     0.031 C 
HETATM    4  C14 UNL     1       3.747  33.252 -10.967  1.00  0.00     0.137 C 
HETATM    5  O7  UNL     1       3.095  32.179 -10.330  1.00  0.00    -0.330 OA
HETATM    6  C15 UNL     1       2.473  31.165 -11.122  1.00  0.00     0.300 C 
ENDROOT
BRANCH   6   7
HETATM    7  O8  UNL     1       2.085  30.058 -10.483  1.00  0.00    -0.326 OA
BRANCH   7   8
HETATM    8  C16 UNL     1       0.764  29.869 -10.222  1.00  0.00     0.294 C 
HETATM    9  O9  UNL     1      -0.089  30.925 -10.304  1.00  0.00    -0.351 OA
HETATM   10  C17 UNL     1      -1.221  30.693  -9.488  1.00  0.00     0.152 C 
HETATM   11  C18 UNL     1      -2.313  31.603 -10.007  1.00  0.00     0.042 C 
HETATM   12  C19 UNL     1      -1.670  29.248  -9.754  1.00  0.00     0.178 C 
HETATM   13  C20 UNL     1      -1.293  28.935 -11.168  1.00  0.00     0.189 C 
HETATM   14  C27 UNL     1       0.241  28.775 -11.133  1.00  0.00     0.205 C 
BRANCH  12  15
HETATM   15  O10 UNL     1      -3.002  29.159  -9.462  1.00  0.00    -0.390 OA
ATOM     16  H10 UNL     1      -3.088  28.924  -8.545  1.00  0.00     0.210 HD
ENDBRANCH  12  15
BRANCH  13  17
HETATM   17  O11 UNL     1      -1.769  27.754 -11.671  1.00  0.00    -0.348 OA
BRANCH  17  18
HETATM   18  C21 UNL     1      -2.181  27.813 -12.985  1.00  0.00     0.292 C 
HETATM   19  O12 UNL     1      -1.215  27.344 -13.874  1.00  0.00    -0.351 OA
HETATM   20  C22 UNL     1      -1.375  28.050 -15.062  1.00  0.00     0.152 C 
HETATM   21  C23 UNL     1      -0.450  27.501 -16.123  1.00  0.00     0.042 C 
HETATM   22  C24 UNL     1      -2.810  28.116 -15.508  1.00  0.00     0.178 C 
HETATM   23  C25 UNL     1      -3.708  27.162 -14.772  1.00  0.00     0.183 C 
HETATM   24  C26 UNL     1      -3.453  27.103 -13.300  1.00  0.00     0.204 C 
BRANCH  22  25
HETATM   25  O13 UNL     1      -3.319  29.413 -15.425  1.00  0.00    -0.390 OA
ATOM     26  H13 UNL     1      -3.924  29.509 -14.699  1.00  0.00     0.210 HD
ENDBRANCH  22  25
BRANCH  23  27
HETATM   27  O14 UNL     1      -3.695  25.900 -15.368  1.00  0.00    -0.390 OA
ATOM     28  H14 UNL     1      -4.534  25.466 -15.266  1.00  0.00     0.210 HD
ENDBRANCH  23  27
BRANCH  24  29
HETATM   29  O15 UNL     1      -3.261  25.740 -12.982  1.00  0.00    -0.388 OA
ATOM     30  H15 UNL     1      -2.323  25.587 -12.952  1.00  0.00     0.210 HD
ENDBRANCH  24  29
ENDBRANCH  17  18
ENDBRANCH  13  17
BRANCH  14  31
HETATM   31  O16 UNL     1       0.766  28.891 -12.413  1.00  0.00    -0.388 OA
ATOM     32  H16 UNL     1       1.626  28.489 -12.471  1.00  0.00     0.210 HD
ENDBRANCH  14  31
ENDBRANCH   7   8
ENDBRANCH   6   7
BRANCH   1  33
HETATM   33  O5  UNL     1       4.662  30.737 -12.021  1.00  0.00    -0.345 OA
BRANCH  33  34
HETATM   34  C10 UNL     1       5.223  29.651 -12.666  1.00  0.00     0.297 C 
HETATM   35  C9  UNL     1       4.779  28.327 -12.064  1.00  0.00     0.204 C 
HETATM   36  C7  UNL     1       5.149  28.463 -10.585  1.00  0.00     0.184 C 
HETATM   37  O2  UNL     1       6.238  29.205 -10.327  1.00  0.00    -0.329 OA
HETATM   38  C6  UNL     1       7.061  29.671 -11.277  1.00  0.00     0.416 C 
HETATM   39  O17 UNL     1       6.630  29.700 -12.592  1.00  0.00    -0.305 OA
BRANCH  35  40
HETATM   40  O4  UNL     1       3.483  27.992 -12.290  1.00  0.00    -0.388 OA
ATOM     41  H4  UNL     1       3.316  27.057 -12.312  1.00  0.00     0.210 HD
ENDBRANCH  35  40
BRANCH  36  42
HETATM   42  C8  UNL     1       5.189  27.048 -10.014  1.00  0.00     0.199 C 
BRANCH  42  43
HETATM   43  O3  UNL     1       3.945  26.625  -9.560  1.00  0.00    -0.398 OA
ATOM     44  H3  UNL     1       3.850  25.680  -9.594  1.00  0.00     0.209 HD
ENDBRANCH  42  43
ENDBRANCH  36  42
BRANCH  38  45
HETATM   45  O1  UNL     1       8.295  29.014 -11.277  1.00  0.00    -0.334 OA
BRANCH  45  46
HETATM   46  C4  UNL     1       8.697  28.537 -10.060  1.00  0.00     0.126 C 
HETATM   47  C5  UNL     1       9.634  29.471  -9.319  1.00  0.00     0.040 C 
BRANCH  46  48
HETATM   48  C2  UNL     1       9.257  27.131 -10.128  1.00  0.00     0.006 C 
HETATM   49  C1  UNL     1       8.659  26.373  -8.943  1.00  0.00     0.012 C 
HETATM   50  C3  UNL     1       8.729  26.482 -11.379  1.00  0.00     0.012 C 
ENDBRANCH  46  48
ENDBRANCH  45  46
ENDBRANCH  38  45
ENDBRANCH  33  34
ENDBRANCH   1  33
BRANCH   2  51
HETATM   51  O6  UNL     1       1.925  32.624 -13.277  1.00  0.00    -0.389 OA
ATOM     52  H6  UNL     1       1.867  33.404 -13.817  1.00  0.00     0.210 HD
ENDBRANCH   2  51
TORSDOF 18
ENDMDL
MODEL 3
REMARK VINA RESULT: -7.937802941      0.875      1.738
REMARK  18 active torsions:
REMARK  status: ('A' for Active; 'I' for Inactive)
REMARK    1  A    between atoms: C2_2  and  C4_4 
REMARK    2  A    between atoms: C4_4  and  O1_6 
REMARK    3  A    between atoms: O1_6  and  C6_7 
REMARK    4  A    between atoms: C7_9  and  C8_10 
REMARK    5  A    between atoms: C8_10  and  O3_11 
REMARK    6  A    between atoms: C9_13  and  O4_14 
REMARK    7  A    between atoms: C10_16  and  O5_17 
REMARK    8  A    between atoms: O5_17  and  C11_18 
REMARK    9  A    between atoms: C12_19  and  O6_20 
REMARK   10  A    between atoms: C15_25  and  O8_26 
REMARK   11  A    between atoms: O8_26  and  C16_27 
REMARK   12  A    between atoms: C19_31  and  O10_32 
REMARK   13  A    between atoms: C20_34  and  O11_35 
REMARK   14  A    between atoms: O11_35  and  C21_36 
REMARK   15  A    between atoms: C24_40  and  O13_41 
REMARK   16  A    between atoms: C25_43  and  O14_44 
REMARK   17  A    between atoms: C26_46  and  O15_47 
REMARK   18  A    between atoms: C27_49  and  O16_50 
ROOT
HETATM    1  C11 UNL     1       0.320  33.026 -10.232  1.00  0.00     0.212 C 
HETATM    2  C12 UNL     1      -0.715  34.175 -10.297  1.00  0.00     0.176 C 
HETATM    3  C13 UNL     1      -0.811  34.512 -11.736  1.00  0.00     0.031 C 
HETATM    4  C14 UNL     1       0.244  34.350 -12.506  1.00  0.00     0.137 C 
HETATM    5  O7  UNL     1       1.486  33.870 -12.050  1.00  0.00    -0.330 OA
HETATM    6  C15 UNL     1       1.656  33.569 -10.663  1.00  0.00     0.300 C 
ENDROOT
BRANCH   6   7
HETATM    7  O8  UNL     1       2.760  32.896 -10.327  1.00  0.00    -0.326 OA
BRANCH   7   8
HETATM    8  C16 UNL     1       3.344  32.077 -11.241  1.00  0.00     0.294 C 
HETATM    9  O9  UNL     1       4.669  32.222 -11.514  1.00  0.00    -0.351 OA
HETATM   10  C17 UNL     1       4.948  31.730 -12.812  1.00  0.00     0.152 C 
HETATM   11  C18 UNL     1       6.434  31.443 -12.846  1.00  0.00     0.042 C 
HETATM   12  C19 UNL     1       4.223  30.383 -12.941  1.00  0.00     0.178 C 
HETATM   13  C20 UNL     1       4.165  29.792 -11.566  1.00  0.00     0.189 C 
HETATM   14  C27 UNL     1       3.108  30.637 -10.827  1.00  0.00     0.205 C 
BRANCH  12  15
HETATM   15  O10 UNL     1       4.880  29.637 -13.879  1.00  0.00    -0.390 OA
ATOM     16  H10 UNL     1       5.702  29.347 -13.502  1.00  0.00     0.210 HD
ENDBRANCH  12  15
BRANCH  13  17
HETATM   17  O11 UNL     1       3.720  28.501 -11.484  1.00  0.00    -0.348 OA
BRANCH  17  18
HETATM   18  C21 UNL     1       4.541  27.654 -10.770  1.00  0.00     0.292 C 
HETATM   19  O12 UNL     1       4.273  26.308 -11.019  1.00  0.00    -0.351 OA
HETATM   20  C22 UNL     1       4.572  25.609  -9.854  1.00  0.00     0.152 C 
HETATM   21  C23 UNL     1       4.437  24.123 -10.089  1.00  0.00     0.042 C 
HETATM   22  C24 UNL     1       5.903  25.996  -9.271  1.00  0.00     0.178 C 
HETATM   23  C25 UNL     1       6.756  26.800 -10.213  1.00  0.00     0.183 C 
HETATM   24  C26 UNL     1       6.005  27.856 -10.959  1.00  0.00     0.204 C 
BRANCH  22  25
HETATM   25  O13 UNL     1       5.762  26.672  -8.059  1.00  0.00    -0.390 OA
ATOM     26  H13 UNL     1       6.602  26.930  -7.698  1.00  0.00     0.210 HD
ENDBRANCH  22  25
BRANCH  23  27
HETATM   27  O14 UNL     1       7.491  25.967 -11.059  1.00  0.00    -0.390 OA
ATOM     28  H14 UNL     1       7.039  25.834 -11.884  1.00  0.00     0.210 HD
ENDBRANCH  23  27
BRANCH  24  29
HETATM   29  O15 UNL     1       6.282  27.651 -12.329  1.00  0.00    -0.388 OA
ATOM     30  H15 UNL     1       5.489  27.857 -12.810  1.00  0.00     0.210 HD
ENDBRANCH  24  29
ENDBRANCH  17  18
ENDBRANCH  13  17
BRANCH  14  31
HETATM   31  O16 UNL     1       3.241  30.481  -9.453  1.00  0.00    -0.388 OA
ATOM     32  H16 UNL     1       3.285  31.322  -9.013  1.00  0.00     0.210 HD
ENDBRANCH  14  31
ENDBRANCH   7   8
ENDBRANCH   6   7
BRANCH   1  33
HETATM   33  O5  UNL     1      -0.102  31.953 -10.953  1.00  0.00    -0.345 OA
BRANCH  33  34
HETATM   34  C10 UNL     1      -1.069  31.156 -10.373  1.00  0.00     0.297 C 
HETATM   35  C9  UNL     1      -0.517  29.817  -9.910  1.00  0.00     0.204 C 
HETATM   36  C7  UNL     1       0.127  29.239 -11.174  1.00  0.00     0.184 C 
HETATM   37  O2  UNL     1      -0.468  29.573 -12.331  1.00  0.00    -0.329 OA
HETATM   38  C6  UNL     1      -1.637  30.227 -12.403  1.00  0.00     0.416 C 
HETATM   39  O17 UNL     1      -2.111  30.893 -11.287  1.00  0.00    -0.305 OA
BRANCH  35  40
HETATM   40  O4  UNL     1       0.309  29.870  -8.834  1.00  0.00    -0.388 OA
ATOM     41  H4  UNL     1       0.450  30.744  -8.490  1.00  0.00     0.210 HD
ENDBRANCH  35  40
BRANCH  36  42
HETATM   42  C8  UNL     1       0.273  27.738 -10.940  1.00  0.00     0.199 C 
BRANCH  42  43
HETATM   43  O3  UNL     1       1.373  27.431 -10.147  1.00  0.00    -0.398 OA
ATOM     44  H3  UNL     1       1.628  26.518 -10.221  1.00  0.00     0.209 HD
ENDBRANCH  42  43
ENDBRANCH  36  42
BRANCH  38  45
HETATM   45  O1  UNL     1      -2.676  29.404 -12.847  1.00  0.00    -0.334 OA
BRANCH  45  46
HETATM   46  C4  UNL     1      -2.322  28.482 -13.794  1.00  0.00     0.126 C 
HETATM   47  C5  UNL     1      -2.862  28.793 -15.177  1.00  0.00     0.040 C 
BRANCH  46  48
HETATM   48  C2  UNL     1      -2.633  27.059 -13.385  1.00  0.00     0.006 C 
HETATM   49  C1  UNL     1      -3.693  27.150 -12.287  1.00  0.00     0.012 C 
HETATM   50  C3  UNL     1      -3.273  26.367 -14.559  1.00  0.00     0.012 C 
ENDBRANCH  46  48
ENDBRANCH  45  46
ENDBRANCH  38  45
ENDBRANCH  33  34
ENDBRANCH   1  33
BRANCH   2  51
HETATM   51  O6  UNL     1      -0.132  35.266  -9.665  1.00  0.00    -0.389 OA
ATOM     52  H6  UNL     1       0.308  35.767 -10.343  1.00  0.00     0.210 HD
ENDBRANCH   2  51
TORSDOF 18
ENDMDL
MODEL 4
REMARK VINA RESULT: -7.861879225      1.368      1.698
REMARK  18 active torsions:
REMARK  status: ('A' for Active; 'I' for Inactive)
REMARK    1  A    between atoms: C2_2  and  C4_4 
REMARK    2  A    between atoms: C4_4  and  O1_6 
REMARK    3  A    between atoms: O1_6  and  C6_7 
REMARK    4  A    between atoms: C7_9  and  C8_10 
REMARK    5  A    between atoms: C8_10  and  O3_11 
REMARK    6  A    between atoms: C9_13  and  O4_14 
REMARK    7  A    between atoms: C10_16  and  O5_17 
REMARK    8  A    between atoms: O5_17  and  C11_18 
REMARK    9  A    between atoms: C12_19  and  O6_20 
REMARK   10  A    between atoms: C15_25  and  O8_26 
REMARK   11  A    between atoms: O8_26  and  C16_27 
REMARK   12  A    between atoms: C19_31  and  O10_32 
REMARK   13  A    between atoms: C20_34  and  O11_35 
REMARK   14  A    between atoms: O11_35  and  C21_36 
REMARK   15  A    between atoms: C24_40  and  O13_41 
REMARK   16  A    between atoms: C25_43  and  O14_44 
REMARK   17  A    between atoms: C26_46  and  O15_47 
REMARK   18  A    between atoms: C27_49  and  O16_50 
ROOT
HETATM    1  C11 UNL     1      -0.893  31.925  -9.342  1.00  0.00     0.212 C 
HETATM    2  C12 UNL     1      -2.032  32.879  -8.908  1.00  0.00     0.176 C 
HETATM    3  C13 UNL     1      -2.282  33.728 -10.095  1.00  0.00     0.031 C 
HETATM    4  C14 UNL     1      -1.286  34.001 -10.910  1.00  0.00     0.137 C 
HETATM    5  O7  UNL     1       0.030  33.535 -10.731  1.00  0.00    -0.330 OA
HETATM    6  C15 UNL     1       0.345  32.747  -9.582  1.00  0.00     0.300 C 
ENDROOT
BRANCH   6   7
HETATM    7  O8  UNL     1       1.532  32.133  -9.583  1.00  0.00    -0.326 OA
BRANCH   7   8
HETATM    8  C16 UNL     1       1.965  31.526 -10.720  1.00  0.00     0.294 C 
HETATM    9  O9  UNL     1       2.880  32.159 -11.504  1.00  0.00    -0.351 OA
HETATM   10  C17 UNL     1       2.776  31.690 -12.836  1.00  0.00     0.152 C 
HETATM   11  C18 UNL     1       4.094  32.017 -13.505  1.00  0.00     0.042 C 
HETATM   12  C19 UNL     1       2.672  30.160 -12.760  1.00  0.00     0.178 C 
HETATM   13  C20 UNL     1       3.425  29.738 -11.538  1.00  0.00     0.189 C 
HETATM   14  C27 UNL     1       2.522  30.162 -10.362  1.00  0.00     0.205 C 
BRANCH  12  15
HETATM   15  O10 UNL     1       3.126  29.647 -13.943  1.00  0.00    -0.390 OA
ATOM     16  H10 UNL     1       4.010  29.327 -13.805  1.00  0.00     0.210 HD
ENDBRANCH  12  15
BRANCH  13  17
HETATM   17  O11 UNL     1       3.615  28.391 -11.382  1.00  0.00    -0.348 OA
BRANCH  17  18
HETATM   18  C21 UNL     1       4.918  28.019 -11.128  1.00  0.00     0.292 C 
HETATM   19  O12 UNL     1       5.754  29.110 -10.896  1.00  0.00    -0.351 OA
HETATM   20  C22 UNL     1       7.023  28.756 -11.346  1.00  0.00     0.152 C 
HETATM   21  C23 UNL     1       8.018  29.840 -11.003  1.00  0.00     0.042 C 
HETATM   22  C24 UNL     1       7.447  27.394 -10.873  1.00  0.00     0.178 C 
HETATM   23  C25 UNL     1       6.575  26.845  -9.778  1.00  0.00     0.183 C 
HETATM   24  C26 UNL     1       5.113  27.065 -10.000  1.00  0.00     0.204 C 
BRANCH  22  25
HETATM   25  O13 UNL     1       7.527  26.480 -11.924  1.00  0.00    -0.390 OA
ATOM     26  H13 UNL     1       8.286  26.638 -12.473  1.00  0.00     0.210 HD
ENDBRANCH  22  25
BRANCH  23  27
HETATM   27  O14 UNL     1       7.000  27.292  -8.526  1.00  0.00    -0.390 OA
ATOM     28  H14 UNL     1       6.291  27.716  -8.056  1.00  0.00     0.210 HD
ENDBRANCH  23  27
BRANCH  24  29
HETATM   29  O15 UNL     1       4.621  27.691  -8.833  1.00  0.00    -0.388 OA
ATOM     30  H15 UNL     1       4.421  27.003  -8.208  1.00  0.00     0.210 HD
ENDBRANCH  24  29
ENDBRANCH  17  18
ENDBRANCH  13  17
BRANCH  14  31
HETATM   31  O16 UNL     1       3.257  30.211  -9.184  1.00  0.00    -0.388 OA
ATOM     32  H16 UNL     1       3.645  29.367  -8.984  1.00  0.00     0.210 HD
ENDBRANCH  14  31
ENDBRANCH   7   8
ENDBRANCH   6   7
BRANCH   1  33
HETATM   33  O5  UNL     1      -1.273  31.169 -10.405  1.00  0.00    -0.345 OA
BRANCH  33  34
HETATM   34  C10 UNL     1      -2.065  30.070 -10.137  1.00  0.00     0.297 C 
HETATM   35  C9  UNL     1      -1.264  28.779 -10.077  1.00  0.00     0.204 C 
HETATM   36  C7  UNL     1      -0.541  28.742 -11.426  1.00  0.00     0.184 C 
HETATM   37  O2  UNL     1      -1.205  29.298 -12.453  1.00  0.00    -0.329 OA
HETATM   38  C6  UNL     1      -2.477  29.717 -12.376  1.00  0.00     0.416 C 
HETATM   39  O17 UNL     1      -3.051  29.911 -11.132  1.00  0.00    -0.305 OA
BRANCH  35  40
HETATM   40  O4  UNL     1      -0.447  28.652  -9.000  1.00  0.00    -0.388 OA
ATOM     41  H4  UNL     1      -0.453  27.789  -8.602  1.00  0.00     0.210 HD
ENDBRANCH  35  40
BRANCH  36  42
HETATM   42  C8  UNL     1      -0.112  27.295 -11.651  1.00  0.00     0.199 C 
BRANCH  42  43
HETATM   43  O3  UNL     1       1.139  27.024 -11.109  1.00  0.00    -0.398 OA
ATOM     44  H3  UNL     1       1.799  26.877 -11.778  1.00  0.00     0.209 HD
ENDBRANCH  42  43
ENDBRANCH  36  42
BRANCH  38  45
HETATM   45  O1  UNL     1      -3.348  28.892 -13.092  1.00  0.00    -0.334 OA
BRANCH  45  46
HETATM   46  C4  UNL     1      -2.799  28.276 -14.184  1.00  0.00     0.126 C 
HETATM   47  C5  UNL     1      -2.787  29.142 -15.429  1.00  0.00     0.040 C 
BRANCH  46  48
HETATM   48  C2  UNL     1      -3.399  26.914 -14.462  1.00  0.00     0.006 C 
HETATM   49  C1  UNL     1      -2.474  26.236 -15.472  1.00  0.00     0.012 C 
HETATM   50  C3  UNL     1      -3.331  26.109 -13.191  1.00  0.00     0.012 C 
ENDBRANCH  46  48
ENDBRANCH  45  46
ENDBRANCH  38  45
ENDBRANCH  33  34
ENDBRANCH   1  33
BRANCH   2  51
HETATM   51  O6  UNL     1      -1.501  33.704  -7.925  1.00  0.00    -0.389 OA
ATOM     52  H6  UNL     1      -1.009  34.380  -8.377  1.00  0.00     0.210 HD
ENDBRANCH   2  51
TORSDOF 18
ENDMDL
MODEL 5
REMARK VINA RESULT: -7.788572260      2.025      8.238
REMARK  18 active torsions:
REMARK  status: ('A' for Active; 'I' for Inactive)
REMARK    1  A    between atoms: C2_2  and  C4_4 
REMARK    2  A    between atoms: C4_4  and  O1_6 
REMARK    3  A    between atoms: O1_6  and  C6_7 
REMARK    4  A    between atoms: C7_9  and  C8_10 
REMARK    5  A    between atoms: C8_10  and  O3_11 
REMARK    6  A    between atoms: C9_13  and  O4_14 
REMARK    7  A    between atoms: C10_16  and  O5_17 
REMARK    8  A    between atoms: O5_17  and  C11_18 
REMARK    9  A    between atoms: C12_19  and  O6_20 
REMARK   10  A    between atoms: C15_25  and  O8_26 
REMARK   11  A    between atoms: O8_26  and  C16_27 
REMARK   12  A    between atoms: C19_31  and  O10_32 
REMARK   13  A    between atoms: C20_34  and  O11_35 
REMARK   14  A    between atoms: O11_35  and  C21_36 
REMARK   15  A    between atoms: C24_40  and  O13_41 
REMARK   16  A    between atoms: C25_43  and  O14_44 
REMARK   17  A    between atoms: C26_46  and  O15_47 
REMARK   18  A    between atoms: C27_49  and  O16_50 
ROOT
HETATM    1  C11 UNL     1       3.144  28.465 -15.056  1.00  0.00     0.212 C 
HETATM    2  C12 UNL     1       3.684  29.112 -16.353  1.00  0.00     0.176 C 
HETATM    3  C13 UNL     1       3.498  30.567 -16.151  1.00  0.00     0.031 C 
HETATM    4  C14 UNL     1       2.494  30.990 -15.413  1.00  0.00     0.137 C 
HETATM    5  O7  UNL     1       1.563  30.140 -14.787  1.00  0.00    -0.330 OA
HETATM    6  C15 UNL     1       1.663  28.727 -14.979  1.00  0.00     0.300 C 
ENDROOT
BRANCH   6   7
HETATM    7  O8  UNL     1       0.917  27.960 -14.180  1.00  0.00    -0.326 OA
BRANCH   7   8
HETATM    8  C16 UNL     1      -0.392  28.274 -13.988  1.00  0.00     0.294 C 
HETATM    9  O9  UNL     1      -1.354  27.465 -14.507  1.00  0.00    -0.351 OA
HETATM   10  C17 UNL     1      -2.545  28.202 -14.707  1.00  0.00     0.152 C 
HETATM   11  C18 UNL     1      -3.667  27.187 -14.776  1.00  0.00     0.042 C 
HETATM   12  C19 UNL     1      -2.768  29.038 -13.438  1.00  0.00     0.178 C 
HETATM   13  C20 UNL     1      -2.171  28.264 -12.304  1.00  0.00     0.189 C 
HETATM   14  C27 UNL     1      -0.647  28.407 -12.498  1.00  0.00     0.205 C 
BRANCH  12  15
HETATM   15  O10 UNL     1      -4.105  29.303 -13.335  1.00  0.00    -0.390 OA
ATOM     16  H10 UNL     1      -4.229  29.920 -12.623  1.00  0.00     0.210 HD
ENDBRANCH  12  15
BRANCH  13  17
HETATM   17  O11 UNL     1      -2.422  28.746 -11.048  1.00  0.00    -0.348 OA
BRANCH  17  18
HETATM   18  C21 UNL     1      -1.807  29.945 -10.757  1.00  0.00     0.292 C 
HETATM   19  O12 UNL     1      -2.714  30.992 -10.600  1.00  0.00    -0.351 OA
HETATM   20  C22 UNL     1      -2.072  32.155 -11.013  1.00  0.00     0.152 C 
HETATM   21  C23 UNL     1      -2.947  33.357 -10.743  1.00  0.00     0.042 C 
HETATM   22  C24 UNL     1      -0.689  32.290 -10.437  1.00  0.00     0.178 C 
HETATM   23  C25 UNL     1      -0.416  31.332  -9.312  1.00  0.00     0.183 C 
HETATM   24  C26 UNL     1      -0.918  29.946  -9.560  1.00  0.00     0.204 C 
BRANCH  22  25
HETATM   25  O13 UNL     1       0.296  32.170 -11.417  1.00  0.00    -0.390 OA
ATOM     26  H13 UNL     1       0.568  31.267 -11.536  1.00  0.00     0.210 HD
ENDBRANCH  22  25
BRANCH  23  27
HETATM   27  O14 UNL     1      -0.856  31.850  -8.093  1.00  0.00    -0.390 OA
ATOM     28  H14 UNL     1      -0.566  31.310  -7.367  1.00  0.00     0.210 HD
ENDBRANCH  23  27
BRANCH  24  29
HETATM   29  O15 UNL     1      -1.717  29.604  -8.446  1.00  0.00    -0.388 OA
ATOM     30  H15 UNL     1      -1.164  29.663  -7.675  1.00  0.00     0.210 HD
ENDBRANCH  24  29
ENDBRANCH  17  18
ENDBRANCH  13  17
BRANCH  14  31
HETATM   31  O16 UNL     1       0.024  27.423 -11.783  1.00  0.00    -0.388 OA
ATOM     32  H16 UNL     1       0.808  27.139 -12.240  1.00  0.00     0.210 HD
ENDBRANCH  14  31
ENDBRANCH   7   8
ENDBRANCH   6   7
BRANCH   1  33
HETATM   33  O5  UNL     1       3.841  28.896 -13.972  1.00  0.00    -0.345 OA
BRANCH  33  34
HETATM   34  C10 UNL     1       3.563  28.279 -12.768  1.00  0.00     0.297 C 
HETATM   35  C9  UNL     1       3.165  29.271 -11.686  1.00  0.00     0.204 C 
HETATM   36  C7  UNL     1       4.337  30.255 -11.653  1.00  0.00     0.184 C 
HETATM   37  O2  UNL     1       5.540  29.733 -11.944  1.00  0.00    -0.329 OA
HETATM   38  C6  UNL     1       5.762  28.418 -12.095  1.00  0.00     0.416 C 
HETATM   39  O17 UNL     1       4.688  27.570 -12.300  1.00  0.00    -0.305 OA
BRANCH  35  40
HETATM   40  O4  UNL     1       1.949  29.852 -11.849  1.00  0.00    -0.388 OA
ATOM     41  H4  UNL     1       1.281  29.541 -11.248  1.00  0.00     0.210 HD
ENDBRANCH  35  40
BRANCH  36  42
HETATM   42  C8  UNL     1       4.262  30.978 -10.312  1.00  0.00     0.199 C 
BRANCH  42  43
HETATM   43  O3  UNL     1       3.558  30.251  -9.358  1.00  0.00    -0.398 OA
ATOM     44  H3  UNL     1       3.673  30.599  -8.481  1.00  0.00     0.209 HD
ENDBRANCH  42  43
ENDBRANCH  36  42
BRANCH  38  45
HETATM   45  O1  UNL     1       6.497  27.882 -11.034  1.00  0.00    -0.334 OA
BRANCH  45  46
HETATM   46  C4  UNL     1       7.826  28.208 -11.025  1.00  0.00     0.126 C 
HETATM   47  C5  UNL     1       8.683  27.291 -11.877  1.00  0.00     0.040 C 
BRANCH  46  48
HETATM   48  C2  UNL     1       8.392  28.357  -9.629  1.00  0.00     0.006 C 
HETATM   49  C1  UNL     1       9.093  27.037  -9.307  1.00  0.00     0.012 C 
HETATM   50  C3  UNL     1       9.455  29.422  -9.671  1.00  0.00     0.012 C 
ENDBRANCH  46  48
ENDBRANCH  45  46
ENDBRANCH  38  45
ENDBRANCH  33  34
ENDBRANCH   1  33
BRANCH   2  51
HETATM   51  O6  UNL     1       2.821  28.732 -17.373  1.00  0.00    -0.389 OA
ATOM     52  H6  UNL     1       3.283  28.080 -17.887  1.00  0.00     0.210 HD
ENDBRANCH   2  51
TORSDOF 18
ENDMDL
