MODEL 1
REMARK VINA RESULT: -8.904539630      0.000      0.000
REMARK  9 active torsions:
REMARK  status: ('A' for Active; 'I' for Inactive)
REMARK       I    between atoms: N1_2  and  C2_4 
REMARK    1  A    between atoms: C2_4  and  C3_6 
REMARK    2  A    between atoms: C3_6  and  N2_7 
REMARK    3  A    between atoms: N2_7  and  C4_9 
REMARK    4  A    between atoms: C4_9  and  N3_10 
REMARK    5  A    between atoms: C4_9  and  C14_28 
REMARK    6  A    between atoms: N3_10  and  N4_11 
REMARK       I    between atoms: N4_11  and  C5_13 
REMARK    7  A    between atoms: C5_13  and  C6_15 
REMARK    8  A    between atoms: C9_18  and  N5_19 
REMARK    9  A    between atoms: C17_31  and  C18_32 
ROOT
HETATM    1  C4  UNL     1      -3.826   3.201  12.395  1.00  0.00     0.210 C 
ENDROOT
BRANCH   1   2
HETATM    2  N2  UNL     1      -3.124   2.332  11.442  1.00  0.00    -0.354 N 
ATOM      3  H2  UNL     1      -2.114   2.405  11.324  1.00  0.00     0.162 HD
BRANCH   2   4
HETATM    4  C3  UNL     1      -3.878   1.376  10.679  1.00  0.00     0.225 C 
BRANCH   4   5
HETATM    5  C2  UNL     1      -3.186   0.073  10.531  1.00  0.00     0.234 C 
HETATM    6  N1  UNL     1      -3.283  -0.956  11.485  1.00  0.00    -0.364 N 
HETATM    7  C1  UNL     1      -2.600  -2.233  11.295  1.00  0.00     0.149 C 
ATOM      8  H1  UNL     1      -3.841  -0.807  12.326  1.00  0.00     0.161 HD
HETATM    9  O1  UNL     1      -2.492  -0.123   9.504  1.00  0.00    -0.272 OA
ENDBRANCH   4   5
ENDBRANCH   2   4
ENDBRANCH   1   2
BRANCH   1  10
HETATM   10  N3  UNL     1      -3.966   4.342  12.007  1.00  0.00    -0.304 NA
BRANCH  10  11
HETATM   11  N4  UNL     1      -4.499   5.426  11.574  1.00  0.00    -0.197 N 
HETATM   12  C5  UNL     1      -4.858   6.605  12.350  1.00  0.00     0.280 C 
HETATM   13  O2  UNL     1      -4.682   6.729  13.556  1.00  0.00    -0.265 OA
ATOM     14  H4  UNL     1      -4.694   5.466  10.573  1.00  0.00     0.205 HD
BRANCH  12  15
HETATM   15  C6  UNL     1      -5.464   7.640  11.510  1.00  0.00     0.034 A 
HETATM   16  C7  UNL     1      -6.373   7.273  10.568  1.00  0.00     0.019 A 
HETATM   17  C8  UNL     1      -7.036   8.279   9.884  1.00  0.00     0.032 A 
HETATM   18  C9  UNL     1      -6.763   9.612  10.172  1.00  0.00     0.057 A 
HETATM   19  C12 UNL     1      -5.842   9.988  11.116  1.00  0.00     0.032 A 
HETATM   20  C13 UNL     1      -5.197   8.965  11.782  1.00  0.00     0.019 A 
BRANCH  18  21
HETATM   21  N5  UNL     1      -7.547  10.597   9.518  1.00  0.00    -0.251 N 
HETATM   22  C10 UNL     1      -7.580  11.887   9.966  1.00  0.00     0.208 A 
HETATM   23  N6  UNL     1      -8.446  12.519   9.166  1.00  0.00    -0.346 N 
HETATM   24  C11 UNL     1      -8.930  11.644   8.251  1.00  0.00     0.199 A 
ATOM     25  H6  UNL     1      -8.702  13.504   9.234  1.00  0.00     0.167 HD
HETATM   26  N7  UNL     1      -8.358  10.467   8.490  1.00  0.00    -0.288 N 
ATOM     27  H7  UNL     1      -8.520   9.608   7.964  1.00  0.00     0.188 HD
ENDBRANCH  18  21
ENDBRANCH  12  15
ENDBRANCH  10  11
ENDBRANCH   1  10
BRANCH   1  28
HETATM   28  C14 UNL     1      -4.321   2.682  13.661  1.00  0.00     0.024 A 
HETATM   29  C15 UNL     1      -5.249   3.385  14.425  1.00  0.00     0.017 A 
HETATM   30  C16 UNL     1      -5.714   2.966  15.637  1.00  0.00     0.017 A 
HETATM   31  C17 UNL     1      -5.244   1.778  16.139  1.00  0.00     0.048 A 
HETATM   32  C19 UNL     1      -4.323   1.047  15.417  1.00  0.00     0.017 A 
HETATM   33  C20 UNL     1      -3.868   1.501  14.189  1.00  0.00     0.017 A 
BRANCH  31  34
HETATM   34  C18 UNL     1      -5.729   1.298  17.459  1.00  0.00     0.417 C 
HETATM   35  F1  UNL     1      -5.717   2.311  18.378  1.00  0.00    -0.166 F 
HETATM   36  F2  UNL     1      -4.902   0.297  17.940  1.00  0.00    -0.166 F 
HETATM   37  F3  UNL     1      -7.043   0.859  17.296  1.00  0.00    -0.166 F 
ENDBRANCH  31  34
ENDBRANCH   1  28
TORSDOF 9
ENDMDL
MODEL 2
REMARK VINA RESULT: -8.887138739      0.145      1.087
REMARK  9 active torsions:
REMARK  status: ('A' for Active; 'I' for Inactive)
REMARK       I    between atoms: N1_2  and  C2_4 
REMARK    1  A    between atoms: C2_4  and  C3_6 
REMARK    2  A    between atoms: C3_6  and  N2_7 
REMARK    3  A    between atoms: N2_7  and  C4_9 
REMARK    4  A    between atoms: C4_9  and  N3_10 
REMARK    5  A    between atoms: C4_9  and  C14_28 
REMARK    6  A    between atoms: N3_10  and  N4_11 
REMARK       I    between atoms: N4_11  and  C5_13 
REMARK    7  A    between atoms: C5_13  and  C6_15 
REMARK    8  A    between atoms: C9_18  and  N5_19 
REMARK    9  A    between atoms: C17_31  and  C18_32 
ROOT
HETATM    1  C4  UNL     1      -3.853   3.270  12.345  1.00  0.00     0.210 C 
ENDROOT
BRANCH   1   2
HETATM    2  N2  UNL     1      -3.168   2.355  11.424  1.00  0.00    -0.354 N 
ATOM      3  H2  UNL     1      -2.157   2.408  11.301  1.00  0.00     0.162 HD
BRANCH   2   4
HETATM    4  C3  UNL     1      -3.939   1.384  10.698  1.00  0.00     0.225 C 
BRANCH   4   5
HETATM    5  C2  UNL     1      -3.243   0.083  10.548  1.00  0.00     0.234 C 
HETATM    6  N1  UNL     1      -3.292  -0.926  11.527  1.00  0.00    -0.364 N 
HETATM    7  C1  UNL     1      -2.608  -2.203  11.335  1.00  0.00     0.149 C 
ATOM      8  H1  UNL     1      -3.815  -0.764  12.387  1.00  0.00     0.161 HD
HETATM    9  O1  UNL     1      -2.591  -0.131   9.497  1.00  0.00    -0.272 OA
ENDBRANCH   4   5
ENDBRANCH   2   4
ENDBRANCH   1   2
BRANCH   1  10
HETATM   10  N3  UNL     1      -3.999   4.392  11.904  1.00  0.00    -0.304 NA
BRANCH  10  11
HETATM   11  N4  UNL     1      -4.541   5.477  11.488  1.00  0.00    -0.197 N 
HETATM   12  C5  UNL     1      -4.756   6.703  12.243  1.00  0.00     0.280 C 
HETATM   13  O2  UNL     1      -4.426   6.873  13.411  1.00  0.00    -0.265 OA
ATOM     14  H4  UNL     1      -4.859   5.481  10.518  1.00  0.00     0.205 HD
BRANCH  12  15
HETATM   15  C6  UNL     1      -5.425   7.725  11.435  1.00  0.00     0.034 A 
HETATM   16  C7  UNL     1      -6.412   7.345  10.581  1.00  0.00     0.019 A 
HETATM   17  C8  UNL     1      -7.124   8.342   9.934  1.00  0.00     0.032 A 
HETATM   18  C9  UNL     1      -6.819   9.679  10.168  1.00  0.00     0.057 A 
HETATM   19  C12 UNL     1      -5.820  10.067  11.023  1.00  0.00     0.032 A 
HETATM   20  C13 UNL     1      -5.127   9.053  11.654  1.00  0.00     0.019 A 
BRANCH  18  21
HETATM   21  N5  UNL     1      -7.648  10.656   9.560  1.00  0.00    -0.251 N 
HETATM   22  C10 UNL     1      -7.849  11.875  10.143  1.00  0.00     0.208 A 
HETATM   23  N6  UNL     1      -8.713  12.513   9.345  1.00  0.00    -0.346 N 
HETATM   24  C11 UNL     1      -9.033  11.710   8.301  1.00  0.00     0.199 A 
ATOM     25  H6  UNL     1      -9.074  13.454   9.499  1.00  0.00     0.167 HD
HETATM   26  N7  UNL     1      -8.362  10.572   8.458  1.00  0.00    -0.288 N 
ATOM     27  H7  UNL     1      -8.394   9.770   7.829  1.00  0.00     0.188 HD
ENDBRANCH  18  21
ENDBRANCH  12  15
ENDBRANCH  10  11
ENDBRANCH   1  10
BRANCH   1  28
HETATM   28  C14 UNL     1      -4.327   2.814  13.642  1.00  0.00     0.024 A 
HETATM   29  C15 UNL     1      -3.895   1.610  14.196  1.00  0.00     0.017 A 
HETATM   30  C16 UNL     1      -4.339   1.115  15.387  1.00  0.00     0.017 A 
HETATM   31  C17 UNL     1      -5.266   1.844  16.089  1.00  0.00     0.048 A 
HETATM   32  C19 UNL     1      -5.723   3.042  15.580  1.00  0.00     0.017 A 
HETATM   33  C20 UNL     1      -5.254   3.518  14.366  1.00  0.00     0.017 A 
BRANCH  31  34
HETATM   34  C18 UNL     1      -5.770   1.327  17.388  1.00  0.00     0.417 C 
HETATM   35  F1  UNL     1      -7.069   0.914  17.275  1.00  0.00    -0.166 F 
HETATM   36  F2  UNL     1      -5.740   2.327  18.347  1.00  0.00    -0.166 F 
HETATM   37  F3  UNL     1      -4.983   0.233  17.747  1.00  0.00    -0.166 F 
ENDBRANCH  31  34
ENDBRANCH   1  28
TORSDOF 9
ENDMDL
MODEL 3
REMARK VINA RESULT: -8.799408973      0.879      1.411
REMARK  9 active torsions:
REMARK  status: ('A' for Active; 'I' for Inactive)
REMARK       I    between atoms: N1_2  and  C2_4 
REMARK    1  A    between atoms: C2_4  and  C3_6 
REMARK    2  A    between atoms: C3_6  and  N2_7 
REMARK    3  A    between atoms: N2_7  and  C4_9 
REMARK    4  A    between atoms: C4_9  and  N3_10 
REMARK    5  A    between atoms: C4_9  and  C14_28 
REMARK    6  A    between atoms: N3_10  and  N4_11 
REMARK       I    between atoms: N4_11  and  C5_13 
REMARK    7  A    between atoms: C5_13  and  C6_15 
REMARK    8  A    between atoms: C9_18  and  N5_19 
REMARK    9  A    between atoms: C17_31  and  C18_32 
ROOT
HETATM    1  C4  UNL     1      -3.466   3.633  12.753  1.00  0.00     0.210 C 
ENDROOT
BRANCH   1   2
HETATM    2  N2  UNL     1      -2.098   3.292  12.342  1.00  0.00    -0.354 N 
ATOM      3  H2  UNL     1      -1.328   3.356  13.009  1.00  0.00     0.162 HD
BRANCH   2   4
HETATM    4  C3  UNL     1      -1.856   2.867  10.991  1.00  0.00     0.225 C 
BRANCH   4   5
HETATM    5  C2  UNL     1      -1.740   1.395  10.856  1.00  0.00     0.234 C 
HETATM    6  N1  UNL     1      -2.811   0.519  11.104  1.00  0.00    -0.364 N 
HETATM    7  C1  UNL     1      -2.662  -0.926  10.943  1.00  0.00     0.149 C 
ATOM      8  H1  UNL     1      -3.709   0.898  11.403  1.00  0.00     0.161 HD
HETATM    9  O1  UNL     1      -0.639   0.912  10.494  1.00  0.00    -0.272 OA
ENDBRANCH   4   5
ENDBRANCH   2   4
ENDBRANCH   1   2
BRANCH   1  10
HETATM   10  N3  UNL     1      -4.014   4.429  12.019  1.00  0.00    -0.304 NA
BRANCH  10  11
HETATM   11  N4  UNL     1      -4.562   5.501  11.575  1.00  0.00    -0.197 N 
HETATM   12  C5  UNL     1      -4.726   6.765  12.278  1.00  0.00     0.280 C 
HETATM   13  O2  UNL     1      -4.341   6.986  13.420  1.00  0.00    -0.265 OA
ATOM     14  H4  UNL     1      -4.923   5.463  10.622  1.00  0.00     0.205 HD
BRANCH  12  15
HETATM   15  C6  UNL     1      -5.418   7.757  11.452  1.00  0.00     0.034 A 
HETATM   16  C7  UNL     1      -6.395   7.339  10.604  1.00  0.00     0.019 A 
HETATM   17  C8  UNL     1      -7.130   8.306   9.939  1.00  0.00     0.032 A 
HETATM   18  C9  UNL     1      -6.858   9.654  10.151  1.00  0.00     0.057 A 
HETATM   19  C12 UNL     1      -5.869  10.081  10.999  1.00  0.00     0.032 A 
HETATM   20  C13 UNL     1      -5.153   9.095  11.648  1.00  0.00     0.019 A 
BRANCH  18  21
HETATM   21  N5  UNL     1      -7.710  10.601   9.525  1.00  0.00    -0.251 N 
HETATM   22  C10 UNL     1      -7.960  11.814  10.099  1.00  0.00     0.208 A 
HETATM   23  N6  UNL     1      -8.833  12.419   9.285  1.00  0.00    -0.346 N 
HETATM   24  C11 UNL     1      -9.109  11.602   8.240  1.00  0.00     0.199 A 
ATOM     25  H6  UNL     1      -9.227  13.349   9.429  1.00  0.00     0.167 HD
HETATM   26  N7  UNL     1      -8.402  10.488   8.412  1.00  0.00    -0.288 N 
ATOM     27  H7  UNL     1      -8.398   9.683   7.786  1.00  0.00     0.188 HD
ENDBRANCH  18  21
ENDBRANCH  12  15
ENDBRANCH  10  11
ENDBRANCH   1  10
BRANCH   1  28
HETATM   28  C14 UNL     1      -4.075   3.015  13.920  1.00  0.00     0.024 A 
HETATM   29  C15 UNL     1      -3.755   1.716  14.310  1.00  0.00     0.017 A 
HETATM   30  C16 UNL     1      -4.326   1.075  15.369  1.00  0.00     0.017 A 
HETATM   31  C17 UNL     1      -5.274   1.745  16.102  1.00  0.00     0.048 A 
HETATM   32  C19 UNL     1      -5.623   3.033  15.753  1.00  0.00     0.017 A 
HETATM   33  C20 UNL     1      -5.026   3.658  14.670  1.00  0.00     0.017 A 
BRANCH  31  34
HETATM   34  C18 UNL     1      -5.916   1.069  17.259  1.00  0.00     0.417 C 
HETATM   35  F1  UNL     1      -5.230  -0.063  17.602  1.00  0.00    -0.166 F 
HETATM   36  F2  UNL     1      -7.207   0.686  16.935  1.00  0.00    -0.166 F 
HETATM   37  F3  UNL     1      -5.888   1.952  18.339  1.00  0.00    -0.166 F 
ENDBRANCH  31  34
ENDBRANCH   1  28
TORSDOF 9
ENDMDL
MODEL 4
REMARK VINA RESULT: -8.562366160      5.270      7.073
REMARK  9 active torsions:
REMARK  status: ('A' for Active; 'I' for Inactive)
REMARK       I    between atoms: N1_2  and  C2_4 
REMARK    1  A    between atoms: C2_4  and  C3_6 
REMARK    2  A    between atoms: C3_6  and  N2_7 
REMARK    3  A    between atoms: N2_7  and  C4_9 
REMARK    4  A    between atoms: C4_9  and  N3_10 
REMARK    5  A    between atoms: C4_9  and  C14_28 
REMARK    6  A    between atoms: N3_10  and  N4_11 
REMARK       I    between atoms: N4_11  and  C5_13 
REMARK    7  A    between atoms: C5_13  and  C6_15 
REMARK    8  A    between atoms: C9_18  and  N5_19 
REMARK    9  A    between atoms: C17_31  and  C18_32 
ROOT
HETATM    1  C4  UNL     1      -3.417   2.371  12.321  1.00  0.00     0.210 C 
ENDROOT
BRANCH   1   2
HETATM    2  N2  UNL     1      -4.201   2.303  11.082  1.00  0.00    -0.354 N 
ATOM      3  H2  UNL     1      -4.426   3.154  10.566  1.00  0.00     0.162 HD
BRANCH   2   4
HETATM    4  C3  UNL     1      -4.647   1.024  10.604  1.00  0.00     0.225 C 
BRANCH   4   5
HETATM    5  C2  UNL     1      -3.558   0.021  10.522  1.00  0.00     0.234 C 
HETATM    6  N1  UNL     1      -3.487  -1.100  11.370  1.00  0.00    -0.364 N 
HETATM    7  C1  UNL     1      -2.407  -2.076  11.247  1.00  0.00     0.149 C 
ATOM      8  H1  UNL     1      -4.203  -1.233  12.083  1.00  0.00     0.161 HD
HETATM    9  O1  UNL     1      -2.666   0.173   9.652  1.00  0.00    -0.272 OA
ENDBRANCH   4   5
ENDBRANCH   2   4
ENDBRANCH   1   2
BRANCH   1  10
HETATM   10  N3  UNL     1      -2.259   2.694  12.153  1.00  0.00    -0.304 NA
BRANCH  10  11
HETATM   11  N4  UNL     1      -1.204   3.404  11.984  1.00  0.00    -0.197 N 
HETATM   12  C5  UNL     1      -0.426   3.551  10.762  1.00  0.00     0.280 C 
HETATM   13  O2  UNL     1      -0.689   3.010   9.694  1.00  0.00    -0.265 OA
ATOM     14  H4  UNL     1      -0.872   3.924  12.796  1.00  0.00     0.205 HD
BRANCH  12  15
HETATM   15  C6  UNL     1       0.727   4.432  10.958  1.00  0.00     0.034 A 
HETATM   16  C7  UNL     1       0.551   5.607  11.619  1.00  0.00     0.019 A 
HETATM   17  C8  UNL     1       1.678   6.356  11.917  1.00  0.00     0.032 A 
HETATM   18  C9  UNL     1       2.937   5.897  11.540  1.00  0.00     0.057 A 
HETATM   19  C12 UNL     1       3.120   4.717  10.867  1.00  0.00     0.032 A 
HETATM   20  C13 UNL     1       1.979   3.992  10.585  1.00  0.00     0.019 A 
BRANCH  18  21
HETATM   21  N5  UNL     1       4.062   6.651  11.963  1.00  0.00    -0.251 N 
HETATM   22  C10 UNL     1       4.754   7.439  11.089  1.00  0.00     0.208 A 
HETATM   23  N6  UNL     1       5.768   7.950  11.797  1.00  0.00    -0.346 N 
HETATM   24  C11 UNL     1       5.699   7.492  13.070  1.00  0.00     0.199 A 
ATOM     25  H6  UNL     1       6.480   8.584  11.434  1.00  0.00     0.167 HD
HETATM   26  N7  UNL     1       4.637   6.694  13.146  1.00  0.00    -0.288 N 
ATOM     27  H7  UNL     1       4.322   6.199  13.980  1.00  0.00     0.188 HD
ENDBRANCH  18  21
ENDBRANCH  12  15
ENDBRANCH  10  11
ENDBRANCH   1  10
BRANCH   1  28
HETATM   28  C14 UNL     1      -4.030   2.102  13.613  1.00  0.00     0.024 A 
HETATM   29  C15 UNL     1      -4.862   3.030  14.234  1.00  0.00     0.017 A 
HETATM   30  C16 UNL     1      -5.428   2.847  15.461  1.00  0.00     0.017 A 
HETATM   31  C17 UNL     1      -5.168   1.677  16.130  1.00  0.00     0.048 A 
HETATM   32  C19 UNL     1      -4.350   0.727  15.553  1.00  0.00     0.017 A 
HETATM   33  C20 UNL     1      -3.788   0.944  14.305  1.00  0.00     0.017 A 
BRANCH  31  34
HETATM   34  C18 UNL     1      -5.768   1.452  17.470  1.00  0.00     0.417 C 
HETATM   35  F1  UNL     1      -5.929   2.636  18.135  1.00  0.00    -0.166 F 
HETATM   36  F2  UNL     1      -4.936   0.657  18.241  1.00  0.00    -0.166 F 
HETATM   37  F3  UNL     1      -7.023   0.871  17.284  1.00  0.00    -0.166 F 
ENDBRANCH  31  34
ENDBRANCH   1  28
TORSDOF 9
ENDMDL
MODEL 5
REMARK VINA RESULT: -8.559459114      1.333      1.876
REMARK  9 active torsions:
REMARK  status: ('A' for Active; 'I' for Inactive)
REMARK       I    between atoms: N1_2  and  C2_4 
REMARK    1  A    between atoms: C2_4  and  C3_6 
REMARK    2  A    between atoms: C3_6  and  N2_7 
REMARK    3  A    between atoms: N2_7  and  C4_9 
REMARK    4  A    between atoms: C4_9  and  N3_10 
REMARK    5  A    between atoms: C4_9  and  C14_28 
REMARK    6  A    between atoms: N3_10  and  N4_11 
REMARK       I    between atoms: N4_11  and  C5_13 
REMARK    7  A    between atoms: C5_13  and  C6_15 
REMARK    8  A    between atoms: C9_18  and  N5_19 
REMARK    9  A    between atoms: C17_31  and  C18_32 
ROOT
HETATM    1  C4  UNL     1      -2.979   4.354  13.618  1.00  0.00     0.210 C 
ENDROOT
BRANCH   1   2
HETATM    2  N2  UNL     1      -1.676   3.935  13.088  1.00  0.00    -0.354 N 
ATOM      3  H2  UNL     1      -0.883   3.799  13.715  1.00  0.00     0.162 HD
BRANCH   2   4
HETATM    4  C3  UNL     1      -1.531   3.717  11.675  1.00  0.00     0.225 C 
BRANCH   4   5
HETATM    5  C2  UNL     1      -2.306   2.552  11.183  1.00  0.00     0.234 C 
HETATM    6  N1  UNL     1      -2.384   1.335  11.885  1.00  0.00    -0.364 N 
HETATM    7  C1  UNL     1      -3.172   0.215  11.376  1.00  0.00     0.149 C 
ATOM      8  H1  UNL     1      -1.880   1.233  12.766  1.00  0.00     0.161 HD
HETATM    9  O1  UNL     1      -2.927   2.660  10.098  1.00  0.00    -0.272 OA
ENDBRANCH   4   5
ENDBRANCH   2   4
ENDBRANCH   1   2
BRANCH   1  10
HETATM   10  N3  UNL     1      -3.359   5.426  13.194  1.00  0.00    -0.304 NA
BRANCH  10  11
HETATM   11  N4  UNL     1      -4.080   6.333  12.641  1.00  0.00    -0.197 N 
HETATM   12  C5  UNL     1      -5.050   7.204  13.287  1.00  0.00     0.280 C 
HETATM   13  O2  UNL     1      -5.309   7.199  14.485  1.00  0.00    -0.265 OA
ATOM     14  H4  UNL     1      -3.959   6.456  11.636  1.00  0.00     0.205 HD
BRANCH  12  15
HETATM   15  C6  UNL     1      -5.694   8.103  12.325  1.00  0.00     0.034 A 
HETATM   16  C7  UNL     1      -5.223   9.371  12.195  1.00  0.00     0.019 A 
HETATM   17  C8  UNL     1      -5.752  10.155  11.183  1.00  0.00     0.032 A 
HETATM   18  C9  UNL     1      -6.732   9.637  10.342  1.00  0.00     0.057 A 
HETATM   19  C12 UNL     1      -7.216   8.361  10.474  1.00  0.00     0.032 A 
HETATM   20  C13 UNL     1      -6.670   7.603  11.490  1.00  0.00     0.019 A 
BRANCH  18  21
HETATM   21  N5  UNL     1      -7.161  10.447   9.260  1.00  0.00    -0.251 N 
HETATM   22  C10 UNL     1      -6.409  11.498   8.821  1.00  0.00     0.208 A 
HETATM   23  N6  UNL     1      -7.126  12.067   7.845  1.00  0.00    -0.346 N 
HETATM   24  C11 UNL     1      -8.285  11.383   7.686  1.00  0.00     0.199 A 
ATOM     25  H6  UNL     1      -6.844  12.886   7.306  1.00  0.00     0.167 HD
HETATM   26  N7  UNL     1      -8.281  10.389   8.570  1.00  0.00    -0.288 N 
ATOM     27  H7  UNL     1      -9.021   9.698   8.693  1.00  0.00     0.188 HD
ENDBRANCH  18  21
ENDBRANCH  12  15
ENDBRANCH  10  11
ENDBRANCH   1  10
BRANCH   1  28
HETATM   28  C14 UNL     1      -3.723   3.508  14.537  1.00  0.00     0.024 A 
HETATM   29  C15 UNL     1      -5.093   3.671  14.736  1.00  0.00     0.017 A 
HETATM   30  C16 UNL     1      -5.830   2.935  15.615  1.00  0.00     0.017 A 
HETATM   31  C17 UNL     1      -5.191   1.969  16.352  1.00  0.00     0.048 A 
HETATM   32  C19 UNL     1      -3.835   1.770  16.188  1.00  0.00     0.017 A 
HETATM   33  C20 UNL     1      -3.113   2.537  15.288  1.00  0.00     0.017 A 
BRANCH  31  34
HETATM   34  C18 UNL     1      -5.968   1.153  17.320  1.00  0.00     0.417 C 
HETATM   35  F1  UNL     1      -7.237   0.935  16.861  1.00  0.00    -0.166 F 
HETATM   36  F2  UNL     1      -6.077   1.819  18.530  1.00  0.00    -0.166 F 
HETATM   37  F3  UNL     1      -5.325  -0.076  17.456  1.00  0.00    -0.166 F 
ENDBRANCH  31  34
ENDBRANCH   1  28
TORSDOF 9
ENDMDL
