MODEL 1
REMARK VINA RESULT: -9.337069749      0.000      0.000
REMARK  2 active torsions:
REMARK  status: ('A' for Active; 'I' for Inactive)
REMARK    1  A    between atoms: N1_1  and  C1_4 
REMARK    2  A    between atoms: C4_9  and  N3_10 
ROOT
HETATM    1  C1  UNL     1      -5.144  22.873  36.772  1.00  0.00     0.169 A 
HETATM    2  N2  UNL     1      -4.086  23.006  35.962  1.00  0.00    -0.336 N 
ATOM      3  H2  UNL     1      -4.224  22.950  34.953  1.00  0.00     0.168 HD
HETATM    4  C2  UNL     1      -2.856  23.210  36.439  1.00  0.00     0.063 A 
HETATM    5  C3  UNL     1      -1.740  23.352  35.638  1.00  0.00     0.062 A 
HETATM    6  C4  UNL     1      -0.494  23.561  36.185  1.00  0.00     0.056 A 
HETATM    7  C12 UNL     1      -0.381  23.627  37.556  1.00  0.00     0.033 A 
HETATM    8  C13 UNL     1      -1.468  23.490  38.399  1.00  0.00     0.034 A 
HETATM    9  C14 UNL     1      -2.697  23.282  37.814  1.00  0.00     0.062 A 
HETATM   10  N4  UNL     1      -3.751  23.151  38.652  1.00  0.00    -0.318 N 
ATOM     11  H4  UNL     1      -3.618  23.206  39.661  1.00  0.00     0.169 HD
HETATM   12  C15 UNL     1      -4.968  22.948  38.139  1.00  0.00     0.289 A 
HETATM   13  O4  UNL     1      -5.950  22.826  38.942  1.00  0.00    -0.264 OA
ENDROOT
BRANCH   6  14
HETATM   14  N3  UNL     1       0.651  23.706  35.362  1.00  0.00    -0.200 N 
HETATM   15  C5  UNL     1       1.306  24.883  34.921  1.00  0.00     0.273 A 
HETATM   16  O1  UNL     1       0.843  26.019  35.286  1.00  0.00    -0.266 OA
HETATM   17  C6  UNL     1       2.443  24.667  34.094  1.00  0.00     0.056 A 
HETATM   18  C7  UNL     1       3.287  25.625  33.510  1.00  0.00     0.018 A 
HETATM   19  C11 UNL     1       2.761  23.363  33.829  1.00  0.00     0.096 A 
HETATM   20  C8  UNL     1       4.341  25.260  32.738  1.00  0.00     0.001 A 
HETATM   21  C9  UNL     1       4.642  23.961  32.486  1.00  0.00     0.002 A 
HETATM   22  C10 UNL     1       3.838  22.995  33.041  1.00  0.00     0.026 A 
HETATM   23  S1  UNL     1       1.552  22.404  34.677  1.00  0.00     0.273 S 
HETATM   24  O2  UNL     1       0.724  21.608  33.726  1.00  0.00    -0.200 OA
HETATM   25  O3  UNL     1       2.187  21.551  35.735  1.00  0.00    -0.200 OA
ENDBRANCH   6  14
BRANCH   1  26
HETATM   26  N1  UNL     1      -6.349  22.673  36.324  1.00  0.00    -0.381 N 
ATOM     27  H12 UNL     1      -6.482  22.629  35.314  1.00  0.00     0.157 HD
ATOM     28  H11 UNL     1      -7.153  22.561  36.941  1.00  0.00     0.157 HD
ENDBRANCH   1  26
TORSDOF 2
ENDMDL
MODEL 2
REMARK VINA RESULT: -9.203448858      1.515      2.483
REMARK  2 active torsions:
REMARK  status: ('A' for Active; 'I' for Inactive)
REMARK    1  A    between atoms: N1_1  and  C1_4 
REMARK    2  A    between atoms: C4_9  and  N3_10 
ROOT
HETATM    1  C1  UNL     1      -2.162  23.684  38.985  1.00  0.00     0.169 A 
HETATM    2  N2  UNL     1      -0.941  23.745  38.437  1.00  0.00    -0.336 N 
ATOM      3  H2  UNL     1      -0.154  24.044  39.012  1.00  0.00     0.168 HD
HETATM    4  C2  UNL     1      -0.727  23.423  37.159  1.00  0.00     0.063 A 
HETATM    5  C3  UNL     1       0.515  23.473  36.558  1.00  0.00     0.062 A 
HETATM    6  C4  UNL     1       0.678  23.129  35.234  1.00  0.00     0.056 A 
HETATM    7  C12 UNL     1      -0.429  22.733  34.517  1.00  0.00     0.033 A 
HETATM    8  C13 UNL     1      -1.692  22.668  35.075  1.00  0.00     0.034 A 
HETATM    9  C14 UNL     1      -1.814  23.019  36.401  1.00  0.00     0.062 A 
HETATM   10  N4  UNL     1      -3.056  22.951  36.933  1.00  0.00    -0.318 N 
ATOM     11  H4  UNL     1      -3.847  22.652  36.362  1.00  0.00     0.169 HD
HETATM   12  C15 UNL     1      -3.233  23.279  38.215  1.00  0.00     0.289 A 
HETATM   13  O4  UNL     1      -4.410  23.210  38.700  1.00  0.00    -0.264 OA
ENDROOT
BRANCH   6  14
HETATM   14  N3  UNL     1       1.954  23.180  34.617  1.00  0.00    -0.200 N 
HETATM   15  C5  UNL     1       2.641  24.280  34.050  1.00  0.00     0.273 A 
HETATM   16  O1  UNL     1       2.080  25.431  34.064  1.00  0.00    -0.266 OA
HETATM   17  C6  UNL     1       3.921  23.978  33.508  1.00  0.00     0.056 A 
HETATM   18  C7  UNL     1       4.829  24.850  32.886  1.00  0.00     0.018 A 
HETATM   19  C11 UNL     1       4.327  22.675  33.602  1.00  0.00     0.096 A 
HETATM   20  C8  UNL     1       6.023  24.409  32.417  1.00  0.00     0.001 A 
HETATM   21  C9  UNL     1       6.409  23.112  32.519  1.00  0.00     0.002 A 
HETATM   22  C10 UNL     1       5.546  22.228  33.122  1.00  0.00     0.026 A 
HETATM   23  S1  UNL     1       3.011  21.832  34.412  1.00  0.00     0.273 S 
HETATM   24  O2  UNL     1       2.406  20.792  33.530  1.00  0.00    -0.200 OA
HETATM   25  O3  UNL     1       3.460  21.273  35.730  1.00  0.00    -0.200 OA
ENDBRANCH   6  14
BRANCH   1  26
HETATM   26  N1  UNL     1      -2.388  23.994  40.229  1.00  0.00    -0.381 N 
ATOM     27  H12 UNL     1      -2.436  24.983  40.473  1.00  0.00     0.157 HD
ATOM     28  H11 UNL     1      -2.517  23.291  40.955  1.00  0.00     0.157 HD
ENDBRANCH   1  26
TORSDOF 2
ENDMDL
MODEL 3
REMARK VINA RESULT: -9.160479584      1.710      3.181
REMARK  2 active torsions:
REMARK  status: ('A' for Active; 'I' for Inactive)
REMARK    1  A    between atoms: N1_1  and  C1_4 
REMARK    2  A    between atoms: C4_9  and  N3_10 
ROOT
HETATM    1  C1  UNL     1      -2.195  23.649  39.038  1.00  0.00     0.169 A 
HETATM    2  N2  UNL     1      -0.971  23.782  38.509  1.00  0.00    -0.336 N 
ATOM      3  H2  UNL     1      -0.213  24.131  39.094  1.00  0.00     0.168 HD
HETATM    4  C2  UNL     1      -0.718  23.470  37.235  1.00  0.00     0.063 A 
HETATM    5  C3  UNL     1       0.527  23.593  36.653  1.00  0.00     0.062 A 
HETATM    6  C4  UNL     1       0.732  23.255  35.333  1.00  0.00     0.056 A 
HETATM    7  C12 UNL     1      -0.338  22.790  34.601  1.00  0.00     0.033 A 
HETATM    8  C13 UNL     1      -1.603  22.650  35.140  1.00  0.00     0.034 A 
HETATM    9  C14 UNL     1      -1.767  22.998  36.463  1.00  0.00     0.062 A 
HETATM   10  N4  UNL     1      -3.010  22.855  36.975  1.00  0.00    -0.318 N 
ATOM     11  H4  UNL     1      -3.772  22.507  36.394  1.00  0.00     0.169 HD
HETATM   12  C15 UNL     1      -3.227  23.177  38.254  1.00  0.00     0.289 A 
HETATM   13  O4  UNL     1      -4.405  23.038  38.721  1.00  0.00    -0.264 OA
ENDROOT
BRANCH   6  14
HETATM   14  N3  UNL     1       2.012  23.382  34.736  1.00  0.00    -0.200 N 
HETATM   15  C5  UNL     1       3.120  22.501  34.776  1.00  0.00     0.273 A 
HETATM   16  O1  UNL     1       3.015  21.409  35.435  1.00  0.00    -0.266 OA
HETATM   17  C6  UNL     1       4.266  22.940  34.057  1.00  0.00     0.056 A 
HETATM   18  C7  UNL     1       5.503  22.293  33.914  1.00  0.00     0.018 A 
HETATM   19  C11 UNL     1       4.158  24.147  33.422  1.00  0.00     0.096 A 
HETATM   20  C8  UNL     1       6.510  22.843  33.190  1.00  0.00     0.001 A 
HETATM   21  C9  UNL     1       6.383  24.041  32.566  1.00  0.00     0.002 A 
HETATM   22  C10 UNL     1       5.186  24.706  32.684  1.00  0.00     0.026 A 
HETATM   23  S1  UNL     1       2.528  24.715  33.771  1.00  0.00     0.273 S 
HETATM   24  O2  UNL     1       2.551  25.983  34.558  1.00  0.00    -0.200 OA
HETATM   25  O3  UNL     1       1.720  24.837  32.514  1.00  0.00    -0.200 OA
ENDBRANCH   6  14
BRANCH   1  26
HETATM   26  N1  UNL     1      -2.459  23.949  40.277  1.00  0.00    -0.381 N 
ATOM     27  H12 UNL     1      -2.019  23.390  41.008  1.00  0.00     0.157 HD
ATOM     28  H11 UNL     1      -3.082  24.714  40.535  1.00  0.00     0.157 HD
ENDBRANCH   1  26
TORSDOF 2
ENDMDL
MODEL 4
REMARK VINA RESULT: -9.020262117      2.333      3.041
REMARK  2 active torsions:
REMARK  status: ('A' for Active; 'I' for Inactive)
REMARK    1  A    between atoms: N1_1  and  C1_4 
REMARK    2  A    between atoms: C4_9  and  N3_10 
ROOT
HETATM    1  C1  UNL     1      -2.455  25.522  38.088  1.00  0.00     0.169 A 
HETATM    2  N2  UNL     1      -1.275  25.110  37.609  1.00  0.00    -0.336 N 
ATOM      3  H2  UNL     1      -0.568  24.766  38.259  1.00  0.00     0.168 HD
HETATM    4  C2  UNL     1      -0.997  25.137  36.303  1.00  0.00     0.063 A 
HETATM    5  C3  UNL     1       0.206  24.721  35.770  1.00  0.00     0.062 A 
HETATM    6  C4  UNL     1       0.438  24.771  34.413  1.00  0.00     0.056 A 
HETATM    7  C12 UNL     1      -0.562  25.246  33.593  1.00  0.00     0.033 A 
HETATM    8  C13 UNL     1      -1.782  25.673  34.080  1.00  0.00     0.034 A 
HETATM    9  C14 UNL     1      -1.975  25.608  35.443  1.00  0.00     0.062 A 
HETATM   10  N4  UNL     1      -3.175  26.030  35.904  1.00  0.00    -0.318 N 
ATOM     11  H4  UNL     1      -3.885  26.374  35.257  1.00  0.00     0.169 HD
HETATM   12  C15 UNL     1      -3.418  25.988  37.217  1.00  0.00     0.289 A 
HETATM   13  O4  UNL     1      -4.553  26.390  37.635  1.00  0.00    -0.264 OA
ENDROOT
BRANCH   6  14
HETATM   14  N3  UNL     1       1.675  24.344  33.866  1.00  0.00    -0.200 N 
HETATM   15  C5  UNL     1       2.899  25.045  33.742  1.00  0.00     0.273 A 
HETATM   16  O1  UNL     1       2.965  26.250  34.169  1.00  0.00    -0.266 OA
HETATM   17  C6  UNL     1       3.956  24.310  33.138  1.00  0.00     0.056 A 
HETATM   18  C7  UNL     1       5.271  24.731  32.881  1.00  0.00     0.018 A 
HETATM   19  C11 UNL     1       3.663  23.030  32.755  1.00  0.00     0.096 A 
HETATM   20  C8  UNL     1       6.174  23.907  32.292  1.00  0.00     0.001 A 
HETATM   21  C9  UNL     1       5.865  22.639  31.920  1.00  0.00     0.002 A 
HETATM   22  C10 UNL     1       4.587  22.192  32.154  1.00  0.00     0.026 A 
HETATM   23  S1  UNL     1       1.976  22.784  33.194  1.00  0.00     0.273 S 
HETATM   24  O2  UNL     1       1.131  22.536  31.989  1.00  0.00    -0.200 OA
HETATM   25  O3  UNL     1       1.840  21.700  34.222  1.00  0.00    -0.200 OA
ENDBRANCH   6  14
BRANCH   1  26
HETATM   26  N1  UNL     1      -2.741  25.503  39.358  1.00  0.00    -0.381 N 
ATOM     27  H12 UNL     1      -3.381  26.213  39.714  1.00  0.00     0.157 HD
ATOM     28  H11 UNL     1      -2.351  24.812  39.998  1.00  0.00     0.157 HD
ENDBRANCH   1  26
TORSDOF 2
ENDMDL
MODEL 5
REMARK VINA RESULT: -8.964424053      1.764      2.496
REMARK  2 active torsions:
REMARK  status: ('A' for Active; 'I' for Inactive)
REMARK    1  A    between atoms: N1_1  and  C1_4 
REMARK    2  A    between atoms: C4_9  and  N3_10 
ROOT
HETATM    1  C1  UNL     1      -3.923  23.336  36.592  1.00  0.00     0.169 A 
HETATM    2  N2  UNL     1      -2.656  23.063  36.255  1.00  0.00    -0.336 N 
ATOM      3  H2  UNL     1      -2.169  22.302  36.727  1.00  0.00     0.168 HD
HETATM    4  C2  UNL     1      -2.012  23.762  35.316  1.00  0.00     0.063 A 
HETATM    5  C3  UNL     1      -0.707  23.512  34.939  1.00  0.00     0.062 A 
HETATM    6  C4  UNL     1      -0.093  24.265  33.963  1.00  0.00     0.056 A 
HETATM    7  C12 UNL     1      -0.809  25.278  33.366  1.00  0.00     0.033 A 
HETATM    8  C13 UNL     1      -2.117  25.566  33.709  1.00  0.00     0.034 A 
HETATM    9  C14 UNL     1      -2.697  24.790  34.689  1.00  0.00     0.062 A 
HETATM   10  N4  UNL     1      -3.977  25.084  35.014  1.00  0.00    -0.318 N 
ATOM     11  H4  UNL     1      -4.467  25.845  34.544  1.00  0.00     0.169 HD
HETATM   12  C15 UNL     1      -4.589  24.364  35.958  1.00  0.00     0.289 A 
HETATM   13  O4  UNL     1      -5.795  24.654  36.252  1.00  0.00    -0.264 OA
ENDROOT
BRANCH   6  14
HETATM   14  N3  UNL     1       1.248  24.008  33.577  1.00  0.00    -0.200 N 
HETATM   15  C5  UNL     1       2.386  24.848  33.647  1.00  0.00     0.273 A 
HETATM   16  O1  UNL     1       2.251  26.030  34.119  1.00  0.00    -0.266 OA
HETATM   17  C6  UNL     1       3.594  24.268  33.169  1.00  0.00     0.056 A 
HETATM   18  C7  UNL     1       4.871  24.846  33.110  1.00  0.00     0.018 A 
HETATM   19  C11 UNL     1       3.508  22.984  32.706  1.00  0.00     0.096 A 
HETATM   20  C8  UNL     1       5.936  24.160  32.623  1.00  0.00     0.001 A 
HETATM   21  C9  UNL     1       5.832  22.886  32.169  1.00  0.00     0.002 A 
HETATM   22  C10 UNL     1       4.596  22.286  32.211  1.00  0.00     0.026 A 
HETATM   23  S1  UNL     1       1.818  22.528  32.900  1.00  0.00     0.273 S 
HETATM   24  O2  UNL     1       1.176  22.245  31.584  1.00  0.00    -0.200 OA
HETATM   25  O3  UNL     1       1.676  21.386  33.863  1.00  0.00    -0.200 OA
ENDBRANCH   6  14
BRANCH   1  26
HETATM   26  N1  UNL     1      -4.564  22.667  37.505  1.00  0.00    -0.381 N 
ATOM     27  H12 UNL     1      -5.430  23.064  37.869  1.00  0.00     0.157 HD
ATOM     28  H11 UNL     1      -4.233  21.771  37.863  1.00  0.00     0.157 HD
ENDBRANCH   1  26
TORSDOF 2
ENDMDL
