MODEL 1
REMARK VINA RESULT: -9.169434958      0.000      0.000
REMARK  13 active torsions:
REMARK  status: ('A' for Active; 'I' for Inactive)
REMARK    1  A    between atoms: C2_3  and  N2_4 
REMARK       I    between atoms: N2_4  and  C3_6 
REMARK    2  A    between atoms: C3_6  and  C4_8 
REMARK    3  A    between atoms: C4_8  and  O2_9 
REMARK    4  A    between atoms: O2_9  and  C5_10 
REMARK    5  A    between atoms: C5_10  and  C6_12 
REMARK    6  A    between atoms: C6_12  and  C7_13 
REMARK    7  A    between atoms: C7_13  and  C8_14 
REMARK    8  A    between atoms: C8_14  and  C9_15 
REMARK       I    between atoms: C9_15  and  N3_17 
REMARK    9  A    between atoms: N3_17  and  C10_19 
REMARK       I    between atoms: N5_26  and  C15_28 
REMARK   10  A    between atoms: C15_28  and  C16_30 
REMARK   11  A    between atoms: C16_30  and  C17_31 
REMARK   12  A    between atoms: C17_31  and  C18_32 
REMARK   13  A    between atoms: C18_32  and  N6_33 
ROOT
HETATM    1  N1  UNL     1      18.742  28.420  10.880  1.00  0.00    -0.196 NA
HETATM    2  C1  UNL     1      18.833  27.303  10.548  1.00  0.00     0.078 C 
HETATM    3  C2  UNL     1      18.970  25.915  10.121  1.00  0.00     0.247 C 
ENDROOT
BRANCH   3   4
HETATM    4  N2  UNL     1      20.193  25.711   9.350  1.00  0.00    -0.347 N 
HETATM    5  C3  UNL     1      21.177  24.827   9.829  1.00  0.00     0.242 C 
HETATM    6  O1  UNL     1      20.988  24.207  10.927  1.00  0.00    -0.271 OA
ATOM      7  H2  UNL     1      20.333  26.206   8.469  1.00  0.00     0.163 HD
BRANCH   5   8
HETATM    8  C4  UNL     1      22.428  24.589   9.104  1.00  0.00     0.281 C 
BRANCH   8   9
HETATM    9  O2  UNL     1      23.454  25.515   9.320  1.00  0.00    -0.312 OA
BRANCH   9  10
HETATM   10  C5  UNL     1      24.013  25.850  10.533  1.00  0.00     0.259 C 
HETATM   11  O3  UNL     1      24.350  24.954  11.327  1.00  0.00    -0.265 OA
BRANCH  10  12
HETATM   12  C6  UNL     1      24.215  27.275  10.895  1.00  0.00     0.111 C 
BRANCH  12  13
HETATM   13  C7  UNL     1      23.604  27.501  12.258  1.00  0.00     0.019 C 
BRANCH  13  14
HETATM   14  C8  UNL     1      22.135  27.306  12.323  1.00  0.00     0.103 C 
BRANCH  14  15
HETATM   15  C9  UNL     1      21.483  28.368  13.126  1.00  0.00     0.222 C 
HETATM   16  O4  UNL     1      22.023  29.472  13.184  1.00  0.00    -0.273 OA
HETATM   17  N3  UNL     1      20.266  28.119  13.812  1.00  0.00    -0.327 N 
ATOM     18  H3  UNL     1      19.834  27.198  13.738  1.00  0.00     0.169 HD
BRANCH  17  19
HETATM   19  C10 UNL     1      19.646  29.097  14.584  1.00  0.00     0.036 A 
HETATM   20  C11 UNL     1      20.069  29.351  15.874  1.00  0.00     0.032 A 
HETATM   21  C12 UNL     1      19.539  30.304  16.689  1.00  0.00     0.033 A 
HETATM   22  C13 UNL     1      18.480  31.125  16.238  1.00  0.00     0.051 A 
HETATM   23  N4  UNL     1      17.878  32.074  16.903  1.00  0.00    -0.335 N 
HETATM   24  C25 UNL     1      18.053  30.881  14.957  1.00  0.00     0.037 A 
HETATM   25  C14 UNL     1      16.895  32.762  16.336  1.00  0.00     0.152 A 
ATOM     26  H4  UNL     1      18.163  32.286  17.858  1.00  0.00     0.168 HD
HETATM   27  N5  UNL     1      16.152  33.716  16.764  1.00  0.00    -0.307 N 
HETATM   28  S1  UNL     1      16.805  32.030  14.767  1.00  0.00    -0.052 SA
HETATM   29  C15 UNL     1      16.213  34.291  18.015  1.00  0.00     0.223 C 
ATOM     30  H5  UNL     1      15.452  34.083  16.119  1.00  0.00     0.171 HD
HETATM   31  O5  UNL     1      15.204  34.073  18.795  1.00  0.00    -0.273 OA
HETATM   32  C26 UNL     1      18.618  29.885  14.130  1.00  0.00     0.051 A 
BRANCH  29  33
HETATM   33  C16 UNL     1      17.280  35.128  18.599  1.00  0.00     0.105 C 
BRANCH  33  34
HETATM   34  C17 UNL     1      18.115  35.837  17.545  1.00  0.00     0.029 C 
BRANCH  34  35
HETATM   35  C18 UNL     1      19.543  35.372  17.550  1.00  0.00     0.120 C 
BRANCH  35  36
HETATM   36  N6  UNL     1      19.798  34.707  16.272  1.00  0.00    -0.390 N 
HETATM   37  C19 UNL     1      20.835  33.971  16.176  1.00  0.00     0.051 C 
HETATM   38  C20 UNL     1      21.760  33.790  17.318  1.00  0.00     0.061 C 
HETATM   39  C24 UNL     1      21.184  33.256  14.945  1.00  0.00     0.171 C 
HETATM   40  C21 UNL     1      22.459  32.453  17.262  1.00  0.00     0.006 C 
HETATM   41  C22 UNL     1      23.049  32.086  15.952  1.00  0.00     0.008 C 
HETATM   42  C23 UNL     1      22.648  32.964  14.788  1.00  0.00     0.085 C 
HETATM   43  O6  UNL     1      20.303  32.939  14.135  1.00  0.00    -0.291 OA
ATOM     44  H6  UNL     1      19.165  34.828  15.482  1.00  0.00     0.159 HD
ENDBRANCH  35  36
ENDBRANCH  34  35
ENDBRANCH  33  34
ENDBRANCH  29  33
ENDBRANCH  17  19
ENDBRANCH  14  15
ENDBRANCH  13  14
ENDBRANCH  12  13
ENDBRANCH  10  12
ENDBRANCH   9  10
ENDBRANCH   8   9
ENDBRANCH   5   8
ENDBRANCH   3   4
TORSDOF 13
ENDMDL
MODEL 2
REMARK VINA RESULT: -8.971198624      2.431      4.208
REMARK  13 active torsions:
REMARK  status: ('A' for Active; 'I' for Inactive)
REMARK    1  A    between atoms: C2_3  and  N2_4 
REMARK       I    between atoms: N2_4  and  C3_6 
REMARK    2  A    between atoms: C3_6  and  C4_8 
REMARK    3  A    between atoms: C4_8  and  O2_9 
REMARK    4  A    between atoms: O2_9  and  C5_10 
REMARK    5  A    between atoms: C5_10  and  C6_12 
REMARK    6  A    between atoms: C6_12  and  C7_13 
REMARK    7  A    between atoms: C7_13  and  C8_14 
REMARK    8  A    between atoms: C8_14  and  C9_15 
REMARK       I    between atoms: C9_15  and  N3_17 
REMARK    9  A    between atoms: N3_17  and  C10_19 
REMARK       I    between atoms: N5_26  and  C15_28 
REMARK   10  A    between atoms: C15_28  and  C16_30 
REMARK   11  A    between atoms: C16_30  and  C17_31 
REMARK   12  A    between atoms: C17_31  and  C18_32 
REMARK   13  A    between atoms: C18_32  and  N6_33 
ROOT
HETATM    1  N1  UNL     1      18.485  29.771  12.184  1.00  0.00    -0.196 NA
HETATM    2  C1  UNL     1      18.396  28.605  12.174  1.00  0.00     0.078 C 
HETATM    3  C2  UNL     1      18.309  27.149  12.156  1.00  0.00     0.247 C 
ENDROOT
BRANCH   3   4
HETATM    4  N2  UNL     1      19.617  26.538  11.934  1.00  0.00    -0.347 N 
HETATM    5  C3  UNL     1      19.737  25.457  11.042  1.00  0.00     0.242 C 
HETATM    6  O1  UNL     1      18.705  25.027  10.429  1.00  0.00    -0.271 OA
ATOM      7  H2  UNL     1      20.439  26.893  12.424  1.00  0.00     0.163 HD
BRANCH   5   8
HETATM    8  C4  UNL     1      21.020  24.798  10.786  1.00  0.00     0.281 C 
BRANCH   8   9
HETATM    9  O2  UNL     1      22.033  25.033  11.722  1.00  0.00    -0.312 OA
BRANCH   9  10
HETATM   10  C5  UNL     1      23.165  25.794  11.529  1.00  0.00     0.259 C 
HETATM   11  O3  UNL     1      24.287  25.266  11.616  1.00  0.00    -0.265 OA
BRANCH  10  12
HETATM   12  C6  UNL     1      23.047  27.241  11.217  1.00  0.00     0.111 C 
BRANCH  12  13
HETATM   13  C7  UNL     1      23.204  28.010  12.507  1.00  0.00     0.019 C 
BRANCH  13  14
HETATM   14  C8  UNL     1      21.955  28.172  13.291  1.00  0.00     0.103 C 
BRANCH  14  15
HETATM   15  C9  UNL     1      21.755  29.582  13.704  1.00  0.00     0.222 C 
HETATM   16  O4  UNL     1      22.119  30.473  12.938  1.00  0.00    -0.273 OA
HETATM   17  N3  UNL     1      21.158  29.898  14.953  1.00  0.00    -0.327 N 
ATOM     18  H3  UNL     1      20.855  29.139  15.563  1.00  0.00     0.169 HD
BRANCH  17  19
HETATM   19  C10 UNL     1      20.976  31.214  15.366  1.00  0.00     0.036 A 
HETATM   20  C11 UNL     1      19.884  31.943  14.939  1.00  0.00     0.032 A 
HETATM   21  C12 UNL     1      19.614  33.224  15.314  1.00  0.00     0.033 A 
HETATM   22  C13 UNL     1      20.475  33.907  16.202  1.00  0.00     0.051 A 
HETATM   23  N4  UNL     1      20.342  35.129  16.647  1.00  0.00    -0.335 N 
HETATM   24  C25 UNL     1      21.562  33.191  16.633  1.00  0.00     0.037 A 
HETATM   25  C14 UNL     1      21.240  35.631  17.484  1.00  0.00     0.152 A 
ATOM     26  H4  UNL     1      19.549  35.695  16.350  1.00  0.00     0.168 HD
HETATM   27  N5  UNL     1      21.346  36.778  18.050  1.00  0.00    -0.307 N 
HETATM   28  S1  UNL     1      22.346  34.307  17.661  1.00  0.00    -0.052 SA
HETATM   29  C15 UNL     1      20.475  37.836  17.902  1.00  0.00     0.223 C 
ATOM     30  H5  UNL     1      22.146  36.919  18.665  1.00  0.00     0.171 HD
HETATM   31  O5  UNL     1      20.932  38.869  17.270  1.00  0.00    -0.273 OA
HETATM   32  C26 UNL     1      21.823  31.863  16.229  1.00  0.00     0.051 A 
BRANCH  29  33
HETATM   33  C16 UNL     1      19.078  37.959  18.365  1.00  0.00     0.105 C 
BRANCH  33  34
HETATM   34  C17 UNL     1      18.159  38.554  17.311  1.00  0.00     0.029 C 
BRANCH  34  35
HETATM   35  C18 UNL     1      16.831  37.854  17.263  1.00  0.00     0.120 C 
BRANCH  35  36
HETATM   36  N6  UNL     1      16.924  36.792  16.261  1.00  0.00    -0.390 N 
HETATM   37  C19 UNL     1      16.300  35.702  16.483  1.00  0.00     0.051 C 
HETATM   38  C20 UNL     1      15.502  35.508  17.715  1.00  0.00     0.061 C 
HETATM   39  C24 UNL     1      16.322  34.575  15.546  1.00  0.00     0.171 C 
HETATM   40  C21 UNL     1      14.362  34.544  17.494  1.00  0.00     0.006 C 
HETATM   41  C22 UNL     1      14.709  33.279  16.804  1.00  0.00     0.008 C 
HETATM   42  C23 UNL     1      16.085  33.235  16.178  1.00  0.00     0.085 C 
HETATM   43  O6  UNL     1      16.519  34.770  14.339  1.00  0.00    -0.291 OA
ATOM     44  H6  UNL     1      17.472  36.919  15.411  1.00  0.00     0.159 HD
ENDBRANCH  35  36
ENDBRANCH  34  35
ENDBRANCH  33  34
ENDBRANCH  29  33
ENDBRANCH  17  19
ENDBRANCH  14  15
ENDBRANCH  13  14
ENDBRANCH  12  13
ENDBRANCH  10  12
ENDBRANCH   9  10
ENDBRANCH   8   9
ENDBRANCH   5   8
ENDBRANCH   3   4
TORSDOF 13
ENDMDL
MODEL 3
REMARK VINA RESULT: -8.944480556      2.065      2.731
REMARK  13 active torsions:
REMARK  status: ('A' for Active; 'I' for Inactive)
REMARK    1  A    between atoms: C2_3  and  N2_4 
REMARK       I    between atoms: N2_4  and  C3_6 
REMARK    2  A    between atoms: C3_6  and  C4_8 
REMARK    3  A    between atoms: C4_8  and  O2_9 
REMARK    4  A    between atoms: O2_9  and  C5_10 
REMARK    5  A    between atoms: C5_10  and  C6_12 
REMARK    6  A    between atoms: C6_12  and  C7_13 
REMARK    7  A    between atoms: C7_13  and  C8_14 
REMARK    8  A    between atoms: C8_14  and  C9_15 
REMARK       I    between atoms: C9_15  and  N3_17 
REMARK    9  A    between atoms: N3_17  and  C10_19 
REMARK       I    between atoms: N5_26  and  C15_28 
REMARK   10  A    between atoms: C15_28  and  C16_30 
REMARK   11  A    between atoms: C16_30  and  C17_31 
REMARK   12  A    between atoms: C17_31  and  C18_32 
REMARK   13  A    between atoms: C18_32  and  N6_33 
ROOT
HETATM    1  N1  UNL     1      18.349  29.420  11.675  1.00  0.00    -0.196 NA
HETATM    2  C1  UNL     1      18.327  28.270  11.885  1.00  0.00     0.078 C 
HETATM    3  C2  UNL     1      18.326  26.834  12.141  1.00  0.00     0.247 C 
ENDROOT
BRANCH   3   4
HETATM    4  N2  UNL     1      19.665  26.267  12.010  1.00  0.00    -0.347 N 
HETATM    5  C3  UNL     1      19.908  25.273  11.043  1.00  0.00     0.242 C 
HETATM    6  O1  UNL     1      18.959  24.885  10.286  1.00  0.00    -0.271 OA
ATOM      7  H2  UNL     1      20.421  26.588  12.616  1.00  0.00     0.163 HD
BRANCH   5   8
HETATM    8  C4  UNL     1      21.227  24.661  10.872  1.00  0.00     0.281 C 
BRANCH   8   9
HETATM    9  O2  UNL     1      22.237  25.117  11.727  1.00  0.00    -0.312 OA
BRANCH   9  10
HETATM   10  C5  UNL     1      23.405  25.743  11.352  1.00  0.00     0.259 C 
HETATM   11  O3  UNL     1      24.501  25.248  11.669  1.00  0.00    -0.265 OA
BRANCH  10  12
HETATM   12  C6  UNL     1      23.359  27.004  10.571  1.00  0.00     0.111 C 
BRANCH  12  13
HETATM   13  C7  UNL     1      22.553  28.010  11.357  1.00  0.00     0.019 C 
BRANCH  13  14
HETATM   14  C8  UNL     1      23.070  28.298  12.717  1.00  0.00     0.103 C 
BRANCH  14  15
HETATM   15  C9  UNL     1      22.045  28.962  13.557  1.00  0.00     0.222 C 
HETATM   16  O4  UNL     1      21.172  28.266  14.074  1.00  0.00    -0.273 OA
HETATM   17  N3  UNL     1      22.067  30.367  13.759  1.00  0.00    -0.327 N 
ATOM     18  H3  UNL     1      22.809  30.918  13.328  1.00  0.00     0.169 HD
BRANCH  17  19
HETATM   19  C10 UNL     1      21.105  31.012  14.530  1.00  0.00     0.036 A 
HETATM   20  C11 UNL     1      21.316  31.241  15.875  1.00  0.00     0.032 A 
HETATM   21  C12 UNL     1      20.443  31.886  16.697  1.00  0.00     0.033 A 
HETATM   22  C13 UNL     1      19.218  32.380  16.194  1.00  0.00     0.051 A 
HETATM   23  N4  UNL     1      18.290  33.016  16.860  1.00  0.00    -0.335 N 
HETATM   24  C25 UNL     1      18.999  32.159  14.859  1.00  0.00     0.037 A 
HETATM   25  C14 UNL     1      17.189  33.421  16.241  1.00  0.00     0.152 A 
ATOM     26  H4  UNL     1      18.413  33.200  17.855  1.00  0.00     0.168 HD
HETATM   27  N5  UNL     1      16.147  34.044  16.655  1.00  0.00    -0.307 N 
HETATM   28  S1  UNL     1      17.469  32.876  14.619  1.00  0.00    -0.052 SA
HETATM   29  C15 UNL     1      15.917  34.468  17.946  1.00  0.00     0.223 C 
ATOM     30  H5  UNL     1      15.422  34.244  15.965  1.00  0.00     0.171 HD
HETATM   31  O5  UNL     1      14.971  33.862  18.587  1.00  0.00    -0.273 OA
HETATM   32  C26 UNL     1      19.920  31.485  14.026  1.00  0.00     0.051 A 
BRANCH  29  33
HETATM   33  C16 UNL     1      16.608  35.526  18.710  1.00  0.00     0.105 C 
BRANCH  33  34
HETATM   34  C17 UNL     1      16.672  36.847  17.961  1.00  0.00     0.029 C 
BRANCH  34  35
HETATM   35  C18 UNL     1      17.893  37.642  18.326  1.00  0.00     0.120 C 
BRANCH  35  36
HETATM   36  N6  UNL     1      18.773  36.771  19.106  1.00  0.00    -0.390 N 
HETATM   37  C19 UNL     1      19.997  36.689  18.759  1.00  0.00     0.051 C 
HETATM   38  C20 UNL     1      20.522  37.449  17.601  1.00  0.00     0.061 C 
HETATM   39  C24 UNL     1      20.965  35.851  19.472  1.00  0.00     0.171 C 
HETATM   40  C21 UNL     1      21.988  37.767  17.762  1.00  0.00     0.006 C 
HETATM   41  C22 UNL     1      22.854  36.636  18.175  1.00  0.00     0.008 C 
HETATM   42  C23 UNL     1      22.126  35.394  18.637  1.00  0.00     0.085 C 
HETATM   43  O6  UNL     1      20.794  35.576  20.666  1.00  0.00    -0.291 OA
ATOM     44  H6  UNL     1      18.417  36.246  19.905  1.00  0.00     0.159 HD
ENDBRANCH  35  36
ENDBRANCH  34  35
ENDBRANCH  33  34
ENDBRANCH  29  33
ENDBRANCH  17  19
ENDBRANCH  14  15
ENDBRANCH  13  14
ENDBRANCH  12  13
ENDBRANCH  10  12
ENDBRANCH   9  10
ENDBRANCH   8   9
ENDBRANCH   5   8
ENDBRANCH   3   4
TORSDOF 13
ENDMDL
MODEL 4
REMARK VINA RESULT: -8.906610101      2.483     10.422
REMARK  13 active torsions:
REMARK  status: ('A' for Active; 'I' for Inactive)
REMARK    1  A    between atoms: C2_3  and  N2_4 
REMARK       I    between atoms: N2_4  and  C3_6 
REMARK    2  A    between atoms: C3_6  and  C4_8 
REMARK    3  A    between atoms: C4_8  and  O2_9 
REMARK    4  A    between atoms: O2_9  and  C5_10 
REMARK    5  A    between atoms: C5_10  and  C6_12 
REMARK    6  A    between atoms: C6_12  and  C7_13 
REMARK    7  A    between atoms: C7_13  and  C8_14 
REMARK    8  A    between atoms: C8_14  and  C9_15 
REMARK       I    between atoms: C9_15  and  N3_17 
REMARK    9  A    between atoms: N3_17  and  C10_19 
REMARK       I    between atoms: N5_26  and  C15_28 
REMARK   10  A    between atoms: C15_28  and  C16_30 
REMARK   11  A    between atoms: C16_30  and  C17_31 
REMARK   12  A    between atoms: C17_31  and  C18_32 
REMARK   13  A    between atoms: C18_32  and  N6_33 
ROOT
HETATM    1  N1  UNL     1      21.698  33.872  16.331  1.00  0.00    -0.196 NA
HETATM    2  C1  UNL     1      20.900  34.341  17.045  1.00  0.00     0.078 C 
HETATM    3  C2  UNL     1      19.904  34.948  17.921  1.00  0.00     0.247 C 
ENDROOT
BRANCH   3   4
HETATM    4  N2  UNL     1      19.458  36.241  17.408  1.00  0.00    -0.347 N 
HETATM    5  C3  UNL     1      19.790  37.417  18.106  1.00  0.00     0.242 C 
HETATM    6  O1  UNL     1      20.484  37.343  19.173  1.00  0.00    -0.271 OA
ATOM      7  H2  UNL     1      18.909  36.292  16.550  1.00  0.00     0.163 HD
BRANCH   5   8
HETATM    8  C4  UNL     1      19.363  38.741  17.646  1.00  0.00     0.281 C 
BRANCH   8   9
HETATM    9  O2  UNL     1      18.080  39.145  18.030  1.00  0.00    -0.312 OA
BRANCH   9  10
HETATM   10  C5  UNL     1      16.888  38.629  17.573  1.00  0.00     0.259 C 
HETATM   11  O3  UNL     1      16.877  37.894  16.570  1.00  0.00    -0.265 OA
BRANCH  10  12
HETATM   12  C6  UNL     1      15.619  38.946  18.274  1.00  0.00     0.111 C 
BRANCH  12  13
HETATM   13  C7  UNL     1      15.377  37.874  19.309  1.00  0.00     0.019 C 
BRANCH  13  14
HETATM   14  C8  UNL     1      14.314  36.900  18.961  1.00  0.00     0.103 C 
BRANCH  14  15
HETATM   15  C9  UNL     1      14.885  35.655  18.395  1.00  0.00     0.222 C 
HETATM   16  O4  UNL     1      15.176  34.741  19.166  1.00  0.00    -0.273 OA
HETATM   17  N3  UNL     1      15.094  35.518  16.998  1.00  0.00    -0.327 N 
ATOM     18  H3  UNL     1      14.834  36.287  16.380  1.00  0.00     0.169 HD
BRANCH  17  19
HETATM   19  C10 UNL     1      15.644  34.364  16.447  1.00  0.00     0.036 A 
HETATM   20  C11 UNL     1      14.960  33.166  16.492  1.00  0.00     0.032 A 
HETATM   21  C12 UNL     1      15.409  31.997  15.958  1.00  0.00     0.033 A 
HETATM   22  C13 UNL     1      16.657  31.945  15.296  1.00  0.00     0.051 A 
HETATM   23  N4  UNL     1      17.212  30.902  14.738  1.00  0.00    -0.335 N 
HETATM   24  C25 UNL     1      17.344  33.131  15.245  1.00  0.00     0.037 A 
HETATM   25  C14 UNL     1      18.396  31.015  14.150  1.00  0.00     0.152 A 
ATOM     26  H4  UNL     1      16.735  30.002  14.755  1.00  0.00     0.168 HD
HETATM   27  N5  UNL     1      19.145  30.165  13.548  1.00  0.00    -0.307 N 
HETATM   28  S1  UNL     1      18.758  32.693  14.395  1.00  0.00    -0.052 SA
HETATM   29  C15 UNL     1      18.864  28.828  13.363  1.00  0.00     0.223 C 
ATOM     30  H5  UNL     1      20.028  30.509  13.173  1.00  0.00     0.171 HD
HETATM   31  O5  UNL     1      19.606  27.992  14.014  1.00  0.00    -0.273 OA
HETATM   32  C26 UNL     1      16.858  34.331  15.809  1.00  0.00     0.051 A 
BRANCH  29  33
HETATM   33  C16 UNL     1      17.824  28.209  12.518  1.00  0.00     0.105 C 
BRANCH  33  34
HETATM   34  C17 UNL     1      18.358  27.067  11.669  1.00  0.00     0.029 C 
BRANCH  34  35
HETATM   35  C18 UNL     1      19.463  27.514  10.756  1.00  0.00     0.120 C 
BRANCH  35  36
HETATM   36  N6  UNL     1      20.477  26.459  10.735  1.00  0.00    -0.390 N 
HETATM   37  C19 UNL     1      21.665  26.761  11.086  1.00  0.00     0.051 C 
HETATM   38  C20 UNL     1      22.019  28.138  11.503  1.00  0.00     0.061 C 
HETATM   39  C24 UNL     1      22.755  25.782  11.105  1.00  0.00     0.171 C 
HETATM   40  C21 UNL     1      23.170  28.145  12.478  1.00  0.00     0.006 C 
HETATM   41  C22 UNL     1      24.341  27.317  12.102  1.00  0.00     0.008 C 
HETATM   42  C23 UNL     1      24.125  26.373  10.941  1.00  0.00     0.085 C 
HETATM   43  O6  UNL     1      22.511  24.578  11.254  1.00  0.00    -0.291 OA
ATOM     44  H6  UNL     1      20.240  25.510  10.448  1.00  0.00     0.159 HD
ENDBRANCH  35  36
ENDBRANCH  34  35
ENDBRANCH  33  34
ENDBRANCH  29  33
ENDBRANCH  17  19
ENDBRANCH  14  15
ENDBRANCH  13  14
ENDBRANCH  12  13
ENDBRANCH  10  12
ENDBRANCH   9  10
ENDBRANCH   8   9
ENDBRANCH   5   8
ENDBRANCH   3   4
TORSDOF 13
ENDMDL
MODEL 5
REMARK VINA RESULT: -8.775121581      2.348      9.666
REMARK  13 active torsions:
REMARK  status: ('A' for Active; 'I' for Inactive)
REMARK    1  A    between atoms: C2_3  and  N2_4 
REMARK       I    between atoms: N2_4  and  C3_6 
REMARK    2  A    between atoms: C3_6  and  C4_8 
REMARK    3  A    between atoms: C4_8  and  O2_9 
REMARK    4  A    between atoms: O2_9  and  C5_10 
REMARK    5  A    between atoms: C5_10  and  C6_12 
REMARK    6  A    between atoms: C6_12  and  C7_13 
REMARK    7  A    between atoms: C7_13  and  C8_14 
REMARK    8  A    between atoms: C8_14  and  C9_15 
REMARK       I    between atoms: C9_15  and  N3_17 
REMARK    9  A    between atoms: N3_17  and  C10_19 
REMARK       I    between atoms: N5_26  and  C15_28 
REMARK   10  A    between atoms: C15_28  and  C16_30 
REMARK   11  A    between atoms: C16_30  and  C17_31 
REMARK   12  A    between atoms: C17_31  and  C18_32 
REMARK   13  A    between atoms: C18_32  and  N6_33 
ROOT
HETATM    1  N1  UNL     1      23.316  32.168  14.756  1.00  0.00    -0.196 NA
HETATM    2  C1  UNL     1      22.836  32.496  15.770  1.00  0.00     0.078 C 
HETATM    3  C2  UNL     1      22.221  32.922  17.023  1.00  0.00     0.247 C 
ENDROOT
BRANCH   3   4
HETATM    4  N2  UNL     1      21.148  33.886  16.792  1.00  0.00    -0.347 N 
HETATM    5  C3  UNL     1      20.742  34.737  17.836  1.00  0.00     0.242 C 
HETATM    6  O1  UNL     1      21.319  34.664  18.970  1.00  0.00    -0.271 OA
ATOM      7  H2  UNL     1      20.696  33.941  15.879  1.00  0.00     0.163 HD
BRANCH   5   8
HETATM    8  C4  UNL     1      19.666  35.716  17.666  1.00  0.00     0.281 C 
BRANCH   8   9
HETATM    9  O2  UNL     1      18.398  35.326  18.113  1.00  0.00    -0.312 OA
BRANCH   9  10
HETATM   10  C5  UNL     1      17.360  36.161  18.459  1.00  0.00     0.259 C 
HETATM   11  O3  UNL     1      17.592  37.347  18.754  1.00  0.00    -0.265 OA
BRANCH  10  12
HETATM   12  C6  UNL     1      15.966  35.652  18.479  1.00  0.00     0.111 C 
BRANCH  12  13
HETATM   13  C7  UNL     1      15.640  35.130  17.100  1.00  0.00     0.019 C 
BRANCH  13  14
HETATM   14  C8  UNL     1      15.090  33.753  17.069  1.00  0.00     0.103 C 
BRANCH  14  15
HETATM   15  C9  UNL     1      16.014  32.818  16.383  1.00  0.00     0.222 C 
HETATM   16  O4  UNL     1      15.532  31.892  15.731  1.00  0.00    -0.273 OA
HETATM   17  N3  UNL     1      17.420  32.983  16.477  1.00  0.00    -0.327 N 
ATOM     18  H3  UNL     1      17.793  33.766  17.015  1.00  0.00     0.169 HD
BRANCH  17  19
HETATM   19  C10 UNL     1      18.305  32.108  15.854  1.00  0.00     0.036 A 
HETATM   20  C11 UNL     1      18.678  30.928  16.467  1.00  0.00     0.032 A 
HETATM   21  C12 UNL     1      19.515  30.003  15.921  1.00  0.00     0.033 A 
HETATM   22  C13 UNL     1      20.072  30.209  14.639  1.00  0.00     0.051 A 
HETATM   23  N4  UNL     1      20.883  29.415  13.993  1.00  0.00    -0.335 N 
HETATM   24  C25 UNL     1      19.707  31.378  14.021  1.00  0.00     0.037 A 
HETATM   25  C14 UNL     1      21.321  29.750  12.786  1.00  0.00     0.152 A 
ATOM     26  H4  UNL     1      21.180  28.537  14.417  1.00  0.00     0.168 HD
HETATM   27  N5  UNL     1      22.111  29.165  11.962  1.00  0.00    -0.307 N 
HETATM   28  S1  UNL     1      20.546  31.281  12.538  1.00  0.00    -0.052 SA
HETATM   29  C15 UNL     1      22.737  27.954  12.162  1.00  0.00     0.223 C 
ATOM     30  H5  UNL     1      22.292  29.640  11.077  1.00  0.00     0.171 HD
HETATM   31  O5  UNL     1      24.022  27.991  12.307  1.00  0.00    -0.273 OA
HETATM   32  C26 UNL     1      18.837  32.324  14.608  1.00  0.00     0.051 A 
BRANCH  29  33
HETATM   33  C16 UNL     1      22.142  26.605  12.238  1.00  0.00     0.105 C 
BRANCH  33  34
HETATM   34  C17 UNL     1      21.811  26.029  10.871  1.00  0.00     0.029 C 
BRANCH  34  35
HETATM   35  C18 UNL     1      20.379  25.586  10.779  1.00  0.00     0.120 C 
BRANCH  35  36
HETATM   36  N6  UNL     1      19.657  26.181  11.904  1.00  0.00    -0.390 N 
HETATM   37  C19 UNL     1      18.787  27.078  11.652  1.00  0.00     0.051 C 
HETATM   38  C20 UNL     1      18.508  27.513  10.264  1.00  0.00     0.061 C 
HETATM   39  C24 UNL     1      18.004  27.736  12.702  1.00  0.00     0.171 C 
HETATM   40  C21 UNL     1      17.089  28.001  10.108  1.00  0.00     0.006 C 
HETATM   41  C22 UNL     1      16.616  28.957  11.137  1.00  0.00     0.008 C 
HETATM   42  C23 UNL     1      17.514  29.109  12.345  1.00  0.00     0.085 C 
HETATM   43  O6  UNL     1      17.790  27.159  13.776  1.00  0.00    -0.291 OA
ATOM     44  H6  UNL     1      19.844  25.886  12.862  1.00  0.00     0.159 HD
ENDBRANCH  35  36
ENDBRANCH  34  35
ENDBRANCH  33  34
ENDBRANCH  29  33
ENDBRANCH  17  19
ENDBRANCH  14  15
ENDBRANCH  13  14
ENDBRANCH  12  13
ENDBRANCH  10  12
ENDBRANCH   9  10
ENDBRANCH   8   9
ENDBRANCH   5   8
ENDBRANCH   3   4
TORSDOF 13
ENDMDL
