MODEL 1
REMARK VINA RESULT: -8.266584587      0.000      0.000
REMARK  14 active torsions:
REMARK  status: ('A' for Active; 'I' for Inactive)
REMARK    1  A    between atoms: N1_2  and  C2_4 
REMARK    2  A    between atoms: C3_7  and  C4_8 
REMARK    3  A    between atoms: C4_8  and  C5_9 
REMARK    4  A    between atoms: N3_12  and  C8_13 
REMARK    5  A    between atoms: C8_13  and  C9_14 
REMARK    6  A    between atoms: C9_14  and  C10_15 
REMARK    7  A    between atoms: C10_15  and  O1_16 
REMARK    8  A    between atoms: O1_16  and  C11_17 
REMARK    9  A    between atoms: C11_17  and  C12_19 
REMARK   10  A    between atoms: C20_30  and  C21_31 
REMARK   11  A    between atoms: C21_31  and  N5_32 
REMARK   12  A    between atoms: N5_32  and  O3_33 
REMARK   13  A    between atoms: O3_33  and  C22_34 
REMARK   14  A    between atoms: C22_34  and  C23_35 
ROOT
HETATM    1  C5  UNL     1      19.007  27.822  11.710  1.00  0.00     0.040 A 
HETATM    2  C6  UNL     1      18.554  29.096  12.079  1.00  0.00     0.031 A 
HETATM    3  C7  UNL     1      17.117  29.386  11.992  1.00  0.00     0.070 C 
HETATM    4  N3  UNL     1      19.407  30.068  12.486  1.00  0.00    -0.350 N 
HETATM    5  C18 UNL     1      20.728  29.769  12.524  1.00  0.00     0.037 A 
HETATM    6  C19 UNL     1      21.679  30.822  12.915  1.00  0.00     0.071 C 
HETATM    7  C20 UNL     1      21.234  28.510  12.169  1.00  0.00     0.088 A 
HETATM    8  N6  UNL     1      20.353  27.577  11.771  1.00  0.00    -0.349 N 
HETATM    9  C24 UNL     1      20.871  26.302  11.392  1.00  0.00     0.156 C 
ENDROOT
BRANCH   4  10
HETATM   10  C8  UNL     1      18.911  31.360  12.908  1.00  0.00     0.131 C 
BRANCH  10  11
HETATM   11  C9  UNL     1      18.634  31.466  14.376  1.00  0.00     0.047 C 
BRANCH  11  12
HETATM   12  C10 UNL     1      17.257  32.005  14.626  1.00  0.00     0.180 C 
BRANCH  12  13
HETATM   13  O1  UNL     1      16.889  32.131  15.959  1.00  0.00    -0.316 OA
BRANCH  13  14
HETATM   14  C11 UNL     1      15.709  32.635  16.461  1.00  0.00     0.310 C 
HETATM   15  O2  UNL     1      14.703  31.885  16.401  1.00  0.00    -0.258 OA
BRANCH  14  16
HETATM   16  C12 UNL     1      15.622  33.988  17.039  1.00  0.00     0.110 A 
HETATM   17  C13 UNL     1      16.392  35.081  16.751  1.00  0.00     0.057 A 
HETATM   18  C14 UNL     1      15.921  36.115  17.562  1.00  0.00     0.034 A 
HETATM   19  S1  UNL     1      16.060  37.746  18.044  1.00  0.00    -0.100 SA
HETATM   20  C17 UNL     1      14.891  35.657  18.323  1.00  0.00     0.050 A 
HETATM   21  C15 UNL     1      14.809  37.806  19.198  1.00  0.00     0.053 A 
HETATM   22  C16 UNL     1      14.306  36.533  19.178  1.00  0.00     0.038 A 
HETATM   23  N4  UNL     1      14.724  34.335  17.979  1.00  0.00    -0.350 N 
ATOM     24  H4  UNL     1      14.024  33.710  18.379  1.00  0.00     0.166 HD
ENDBRANCH  14  16
ENDBRANCH  13  14
ENDBRANCH  12  13
ENDBRANCH  11  12
ENDBRANCH  10  11
ENDBRANCH   4  10
BRANCH   1  25
HETATM   25  C4  UNL     1      18.046  26.793  11.296  1.00  0.00     0.116 C 
BRANCH  25  26
HETATM   26  C3  UNL     1      18.055  26.506   9.800  1.00  0.00     0.023 A 
HETATM   27  N2  UNL     1      18.194  27.441   8.889  1.00  0.00    -0.340 N 
HETATM   28  C2  UNL     1      18.237  27.084   7.607  1.00  0.00     0.144 A 
ATOM     29  H2  UNL     1      18.267  28.422   9.157  1.00  0.00     0.168 HD
HETATM   30  S2  UNL     1      18.081  25.398   7.657  1.00  0.00    -0.064 SA
HETATM   31  C25 UNL     1      17.963  25.208   9.346  1.00  0.00     0.078 A 
BRANCH  28  32
HETATM   32  N1  UNL     1      18.372  27.908   6.590  1.00  0.00    -0.375 N 
HETATM   33  C1  UNL     1      18.659  27.308   5.301  1.00  0.00     0.148 C 
ATOM     34  H1  UNL     1      18.280  28.918   6.703  1.00  0.00     0.161 HD
ENDBRANCH  28  32
ENDBRANCH  25  26
ENDBRANCH   1  25
BRANCH   7  35
HETATM   35  C21 UNL     1      22.671  28.273  12.284  1.00  0.00     0.249 C 
BRANCH  35  36
HETATM   36  N5  UNL     1      23.535  27.874  11.556  1.00  0.00    -0.291 NA
BRANCH  36  37
HETATM   37  O3  UNL     1      24.427  27.485  10.763  1.00  0.00    -0.199 OA
BRANCH  37  38
HETATM   38  C22 UNL     1      24.471  26.449   9.833  1.00  0.00     0.330 C 
BRANCH  38  39
HETATM   39  C23 UNL     1      24.119  25.140  10.390  1.00  0.00     0.201 C 
HETATM   40  O4  UNL     1      24.393  24.834  11.573  1.00  0.00    -0.646 OA
HETATM   41  O5  UNL     1      23.469  24.221   9.592  1.00  0.00    -0.646 OA
ENDBRANCH  38  39
ENDBRANCH  37  38
ENDBRANCH  36  37
ENDBRANCH  35  36
ENDBRANCH   7  35
TORSDOF 14
ENDMDL
MODEL 2
REMARK VINA RESULT: -8.263295366      1.286      1.601
REMARK  14 active torsions:
REMARK  status: ('A' for Active; 'I' for Inactive)
REMARK    1  A    between atoms: N1_2  and  C2_4 
REMARK    2  A    between atoms: C3_7  and  C4_8 
REMARK    3  A    between atoms: C4_8  and  C5_9 
REMARK    4  A    between atoms: N3_12  and  C8_13 
REMARK    5  A    between atoms: C8_13  and  C9_14 
REMARK    6  A    between atoms: C9_14  and  C10_15 
REMARK    7  A    between atoms: C10_15  and  O1_16 
REMARK    8  A    between atoms: O1_16  and  C11_17 
REMARK    9  A    between atoms: C11_17  and  C12_19 
REMARK   10  A    between atoms: C20_30  and  C21_31 
REMARK   11  A    between atoms: C21_31  and  N5_32 
REMARK   12  A    between atoms: N5_32  and  O3_33 
REMARK   13  A    between atoms: O3_33  and  C22_34 
REMARK   14  A    between atoms: C22_34  and  C23_35 
ROOT
HETATM    1  C5  UNL     1      18.855  27.509  11.581  1.00  0.00     0.040 A 
HETATM    2  C6  UNL     1      18.333  28.767  11.911  1.00  0.00     0.031 A 
HETATM    3  C7  UNL     1      16.937  29.064  11.562  1.00  0.00     0.070 C 
HETATM    4  N3  UNL     1      19.085  29.717  12.517  1.00  0.00    -0.350 N 
HETATM    5  C18 UNL     1      20.377  29.413  12.795  1.00  0.00     0.037 A 
HETATM    6  C19 UNL     1      21.229  30.446  13.407  1.00  0.00     0.071 C 
HETATM    7  C20 UNL     1      20.949  28.170  12.489  1.00  0.00     0.088 A 
HETATM    8  N6  UNL     1      20.167  27.259  11.889  1.00  0.00    -0.349 N 
HETATM    9  C24 UNL     1      20.755  26.000  11.560  1.00  0.00     0.156 C 
ENDROOT
BRANCH   4  10
HETATM   10  C8  UNL     1      18.510  30.991  12.892  1.00  0.00     0.131 C 
BRANCH  10  11
HETATM   11  C9  UNL     1      17.556  30.923  14.044  1.00  0.00     0.047 C 
BRANCH  11  12
HETATM   12  C10 UNL     1      18.165  30.196  15.205  1.00  0.00     0.180 C 
BRANCH  12  13
HETATM   13  O1  UNL     1      18.278  30.923  16.383  1.00  0.00    -0.316 OA
BRANCH  13  14
HETATM   14  C11 UNL     1      18.514  32.274  16.516  1.00  0.00     0.310 C 
HETATM   15  O2  UNL     1      19.662  32.680  16.206  1.00  0.00    -0.258 OA
BRANCH  14  16
HETATM   16  C12 UNL     1      17.479  33.203  17.000  1.00  0.00     0.110 A 
HETATM   17  C13 UNL     1      16.134  33.176  16.747  1.00  0.00     0.057 A 
HETATM   18  C14 UNL     1      15.587  34.267  17.426  1.00  0.00     0.034 A 
HETATM   19  S1  UNL     1      14.192  35.165  17.823  1.00  0.00    -0.100 SA
HETATM   20  C17 UNL     1      16.578  34.936  18.075  1.00  0.00     0.050 A 
HETATM   21  C15 UNL     1      14.899  36.367  18.800  1.00  0.00     0.053 A 
HETATM   22  C16 UNL     1      16.226  36.032  18.793  1.00  0.00     0.038 A 
HETATM   23  N4  UNL     1      17.741  34.257  17.795  1.00  0.00    -0.350 N 
ATOM     24  H4  UNL     1      18.667  34.514  18.140  1.00  0.00     0.166 HD
ENDBRANCH  14  16
ENDBRANCH  13  14
ENDBRANCH  12  13
ENDBRANCH  11  12
ENDBRANCH  10  11
ENDBRANCH   4  10
BRANCH   1  25
HETATM   25  C4  UNL     1      17.998  26.502  10.945  1.00  0.00     0.116 C 
BRANCH  25  26
HETATM   26  C3  UNL     1      18.219  26.362   9.444  1.00  0.00     0.023 A 
HETATM   27  N2  UNL     1      18.134  27.369   8.607  1.00  0.00    -0.340 N 
HETATM   28  C2  UNL     1      18.391  27.155   7.319  1.00  0.00     0.144 A 
ATOM     29  H2  UNL     1      17.876  28.299   8.937  1.00  0.00     0.168 HD
HETATM   30  S2  UNL     1      18.764  25.504   7.257  1.00  0.00    -0.064 SA
HETATM   31  C25 UNL     1      18.574  25.142   8.910  1.00  0.00     0.078 A 
BRANCH  28  32
HETATM   32  N1  UNL     1      18.346  28.066   6.370  1.00  0.00    -0.375 N 
HETATM   33  C1  UNL     1      18.375  27.582   5.003  1.00  0.00     0.148 C 
ATOM     34  H1  UNL     1      18.293  29.061   6.585  1.00  0.00     0.161 HD
ENDBRANCH  28  32
ENDBRANCH  25  26
ENDBRANCH   1  25
BRANCH   7  35
HETATM   35  C21 UNL     1      22.338  27.925  12.868  1.00  0.00     0.249 C 
BRANCH  35  36
HETATM   36  N5  UNL     1      23.385  27.862  12.289  1.00  0.00    -0.291 NA
BRANCH  36  37
HETATM   37  O3  UNL     1      24.496  27.763  11.711  1.00  0.00    -0.199 OA
BRANCH  37  38
HETATM   38  C22 UNL     1      25.263  26.664  11.329  1.00  0.00     0.330 C 
BRANCH  38  39
HETATM   39  C23 UNL     1      24.514  25.658  10.570  1.00  0.00     0.201 C 
HETATM   40  O4  UNL     1      24.042  24.637  11.121  1.00  0.00    -0.646 OA
HETATM   41  O5  UNL     1      24.326  25.839   9.216  1.00  0.00    -0.646 OA
ENDBRANCH  38  39
ENDBRANCH  37  38
ENDBRANCH  36  37
ENDBRANCH  35  36
ENDBRANCH   7  35
TORSDOF 14
ENDMDL
MODEL 3
REMARK VINA RESULT: -8.251198502      3.740     11.040
REMARK  14 active torsions:
REMARK  status: ('A' for Active; 'I' for Inactive)
REMARK    1  A    between atoms: N1_2  and  C2_4 
REMARK    2  A    between atoms: C3_7  and  C4_8 
REMARK    3  A    between atoms: C4_8  and  C5_9 
REMARK    4  A    between atoms: N3_12  and  C8_13 
REMARK    5  A    between atoms: C8_13  and  C9_14 
REMARK    6  A    between atoms: C9_14  and  C10_15 
REMARK    7  A    between atoms: C10_15  and  O1_16 
REMARK    8  A    between atoms: O1_16  and  C11_17 
REMARK    9  A    between atoms: C11_17  and  C12_19 
REMARK   10  A    between atoms: C20_30  and  C21_31 
REMARK   11  A    between atoms: C21_31  and  N5_32 
REMARK   12  A    between atoms: N5_32  and  O3_33 
REMARK   13  A    between atoms: O3_33  and  C22_34 
REMARK   14  A    between atoms: C22_34  and  C23_35 
ROOT
HETATM    1  C5  UNL     1      20.829  33.857  16.727  1.00  0.00     0.040 A 
HETATM    2  C6  UNL     1      21.717  33.221  15.849  1.00  0.00     0.031 A 
HETATM    3  C7  UNL     1      23.157  33.284  16.136  1.00  0.00     0.070 C 
HETATM    4  N3  UNL     1      21.287  32.577  14.737  1.00  0.00    -0.350 N 
HETATM    5  C18 UNL     1      19.953  32.567  14.494  1.00  0.00     0.037 A 
HETATM    6  C19 UNL     1      19.465  31.918  13.267  1.00  0.00     0.071 C 
HETATM    7  C20 UNL     1      19.020  33.185  15.340  1.00  0.00     0.088 A 
HETATM    8  N6  UNL     1      19.492  33.812  16.430  1.00  0.00    -0.349 N 
HETATM    9  C24 UNL     1      18.543  34.456  17.281  1.00  0.00     0.156 C 
ENDROOT
BRANCH   4  10
HETATM   10  C8  UNL     1      22.219  31.887  13.872  1.00  0.00     0.131 C 
BRANCH  10  11
HETATM   11  C9  UNL     1      22.664  30.552  14.384  1.00  0.00     0.047 C 
BRANCH  11  12
HETATM   12  C10 UNL     1      22.191  29.447  13.488  1.00  0.00     0.180 C 
BRANCH  12  13
HETATM   13  O1  UNL     1      21.345  28.514  14.072  1.00  0.00    -0.316 OA
BRANCH  13  14
HETATM   14  C11 UNL     1      19.993  28.355  13.856  1.00  0.00     0.310 C 
HETATM   15  O2  UNL     1      19.229  28.688  14.796  1.00  0.00    -0.258 OA
BRANCH  14  16
HETATM   16  C12 UNL     1      19.463  27.820  12.590  1.00  0.00     0.110 A 
HETATM   17  C13 UNL     1      19.427  28.428  11.365  1.00  0.00     0.057 A 
HETATM   18  C14 UNL     1      18.827  27.516  10.494  1.00  0.00     0.034 A 
HETATM   19  S1  UNL     1      18.298  27.172   8.909  1.00  0.00    -0.100 SA
HETATM   20  C17 UNL     1      18.508  26.384  11.178  1.00  0.00     0.050 A 
HETATM   21  C15 UNL     1      17.685  25.601   9.152  1.00  0.00     0.053 A 
HETATM   22  C16 UNL     1      17.913  25.381  10.484  1.00  0.00     0.038 A 
HETATM   23  N4  UNL     1      18.913  26.597  12.475  1.00  0.00    -0.350 N 
ATOM     24  H4  UNL     1      18.811  25.927  13.238  1.00  0.00     0.166 HD
ENDBRANCH  14  16
ENDBRANCH  13  14
ENDBRANCH  12  13
ENDBRANCH  11  12
ENDBRANCH  10  11
ENDBRANCH   4  10
BRANCH   1  25
HETATM   25  C4  UNL     1      21.336  34.524  17.931  1.00  0.00     0.116 C 
BRANCH  25  26
HETATM   26  C3  UNL     1      21.574  36.019  17.755  1.00  0.00     0.023 A 
HETATM   27  N2  UNL     1      20.889  36.763  16.918  1.00  0.00    -0.340 N 
HETATM   28  C2  UNL     1      21.138  38.069  16.871  1.00  0.00     0.144 A 
ATOM     29  H2  UNL     1      20.179  36.348  16.314  1.00  0.00     0.168 HD
HETATM   30  S2  UNL     1      22.361  38.283  18.023  1.00  0.00    -0.064 SA
HETATM   31  C25 UNL     1      22.512  36.664  18.531  1.00  0.00     0.078 A 
BRANCH  28  32
HETATM   32  N1  UNL     1      20.533  38.934  16.085  1.00  0.00    -0.375 N 
HETATM   33  C1  UNL     1      21.374  39.919  15.433  1.00  0.00     0.148 C 
ATOM     34  H1  UNL     1      19.523  38.912  15.941  1.00  0.00     0.161 HD
ENDBRANCH  28  32
ENDBRANCH  25  26
ENDBRANCH   1  25
BRANCH   7  35
HETATM   35  C21 UNL     1      17.601  33.082  15.012  1.00  0.00     0.249 C 
BRANCH  35  36
HETATM   36  N5  UNL     1      16.612  32.731  15.589  1.00  0.00    -0.291 NA
BRANCH  36  37
HETATM   37  O3  UNL     1      15.597  32.366  16.232  1.00  0.00    -0.199 OA
BRANCH  37  38
HETATM   38  C22 UNL     1      14.541  33.073  16.802  1.00  0.00     0.330 C 
BRANCH  38  39
HETATM   39  C23 UNL     1      14.965  34.234  17.590  1.00  0.00     0.201 C 
HETATM   40  O4  UNL     1      15.125  34.163  18.831  1.00  0.00    -0.646 OA
HETATM   41  O5  UNL     1      15.195  35.434  16.951  1.00  0.00    -0.646 OA
ENDBRANCH  38  39
ENDBRANCH  37  38
ENDBRANCH  36  37
ENDBRANCH  35  36
ENDBRANCH   7  35
TORSDOF 14
ENDMDL
MODEL 4
REMARK VINA RESULT: -8.213176734      4.065     12.146
REMARK  14 active torsions:
REMARK  status: ('A' for Active; 'I' for Inactive)
REMARK    1  A    between atoms: N1_2  and  C2_4 
REMARK    2  A    between atoms: C3_7  and  C4_8 
REMARK    3  A    between atoms: C4_8  and  C5_9 
REMARK    4  A    between atoms: N3_12  and  C8_13 
REMARK    5  A    between atoms: C8_13  and  C9_14 
REMARK    6  A    between atoms: C9_14  and  C10_15 
REMARK    7  A    between atoms: C10_15  and  O1_16 
REMARK    8  A    between atoms: O1_16  and  C11_17 
REMARK    9  A    between atoms: C11_17  and  C12_19 
REMARK   10  A    between atoms: C20_30  and  C21_31 
REMARK   11  A    between atoms: C21_31  and  N5_32 
REMARK   12  A    between atoms: N5_32  and  O3_33 
REMARK   13  A    between atoms: O3_33  and  C22_34 
REMARK   14  A    between atoms: C22_34  and  C23_35 
ROOT
HETATM    1  C5  UNL     1      19.780  34.293  17.278  1.00  0.00     0.040 A 
HETATM    2  C6  UNL     1      19.874  33.690  16.016  1.00  0.00     0.031 A 
HETATM    3  C7  UNL     1      21.190  33.615  15.367  1.00  0.00     0.070 C 
HETATM    4  N3  UNL     1      18.786  33.201  15.374  1.00  0.00    -0.350 N 
HETATM    5  C18 UNL     1      17.586  33.316  15.995  1.00  0.00     0.037 A 
HETATM    6  C19 UNL     1      16.382  32.838  15.296  1.00  0.00     0.071 C 
HETATM    7  C20 UNL     1      17.436  33.907  17.257  1.00  0.00     0.088 A 
HETATM    8  N6  UNL     1      18.541  34.378  17.857  1.00  0.00    -0.349 N 
HETATM    9  C24 UNL     1      18.385  34.997  19.134  1.00  0.00     0.156 C 
ENDROOT
BRANCH   4  10
HETATM   10  C8  UNL     1      18.915  32.539  14.093  1.00  0.00     0.131 C 
BRANCH  10  11
HETATM   11  C9  UNL     1      19.012  31.047  14.176  1.00  0.00     0.047 C 
BRANCH  11  12
HETATM   12  C10 UNL     1      18.166  30.394  13.124  1.00  0.00     0.180 C 
BRANCH  12  13
HETATM   13  O1  UNL     1      18.745  29.319  12.463  1.00  0.00    -0.316 OA
BRANCH  13  14
HETATM   14  C11 UNL     1      19.324  28.201  13.023  1.00  0.00     0.310 C 
HETATM   15  O2  UNL     1      18.648  27.588  13.887  1.00  0.00    -0.258 OA
BRANCH  14  16
HETATM   16  C12 UNL     1      20.669  27.741  12.635  1.00  0.00     0.110 A 
HETATM   17  C13 UNL     1      21.868  28.366  12.843  1.00  0.00     0.057 A 
HETATM   18  C14 UNL     1      22.843  27.533  12.289  1.00  0.00     0.034 A 
HETATM   19  S1  UNL     1      24.497  27.267  11.969  1.00  0.00    -0.100 SA
HETATM   20  C17 UNL     1      22.246  26.432  11.759  1.00  0.00     0.050 A 
HETATM   21  C15 UNL     1      24.392  25.766  11.171  1.00  0.00     0.053 A 
HETATM   22  C16 UNL     1      23.047  25.506  11.175  1.00  0.00     0.038 A 
HETATM   23  N4  UNL     1      20.898  26.585  11.987  1.00  0.00    -0.350 N 
ATOM     24  H4  UNL     1      20.178  25.919  11.705  1.00  0.00     0.166 HD
ENDBRANCH  14  16
ENDBRANCH  13  14
ENDBRANCH  12  13
ENDBRANCH  11  12
ENDBRANCH  10  11
ENDBRANCH   4  10
BRANCH   1  25
HETATM   25  C4  UNL     1      20.988  34.789  17.946  1.00  0.00     0.116 C 
BRANCH  25  26
HETATM   26  C3  UNL     1      21.177  36.297  17.842  1.00  0.00     0.023 A 
HETATM   27  N2  UNL     1      20.791  37.001  16.803  1.00  0.00    -0.340 N 
HETATM   28  C2  UNL     1      20.956  38.321  16.826  1.00  0.00     0.144 A 
ATOM     29  H2  UNL     1      20.372  36.544  15.993  1.00  0.00     0.168 HD
HETATM   30  S2  UNL     1      21.669  38.606  18.336  1.00  0.00    -0.064 SA
HETATM   31  C25 UNL     1      21.732  36.997  18.891  1.00  0.00     0.078 A 
BRANCH  28  32
HETATM   32  N1  UNL     1      20.618  39.150  15.862  1.00  0.00    -0.375 N 
HETATM   33  C1  UNL     1      19.430  39.952  16.080  1.00  0.00     0.148 C 
ATOM     34  H1  UNL     1      21.164  39.223  15.003  1.00  0.00     0.161 HD
ENDBRANCH  28  32
ENDBRANCH  25  26
ENDBRANCH   1  25
BRANCH   7  35
HETATM   35  C21 UNL     1      16.106  33.945  17.860  1.00  0.00     0.249 C 
BRANCH  35  36
HETATM   36  N5  UNL     1      15.515  34.694  18.585  1.00  0.00    -0.291 NA
BRANCH  36  37
HETATM   37  O3  UNL     1      14.879  35.443  19.366  1.00  0.00    -0.199 OA
BRANCH  37  38
HETATM   38  C22 UNL     1      14.221  36.657  19.176  1.00  0.00     0.330 C 
BRANCH  38  39
HETATM   39  C23 UNL     1      15.019  37.826  19.558  1.00  0.00     0.201 C 
HETATM   40  O4  UNL     1      14.596  38.670  20.382  1.00  0.00    -0.646 OA
HETATM   41  O5  UNL     1      16.267  38.003  18.997  1.00  0.00    -0.646 OA
ENDBRANCH  38  39
ENDBRANCH  37  38
ENDBRANCH  36  37
ENDBRANCH  35  36
ENDBRANCH   7  35
TORSDOF 14
ENDMDL
MODEL 5
REMARK VINA RESULT: -8.203493212      1.053      1.268
REMARK  14 active torsions:
REMARK  status: ('A' for Active; 'I' for Inactive)
REMARK    1  A    between atoms: N1_2  and  C2_4 
REMARK    2  A    between atoms: C3_7  and  C4_8 
REMARK    3  A    between atoms: C4_8  and  C5_9 
REMARK    4  A    between atoms: N3_12  and  C8_13 
REMARK    5  A    between atoms: C8_13  and  C9_14 
REMARK    6  A    between atoms: C9_14  and  C10_15 
REMARK    7  A    between atoms: C10_15  and  O1_16 
REMARK    8  A    between atoms: O1_16  and  C11_17 
REMARK    9  A    between atoms: C11_17  and  C12_19 
REMARK   10  A    between atoms: C20_30  and  C21_31 
REMARK   11  A    between atoms: C21_31  and  N5_32 
REMARK   12  A    between atoms: N5_32  and  O3_33 
REMARK   13  A    between atoms: O3_33  and  C22_34 
REMARK   14  A    between atoms: C22_34  and  C23_35 
ROOT
HETATM    1  C5  UNL     1      19.052  27.675  11.799  1.00  0.00     0.040 A 
HETATM    2  C6  UNL     1      18.595  28.963  12.106  1.00  0.00     0.031 A 
HETATM    3  C7  UNL     1      17.191  29.297  11.829  1.00  0.00     0.070 C 
HETATM    4  N3  UNL     1      19.415  29.909  12.625  1.00  0.00    -0.350 N 
HETATM    5  C18 UNL     1      20.710  29.569  12.838  1.00  0.00     0.037 A 
HETATM    6  C19 UNL     1      21.633  30.593  13.353  1.00  0.00     0.071 C 
HETATM    7  C20 UNL     1      21.219  28.293  12.551  1.00  0.00     0.088 A 
HETATM    8  N6  UNL     1      20.370  27.388  12.039  1.00  0.00    -0.349 N 
HETATM    9  C24 UNL     1      20.893  26.096  11.730  1.00  0.00     0.156 C 
ENDROOT
BRANCH   4  10
HETATM   10  C8  UNL     1      18.908  31.217  12.979  1.00  0.00     0.131 C 
BRANCH  10  11
HETATM   11  C9  UNL     1      18.563  31.375  14.427  1.00  0.00     0.047 C 
BRANCH  11  12
HETATM   12  C10 UNL     1      17.114  31.720  14.601  1.00  0.00     0.180 C 
BRANCH  12  13
HETATM   13  O1  UNL     1      16.836  32.717  15.525  1.00  0.00    -0.316 OA
BRANCH  13  14
HETATM   14  C11 UNL     1      16.687  34.066  15.286  1.00  0.00     0.310 C 
HETATM   15  O2  UNL     1      16.974  34.470  14.131  1.00  0.00    -0.258 OA
BRANCH  14  16
HETATM   16  C12 UNL     1      16.215  34.996  16.327  1.00  0.00     0.110 A 
HETATM   17  C13 UNL     1      15.134  34.861  17.154  1.00  0.00     0.057 A 
HETATM   18  C14 UNL     1      15.110  36.004  17.956  1.00  0.00     0.034 A 
HETATM   19  S1  UNL     1      14.339  36.871  19.206  1.00  0.00    -0.100 SA
HETATM   20  C17 UNL     1      16.154  36.810  17.621  1.00  0.00     0.050 A 
HETATM   21  C15 UNL     1      15.357  38.234  19.273  1.00  0.00     0.053 A 
HETATM   22  C16 UNL     1      16.289  37.974  18.304  1.00  0.00     0.038 A 
HETATM   23  N4  UNL     1      16.824  36.162  16.609  1.00  0.00    -0.350 N 
ATOM     24  H4  UNL     1      17.660  36.515  16.141  1.00  0.00     0.166 HD
ENDBRANCH  14  16
ENDBRANCH  13  14
ENDBRANCH  12  13
ENDBRANCH  11  12
ENDBRANCH  10  11
ENDBRANCH   4  10
BRANCH   1  25
HETATM   25  C4  UNL     1      18.123  26.675  11.260  1.00  0.00     0.116 C 
BRANCH  25  26
HETATM   26  C3  UNL     1      18.269  26.442   9.761  1.00  0.00     0.023 A 
HETATM   27  N2  UNL     1      18.183  27.403   8.871  1.00  0.00    -0.340 N 
HETATM   28  C2  UNL     1      18.372  27.107   7.588  1.00  0.00     0.144 A 
ATOM     29  H2  UNL     1      17.974  28.360   9.158  1.00  0.00     0.168 HD
HETATM   30  S2  UNL     1      18.681  25.441   7.605  1.00  0.00    -0.064 SA
HETATM   31  C25 UNL     1      18.553  25.181   9.284  1.00  0.00     0.078 A 
BRANCH  28  32
HETATM   32  N1  UNL     1      18.317  27.963   6.591  1.00  0.00    -0.375 N 
HETATM   33  C1  UNL     1      18.596  27.439   5.268  1.00  0.00     0.148 C 
ATOM     34  H1  UNL     1      18.089  28.946   6.741  1.00  0.00     0.161 HD
ENDBRANCH  28  32
ENDBRANCH  25  26
ENDBRANCH   1  25
BRANCH   7  35
HETATM   35  C21 UNL     1      22.619  28.013  12.857  1.00  0.00     0.249 C 
BRANCH  35  36
HETATM   36  N5  UNL     1      23.619  27.850  12.218  1.00  0.00    -0.291 NA
BRANCH  36  37
HETATM   37  O3  UNL     1      24.690  27.705  11.577  1.00  0.00    -0.199 OA
BRANCH  37  38
HETATM   38  C22 UNL     1      25.337  26.580  11.072  1.00  0.00     0.330 C 
BRANCH  38  39
HETATM   39  C23 UNL     1      24.428  25.585  10.497  1.00  0.00     0.201 C 
HETATM   40  O4  UNL     1      23.994  24.623  11.173  1.00  0.00    -0.646 OA
HETATM   41  O5  UNL     1      24.040  25.708   9.179  1.00  0.00    -0.646 OA
ENDBRANCH  38  39
ENDBRANCH  37  38
ENDBRANCH  36  37
ENDBRANCH  35  36
ENDBRANCH   7  35
TORSDOF 14
ENDMDL
