MODEL 1
REMARK VINA RESULT: -9.622493899      0.000      0.000
REMARK  12 active torsions:
REMARK  status: ('A' for Active; 'I' for Inactive)
REMARK    1  A    between atoms: C3_3  and  N1_4 
REMARK    2  A    between atoms: N1_4  and  C4_5 
REMARK    3  A    between atoms: N1_4  and  C18_29 
REMARK    4  A    between atoms: C4_5  and  C5_6 
REMARK    5  A    between atoms: C8_11  and  N3_12 
REMARK    6  A    between atoms: C14_20  and  N5_21 
REMARK    7  A    between atoms: N5_21  and  C15_23 
REMARK    8  A    between atoms: C15_23  and  C16_24 
REMARK    9  A    between atoms: C23_34  and  C24_35 
REMARK       I    between atoms: C24_35  and  N8_37 
REMARK   10  A    between atoms: N8_37  and  C25_39 
REMARK   11  A    between atoms: C25_39  and  C26_40 
REMARK   12  A    between atoms: C26_40  and  C27_41 
ROOT
HETATM    1  C1  UNL     1      21.954  31.839  13.482  1.00  0.00     0.014 C 
HETATM    2  C2  UNL     1      20.989  31.478  12.854  1.00  0.00    -0.098 C 
HETATM    3  C3  UNL     1      19.816  31.009  12.073  1.00  0.00     0.216 C 
ENDROOT
BRANCH   3   4
HETATM    4  N1  UNL     1      19.186  29.908  12.724  1.00  0.00    -0.363 N 
BRANCH   4   5
HETATM    5  C4  UNL     1      18.806  29.885  14.084  1.00  0.00     0.182 C 
BRANCH   5   6
HETATM    6  C5  UNL     1      18.397  31.136  14.720  1.00  0.00     0.048 A 
HETATM    7  C6  UNL     1      17.284  31.909  14.718  1.00  0.00     0.080 A 
HETATM    8  C7  UNL     1      17.458  33.013  15.531  1.00  0.00     0.162 A 
HETATM    9  N2  UNL     1      16.661  34.038  15.835  1.00  0.00    -0.174 N 
HETATM   10  N6  UNL     1      18.723  32.868  16.025  1.00  0.00    -0.069 N 
HETATM   11  C8  UNL     1      17.101  34.998  16.669  1.00  0.00     0.696 A 
ATOM     12  H2  UNL     1      15.723  34.094  15.438  1.00  0.00     0.186 HD
HETATM   13  N4  UNL     1      18.327  34.882  17.162  1.00  0.00    -0.021 N 
HETATM   14  C14 UNL     1      19.164  33.828  16.859  1.00  0.00     0.716 A 
ATOM     15  H4  UNL     1      18.667  35.607  17.795  1.00  0.00     0.203 HD
HETATM   16  N7  UNL     1      19.260  31.784  15.554  1.00  0.00    -0.280 N 
ATOM     17  H7  UNL     1      20.201  31.461  15.777  1.00  0.00     0.188 HD
BRANCH  11  18
HETATM   18  N3  UNL     1      16.201  36.058  16.957  1.00  0.00    -0.217 N 
HETATM   19  C9  UNL     1      14.790  35.866  17.255  1.00  0.00     0.141 C 
HETATM   20  C10 UNL     1      14.544  36.294  18.695  1.00  0.00     0.020 C 
HETATM   21  C11 UNL     1      15.509  37.351  19.157  1.00  0.00     0.003 C 
HETATM   22  C12 UNL     1      15.847  38.231  17.968  1.00  0.00     0.020 C 
HETATM   23  C13 UNL     1      16.657  37.461  16.950  1.00  0.00     0.141 C 
ENDBRANCH  11  18
BRANCH  14  24
HETATM   24  N5  UNL     1      20.307  33.836  17.408  1.00  0.00    -0.220 N 
ATOM     25  H5  UNL     1      20.457  33.185  18.179  1.00  0.00     0.178 HD
BRANCH  24  26
HETATM   26  C15 UNL     1      21.394  34.666  17.047  1.00  0.00     0.164 C 
BRANCH  26  27
HETATM   27  C16 UNL     1      22.602  33.841  16.693  1.00  0.00    -0.017 C 
HETATM   28  C17 UNL     1      22.721  32.567  17.062  1.00  0.00     0.008 C 
ENDBRANCH  26  27
ENDBRANCH  24  26
ENDBRANCH  14  24
ENDBRANCH   5   6
ENDBRANCH   4   5
BRANCH   4  29
HETATM   29  C18 UNL     1      18.881  28.745  11.925  1.00  0.00     0.057 A 
HETATM   30  C19 UNL     1      17.662  28.490  11.365  1.00  0.00    -0.034 A 
HETATM   31  C20 UNL     1      16.525  29.417  11.542  1.00  0.00     0.050 C 
HETATM   32  C21 UNL     1      17.431  27.346  10.603  1.00  0.00     0.010 A 
HETATM   33  C22 UNL     1      18.426  26.447  10.397  1.00  0.00     0.019 A 
HETATM   34  C23 UNL     1      19.692  26.678  10.958  1.00  0.00     0.052 A 
HETATM   35  C28 UNL     1      19.894  27.814  11.705  1.00  0.00     0.059 A 
HETATM   36  C29 UNL     1      21.210  28.037  12.276  1.00  0.00    -0.074 C 
HETATM   37  C30 UNL     1      22.299  28.243  12.747  1.00  0.00     0.018 C 
BRANCH  34  38
HETATM   38  C24 UNL     1      20.739  25.679  10.720  1.00  0.00     0.253 C 
HETATM   39  O1  UNL     1      20.798  24.626  11.355  1.00  0.00    -0.268 OA
HETATM   40  N8  UNL     1      21.699  25.967   9.715  1.00  0.00    -0.356 N 
ATOM     41  H8  UNL     1      21.608  26.851   9.215  1.00  0.00     0.162 HD
BRANCH  40  42
HETATM   42  C25 UNL     1      22.794  25.103   9.348  1.00  0.00     0.133 C 
BRANCH  42  43
HETATM   43  C26 UNL     1      24.087  25.924   9.355  1.00  0.00     0.133 C 
BRANCH  43  44
HETATM   44  C27 UNL     1      24.554  26.108  10.746  1.00  0.00     0.174 C 
HETATM   45  O2  UNL     1      24.187  25.298  11.629  1.00  0.00    -0.648 OA
HETATM   46  O3  UNL     1      25.384  27.152  11.100  1.00  0.00    -0.648 OA
ENDBRANCH  43  44
ENDBRANCH  42  43
ENDBRANCH  40  42
ENDBRANCH  34  38
ENDBRANCH   4  29
ENDBRANCH   3   4
TORSDOF 12
ENDMDL
MODEL 2
REMARK VINA RESULT: -9.570464526      1.914      3.260
REMARK  12 active torsions:
REMARK  status: ('A' for Active; 'I' for Inactive)
REMARK    1  A    between atoms: C3_3  and  N1_4 
REMARK    2  A    between atoms: N1_4  and  C4_5 
REMARK    3  A    between atoms: N1_4  and  C18_29 
REMARK    4  A    between atoms: C4_5  and  C5_6 
REMARK    5  A    between atoms: C8_11  and  N3_12 
REMARK    6  A    between atoms: C14_20  and  N5_21 
REMARK    7  A    between atoms: N5_21  and  C15_23 
REMARK    8  A    between atoms: C15_23  and  C16_24 
REMARK    9  A    between atoms: C23_34  and  C24_35 
REMARK       I    between atoms: C24_35  and  N8_37 
REMARK   10  A    between atoms: N8_37  and  C25_39 
REMARK   11  A    between atoms: C25_39  and  C26_40 
REMARK   12  A    between atoms: C26_40  and  C27_41 
ROOT
HETATM    1  C1  UNL     1      15.574  28.151  11.345  1.00  0.00     0.014 C 
HETATM    2  C2  UNL     1      16.649  28.680  11.200  1.00  0.00    -0.098 C 
HETATM    3  C3  UNL     1      17.966  29.349  11.046  1.00  0.00     0.216 C 
ENDROOT
BRANCH   3   4
HETATM    4  N1  UNL     1      18.858  28.949  12.084  1.00  0.00    -0.363 N 
BRANCH   4   5
HETATM    5  C4  UNL     1      18.492  28.766  13.436  1.00  0.00     0.182 C 
BRANCH   5   6
HETATM    6  C5  UNL     1      18.409  29.938  14.307  1.00  0.00     0.048 A 
HETATM    7  C6  UNL     1      17.446  30.826  14.653  1.00  0.00     0.080 A 
HETATM    8  C7  UNL     1      17.941  31.757  15.546  1.00  0.00     0.162 A 
HETATM    9  N2  UNL     1      17.383  32.806  16.151  1.00  0.00    -0.174 N 
HETATM   10  N6  UNL     1      19.244  31.389  15.723  1.00  0.00    -0.069 N 
HETATM   11  C8  UNL     1      18.119  33.562  16.985  1.00  0.00     0.696 A 
ATOM     12  H2  UNL     1      16.403  33.033  15.982  1.00  0.00     0.186 HD
HETATM   13  N4  UNL     1      19.388  33.227  17.175  1.00  0.00    -0.021 N 
HETATM   14  C14 UNL     1      19.982  32.145  16.558  1.00  0.00     0.716 A 
ATOM     15  H4  UNL     1      19.952  33.796  17.807  1.00  0.00     0.203 HD
HETATM   16  N7  UNL     1      19.509  30.340  15.006  1.00  0.00    -0.280 N 
ATOM     17  H7  UNL     1      20.417  29.877  14.971  1.00  0.00     0.188 HD
BRANCH  11  18
HETATM   18  N3  UNL     1      17.462  34.659  17.603  1.00  0.00    -0.217 N 
HETATM   19  C9  UNL     1      18.147  35.684  18.377  1.00  0.00     0.141 C 
HETATM   20  C10 UNL     1      18.008  37.009  17.641  1.00  0.00     0.020 C 
HETATM   21  C11 UNL     1      16.757  37.080  16.810  1.00  0.00     0.003 C 
HETATM   22  C12 UNL     1      15.674  36.291  17.520  1.00  0.00     0.020 C 
HETATM   23  C13 UNL     1      15.998  34.814  17.510  1.00  0.00     0.141 C 
ENDBRANCH  11  18
BRANCH  14  24
HETATM   24  N5  UNL     1      21.200  31.931  16.837  1.00  0.00    -0.220 N 
ATOM     25  H5  UNL     1      21.469  30.968  17.040  1.00  0.00     0.178 HD
BRANCH  24  26
HETATM   26  C15 UNL     1      22.221  32.909  16.890  1.00  0.00     0.164 C 
BRANCH  26  27
HETATM   27  C16 UNL     1      22.705  33.253  15.506  1.00  0.00    -0.017 C 
HETATM   28  C17 UNL     1      23.330  32.365  14.735  1.00  0.00     0.008 C 
ENDBRANCH  26  27
ENDBRANCH  24  26
ENDBRANCH  14  24
ENDBRANCH   5   6
ENDBRANCH   4   5
BRANCH   4  29
HETATM   29  C18 UNL     1      20.228  28.677  11.721  1.00  0.00     0.057 A 
HETATM   30  C19 UNL     1      21.234  29.598  11.751  1.00  0.00    -0.034 A 
HETATM   31  C20 UNL     1      20.987  30.994  12.173  1.00  0.00     0.050 C 
HETATM   32  C21 UNL     1      22.538  29.272  11.387  1.00  0.00     0.010 A 
HETATM   33  C22 UNL     1      22.843  28.011  10.988  1.00  0.00     0.019 A 
HETATM   34  C23 UNL     1      21.833  27.038  10.944  1.00  0.00     0.052 A 
HETATM   35  C28 UNL     1      20.554  27.386  11.309  1.00  0.00     0.059 A 
HETATM   36  C29 UNL     1      19.523  26.366  11.260  1.00  0.00    -0.074 C 
HETATM   37  C30 UNL     1      18.658  25.528  11.236  1.00  0.00     0.018 C 
BRANCH  34  38
HETATM   38  C24 UNL     1      22.200  25.690  10.500  1.00  0.00     0.253 C 
HETATM   39  O1  UNL     1      22.431  24.777  11.293  1.00  0.00    -0.268 OA
HETATM   40  N8  UNL     1      22.282  25.463   9.101  1.00  0.00    -0.356 N 
ATOM     41  H8  UNL     1      22.081  26.249   8.483  1.00  0.00     0.162 HD
BRANCH  40  42
HETATM   42  C25 UNL     1      22.628  24.205   8.488  1.00  0.00     0.133 C 
BRANCH  42  43
HETATM   43  C26 UNL     1      21.969  24.137   7.106  1.00  0.00     0.133 C 
BRANCH  43  44
HETATM   44  C27 UNL     1      22.583  25.141   6.211  1.00  0.00     0.174 C 
HETATM   45  O2  UNL     1      23.742  25.551   6.453  1.00  0.00    -0.648 OA
HETATM   46  O3  UNL     1      21.912  25.639   5.113  1.00  0.00    -0.648 OA
ENDBRANCH  43  44
ENDBRANCH  42  43
ENDBRANCH  40  42
ENDBRANCH  34  38
ENDBRANCH   4  29
ENDBRANCH   3   4
TORSDOF 12
ENDMDL
MODEL 3
REMARK VINA RESULT: -9.552593052      1.060      1.463
REMARK  12 active torsions:
REMARK  status: ('A' for Active; 'I' for Inactive)
REMARK    1  A    between atoms: C3_3  and  N1_4 
REMARK    2  A    between atoms: N1_4  and  C4_5 
REMARK    3  A    between atoms: N1_4  and  C18_29 
REMARK    4  A    between atoms: C4_5  and  C5_6 
REMARK    5  A    between atoms: C8_11  and  N3_12 
REMARK    6  A    between atoms: C14_20  and  N5_21 
REMARK    7  A    between atoms: N5_21  and  C15_23 
REMARK    8  A    between atoms: C15_23  and  C16_24 
REMARK    9  A    between atoms: C23_34  and  C24_35 
REMARK       I    between atoms: C24_35  and  N8_37 
REMARK   10  A    between atoms: N8_37  and  C25_39 
REMARK   11  A    between atoms: C25_39  and  C26_40 
REMARK   12  A    between atoms: C26_40  and  C27_41 
ROOT
HETATM    1  C1  UNL     1      21.175  31.635  12.389  1.00  0.00     0.014 C 
HETATM    2  C2  UNL     1      20.098  31.117  12.227  1.00  0.00    -0.098 C 
HETATM    3  C3  UNL     1      18.784  30.457  12.010  1.00  0.00     0.216 C 
ENDROOT
BRANCH   3   4
HETATM    4  N1  UNL     1      18.714  29.229  12.731  1.00  0.00    -0.363 N 
BRANCH   4   5
HETATM    5  C4  UNL     1      18.630  29.121  14.137  1.00  0.00     0.182 C 
BRANCH   5   6
HETATM    6  C5  UNL     1      18.544  30.346  14.931  1.00  0.00     0.048 A 
HETATM    7  C6  UNL     1      17.560  31.208  15.285  1.00  0.00     0.080 A 
HETATM    8  C7  UNL     1      18.063  32.223  16.076  1.00  0.00     0.162 A 
HETATM    9  N2  UNL     1      17.492  33.283  16.649  1.00  0.00    -0.174 N 
HETATM   10  N6  UNL     1      19.394  31.932  16.184  1.00  0.00    -0.069 N 
HETATM   11  C8  UNL     1      18.241  34.131  17.376  1.00  0.00     0.696 A 
ATOM     12  H2  UNL     1      16.492  33.449  16.536  1.00  0.00     0.186 HD
HETATM   13  N4  UNL     1      19.536  33.873  17.496  1.00  0.00    -0.021 N 
HETATM   14  C14 UNL     1      20.144  32.781  16.912  1.00  0.00     0.716 A 
ATOM     15  H4  UNL     1      20.111  34.512  18.046  1.00  0.00     0.203 HD
HETATM   16  N7  UNL     1      19.665  30.850  15.521  1.00  0.00    -0.280 N 
ATOM     17  H7  UNL     1      20.593  30.432  15.452  1.00  0.00     0.188 HD
BRANCH  11  18
HETATM   18  N3  UNL     1      17.570  35.235  17.964  1.00  0.00    -0.217 N 
HETATM   19  C9  UNL     1      18.249  36.383  18.543  1.00  0.00     0.141 C 
HETATM   20  C10 UNL     1      17.909  37.609  17.708  1.00  0.00     0.020 C 
HETATM   21  C11 UNL     1      16.567  37.499  17.040  1.00  0.00     0.003 C 
HETATM   22  C12 UNL     1      15.649  36.711  17.954  1.00  0.00     0.020 C 
HETATM   23  C13 UNL     1      16.097  35.270  18.044  1.00  0.00     0.141 C 
ENDBRANCH  11  18
BRANCH  14  24
HETATM   24  N5  UNL     1      21.389  32.648  17.116  1.00  0.00    -0.220 N 
ATOM     25  H5  UNL     1      21.693  31.802  17.599  1.00  0.00     0.178 HD
BRANCH  24  26
HETATM   26  C15 UNL     1      22.394  33.566  16.733  1.00  0.00     0.164 C 
BRANCH  26  27
HETATM   27  C16 UNL     1      22.700  33.442  15.263  1.00  0.00    -0.017 C 
HETATM   28  C17 UNL     1      23.793  32.825  14.819  1.00  0.00     0.008 C 
ENDBRANCH  26  27
ENDBRANCH  24  26
ENDBRANCH  14  24
ENDBRANCH   5   6
ENDBRANCH   4   5
BRANCH   4  29
HETATM   29  C18 UNL     1      18.688  28.005  11.965  1.00  0.00     0.057 A 
HETATM   30  C19 UNL     1      17.572  27.482  11.380  1.00  0.00    -0.034 A 
HETATM   31  C20 UNL     1      16.259  28.154  11.491  1.00  0.00     0.050 C 
HETATM   32  C21 UNL     1      17.613  26.295  10.652  1.00  0.00     0.010 A 
HETATM   33  C22 UNL     1      18.782  25.620  10.507  1.00  0.00     0.019 A 
HETATM   34  C23 UNL     1      19.950  26.129  11.097  1.00  0.00     0.052 A 
HETATM   35  C28 UNL     1      19.882  27.303  11.809  1.00  0.00     0.059 A 
HETATM   36  C29 UNL     1      21.100  27.815  12.408  1.00  0.00    -0.074 C 
HETATM   37  C30 UNL     1      22.104  28.260  12.904  1.00  0.00     0.018 C 
BRANCH  34  38
HETATM   38  C24 UNL     1      21.191  25.368  10.924  1.00  0.00     0.253 C 
HETATM   39  O1  UNL     1      21.555  24.514  11.733  1.00  0.00    -0.268 OA
HETATM   40  N8  UNL     1      21.975  25.648   9.774  1.00  0.00    -0.356 N 
ATOM     41  H8  UNL     1      21.632  26.362   9.133  1.00  0.00     0.162 HD
BRANCH  40  42
HETATM   42  C25 UNL     1      23.219  24.998   9.446  1.00  0.00     0.133 C 
BRANCH  42  43
HETATM   43  C26 UNL     1      24.339  26.044   9.475  1.00  0.00     0.133 C 
BRANCH  43  44
HETATM   44  C27 UNL     1      24.670  26.381  10.876  1.00  0.00     0.174 C 
HETATM   45  O2  UNL     1      24.623  25.484  11.750  1.00  0.00    -0.648 OA
HETATM   46  O3  UNL     1      25.031  27.659  11.248  1.00  0.00    -0.648 OA
ENDBRANCH  43  44
ENDBRANCH  42  43
ENDBRANCH  40  42
ENDBRANCH  34  38
ENDBRANCH   4  29
ENDBRANCH   3   4
TORSDOF 12
ENDMDL
MODEL 4
REMARK VINA RESULT: -9.546364219      4.435     10.646
REMARK  12 active torsions:
REMARK  status: ('A' for Active; 'I' for Inactive)
REMARK    1  A    between atoms: C3_3  and  N1_4 
REMARK    2  A    between atoms: N1_4  and  C4_5 
REMARK    3  A    between atoms: N1_4  and  C18_29 
REMARK    4  A    between atoms: C4_5  and  C5_6 
REMARK    5  A    between atoms: C8_11  and  N3_12 
REMARK    6  A    between atoms: C14_20  and  N5_21 
REMARK    7  A    between atoms: N5_21  and  C15_23 
REMARK    8  A    between atoms: C15_23  and  C16_24 
REMARK    9  A    between atoms: C23_34  and  C24_35 
REMARK       I    between atoms: C24_35  and  N8_37 
REMARK   10  A    between atoms: N8_37  and  C25_39 
REMARK   11  A    between atoms: C25_39  and  C26_40 
REMARK   12  A    between atoms: C26_40  and  C27_41 
ROOT
HETATM    1  C1  UNL     1      22.625  35.498  18.111  1.00  0.00     0.014 C 
HETATM    2  C2  UNL     1      21.930  35.301  17.146  1.00  0.00    -0.098 C 
HETATM    3  C3  UNL     1      21.090  35.035  15.950  1.00  0.00     0.216 C 
ENDROOT
BRANCH   3   4
HETATM    4  N1  UNL     1      20.278  33.880  16.152  1.00  0.00    -0.363 N 
BRANCH   4   5
HETATM    5  C4  UNL     1      20.749  32.637  16.631  1.00  0.00     0.182 C 
BRANCH   5   6
HETATM    6  C5  UNL     1      21.006  31.566  15.669  1.00  0.00     0.048 A 
HETATM    7  C6  UNL     1      22.011  31.243  14.820  1.00  0.00     0.080 A 
HETATM    8  C7  UNL     1      21.713  30.082  14.133  1.00  0.00     0.162 A 
HETATM    9  N2  UNL     1      22.378  29.391  13.206  1.00  0.00    -0.174 N 
HETATM   10  N6  UNL     1      20.484  29.720  14.608  1.00  0.00    -0.069 N 
HETATM   11  C8  UNL     1      21.834  28.273  12.691  1.00  0.00     0.696 A 
ATOM     12  H2  UNL     1      23.295  29.708  12.890  1.00  0.00     0.186 HD
HETATM   13  N4  UNL     1      20.641  27.899  13.135  1.00  0.00    -0.021 N 
HETATM   14  C14 UNL     1      19.940  28.601  14.093  1.00  0.00     0.716 A 
ATOM     15  H4  UNL     1      20.222  27.052  12.749  1.00  0.00     0.203 HD
HETATM   16  N7  UNL     1      20.082  30.579  15.493  1.00  0.00    -0.280 N 
ATOM     17  H7  UNL     1      19.193  30.523  15.990  1.00  0.00     0.188 HD
BRANCH  11  18
HETATM   18  N3  UNL     1      22.597  27.580  11.715  1.00  0.00    -0.217 N 
HETATM   19  C9  UNL     1      23.594  28.213  10.865  1.00  0.00     0.141 C 
HETATM   20  C10 UNL     1      24.958  27.639  11.221  1.00  0.00     0.020 C 
HETATM   21  C11 UNL     1      24.873  26.237  11.756  1.00  0.00     0.003 C 
HETATM   22  C12 UNL     1      23.721  25.537  11.060  1.00  0.00     0.020 C 
HETATM   23  C13 UNL     1      22.400  26.137  11.485  1.00  0.00     0.141 C 
ENDBRANCH  11  18
BRANCH  14  24
HETATM   24  N5  UNL     1      18.814  28.126  14.433  1.00  0.00    -0.220 N 
ATOM     25  H5  UNL     1      18.686  27.894  15.418  1.00  0.00     0.178 HD
BRANCH  24  26
HETATM   26  C15 UNL     1      17.719  27.890  13.569  1.00  0.00     0.164 C 
BRANCH  26  27
HETATM   27  C16 UNL     1      17.465  29.085  12.690  1.00  0.00    -0.017 C 
HETATM   28  C17 UNL     1      16.962  28.966  11.462  1.00  0.00     0.008 C 
ENDBRANCH  26  27
ENDBRANCH  24  26
ENDBRANCH  14  24
ENDBRANCH   5   6
ENDBRANCH   4   5
BRANCH   4  29
HETATM   29  C18 UNL     1      18.865  34.000  15.882  1.00  0.00     0.057 A 
HETATM   30  C19 UNL     1      18.274  33.672  14.696  1.00  0.00    -0.034 A 
HETATM   31  C20 UNL     1      19.064  33.151  13.561  1.00  0.00     0.050 C 
HETATM   32  C21 UNL     1      16.902  33.811  14.498  1.00  0.00     0.010 A 
HETATM   33  C22 UNL     1      16.110  34.284  15.494  1.00  0.00     0.019 A 
HETATM   34  C23 UNL     1      16.685  34.631  16.726  1.00  0.00     0.052 A 
HETATM   35  C28 UNL     1      18.041  34.483  16.896  1.00  0.00     0.059 A 
HETATM   36  C29 UNL     1      18.617  34.846  18.178  1.00  0.00    -0.074 C 
HETATM   37  C30 UNL     1      19.110  35.131  19.240  1.00  0.00     0.018 C 
BRANCH  34  38
HETATM   38  C24 UNL     1      15.798  35.146  17.774  1.00  0.00     0.253 C 
HETATM   39  O1  UNL     1      15.270  34.409  18.608  1.00  0.00    -0.268 OA
HETATM   40  N8  UNL     1      15.563  36.546  17.801  1.00  0.00    -0.356 N 
ATOM     41  H8  UNL     1      16.023  37.115  17.092  1.00  0.00     0.162 HD
BRANCH  40  42
HETATM   42  C25 UNL     1      14.721  37.222  18.757  1.00  0.00     0.133 C 
BRANCH  42  43
HETATM   43  C26 UNL     1      15.420  38.513  19.195  1.00  0.00     0.133 C 
BRANCH  43  44
HETATM   44  C27 UNL     1      16.527  38.822  18.264  1.00  0.00     0.174 C 
HETATM   45  O2  UNL     1      16.294  39.508  17.242  1.00  0.00    -0.648 OA
HETATM   46  O3  UNL     1      17.811  38.374  18.492  1.00  0.00    -0.648 OA
ENDBRANCH  43  44
ENDBRANCH  42  43
ENDBRANCH  40  42
ENDBRANCH  34  38
ENDBRANCH   4  29
ENDBRANCH   3   4
TORSDOF 12
ENDMDL
MODEL 5
REMARK VINA RESULT: -9.335705490      1.644      2.666
REMARK  12 active torsions:
REMARK  status: ('A' for Active; 'I' for Inactive)
REMARK    1  A    between atoms: C3_3  and  N1_4 
REMARK    2  A    between atoms: N1_4  and  C4_5 
REMARK    3  A    between atoms: N1_4  and  C18_29 
REMARK    4  A    between atoms: C4_5  and  C5_6 
REMARK    5  A    between atoms: C8_11  and  N3_12 
REMARK    6  A    between atoms: C14_20  and  N5_21 
REMARK    7  A    between atoms: N5_21  and  C15_23 
REMARK    8  A    between atoms: C15_23  and  C16_24 
REMARK    9  A    between atoms: C23_34  and  C24_35 
REMARK       I    between atoms: C24_35  and  N8_37 
REMARK   10  A    between atoms: N8_37  and  C25_39 
REMARK   11  A    between atoms: C25_39  and  C26_40 
REMARK   12  A    between atoms: C26_40  and  C27_41 
ROOT
HETATM    1  C1  UNL     1      15.805  29.345  11.234  1.00  0.00     0.014 C 
HETATM    2  C2  UNL     1      16.993  29.412  11.434  1.00  0.00    -0.098 C 
HETATM    3  C3  UNL     1      18.449  29.504  11.709  1.00  0.00     0.216 C 
ENDROOT
BRANCH   3   4
HETATM    4  N1  UNL     1      18.854  28.487  12.623  1.00  0.00    -0.363 N 
BRANCH   4   5
HETATM    5  C4  UNL     1      18.766  28.584  14.030  1.00  0.00     0.182 C 
BRANCH   5   6
HETATM    6  C5  UNL     1      18.697  29.911  14.639  1.00  0.00     0.048 A 
HETATM    7  C6  UNL     1      17.789  30.916  14.680  1.00  0.00     0.080 A 
HETATM    8  C7  UNL     1      18.267  31.972  15.432  1.00  0.00     0.162 A 
HETATM    9  N2  UNL     1      17.745  33.159  15.746  1.00  0.00    -0.174 N 
HETATM   10  N6  UNL     1      19.501  31.557  15.843  1.00  0.00    -0.069 N 
HETATM   11  C8  UNL     1      18.451  34.016  16.506  1.00  0.00     0.696 A 
ATOM     12  H2  UNL     1      16.816  33.415  15.412  1.00  0.00     0.186 HD
HETATM   13  N4  UNL     1      19.654  33.638  16.919  1.00  0.00    -0.021 N 
HETATM   14  C14 UNL     1      20.208  32.414  16.604  1.00  0.00     0.716 A 
ATOM     15  H4  UNL     1      20.195  34.283  17.496  1.00  0.00     0.203 HD
HETATM   16  N7  UNL     1      19.744  30.369  15.383  1.00  0.00    -0.280 N 
ATOM     17  H7  UNL     1      20.603  29.847  15.554  1.00  0.00     0.188 HD
BRANCH  11  18
HETATM   18  N3  UNL     1      17.836  35.259  16.811  1.00  0.00    -0.217 N 
HETATM   19  C9  UNL     1      16.675  35.783  16.108  1.00  0.00     0.141 C 
HETATM   20  C10 UNL     1      15.512  35.844  17.089  1.00  0.00     0.020 C 
HETATM   21  C11 UNL     1      15.964  36.030  18.511  1.00  0.00     0.003 C 
HETATM   22  C12 UNL     1      17.218  36.883  18.498  1.00  0.00     0.020 C 
HETATM   23  C13 UNL     1      18.371  36.126  17.877  1.00  0.00     0.141 C 
ENDBRANCH  11  18
BRANCH  14  24
HETATM   24  N5  UNL     1      21.363  32.177  17.073  1.00  0.00    -0.220 N 
ATOM     25  H5  UNL     1      21.437  31.439  17.773  1.00  0.00     0.178 HD
BRANCH  24  26
HETATM   26  C15 UNL     1      22.556  32.845  16.712  1.00  0.00     0.164 C 
BRANCH  26  27
HETATM   27  C16 UNL     1      23.065  32.349  15.384  1.00  0.00    -0.017 C 
HETATM   28  C17 UNL     1      22.897  33.042  14.259  1.00  0.00     0.008 C 
ENDBRANCH  26  27
ENDBRANCH  24  26
ENDBRANCH  14  24
ENDBRANCH   5   6
ENDBRANCH   4   5
BRANCH   4  29
HETATM   29  C18 UNL     1      19.358  27.252  12.069  1.00  0.00     0.057 A 
HETATM   30  C19 UNL     1      18.609  26.127  11.880  1.00  0.00    -0.034 A 
HETATM   31  C20 UNL     1      17.176  26.088  12.241  1.00  0.00     0.050 C 
HETATM   32  C21 UNL     1      19.155  24.965  11.340  1.00  0.00     0.010 A 
HETATM   33  C22 UNL     1      20.465  24.924  10.985  1.00  0.00     0.019 A 
HETATM   34  C23 UNL     1      21.265  26.063  11.166  1.00  0.00     0.052 A 
HETATM   35  C28 UNL     1      20.701  27.197  11.701  1.00  0.00     0.059 A 
HETATM   36  C29 UNL     1      21.543  28.365  11.878  1.00  0.00    -0.074 C 
HETATM   37  C30 UNL     1      22.225  29.348  12.022  1.00  0.00     0.018 C 
BRANCH  34  38
HETATM   38  C24 UNL     1      22.676  25.977  10.778  1.00  0.00     0.253 C 
HETATM   39  O1  UNL     1      23.577  25.830  11.605  1.00  0.00    -0.268 OA
HETATM   40  N8  UNL     1      22.980  26.068   9.394  1.00  0.00    -0.356 N 
ATOM     41  H8  UNL     1      22.200  26.188   8.748  1.00  0.00     0.162 HD
BRANCH  40  42
HETATM   42  C25 UNL     1      24.307  26.003   8.835  1.00  0.00     0.133 C 
BRANCH  42  43
HETATM   43  C26 UNL     1      24.297  25.012   7.667  1.00  0.00     0.133 C 
BRANCH  43  44
HETATM   44  C27 UNL     1      22.908  24.792   7.211  1.00  0.00     0.174 C 
HETATM   45  O2  UNL     1      22.467  25.456   6.244  1.00  0.00    -0.648 OA
HETATM   46  O3  UNL     1      22.081  23.872   7.823  1.00  0.00    -0.648 OA
ENDBRANCH  43  44
ENDBRANCH  42  43
ENDBRANCH  40  42
ENDBRANCH  34  38
ENDBRANCH   4  29
ENDBRANCH   3   4
TORSDOF 12
ENDMDL
