MODEL 1
REMARK VINA RESULT: -6.721747266      0.000      0.000
REMARK  7 active torsions:
REMARK  status: ('A' for Active; 'I' for Inactive)
REMARK    1  A    between atoms: N1_1  and  C1_4 
REMARK    2  A    between atoms: C1_4  and  C2_5 
REMARK    3  A    between atoms: C1_4  and  N5_12 
REMARK    4  A    between atoms: C2_5  and  N2_6 
REMARK    5  A    between atoms: N5_12  and  C4_14 
REMARK    6  A    between atoms: C4_14  and  N6_15 
REMARK    7  A    between atoms: N6_15  and  O1_16 
ROOT
HETATM    1  C1  UNL     1     -41.606 -19.516  48.946  1.00  0.00     0.091 C 
ENDROOT
BRANCH   1   2
HETATM    2  N1  UNL     1     -42.105 -20.694  48.998  1.00  0.00    -0.388 N 
ATOM      3  H12 UNL     1     -43.089 -20.800  49.246  1.00  0.00     0.157 HD
ATOM      4  H11 UNL     1     -41.529 -21.512  48.795  1.00  0.00     0.157 HD
ENDBRANCH   1   2
BRANCH   1   5
HETATM    5  C2  UNL     1     -41.786 -18.585  50.050  1.00  0.00     0.226 C 
BRANCH   5   6
HETATM    6  N2  UNL     1     -42.931 -17.714  49.854  1.00  0.00    -0.265 N 
HETATM    7  C3  UNL     1     -43.342 -16.983  48.814  1.00  0.00     0.220 A 
HETATM    8  N3  UNL     1     -44.390 -16.576  49.539  1.00  0.00    -0.280 N 
HETATM    9  N4  UNL     1     -43.968 -17.302  50.551  1.00  0.00    -0.238 N 
ATOM     10  H3  UNL     1     -45.185 -15.960  49.374  1.00  0.00     0.189 HD
ATOM     11  H4  UNL     1     -44.308 -17.476  51.497  1.00  0.00     0.208 HD
ENDBRANCH   5   6
ENDBRANCH   1   5
BRANCH   1  12
HETATM   12  N5  UNL     1     -40.877 -19.136  47.796  1.00  0.00    -0.363 N 
ATOM     13  H5  UNL     1     -40.782 -18.159  47.520  1.00  0.00     0.162 HD
BRANCH  12  14
HETATM   14  C4  UNL     1     -40.266 -20.215  47.020  1.00  0.00     0.264 C 
BRANCH  14  15
HETATM   15  N6  UNL     1     -41.269 -20.900  46.229  1.00  0.00    -0.084 NA
BRANCH  15  16
HETATM   16  O1  UNL     1     -41.533 -20.083  45.164  1.00  0.00    -0.295 OA
ATOM     17  H1  UNL     1     -42.071 -19.377  45.502  1.00  0.00     0.238 HD
ENDBRANCH  15  16
ENDBRANCH  14  15
ENDBRANCH  12  14
ENDBRANCH   1  12
TORSDOF 7
ENDMDL
MODEL 2
REMARK VINA RESULT: -6.444737474      1.007      1.086
REMARK  7 active torsions:
REMARK  status: ('A' for Active; 'I' for Inactive)
REMARK    1  A    between atoms: N1_1  and  C1_4 
REMARK    2  A    between atoms: C1_4  and  C2_5 
REMARK    3  A    between atoms: C1_4  and  N5_12 
REMARK    4  A    between atoms: C2_5  and  N2_6 
REMARK    5  A    between atoms: N5_12  and  C4_14 
REMARK    6  A    between atoms: C4_14  and  N6_15 
REMARK    7  A    between atoms: N6_15  and  O1_16 
ROOT
HETATM    1  C1  UNL     1     -42.170 -19.477  49.175  1.00  0.00     0.091 C 
ENDROOT
BRANCH   1   2
HETATM    2  N1  UNL     1     -42.275 -20.708  49.516  1.00  0.00    -0.388 N 
ATOM      3  H12 UNL     1     -41.446 -21.301  49.473  1.00  0.00     0.157 HD
ATOM      4  H11 UNL     1     -43.170 -21.087  49.824  1.00  0.00     0.157 HD
ENDBRANCH   1   2
BRANCH   1   5
HETATM    5  C2  UNL     1     -42.546 -18.418  50.100  1.00  0.00     0.226 C 
BRANCH   5   6
HETATM    6  N2  UNL     1     -43.856 -17.868  49.803  1.00  0.00    -0.265 N 
HETATM    7  C3  UNL     1     -45.087 -18.381  49.872  1.00  0.00     0.220 A 
HETATM    8  N3  UNL     1     -45.577 -17.215  49.437  1.00  0.00    -0.280 N 
HETATM    9  N4  UNL     1     -44.357 -16.729  49.375  1.00  0.00    -0.238 N 
ATOM     10  H3  UNL     1     -46.509 -16.854  49.236  1.00  0.00     0.189 HD
ATOM     11  H4  UNL     1     -43.958 -15.830  49.104  1.00  0.00     0.208 HD
ENDBRANCH   5   6
ENDBRANCH   1   5
BRANCH   1  12
HETATM   12  N5  UNL     1     -41.682 -19.167  47.885  1.00  0.00    -0.363 N 
ATOM     13  H5  UNL     1     -42.044 -18.377  47.352  1.00  0.00     0.162 HD
BRANCH  12  14
HETATM   14  C4  UNL     1     -40.633 -20.037  47.353  1.00  0.00     0.264 C 
BRANCH  14  15
HETATM   15  N6  UNL     1     -41.181 -20.945  46.366  1.00  0.00    -0.084 NA
BRANCH  15  16
HETATM   16  O1  UNL     1     -41.409 -20.193  45.246  1.00  0.00    -0.295 OA
ATOM     17  H1  UNL     1     -40.562 -19.854  44.980  1.00  0.00     0.238 HD
ENDBRANCH  15  16
ENDBRANCH  14  15
ENDBRANCH  12  14
ENDBRANCH   1  12
TORSDOF 7
ENDMDL
MODEL 3
REMARK VINA RESULT: -6.240583294      0.915      1.425
REMARK  7 active torsions:
REMARK  status: ('A' for Active; 'I' for Inactive)
REMARK    1  A    between atoms: N1_1  and  C1_4 
REMARK    2  A    between atoms: C1_4  and  C2_5 
REMARK    3  A    between atoms: C1_4  and  N5_12 
REMARK    4  A    between atoms: C2_5  and  N2_6 
REMARK    5  A    between atoms: N5_12  and  C4_14 
REMARK    6  A    between atoms: C4_14  and  N6_15 
REMARK    7  A    between atoms: N6_15  and  O1_16 
ROOT
HETATM    1  C1  UNL     1     -41.803 -19.612  48.643  1.00  0.00     0.091 C 
ENDROOT
BRANCH   1   2
HETATM    2  N1  UNL     1     -41.815 -20.819  49.074  1.00  0.00    -0.388 N 
ATOM      3  H12 UNL     1     -42.067 -20.989  50.048  1.00  0.00     0.157 HD
ATOM      4  H11 UNL     1     -41.577 -21.594  48.455  1.00  0.00     0.157 HD
ENDBRANCH   1   2
BRANCH   1   5
HETATM    5  C2  UNL     1     -42.900 -18.705  48.948  1.00  0.00     0.226 C 
BRANCH   5   6
HETATM    6  N2  UNL     1     -42.689 -17.986  50.190  1.00  0.00    -0.265 N 
HETATM    7  C3  UNL     1     -41.748 -18.071  51.134  1.00  0.00     0.220 A 
HETATM    8  N3  UNL     1     -42.361 -17.091  51.808  1.00  0.00    -0.280 N 
HETATM    9  N4  UNL     1     -43.278 -17.024  50.867  1.00  0.00    -0.238 N 
ATOM     10  H3  UNL     1     -42.189 -16.601  52.685  1.00  0.00     0.189 HD
ATOM     11  H4  UNL     1     -44.112 -16.454  50.721  1.00  0.00     0.208 HD
ENDBRANCH   5   6
ENDBRANCH   1   5
BRANCH   1  12
HETATM   12  N5  UNL     1     -40.704 -19.179  47.866  1.00  0.00    -0.363 N 
ATOM     13  H5  UNL     1     -40.300 -18.250  47.983  1.00  0.00     0.162 HD
BRANCH  12  14
HETATM   14  C4  UNL     1     -40.177 -20.128  46.887  1.00  0.00     0.264 C 
BRANCH  14  15
HETATM   15  N6  UNL     1     -41.261 -20.827  46.225  1.00  0.00    -0.084 NA
BRANCH  15  16
HETATM   16  O1  UNL     1     -41.578 -20.078  45.125  1.00  0.00    -0.295 OA
ATOM     17  H1  UNL     1     -41.909 -19.251  45.457  1.00  0.00     0.238 HD
ENDBRANCH  15  16
ENDBRANCH  14  15
ENDBRANCH  12  14
ENDBRANCH   1  12
TORSDOF 7
ENDMDL
MODEL 4
REMARK VINA RESULT: -6.074061474      1.361      1.917
REMARK  7 active torsions:
REMARK  status: ('A' for Active; 'I' for Inactive)
REMARK    1  A    between atoms: N1_1  and  C1_4 
REMARK    2  A    between atoms: C1_4  and  C2_5 
REMARK    3  A    between atoms: C1_4  and  N5_12 
REMARK    4  A    between atoms: C2_5  and  N2_6 
REMARK    5  A    between atoms: N5_12  and  C4_14 
REMARK    6  A    between atoms: C4_14  and  N6_15 
REMARK    7  A    between atoms: N6_15  and  O1_16 
ROOT
HETATM    1  C1  UNL     1     -42.292 -18.585  48.734  1.00  0.00     0.091 C 
ENDROOT
BRANCH   1   2
HETATM    2  N1  UNL     1     -42.851 -17.509  48.321  1.00  0.00    -0.388 N 
ATOM      3  H12 UNL     1     -43.797 -17.295  48.638  1.00  0.00     0.157 HD
ATOM      4  H11 UNL     1     -42.359 -16.878  47.688  1.00  0.00     0.157 HD
ENDBRANCH   1   2
BRANCH   1   5
HETATM    5  C2  UNL     1     -42.614 -19.132  50.044  1.00  0.00     0.226 C 
BRANCH   5   6
HETATM    6  N2  UNL     1     -42.787 -18.095  51.045  1.00  0.00    -0.265 N 
HETATM    7  C3  UNL     1     -41.922 -17.424  51.809  1.00  0.00     0.220 A 
HETATM    8  N3  UNL     1     -42.946 -16.753  52.348  1.00  0.00    -0.280 N 
HETATM    9  N4  UNL     1     -43.782 -17.426  51.588  1.00  0.00    -0.238 N 
ATOM     10  H3  UNL     1     -43.039 -16.024  53.055  1.00  0.00     0.189 HD
ATOM     11  H4  UNL     1     -44.795 -17.428  51.467  1.00  0.00     0.208 HD
ENDBRANCH   5   6
ENDBRANCH   1   5
BRANCH   1  12
HETATM   12  N5  UNL     1     -41.356 -19.231  47.894  1.00  0.00    -0.363 N 
ATOM     13  H5  UNL     1     -40.673 -18.706  47.350  1.00  0.00     0.162 HD
BRANCH  12  14
HETATM   14  C4  UNL     1     -41.418 -20.692  47.845  1.00  0.00     0.264 C 
BRANCH  14  15
HETATM   15  N6  UNL     1     -41.010 -21.171  46.540  1.00  0.00    -0.084 NA
BRANCH  15  16
HETATM   16  O1  UNL     1     -41.354 -20.190  45.651  1.00  0.00    -0.295 OA
ATOM     17  H1  UNL     1     -41.275 -20.578  44.788  1.00  0.00     0.238 HD
ENDBRANCH  15  16
ENDBRANCH  14  15
ENDBRANCH  12  14
ENDBRANCH   1  12
TORSDOF 7
ENDMDL
MODEL 5
REMARK VINA RESULT: -5.951347552      1.586      2.038
REMARK  7 active torsions:
REMARK  status: ('A' for Active; 'I' for Inactive)
REMARK    1  A    between atoms: N1_1  and  C1_4 
REMARK    2  A    between atoms: C1_4  and  C2_5 
REMARK    3  A    between atoms: C1_4  and  N5_12 
REMARK    4  A    between atoms: C2_5  and  N2_6 
REMARK    5  A    between atoms: N5_12  and  C4_14 
REMARK    6  A    between atoms: C4_14  and  N6_15 
REMARK    7  A    between atoms: N6_15  and  O1_16 
ROOT
HETATM    1  C1  UNL     1     -41.730 -19.702  48.666  1.00  0.00     0.091 C 
ENDROOT
BRANCH   1   2
HETATM    2  N1  UNL     1     -41.754 -20.982  48.733  1.00  0.00    -0.388 N 
ATOM      3  H12 UNL     1     -42.207 -21.504  47.982  1.00  0.00     0.157 HD
ATOM      4  H11 UNL     1     -41.329 -21.468  49.522  1.00  0.00     0.157 HD
ENDBRANCH   1   2
BRANCH   1   5
HETATM    5  C2  UNL     1     -42.646 -18.901  49.465  1.00  0.00     0.226 C 
BRANCH   5   6
HETATM    6  N2  UNL     1     -42.006 -18.345  50.643  1.00  0.00    -0.265 N 
HETATM    7  C3  UNL     1     -42.327 -17.332  51.452  1.00  0.00     0.220 A 
HETATM    8  N3  UNL     1     -41.227 -17.582  52.171  1.00  0.00    -0.280 N 
HETATM    9  N4  UNL     1     -40.929 -18.576  51.363  1.00  0.00    -0.238 N 
ATOM     10  H3  UNL     1     -40.799 -17.173  53.001  1.00  0.00     0.189 HD
ATOM     11  H4  UNL     1     -40.168 -19.254  51.313  1.00  0.00     0.208 HD
ENDBRANCH   5   6
ENDBRANCH   1   5
BRANCH   1  12
HETATM   12  N5  UNL     1     -40.798 -19.084  47.803  1.00  0.00    -0.363 N 
ATOM     13  H5  UNL     1     -40.581 -18.090  47.872  1.00  0.00     0.162 HD
BRANCH  12  14
HETATM   14  C4  UNL     1     -40.158 -19.941  46.805  1.00  0.00     0.264 C 
BRANCH  14  15
HETATM   15  N6  UNL     1     -41.153 -20.529  45.931  1.00  0.00    -0.084 NA
BRANCH  15  16
HETATM   16  O1  UNL     1     -40.961 -21.882  45.997  1.00  0.00    -0.295 OA
ATOM     17  H1  UNL     1     -40.363 -22.098  45.291  1.00  0.00     0.238 HD
ENDBRANCH  15  16
ENDBRANCH  14  15
ENDBRANCH  12  14
ENDBRANCH   1  12
TORSDOF 7
ENDMDL
