MODEL 1
REMARK VINA RESULT: -5.703585694      0.000      0.000
REMARK  12 active torsions:
REMARK  status: ('A' for Active; 'I' for Inactive)
REMARK    1  A    between atoms: O1_2  and  C2_3 
REMARK    2  A    between atoms: C3_5  and  O3_6 
REMARK    3  A    between atoms: O3_6  and  N1_7 
REMARK    4  A    between atoms: C4_10  and  N2_11 
REMARK    5  A    between atoms: N2_11  and  C5_13 
REMARK    6  A    between atoms: C6_14  and  N3_15 
REMARK    7  A    between atoms: N3_15  and  C7_17 
REMARK    8  A    between atoms: C7_17  and  O4_19 
REMARK    9  A    between atoms: C9_21  and  O5_22 
REMARK   10  A    between atoms: C14_30  and  N4_31 
REMARK   11  A    between atoms: C15_35  and  O6_36 
REMARK   12  A    between atoms: C16_38  and  O7_39 
ROOT
HETATM    1  C5  UNL     1      24.967   1.067   3.197  1.00  0.00     0.135 C 
HETATM    2  C6  UNL     1      24.554   2.351   2.543  1.00  0.00     0.134 C 
HETATM    3  C9  UNL     1      25.223   3.438   3.439  1.00  0.00     0.173 C 
HETATM    4  C10 UNL     1      26.379   2.793   4.112  1.00  0.00     0.114 C 
HETATM    5  S1  UNL     1      26.251   2.835   5.925  1.00  0.00    -0.143 SA
HETATM    6  C11 UNL     1      26.942   4.368   6.586  1.00  0.00     0.076 C 
HETATM    7  C12 UNL     1      28.409   4.436   6.180  1.00  0.00     0.020 C 
HETATM    8  C13 UNL     1      28.457   4.871   4.740  1.00  0.00     0.076 C 
HETATM    9  S2  UNL     1      27.949   3.569   3.599  1.00  0.00    -0.143 SA
HETATM   10  C14 UNL     1      26.386   1.395   3.590  1.00  0.00     0.239 C 
ENDROOT
BRANCH   1  11
HETATM   11  N2  UNL     1      24.150   0.465   4.137  1.00  0.00    -0.402 N 
ATOM     12  H2  UNL     1      24.066   0.904   5.054  1.00  0.00     0.154 HD
BRANCH  11  13
HETATM   13  C4  UNL     1      23.422  -0.731   3.897  1.00  0.00     0.166 C 
HETATM   14  C3  UNL     1      22.035  -0.606   4.470  1.00  0.00     0.315 C 
HETATM   15  O2  UNL     1      21.055  -1.141   3.616  1.00  0.00    -0.324 OA
HETATM   16  C2  UNL     1      21.248  -0.527   2.403  1.00  0.00     0.293 C 
HETATM   17  C16 UNL     1      22.310  -1.397   1.710  1.00  0.00     0.204 C 
HETATM   18  C15 UNL     1      23.543  -1.265   2.521  1.00  0.00     0.178 C 
BRANCH  14  19
HETATM   19  O3  UNL     1      21.844  -1.186   5.703  1.00  0.00    -0.252 OA
BRANCH  19  20
HETATM   20  N1  UNL     1      20.785  -2.025   5.698  1.00  0.00    -0.308 N 
ATOM     21  H12 UNL     1      20.116  -2.081   4.929  1.00  0.00     0.184 HD
ATOM     22  H11 UNL     1      20.746  -2.584   6.550  1.00  0.00     0.184 HD
ENDBRANCH  19  20
ENDBRANCH  14  19
BRANCH  16  23
HETATM   23  O1  UNL     1      20.151  -0.347   1.611  1.00  0.00    -0.363 OA
HETATM   24  C1  UNL     1      19.282  -1.436   1.628  1.00  0.00     0.204 C 
ENDBRANCH  16  23
BRANCH  17  25
HETATM   25  O7  UNL     1      22.457  -0.997   0.384  1.00  0.00    -0.388 OA
ATOM     26  H7  UNL     1      23.369  -1.065   0.127  1.00  0.00     0.210 HD
ENDBRANCH  17  25
BRANCH  18  27
HETATM   27  O6  UNL     1      24.205  -2.517   2.464  1.00  0.00    -0.391 OA
ATOM     28  H6  UNL     1      24.884  -2.551   1.800  1.00  0.00     0.210 HD
ENDBRANCH  18  27
ENDBRANCH  11  13
ENDBRANCH   1  11
BRANCH   2  29
HETATM   29  N3  UNL     1      23.268   2.757   2.340  1.00  0.00    -0.388 N 
ATOM     30  H3  UNL     1      22.705   2.875   3.182  1.00  0.00     0.156 HD
BRANCH  29  31
HETATM   31  C7  UNL     1      22.622   3.031   1.149  1.00  0.00     0.209 C 
HETATM   32  C8  UNL     1      21.114   3.161   1.231  1.00  0.00     0.062 C 
BRANCH  31  33
HETATM   33  O4  UNL     1      22.790   1.861   0.323  1.00  0.00    -0.378 OA
ATOM     34  H4  UNL     1      23.103   2.174  -0.518  1.00  0.00     0.212 HD
ENDBRANCH  31  33
ENDBRANCH  29  31
ENDBRANCH   2  29
BRANCH  10  35
HETATM   35  N4  UNL     1      27.008   0.458   4.450  1.00  0.00    -0.071 N 
ATOM     36  H43 UNL     1      26.445  -0.390   4.510  1.00  0.00     0.274 HD
ATOM     37  H42 UNL     1      27.850   0.084   4.010  1.00  0.00     0.274 HD
ATOM     38  H41 UNL     1      27.225   0.801   5.386  1.00  0.00     0.274 HD
ENDBRANCH  10  35
BRANCH   3  39
HETATM   39  O5  UNL     1      25.651   4.503   2.668  1.00  0.00    -0.391 OA
ATOM     40  H5  UNL     1      25.336   5.322   3.030  1.00  0.00     0.210 HD
ENDBRANCH   3  39
TORSDOF 12
ENDMDL
MODEL 2
REMARK VINA RESULT: -5.681409800      2.673      6.673
REMARK  12 active torsions:
REMARK  status: ('A' for Active; 'I' for Inactive)
REMARK    1  A    between atoms: O1_2  and  C2_3 
REMARK    2  A    between atoms: C3_5  and  O3_6 
REMARK    3  A    between atoms: O3_6  and  N1_7 
REMARK    4  A    between atoms: C4_10  and  N2_11 
REMARK    5  A    between atoms: N2_11  and  C5_13 
REMARK    6  A    between atoms: C6_14  and  N3_15 
REMARK    7  A    between atoms: N3_15  and  C7_17 
REMARK    8  A    between atoms: C7_17  and  O4_19 
REMARK    9  A    between atoms: C9_21  and  O5_22 
REMARK   10  A    between atoms: C14_30  and  N4_31 
REMARK   11  A    between atoms: C15_35  and  O6_36 
REMARK   12  A    between atoms: C16_38  and  O7_39 
ROOT
HETATM    1  C5  UNL     1      23.475   1.663   3.895  1.00  0.00     0.135 C 
HETATM    2  C6  UNL     1      22.711   1.768   2.609  1.00  0.00     0.134 C 
HETATM    3  C9  UNL     1      22.520   0.280   2.185  1.00  0.00     0.173 C 
HETATM    4  C10 UNL     1      22.613  -0.538   3.420  1.00  0.00     0.114 C 
HETATM    5  S1  UNL     1      23.960  -1.757   3.358  1.00  0.00    -0.143 SA
HETATM    6  C11 UNL     1      23.405  -3.295   2.588  1.00  0.00     0.076 C 
HETATM    7  C12 UNL     1      22.257  -3.850   3.423  1.00  0.00     0.020 C 
HETATM    8  C13 UNL     1      21.023  -3.064   3.070  1.00  0.00     0.076 C 
HETATM    9  S2  UNL     1      21.037  -1.395   3.756  1.00  0.00    -0.143 SA
HETATM   10  C14 UNL     1      22.817   0.456   4.515  1.00  0.00     0.239 C 
ENDROOT
BRANCH   1  11
HETATM   11  N2  UNL     1      24.857   1.726   3.895  1.00  0.00    -0.402 N 
ATOM     12  H2  UNL     1      25.368   1.089   3.284  1.00  0.00     0.154 HD
BRANCH  11  13
HETATM   13  C4  UNL     1      25.603   2.629   4.699  1.00  0.00     0.166 C 
HETATM   14  C3  UNL     1      26.919   2.003   5.079  1.00  0.00     0.315 C 
HETATM   15  O2  UNL     1      27.985   2.917   5.004  1.00  0.00    -0.324 OA
HETATM   16  C2  UNL     1      27.929   3.444   3.737  1.00  0.00     0.293 C 
HETATM   17  C16 UNL     1      26.946   4.621   3.867  1.00  0.00     0.204 C 
HETATM   18  C15 UNL     1      25.632   4.024   4.201  1.00  0.00     0.178 C 
BRANCH  14  19
HETATM   19  O3  UNL     1      26.971   1.438   6.333  1.00  0.00    -0.252 OA
BRANCH  19  20
HETATM   20  N1  UNL     1      26.179   2.097   7.207  1.00  0.00    -0.308 N 
ATOM     21  H12 UNL     1      25.159   2.072   7.170  1.00  0.00     0.184 HD
ATOM     22  H11 UNL     1      26.728   2.610   7.897  1.00  0.00     0.184 HD
ENDBRANCH  19  20
ENDBRANCH  14  19
BRANCH  16  23
HETATM   23  O1  UNL     1      29.107   3.834   3.169  1.00  0.00    -0.363 OA
HETATM   24  C1  UNL     1      30.069   4.203   4.107  1.00  0.00     0.204 C 
ENDBRANCH  16  23
BRANCH  17  25
HETATM   25  O7  UNL     1      26.948   5.369   2.693  1.00  0.00    -0.388 OA
ATOM     26  H7  UNL     1      26.069   5.408   2.335  1.00  0.00     0.210 HD
ENDBRANCH  17  25
BRANCH  18  27
HETATM   27  O6  UNL     1      24.976   4.937   5.063  1.00  0.00    -0.391 OA
ATOM     28  H6  UNL     1      24.493   5.610   4.597  1.00  0.00     0.210 HD
ENDBRANCH  18  27
ENDBRANCH  11  13
ENDBRANCH   1  11
BRANCH   2  29
HETATM   29  N3  UNL     1      23.125   2.437   1.495  1.00  0.00    -0.388 N 
ATOM     30  H3  UNL     1      24.124   2.383   1.296  1.00  0.00     0.156 HD
BRANCH  29  31
HETATM   31  C7  UNL     1      22.378   3.177   0.599  1.00  0.00     0.209 C 
HETATM   32  C8  UNL     1      20.949   3.470   1.014  1.00  0.00     0.062 C 
BRANCH  31  33
HETATM   33  O4  UNL     1      22.201   2.341  -0.563  1.00  0.00    -0.378 OA
ATOM     34  H4  UNL     1      22.953   2.502  -1.121  1.00  0.00     0.212 HD
ENDBRANCH  31  33
ENDBRANCH  29  31
ENDBRANCH   2  29
BRANCH  10  35
HETATM   35  N4  UNL     1      23.466  -0.067   5.660  1.00  0.00    -0.071 N 
ATOM     36  H43 UNL     1      24.402   0.330   5.743  1.00  0.00     0.274 HD
ATOM     37  H42 UNL     1      23.036   0.306   6.507  1.00  0.00     0.274 HD
ATOM     38  H41 UNL     1      23.511  -1.085   5.709  1.00  0.00     0.274 HD
ENDBRANCH  10  35
BRANCH   3  39
HETATM   39  O5  UNL     1      21.287   0.103   1.585  1.00  0.00    -0.391 OA
ATOM     40  H5  UNL     1      21.153  -0.811   1.364  1.00  0.00     0.210 HD
ENDBRANCH   3  39
TORSDOF 12
ENDMDL
MODEL 3
REMARK VINA RESULT: -5.657815063      1.087      1.554
REMARK  12 active torsions:
REMARK  status: ('A' for Active; 'I' for Inactive)
REMARK    1  A    between atoms: O1_2  and  C2_3 
REMARK    2  A    between atoms: C3_5  and  O3_6 
REMARK    3  A    between atoms: O3_6  and  N1_7 
REMARK    4  A    between atoms: C4_10  and  N2_11 
REMARK    5  A    between atoms: N2_11  and  C5_13 
REMARK    6  A    between atoms: C6_14  and  N3_15 
REMARK    7  A    between atoms: N3_15  and  C7_17 
REMARK    8  A    between atoms: C7_17  and  O4_19 
REMARK    9  A    between atoms: C9_21  and  O5_22 
REMARK   10  A    between atoms: C14_30  and  N4_31 
REMARK   11  A    between atoms: C15_35  and  O6_36 
REMARK   12  A    between atoms: C16_38  and  O7_39 
ROOT
HETATM    1  C5  UNL     1      24.854   1.364   3.361  1.00  0.00     0.135 C 
HETATM    2  C6  UNL     1      24.639   2.591   2.527  1.00  0.00     0.134 C 
HETATM    3  C9  UNL     1      25.419   3.693   3.306  1.00  0.00     0.173 C 
HETATM    4  C10 UNL     1      26.456   3.001   4.113  1.00  0.00     0.114 C 
HETATM    5  S1  UNL     1      26.277   3.303   5.898  1.00  0.00    -0.143 SA
HETATM    6  C11 UNL     1      27.146   4.809   6.388  1.00  0.00     0.076 C 
HETATM    7  C12 UNL     1      28.622   4.631   6.050  1.00  0.00     0.020 C 
HETATM    8  C13 UNL     1      28.774   4.858   4.569  1.00  0.00     0.076 C 
HETATM    9  S2  UNL     1      28.132   3.490   3.583  1.00  0.00    -0.143 SA
HETATM   10  C14 UNL     1      26.291   1.556   3.779  1.00  0.00     0.239 C 
ENDROOT
BRANCH   1  11
HETATM   11  N2  UNL     1      23.934   1.005   4.330  1.00  0.00    -0.402 N 
ATOM     12  H2  UNL     1      23.826   1.615   5.140  1.00  0.00     0.154 HD
BRANCH  11  13
HETATM   13  C4  UNL     1      23.132  -0.165   4.258  1.00  0.00     0.166 C 
HETATM   14  C3  UNL     1      21.982   0.063   3.313  1.00  0.00     0.315 C 
HETATM   15  O2  UNL     1      21.739  -1.052   2.492  1.00  0.00    -0.324 OA
HETATM   16  C2  UNL     1      22.942  -1.342   1.897  1.00  0.00     0.293 C 
HETATM   17  C16 UNL     1      23.648  -2.258   2.911  1.00  0.00     0.204 C 
HETATM   18  C15 UNL     1      23.890  -1.429   4.115  1.00  0.00     0.178 C 
BRANCH  14  19
HETATM   19  O3  UNL     1      20.782   0.392   3.899  1.00  0.00    -0.252 OA
BRANCH  19  20
HETATM   20  N1  UNL     1      19.917  -0.646   3.875  1.00  0.00    -0.308 N 
ATOM     21  H12 UNL     1      18.997  -0.621   4.315  1.00  0.00     0.184 HD
ATOM     22  H11 UNL     1      20.302  -1.442   3.366  1.00  0.00     0.184 HD
ENDBRANCH  19  20
ENDBRANCH  14  19
BRANCH  16  23
HETATM   23  O1  UNL     1      22.906  -1.903   0.654  1.00  0.00    -0.363 OA
HETATM   24  C1  UNL     1      21.747  -1.590  -0.053  1.00  0.00     0.204 C 
ENDBRANCH  16  23
BRANCH  17  25
HETATM   25  O7  UNL     1      24.804  -2.788   2.344  1.00  0.00    -0.388 OA
ATOM     26  H7  UNL     1      25.151  -3.474   2.903  1.00  0.00     0.210 HD
ENDBRANCH  17  25
BRANCH  18  27
HETATM   27  O6  UNL     1      23.762  -2.287   5.235  1.00  0.00    -0.391 OA
ATOM     28  H6  UNL     1      24.332  -2.049   5.957  1.00  0.00     0.210 HD
ENDBRANCH  18  27
ENDBRANCH  11  13
ENDBRANCH   1  11
BRANCH   2  29
HETATM   29  N3  UNL     1      23.427   3.129   2.209  1.00  0.00    -0.388 N 
ATOM     30  H3  UNL     1      22.957   3.630   2.963  1.00  0.00     0.156 HD
BRANCH  29  31
HETATM   31  C7  UNL     1      22.747   3.088   1.006  1.00  0.00     0.209 C 
HETATM   32  C8  UNL     1      21.234   3.118   1.102  1.00  0.00     0.062 C 
BRANCH  31  33
HETATM   33  O4  UNL     1      23.000   1.783   0.447  1.00  0.00    -0.378 OA
ATOM     34  H4  UNL     1      22.200   1.527   0.003  1.00  0.00     0.212 HD
ENDBRANCH  31  33
ENDBRANCH  29  31
ENDBRANCH   2  29
BRANCH  10  35
HETATM   35  N4  UNL     1      26.754   0.671   4.783  1.00  0.00    -0.071 N 
ATOM     36  H43 UNL     1      26.364  -0.260   4.635  1.00  0.00     0.274 HD
ATOM     37  H42 UNL     1      27.746   0.475   4.646  1.00  0.00     0.274 HD
ATOM     38  H41 UNL     1      26.585   0.973   5.742  1.00  0.00     0.274 HD
ENDBRANCH  10  35
BRANCH   3  39
HETATM   39  O5  UNL     1      26.011   4.580   2.426  1.00  0.00    -0.391 OA
ATOM     40  H5  UNL     1      26.750   5.012   2.837  1.00  0.00     0.210 HD
ENDBRANCH   3  39
TORSDOF 12
ENDMDL
MODEL 4
REMARK VINA RESULT: -5.628903578      5.402      8.103
REMARK  12 active torsions:
REMARK  status: ('A' for Active; 'I' for Inactive)
REMARK    1  A    between atoms: O1_2  and  C2_3 
REMARK    2  A    between atoms: C3_5  and  O3_6 
REMARK    3  A    between atoms: O3_6  and  N1_7 
REMARK    4  A    between atoms: C4_10  and  N2_11 
REMARK    5  A    between atoms: N2_11  and  C5_13 
REMARK    6  A    between atoms: C6_14  and  N3_15 
REMARK    7  A    between atoms: N3_15  and  C7_17 
REMARK    8  A    between atoms: C7_17  and  O4_19 
REMARK    9  A    between atoms: C9_21  and  O5_22 
REMARK   10  A    between atoms: C14_30  and  N4_31 
REMARK   11  A    between atoms: C15_35  and  O6_36 
REMARK   12  A    between atoms: C16_38  and  O7_39 
ROOT
HETATM    1  C5  UNL     1      30.184   4.635   6.188  1.00  0.00     0.135 C 
HETATM    2  C6  UNL     1      31.673   4.460   6.190  1.00  0.00     0.134 C 
HETATM    3  C9  UNL     1      32.188   5.803   6.793  1.00  0.00     0.173 C 
HETATM    4  C10 UNL     1      31.081   6.365   7.607  1.00  0.00     0.114 C 
HETATM    5  S1  UNL     1      30.550   8.007   7.033  1.00  0.00    -0.143 SA
HETATM    6  C11 UNL     1      31.542   9.310   7.796  1.00  0.00     0.076 C 
HETATM    7  C12 UNL     1      31.358   9.217   9.306  1.00  0.00     0.020 C 
HETATM    8  C13 UNL     1      32.219   8.082   9.795  1.00  0.00     0.076 C 
HETATM    9  S2  UNL     1      31.548   6.462   9.369  1.00  0.00    -0.143 SA
HETATM   10  C14 UNL     1      29.984   5.360   7.496  1.00  0.00     0.239 C 
ENDROOT
BRANCH   1  11
HETATM   11  N2  UNL     1      29.537   5.121   5.066  1.00  0.00    -0.402 N 
ATOM     12  H2  UNL     1      29.812   6.036   4.710  1.00  0.00     0.154 HD
BRANCH  11  13
HETATM   13  C4  UNL     1      28.511   4.415   4.381  1.00  0.00     0.166 C 
HETATM   14  C3  UNL     1      28.359   3.039   4.973  1.00  0.00     0.315 C 
HETATM   15  O2  UNL     1      27.011   2.661   5.104  1.00  0.00    -0.324 OA
HETATM   16  C2  UNL     1      26.411   3.676   5.810  1.00  0.00     0.293 C 
HETATM   17  C16 UNL     1      26.009   4.694   4.730  1.00  0.00     0.204 C 
HETATM   18  C15 UNL     1      27.274   5.195   4.145  1.00  0.00     0.178 C 
BRANCH  14  19
HETATM   19  O3  UNL     1      28.989   2.023   4.292  1.00  0.00    -0.252 OA
BRANCH  19  20
HETATM   20  N1  UNL     1      29.421   1.056   5.131  1.00  0.00    -0.308 N 
ATOM     21  H12 UNL     1      29.021   0.117   5.160  1.00  0.00     0.184 HD
ATOM     22  H11 UNL     1      30.186   1.385   5.720  1.00  0.00     0.184 HD
ENDBRANCH  19  20
ENDBRANCH  14  19
BRANCH  16  23
HETATM   23  O1  UNL     1      25.354   3.343   6.606  1.00  0.00    -0.363 OA
HETATM   24  C1  UNL     1      24.785   2.116   6.272  1.00  0.00     0.204 C 
ENDBRANCH  16  23
BRANCH  17  25
HETATM   25  O7  UNL     1      25.210   5.687   5.292  1.00  0.00    -0.388 OA
ATOM     26  H7  UNL     1      24.646   5.308   5.956  1.00  0.00     0.210 HD
ENDBRANCH  17  25
BRANCH  18  27
HETATM   27  O6  UNL     1      27.021   5.437   2.771  1.00  0.00    -0.391 OA
ATOM     28  H6  UNL     1      26.126   5.248   2.517  1.00  0.00     0.210 HD
ENDBRANCH  18  27
ENDBRANCH  11  13
ENDBRANCH   1  11
BRANCH   2  29
HETATM   29  N3  UNL     1      32.441   4.211   5.092  1.00  0.00    -0.388 N 
ATOM     30  H3  UNL     1      33.081   4.959   4.823  1.00  0.00     0.156 HD
BRANCH  29  31
HETATM   31  C7  UNL     1      32.473   3.085   4.292  1.00  0.00     0.209 C 
HETATM   32  C8  UNL     1      33.788   2.812   3.587  1.00  0.00     0.062 C 
BRANCH  31  33
HETATM   33  O4  UNL     1      31.579   3.348   3.192  1.00  0.00    -0.378 OA
ATOM     34  H4  UNL     1      30.783   2.863   3.377  1.00  0.00     0.212 HD
ENDBRANCH  31  33
ENDBRANCH  29  31
ENDBRANCH   2  29
BRANCH  10  35
HETATM   35  N4  UNL     1      28.687   5.890   7.702  1.00  0.00    -0.071 N 
ATOM     36  H43 UNL     1      28.148   5.271   8.308  1.00  0.00     0.274 HD
ATOM     37  H42 UNL     1      28.738   6.720   8.293  1.00  0.00     0.274 HD
ATOM     38  H41 UNL     1      28.160   6.096   6.854  1.00  0.00     0.274 HD
ENDBRANCH  10  35
BRANCH   3  39
HETATM   39  O5  UNL     1      33.300   5.581   7.586  1.00  0.00    -0.391 OA
ATOM     40  H5  UNL     1      33.388   4.655   7.780  1.00  0.00     0.210 HD
ENDBRANCH   3  39
TORSDOF 12
ENDMDL
MODEL 5
REMARK VINA RESULT: -5.576280712      3.869      6.657
REMARK  12 active torsions:
REMARK  status: ('A' for Active; 'I' for Inactive)
REMARK    1  A    between atoms: O1_2  and  C2_3 
REMARK    2  A    between atoms: C3_5  and  O3_6 
REMARK    3  A    between atoms: O3_6  and  N1_7 
REMARK    4  A    between atoms: C4_10  and  N2_11 
REMARK    5  A    between atoms: N2_11  and  C5_13 
REMARK    6  A    between atoms: C6_14  and  N3_15 
REMARK    7  A    between atoms: N3_15  and  C7_17 
REMARK    8  A    between atoms: C7_17  and  O4_19 
REMARK    9  A    between atoms: C9_21  and  O5_22 
REMARK   10  A    between atoms: C14_30  and  N4_31 
REMARK   11  A    between atoms: C15_35  and  O6_36 
REMARK   12  A    between atoms: C16_38  and  O7_39 
ROOT
HETATM    1  C5  UNL     1      22.141  -1.826   1.164  1.00  0.00     0.135 C 
HETATM    2  C6  UNL     1      21.979  -2.504  -0.164  1.00  0.00     0.134 C 
HETATM    3  C9  UNL     1      23.205  -3.465  -0.225  1.00  0.00     0.173 C 
HETATM    4  C10 UNL     1      23.616  -3.732   1.176  1.00  0.00     0.114 C 
HETATM    5  S1  UNL     1      25.327  -3.219   1.518  1.00  0.00    -0.143 SA
HETATM    6  C11 UNL     1      26.491  -4.538   1.106  1.00  0.00     0.076 C 
HETATM    7  C12 UNL     1      26.146  -5.753   1.960  1.00  0.00     0.020 C 
HETATM    8  C13 UNL     1      24.952  -6.420   1.331  1.00  0.00     0.076 C 
HETATM    9  S2  UNL     1      23.421  -5.500   1.588  1.00  0.00    -0.143 SA
HETATM   10  C14 UNL     1      22.636  -2.974   2.007  1.00  0.00     0.239 C 
ENDROOT
BRANCH   1  11
HETATM   11  N2  UNL     1      22.802  -0.614   1.255  1.00  0.00    -0.402 N 
ATOM     12  H2  UNL     1      23.822  -0.620   1.239  1.00  0.00     0.154 HD
BRANCH  11  13
HETATM   13  C4  UNL     1      22.140   0.637   1.371  1.00  0.00     0.166 C 
HETATM   14  C3  UNL     1      21.595   0.798   2.765  1.00  0.00     0.315 C 
HETATM   15  O2  UNL     1      21.785   2.098   3.265  1.00  0.00    -0.324 OA
HETATM   16  C2  UNL     1      23.127   2.354   3.124  1.00  0.00     0.293 C 
HETATM   17  C16 UNL     1      23.253   2.900   1.692  1.00  0.00     0.204 C 
HETATM   18  C15 UNL     1      22.877   1.784   0.792  1.00  0.00     0.178 C 
BRANCH  14  19
HETATM   19  O3  UNL     1      20.260   0.505   2.922  1.00  0.00    -0.252 OA
BRANCH  19  20
HETATM   20  N1  UNL     1      20.072  -0.498   3.809  1.00  0.00    -0.308 N 
ATOM     21  H12 UNL     1      19.169  -0.946   3.967  1.00  0.00     0.184 HD
ATOM     22  H11 UNL     1      20.939  -0.741   4.287  1.00  0.00     0.184 HD
ENDBRANCH  19  20
ENDBRANCH  14  19
BRANCH  16  23
HETATM   23  O1  UNL     1      23.702   3.194   4.034  1.00  0.00    -0.363 OA
HETATM   24  C1  UNL     1      24.288   2.521   5.103  1.00  0.00     0.204 C 
ENDBRANCH  16  23
BRANCH  17  25
HETATM   25  O7  UNL     1      24.541   3.387   1.484  1.00  0.00    -0.388 OA
ATOM     26  H7  UNL     1      24.714   3.452   0.552  1.00  0.00     0.210 HD
ENDBRANCH  17  25
BRANCH  18  27
HETATM   27  O6  UNL     1      22.223   2.362  -0.324  1.00  0.00    -0.391 OA
ATOM     28  H6  UNL     1      22.759   2.997  -0.784  1.00  0.00     0.210 HD
ENDBRANCH  18  27
ENDBRANCH  11  13
ENDBRANCH   1  11
BRANCH   2  29
HETATM   29  N3  UNL     1      21.921  -1.874  -1.372  1.00  0.00    -0.388 N 
ATOM     30  H3  UNL     1      21.013  -1.483  -1.621  1.00  0.00     0.156 HD
BRANCH  29  31
HETATM   31  C7  UNL     1      22.924  -1.692  -2.305  1.00  0.00     0.209 C 
HETATM   32  C8  UNL     1      22.801  -0.456  -3.175  1.00  0.00     0.062 C 
BRANCH  31  33
HETATM   33  O4  UNL     1      22.782  -2.763  -3.260  1.00  0.00    -0.378 OA
ATOM     34  H4  UNL     1      23.128  -2.432  -4.081  1.00  0.00     0.212 HD
ENDBRANCH  31  33
ENDBRANCH  29  31
ENDBRANCH   2  29
BRANCH  10  35
HETATM   35  N4  UNL     1      23.115  -2.620   3.292  1.00  0.00    -0.071 N 
ATOM     36  H43 UNL     1      23.120  -1.605   3.396  1.00  0.00     0.274 HD
ATOM     37  H42 UNL     1      22.428  -2.870   4.004  1.00  0.00     0.274 HD
ATOM     38  H41 UNL     1      24.028  -3.002   3.537  1.00  0.00     0.274 HD
ENDBRANCH  10  35
BRANCH   3  39
HETATM   39  O5  UNL     1      22.862  -4.646  -0.858  1.00  0.00    -0.391 OA
ATOM     40  H5  UNL     1      23.114  -4.617  -1.773  1.00  0.00     0.210 HD
ENDBRANCH   3  39
TORSDOF 12
ENDMDL
