MODEL 1
REMARK VINA RESULT: -6.547591309      0.000      0.000
REMARK  14 active torsions:
REMARK  status: ('A' for Active; 'I' for Inactive)
REMARK    1  A    between atoms: C3_4  and  O2_5 
REMARK    2  A    between atoms: O2_5  and  C4_6 
REMARK    3  A    between atoms: C5_8  and  C6_9 
REMARK    4  A    between atoms: C5_8  and  O5_12 
REMARK    5  A    between atoms: C6_9  and  O4_10 
REMARK    6  A    between atoms: O5_12  and  C7_13 
REMARK    7  A    between atoms: C8_15  and  C9_16 
REMARK    8  A    between atoms: C9_16  and  O7_17 
REMARK    9  A    between atoms: C10_19  and  N1_20 
REMARK   10  A    between atoms: C12_25  and  N2_26 
REMARK   11  A    between atoms: C13_30  and  N3_31 
REMARK   12  A    between atoms: C15_36  and  N4_37 
REMARK   13  A    between atoms: C16_42  and  O9_43 
REMARK   14  A    between atoms: C17_45  and  O10_46 
ROOT
HETATM    1  C4  UNL     1      23.538   2.510   1.721  1.00  0.00     0.299 C 
HETATM    2  O3  UNL     1      23.625   1.326   1.005  1.00  0.00    -0.318 OA
HETATM    3  C5  UNL     1      22.746   0.356   1.488  1.00  0.00     0.219 C 
HETATM    4  C13 UNL     1      21.529   1.006   2.141  1.00  0.00     0.250 C 
HETATM    5  C14 UNL     1      21.129   2.282   1.455  1.00  0.00     0.076 C 
HETATM    6  C15 UNL     1      22.290   3.228   1.255  1.00  0.00     0.240 C 
ENDROOT
BRANCH   3   7
HETATM    7  C6  UNL     1      22.348  -0.493   0.320  1.00  0.00     0.235 C 
BRANCH   7   8
HETATM    8  O4  UNL     1      22.598   0.173  -0.907  1.00  0.00    -0.395 OA
ATOM      9  H4  UNL     1      21.790   0.344  -1.375  1.00  0.00     0.209 HD
ENDBRANCH   7   8
ENDBRANCH   3   7
BRANCH   3  10
HETATM   10  O5  UNL     1      23.416  -0.306   2.498  1.00  0.00    -0.319 OA
BRANCH  10  11
HETATM   11  C7  UNL     1      22.693  -0.674   3.590  1.00  0.00     0.294 C 
HETATM   12  O6  UNL     1      22.399  -2.064   3.575  1.00  0.00    -0.350 OA
HETATM   13  C8  UNL     1      21.407  -2.240   4.537  1.00  0.00     0.178 C 
HETATM   14  C10 UNL     1      22.069  -2.242   5.878  1.00  0.00     0.216 C 
HETATM   15  C11 UNL     1      22.788  -0.955   6.096  1.00  0.00     0.073 C 
HETATM   16  C12 UNL     1      23.461  -0.415   4.853  1.00  0.00     0.240 C 
BRANCH  13  17
HETATM   17  C9  UNL     1      20.570  -3.475   4.303  1.00  0.00     0.198 C 
BRANCH  17  18
HETATM   18  O7  UNL     1      19.909  -3.342   3.086  1.00  0.00    -0.398 OA
ATOM     19  H7  UNL     1      19.366  -2.562   3.119  1.00  0.00     0.209 HD
ENDBRANCH  17  18
ENDBRANCH  13  17
BRANCH  14  20
HETATM   20  N1  UNL     1      21.075  -2.379   6.926  1.00  0.00    -0.072 N 
ATOM     21  H13 UNL     1      20.235  -1.834   6.729  1.00  0.00     0.274 HD
ATOM     22  H12 UNL     1      20.653  -3.307   6.932  1.00  0.00     0.274 HD
ATOM     23  H11 UNL     1      21.482  -2.138   7.830  1.00  0.00     0.274 HD
ENDBRANCH  14  20
BRANCH  16  24
HETATM   24  N2  UNL     1      23.574   1.012   5.036  1.00  0.00    -0.070 N 
ATOM     25  H23 UNL     1      23.431   1.531   4.170  1.00  0.00     0.274 HD
ATOM     26  H22 UNL     1      22.792   1.402   5.562  1.00  0.00     0.274 HD
ATOM     27  H21 UNL     1      24.475   1.213   5.470  1.00  0.00     0.274 HD
ENDBRANCH  16  24
ENDBRANCH  10  11
ENDBRANCH   3  10
BRANCH   4  28
HETATM   28  N3  UNL     1      20.415   0.089   2.094  1.00  0.00    -0.070 N 
ATOM     29  H33 UNL     1      20.309  -0.343   1.176  1.00  0.00     0.274 HD
ATOM     30  H32 UNL     1      20.588  -0.758   2.634  1.00  0.00     0.274 HD
ATOM     31  H31 UNL     1      19.568   0.571   2.393  1.00  0.00     0.274 HD
ENDBRANCH   4  28
BRANCH   1  32
HETATM   32  O2  UNL     1      24.669   3.295   1.602  1.00  0.00    -0.306 OA
BRANCH  32  33
HETATM   33  C3  UNL     1      25.468   3.245   2.710  1.00  0.00     0.418 C 
HETATM   34  O1  UNL     1      26.600   4.054   2.671  1.00  0.00    -0.331 OA
HETATM   35  C2  UNL     1      27.476   3.514   3.638  1.00  0.00     0.156 C 
HETATM   36  C1  UNL     1      28.557   4.497   4.006  1.00  0.00     0.042 C 
HETATM   37  C17 UNL     1      26.713   3.069   4.844  1.00  0.00     0.202 C 
HETATM   38  C16 UNL     1      25.433   3.880   4.939  1.00  0.00     0.293 C 
HETATM   39  O8  UNL     1      24.710   3.694   3.788  1.00  0.00    -0.306 OA
BRANCH  37  40
HETATM   40  O10 UNL     1      27.409   3.283   6.034  1.00  0.00    -0.388 OA
ATOM     41  H10 UNL     1      28.241   2.825   6.061  1.00  0.00     0.210 HD
ENDBRANCH  37  40
BRANCH  38  42
HETATM   42  O9  UNL     1      25.687   5.224   5.193  1.00  0.00    -0.368 OA
ATOM     43  H9  UNL     1      25.014   5.624   5.729  1.00  0.00     0.212 HD
ENDBRANCH  38  42
ENDBRANCH  32  33
ENDBRANCH   1  32
BRANCH   6  44
HETATM   44  N4  UNL     1      22.371   3.701  -0.104  1.00  0.00    -0.070 N 
ATOM     45  H43 UNL     1      21.626   4.370  -0.298  1.00  0.00     0.274 HD
ATOM     46  H42 UNL     1      23.182   4.309  -0.227  1.00  0.00     0.274 HD
ATOM     47  H41 UNL     1      22.374   2.952  -0.797  1.00  0.00     0.274 HD
ENDBRANCH   6  44
TORSDOF 14
ENDMDL
MODEL 2
REMARK VINA RESULT: -6.318996676      1.181      1.700
REMARK  14 active torsions:
REMARK  status: ('A' for Active; 'I' for Inactive)
REMARK    1  A    between atoms: C3_4  and  O2_5 
REMARK    2  A    between atoms: O2_5  and  C4_6 
REMARK    3  A    between atoms: C5_8  and  C6_9 
REMARK    4  A    between atoms: C5_8  and  O5_12 
REMARK    5  A    between atoms: C6_9  and  O4_10 
REMARK    6  A    between atoms: O5_12  and  C7_13 
REMARK    7  A    between atoms: C8_15  and  C9_16 
REMARK    8  A    between atoms: C9_16  and  O7_17 
REMARK    9  A    between atoms: C10_19  and  N1_20 
REMARK   10  A    between atoms: C12_25  and  N2_26 
REMARK   11  A    between atoms: C13_30  and  N3_31 
REMARK   12  A    between atoms: C15_36  and  N4_37 
REMARK   13  A    between atoms: C16_42  and  O9_43 
REMARK   14  A    between atoms: C17_45  and  O10_46 
ROOT
HETATM    1  C4  UNL     1      23.296   1.733   1.744  1.00  0.00     0.299 C 
HETATM    2  O3  UNL     1      23.254   0.634   0.899  1.00  0.00    -0.318 OA
HETATM    3  C5  UNL     1      22.389  -0.355   1.369  1.00  0.00     0.219 C 
HETATM    4  C13 UNL     1      21.278   0.256   2.219  1.00  0.00     0.250 C 
HETATM    5  C14 UNL     1      20.863   1.613   1.723  1.00  0.00     0.076 C 
HETATM    6  C15 UNL     1      22.038   2.539   1.498  1.00  0.00     0.240 C 
ENDROOT
BRANCH   3   7
HETATM    7  C6  UNL     1      21.832  -1.055   0.167  1.00  0.00     0.235 C 
BRANCH   7   8
HETATM    8  O4  UNL     1      21.795  -2.459   0.365  1.00  0.00    -0.395 OA
ATOM      9  H4  UNL     1      21.025  -2.716   0.858  1.00  0.00     0.209 HD
ENDBRANCH   7   8
ENDBRANCH   3   7
BRANCH   3  10
HETATM   10  O5  UNL     1      23.133  -1.147   2.221  1.00  0.00    -0.319 OA
BRANCH  10  11
HETATM   11  C7  UNL     1      22.505  -1.637   3.325  1.00  0.00     0.294 C 
HETATM   12  O6  UNL     1      22.164  -3.007   3.164  1.00  0.00    -0.350 OA
HETATM   13  C8  UNL     1      21.263  -3.283   4.190  1.00  0.00     0.178 C 
HETATM   14  C10 UNL     1      22.050  -3.472   5.447  1.00  0.00     0.216 C 
HETATM   15  C11 UNL     1      22.830  -2.240   5.754  1.00  0.00     0.073 C 
HETATM   16  C12 UNL     1      23.399  -1.559   4.528  1.00  0.00     0.240 C 
BRANCH  13  17
HETATM   17  C9  UNL     1      20.366  -4.460   3.886  1.00  0.00     0.198 C 
BRANCH  17  18
HETATM   18  O7  UNL     1      19.188  -4.321   4.614  1.00  0.00    -0.398 OA
ATOM     19  H7  UNL     1      18.873  -5.185   4.852  1.00  0.00     0.209 HD
ENDBRANCH  17  18
ENDBRANCH  13  17
BRANCH  14  20
HETATM   20  N1  UNL     1      21.156  -3.722   6.563  1.00  0.00    -0.072 N 
ATOM     21  H13 UNL     1      20.216  -3.369   6.385  1.00  0.00     0.274 HD
ATOM     22  H12 UNL     1      20.930  -4.712   6.657  1.00  0.00     0.274 HD
ATOM     23  H11 UNL     1      21.551  -3.338   7.422  1.00  0.00     0.274 HD
ENDBRANCH  14  20
BRANCH  16  24
HETATM   24  N2  UNL     1      23.577  -0.170   4.878  1.00  0.00    -0.070 N 
ATOM     25  H23 UNL     1      24.535   0.150   4.733  1.00  0.00     0.274 HD
ATOM     26  H22 UNL     1      23.119   0.461   4.221  1.00  0.00     0.274 HD
ATOM     27  H21 UNL     1      23.259  -0.034   5.838  1.00  0.00     0.274 HD
ENDBRANCH  16  24
ENDBRANCH  10  11
ENDBRANCH   3  10
BRANCH   4  28
HETATM   28  N3  UNL     1      20.125  -0.613   2.196  1.00  0.00    -0.070 N 
ATOM     29  H33 UNL     1      19.823  -0.829   1.247  1.00  0.00     0.274 HD
ATOM     30  H32 UNL     1      20.351  -1.561   2.496  1.00  0.00     0.274 HD
ATOM     31  H31 UNL     1      19.379  -0.199   2.754  1.00  0.00     0.274 HD
ENDBRANCH   4  28
BRANCH   1  32
HETATM   32  O2  UNL     1      24.441   2.490   1.586  1.00  0.00    -0.306 OA
BRANCH  32  33
HETATM   33  C3  UNL     1      24.780   3.178   2.716  1.00  0.00     0.418 C 
HETATM   34  O1  UNL     1      25.019   2.398   3.845  1.00  0.00    -0.331 OA
HETATM   35  C2  UNL     1      24.881   3.278   4.941  1.00  0.00     0.156 C 
HETATM   36  C1  UNL     1      25.499   2.699   6.187  1.00  0.00     0.042 C 
HETATM   37  C17 UNL     1      25.466   4.614   4.614  1.00  0.00     0.202 C 
HETATM   38  C16 UNL     1      26.539   4.433   3.556  1.00  0.00     0.293 C 
HETATM   39  O8  UNL     1      25.972   3.848   2.452  1.00  0.00    -0.306 OA
BRANCH  37  40
HETATM   40  O10 UNL     1      26.085   5.216   5.711  1.00  0.00    -0.388 OA
ATOM     41  H10 UNL     1      26.126   6.161   5.637  1.00  0.00     0.210 HD
ENDBRANCH  37  40
BRANCH  38  42
HETATM   42  O9  UNL     1      27.626   3.711   4.037  1.00  0.00    -0.368 OA
ATOM     43  H9  UNL     1      27.763   3.841   4.968  1.00  0.00     0.212 HD
ENDBRANCH  38  42
ENDBRANCH  32  33
ENDBRANCH   1  32
BRANCH   6  44
HETATM   44  N4  UNL     1      21.995   3.157   0.197  1.00  0.00    -0.070 N 
ATOM     45  H43 UNL     1      22.884   3.610  -0.017  1.00  0.00     0.274 HD
ATOM     46  H42 UNL     1      21.982   2.450  -0.538  1.00  0.00     0.274 HD
ATOM     47  H41 UNL     1      21.220   3.811   0.082  1.00  0.00     0.274 HD
ENDBRANCH   6  44
TORSDOF 14
ENDMDL
MODEL 3
REMARK VINA RESULT: -6.274997400      1.757      1.826
REMARK  14 active torsions:
REMARK  status: ('A' for Active; 'I' for Inactive)
REMARK    1  A    between atoms: C3_4  and  O2_5 
REMARK    2  A    between atoms: O2_5  and  C4_6 
REMARK    3  A    between atoms: C5_8  and  C6_9 
REMARK    4  A    between atoms: C5_8  and  O5_12 
REMARK    5  A    between atoms: C6_9  and  O4_10 
REMARK    6  A    between atoms: O5_12  and  C7_13 
REMARK    7  A    between atoms: C8_15  and  C9_16 
REMARK    8  A    between atoms: C9_16  and  O7_17 
REMARK    9  A    between atoms: C10_19  and  N1_20 
REMARK   10  A    between atoms: C12_25  and  N2_26 
REMARK   11  A    between atoms: C13_30  and  N3_31 
REMARK   12  A    between atoms: C15_36  and  N4_37 
REMARK   13  A    between atoms: C16_42  and  O9_43 
REMARK   14  A    between atoms: C17_45  and  O10_46 
ROOT
HETATM    1  C4  UNL     1      23.518   2.705   1.564  1.00  0.00     0.299 C 
HETATM    2  O3  UNL     1      23.549   1.435   1.007  1.00  0.00    -0.318 OA
HETATM    3  C5  UNL     1      22.634   0.575   1.616  1.00  0.00     0.219 C 
HETATM    4  C13 UNL     1      21.451   1.355   2.184  1.00  0.00     0.250 C 
HETATM    5  C14 UNL     1      21.099   2.548   1.340  1.00  0.00     0.076 C 
HETATM    6  C15 UNL     1      22.297   3.410   1.014  1.00  0.00     0.240 C 
ENDROOT
BRANCH   3   7
HETATM    7  C6  UNL     1      22.190  -0.401   0.570  1.00  0.00     0.235 C 
BRANCH   7   8
HETATM    8  O4  UNL     1      22.562   0.035  -0.728  1.00  0.00    -0.395 OA
ATOM      9  H4  UNL     1      21.817   0.031  -1.317  1.00  0.00     0.209 HD
ENDBRANCH   7   8
ENDBRANCH   3   7
BRANCH   3  10
HETATM   10  O5  UNL     1      23.285   0.021   2.701  1.00  0.00    -0.319 OA
BRANCH  10  11
HETATM   11  C7  UNL     1      23.031  -1.286   2.980  1.00  0.00     0.294 C 
HETATM   12  O6  UNL     1      24.014  -2.140   2.412  1.00  0.00    -0.350 OA
HETATM   13  C8  UNL     1      23.473  -3.421   2.484  1.00  0.00     0.178 C 
HETATM   14  C10 UNL     1      23.644  -3.909   3.887  1.00  0.00     0.216 C 
HETATM   15  C11 UNL     1      22.950  -2.994   4.836  1.00  0.00     0.073 C 
HETATM   16  C12 UNL     1      23.058  -1.532   4.460  1.00  0.00     0.240 C 
BRANCH  13  17
HETATM   17  C9  UNL     1      24.062  -4.369   1.465  1.00  0.00     0.198 C 
BRANCH  17  18
HETATM   18  O7  UNL     1      23.048  -5.191   0.983  1.00  0.00    -0.398 OA
ATOM     19  H7  UNL     1      22.935  -5.919   1.583  1.00  0.00     0.209 HD
ENDBRANCH  17  18
ENDBRANCH  13  17
BRANCH  14  20
HETATM   20  N1  UNL     1      23.058  -5.229   4.032  1.00  0.00    -0.072 N 
ATOM     21  H13 UNL     1      23.637  -5.953   3.606  1.00  0.00     0.274 HD
ATOM     22  H12 UNL     1      23.092  -5.557   4.997  1.00  0.00     0.274 HD
ATOM     23  H11 UNL     1      22.108  -5.233   3.661  1.00  0.00     0.274 HD
ENDBRANCH  14  20
BRANCH  16  24
HETATM   24  N2  UNL     1      21.920  -0.873   5.055  1.00  0.00    -0.070 N 
ATOM     25  H23 UNL     1      22.011   0.143   5.054  1.00  0.00     0.274 HD
ATOM     26  H22 UNL     1      21.083  -0.937   4.476  1.00  0.00     0.274 HD
ATOM     27  H21 UNL     1      21.778  -1.253   5.992  1.00  0.00     0.274 HD
ENDBRANCH  16  24
ENDBRANCH  10  11
ENDBRANCH   3  10
BRANCH   4  28
HETATM   28  N3  UNL     1      20.299   0.489   2.260  1.00  0.00    -0.070 N 
ATOM     29  H33 UNL     1      19.742   0.661   3.097  1.00  0.00     0.274 HD
ATOM     30  H32 UNL     1      19.592   0.724   1.564  1.00  0.00     0.274 HD
ATOM     31  H31 UNL     1      20.602  -0.482   2.191  1.00  0.00     0.274 HD
ENDBRANCH   4  28
BRANCH   1  32
HETATM   32  O2  UNL     1      24.680   3.419   1.340  1.00  0.00    -0.306 OA
BRANCH  32  33
HETATM   33  C3  UNL     1      25.523   3.410   2.416  1.00  0.00     0.418 C 
HETATM   34  O1  UNL     1      26.137   4.625   2.708  1.00  0.00    -0.331 OA
HETATM   35  C2  UNL     1      27.261   4.294   3.495  1.00  0.00     0.156 C 
HETATM   36  C1  UNL     1      27.791   5.500   4.225  1.00  0.00     0.042 C 
HETATM   37  C17 UNL     1      26.926   3.188   4.445  1.00  0.00     0.202 C 
HETATM   38  C16 UNL     1      25.434   3.219   4.724  1.00  0.00     0.293 C 
HETATM   39  O8  UNL     1      24.763   3.083   3.536  1.00  0.00    -0.306 OA
BRANCH  37  40
HETATM   40  O10 UNL     1      27.565   3.323   5.678  1.00  0.00    -0.388 OA
ATOM     41  H10 UNL     1      28.190   2.628   5.846  1.00  0.00     0.210 HD
ENDBRANCH  37  40
BRANCH  38  42
HETATM   42  O9  UNL     1      25.059   4.366   5.415  1.00  0.00    -0.368 OA
ATOM     43  H9  UNL     1      24.138   4.365   5.645  1.00  0.00     0.212 HD
ENDBRANCH  38  42
ENDBRANCH  32  33
ENDBRANCH   1  32
BRANCH   6  44
HETATM   44  N4  UNL     1      22.385   3.699  -0.395  1.00  0.00    -0.070 N 
ATOM     45  H43 UNL     1      22.334   2.840  -0.943  1.00  0.00     0.274 HD
ATOM     46  H42 UNL     1      21.536   4.160  -0.723  1.00  0.00     0.274 HD
ATOM     47  H41 UNL     1      23.211   4.241  -0.650  1.00  0.00     0.274 HD
ENDBRANCH   6  44
TORSDOF 14
ENDMDL
MODEL 4
REMARK VINA RESULT: -6.214382074      1.560      2.147
REMARK  14 active torsions:
REMARK  status: ('A' for Active; 'I' for Inactive)
REMARK    1  A    between atoms: C3_4  and  O2_5 
REMARK    2  A    between atoms: O2_5  and  C4_6 
REMARK    3  A    between atoms: C5_8  and  C6_9 
REMARK    4  A    between atoms: C5_8  and  O5_12 
REMARK    5  A    between atoms: C6_9  and  O4_10 
REMARK    6  A    between atoms: O5_12  and  C7_13 
REMARK    7  A    between atoms: C8_15  and  C9_16 
REMARK    8  A    between atoms: C9_16  and  O7_17 
REMARK    9  A    between atoms: C10_19  and  N1_20 
REMARK   10  A    between atoms: C12_25  and  N2_26 
REMARK   11  A    between atoms: C13_30  and  N3_31 
REMARK   12  A    between atoms: C15_36  and  N4_37 
REMARK   13  A    between atoms: C16_42  and  O9_43 
REMARK   14  A    between atoms: C17_45  and  O10_46 
ROOT
HETATM    1  C4  UNL     1      23.124   1.736   1.674  1.00  0.00     0.299 C 
HETATM    2  O3  UNL     1      23.154   0.783   0.666  1.00  0.00    -0.318 OA
HETATM    3  C5  UNL     1      22.527  -0.403   1.048  1.00  0.00     0.219 C 
HETATM    4  C13 UNL     1      21.448  -0.133   2.094  1.00  0.00     0.250 C 
HETATM    5  C14 UNL     1      20.760   1.185   1.875  1.00  0.00     0.076 C 
HETATM    6  C15 UNL     1      21.732   2.329   1.692  1.00  0.00     0.240 C 
ENDROOT
BRANCH   3   7
HETATM    7  C6  UNL     1      21.943  -1.008  -0.192  1.00  0.00     0.235 C 
BRANCH   7   8
HETATM    8  O4  UNL     1      21.910  -2.423  -0.105  1.00  0.00    -0.395 OA
ATOM      9  H4  UNL     1      21.024  -2.738   0.031  1.00  0.00     0.209 HD
ENDBRANCH   7   8
ENDBRANCH   3   7
BRANCH   3  10
HETATM   10  O5  UNL     1      23.490  -1.166   1.679  1.00  0.00    -0.319 OA
BRANCH  10  11
HETATM   11  C7  UNL     1      23.626  -1.013   3.024  1.00  0.00     0.294 C 
HETATM   12  O6  UNL     1      22.941  -2.034   3.735  1.00  0.00    -0.350 OA
HETATM   13  C8  UNL     1      22.880  -1.586   5.052  1.00  0.00     0.178 C 
HETATM   14  C10 UNL     1      24.214  -1.837   5.680  1.00  0.00     0.216 C 
HETATM   15  C11 UNL     1      25.278  -1.112   4.929  1.00  0.00     0.073 C 
HETATM   16  C12 UNL     1      25.067  -1.104   3.430  1.00  0.00     0.240 C 
BRANCH  13  17
HETATM   17  C9  UNL     1      21.747  -2.207   5.835  1.00  0.00     0.198 C 
BRANCH  17  18
HETATM   18  O7  UNL     1      20.549  -1.922   5.187  1.00  0.00    -0.398 OA
ATOM     19  H7  UNL     1      20.610  -2.226   4.289  1.00  0.00     0.209 HD
ENDBRANCH  17  18
ENDBRANCH  13  17
BRANCH  14  20
HETATM   20  N1  UNL     1      24.223  -1.349   7.046  1.00  0.00    -0.072 N 
ATOM     21  H13 UNL     1      24.112  -0.336   7.091  1.00  0.00     0.274 HD
ATOM     22  H12 UNL     1      23.378  -1.615   7.552  1.00  0.00     0.274 HD
ATOM     23  H11 UNL     1      25.069  -1.661   7.525  1.00  0.00     0.274 HD
ENDBRANCH  14  20
BRANCH  16  24
HETATM   24  N2  UNL     1      25.761   0.057   2.927  1.00  0.00    -0.070 N 
ATOM     25  H23 UNL     1      25.492   0.290   1.971  1.00  0.00     0.274 HD
ATOM     26  H22 UNL     1      25.452   0.921   3.372  1.00  0.00     0.274 HD
ATOM     27  H21 UNL     1      26.765  -0.097   3.025  1.00  0.00     0.274 HD
ENDBRANCH  16  24
ENDBRANCH  10  11
ENDBRANCH   3  10
BRANCH   4  28
HETATM   28  N3  UNL     1      20.458  -1.183   2.042  1.00  0.00    -0.070 N 
ATOM     29  H33 UNL     1      20.724  -1.934   1.405  1.00  0.00     0.274 HD
ATOM     30  H32 UNL     1      20.426  -1.728   2.903  1.00  0.00     0.274 HD
ATOM     31  H31 UNL     1      19.551  -0.780   1.806  1.00  0.00     0.274 HD
ENDBRANCH   4  28
BRANCH   1  32
HETATM   32  O2  UNL     1      24.103   2.701   1.531  1.00  0.00    -0.306 OA
BRANCH  32  33
HETATM   33  C3  UNL     1      24.561   3.171   2.730  1.00  0.00     0.418 C 
HETATM   34  O1  UNL     1      24.348   2.335   3.823  1.00  0.00    -0.331 OA
HETATM   35  C2  UNL     1      24.450   3.171   4.956  1.00  0.00     0.156 C 
HETATM   36  C1  UNL     1      24.650   2.366   6.213  1.00  0.00     0.042 C 
HETATM   37  C17 UNL     1      25.546   4.171   4.770  1.00  0.00     0.202 C 
HETATM   38  C16 UNL     1      26.569   3.600   3.804  1.00  0.00     0.293 C 
HETATM   39  O8  UNL     1      25.941   3.316   2.618  1.00  0.00    -0.306 OA
BRANCH  37  40
HETATM   40  O10 UNL     1      26.229   4.450   5.954  1.00  0.00    -0.388 OA
ATOM     41  H10 UNL     1      26.714   5.265   5.916  1.00  0.00     0.210 HD
ENDBRANCH  37  40
BRANCH  38  42
HETATM   42  O9  UNL     1      27.224   2.494   4.335  1.00  0.00    -0.368 OA
ATOM     43  H9  UNL     1      26.650   1.743   4.424  1.00  0.00     0.212 HD
ENDBRANCH  38  42
ENDBRANCH  32  33
ENDBRANCH   1  32
BRANCH   6  44
HETATM   44  N4  UNL     1      21.425   3.114   0.523  1.00  0.00    -0.070 N 
ATOM     45  H43 UNL     1      21.863   4.034   0.581  1.00  0.00     0.274 HD
ATOM     46  H42 UNL     1      21.909   2.747  -0.296  1.00  0.00     0.274 HD
ATOM     47  H41 UNL     1      20.425   3.202   0.342  1.00  0.00     0.274 HD
ENDBRANCH   6  44
TORSDOF 14
ENDMDL
MODEL 5
REMARK VINA RESULT: -6.162091814      2.483      3.184
REMARK  14 active torsions:
REMARK  status: ('A' for Active; 'I' for Inactive)
REMARK    1  A    between atoms: C3_4  and  O2_5 
REMARK    2  A    between atoms: O2_5  and  C4_6 
REMARK    3  A    between atoms: C5_8  and  C6_9 
REMARK    4  A    between atoms: C5_8  and  O5_12 
REMARK    5  A    between atoms: C6_9  and  O4_10 
REMARK    6  A    between atoms: O5_12  and  C7_13 
REMARK    7  A    between atoms: C8_15  and  C9_16 
REMARK    8  A    between atoms: C9_16  and  O7_17 
REMARK    9  A    between atoms: C10_19  and  N1_20 
REMARK   10  A    between atoms: C12_25  and  N2_26 
REMARK   11  A    between atoms: C13_30  and  N3_31 
REMARK   12  A    between atoms: C15_36  and  N4_37 
REMARK   13  A    between atoms: C16_42  and  O9_43 
REMARK   14  A    between atoms: C17_45  and  O10_46 
ROOT
HETATM    1  C4  UNL     1      23.734   1.796   1.897  1.00  0.00     0.299 C 
HETATM    2  O3  UNL     1      23.550   0.803   0.946  1.00  0.00    -0.318 OA
HETATM    3  C5  UNL     1      22.521  -0.072   1.296  1.00  0.00     0.219 C 
HETATM    4  C13 UNL     1      21.489   0.629   2.177  1.00  0.00     0.250 C 
HETATM    5  C14 UNL     1      21.317   2.076   1.808  1.00  0.00     0.076 C 
HETATM    6  C15 UNL     1      22.632   2.815   1.704  1.00  0.00     0.240 C 
ENDROOT
BRANCH   3   7
HETATM    7  C6  UNL     1      21.906  -0.556   0.018  1.00  0.00     0.235 C 
BRANCH   7   8
HETATM    8  O4  UNL     1      22.544   0.024  -1.108  1.00  0.00    -0.395 OA
ATOM      9  H4  UNL     1      22.040  -0.123  -1.900  1.00  0.00     0.209 HD
ENDBRANCH   7   8
ENDBRANCH   3   7
BRANCH   3  10
HETATM   10  O5  UNL     1      23.095  -1.052   2.082  1.00  0.00    -0.319 OA
BRANCH  10  11
HETATM   11  C7  UNL     1      22.895  -2.346   1.712  1.00  0.00     0.294 C 
HETATM   12  O6  UNL     1      23.981  -2.839   0.940  1.00  0.00    -0.350 OA
HETATM   13  C8  UNL     1      23.515  -4.019   0.364  1.00  0.00     0.178 C 
HETATM   14  C10 UNL     1      23.575  -5.089   1.407  1.00  0.00     0.216 C 
HETATM   15  C11 UNL     1      22.734  -4.710   2.578  1.00  0.00     0.073 C 
HETATM   16  C12 UNL     1      22.788  -3.236   2.915  1.00  0.00     0.240 C 
BRANCH  13  17
HETATM   17  C9  UNL     1      24.261  -4.396  -0.895  1.00  0.00     0.198 C 
BRANCH  17  18
HETATM   18  O7  UNL     1      23.345  -4.868  -1.830  1.00  0.00    -0.398 OA
ATOM     19  H7  UNL     1      23.532  -5.783  -2.003  1.00  0.00     0.209 HD
ENDBRANCH  17  18
ENDBRANCH  13  17
BRANCH  14  20
HETATM   20  N1  UNL     1      23.059  -6.336   0.874  1.00  0.00    -0.072 N 
ATOM     21  H13 UNL     1      22.057  -6.286   0.687  1.00  0.00     0.274 HD
ATOM     22  H12 UNL     1      23.382  -6.505  -0.079  1.00  0.00     0.274 HD
ATOM     23  H11 UNL     1      23.292  -7.108   1.498  1.00  0.00     0.274 HD
ENDBRANCH  14  20
BRANCH  16  24
HETATM   24  N2  UNL     1      21.557  -2.930   3.605  1.00  0.00    -0.070 N 
ATOM     25  H23 UNL     1      21.661  -2.953   4.619  1.00  0.00     0.274 HD
ATOM     26  H22 UNL     1      21.291  -1.950   3.514  1.00  0.00     0.274 HD
ATOM     27  H21 UNL     1      20.832  -3.565   3.271  1.00  0.00     0.274 HD
ENDBRANCH  16  24
ENDBRANCH  10  11
ENDBRANCH   3  10
BRANCH   4  28
HETATM   28  N3  UNL     1      20.215  -0.035   2.041  1.00  0.00    -0.070 N 
ATOM     29  H33 UNL     1      19.441   0.546   2.362  1.00  0.00     0.274 HD
ATOM     30  H32 UNL     1      19.930  -0.131   1.067  1.00  0.00     0.274 HD
ATOM     31  H31 UNL     1      20.249  -0.933   2.523  1.00  0.00     0.274 HD
ENDBRANCH   4  28
BRANCH   1  32
HETATM   32  O2  UNL     1      24.991   2.367   1.842  1.00  0.00    -0.306 OA
BRANCH  32  33
HETATM   33  C3  UNL     1      25.285   3.108   2.952  1.00  0.00     0.418 C 
HETATM   34  O1  UNL     1      26.164   2.515   3.853  1.00  0.00    -0.331 OA
HETATM   35  C2  UNL     1      25.958   3.194   5.075  1.00  0.00     0.156 C 
HETATM   36  C1  UNL     1      27.099   2.958   6.030  1.00  0.00     0.042 C 
HETATM   37  C17 UNL     1      25.747   4.654   4.831  1.00  0.00     0.202 C 
HETATM   38  C16 UNL     1      26.432   5.037   3.531  1.00  0.00     0.293 C 
HETATM   39  O8  UNL     1      25.907   4.276   2.519  1.00  0.00    -0.306 OA
BRANCH  37  40
HETATM   40  O10 UNL     1      26.306   5.454   5.828  1.00  0.00    -0.388 OA
ATOM     41  H10 UNL     1      25.692   6.088   6.178  1.00  0.00     0.210 HD
ENDBRANCH  37  40
BRANCH  38  42
HETATM   42  O9  UNL     1      27.815   4.919   3.620  1.00  0.00    -0.368 OA
ATOM     43  H9  UNL     1      28.130   5.016   4.510  1.00  0.00     0.212 HD
ENDBRANCH  38  42
ENDBRANCH  32  33
ENDBRANCH   1  32
BRANCH   6  44
HETATM   44  N4  UNL     1      22.739   3.552   0.471  1.00  0.00    -0.070 N 
ATOM     45  H43 UNL     1      23.438   3.132  -0.142  1.00  0.00     0.274 HD
ATOM     46  H42 UNL     1      21.906   3.417  -0.104  1.00  0.00     0.274 HD
ATOM     47  H41 UNL     1      22.927   4.546   0.605  1.00  0.00     0.274 HD
ENDBRANCH   6  44
TORSDOF 14
ENDMDL
