MODEL 1
REMARK VINA RESULT: -7.829523861      0.000      0.000
REMARK  7 active torsions:
REMARK  status: ('A' for Active; 'I' for Inactive)
REMARK    1  A    between atoms: C2_2  and  O1_4 
REMARK    2  A    between atoms: O1_4  and  C4_5 
REMARK    3  A    between atoms: C4_5  and  C5_7 
REMARK    4  A    between atoms: C6_8  and  C7_9 
REMARK    5  A    between atoms: C9_11  and  O3_12 
REMARK    6  A    between atoms: C12_16  and  O4_17 
REMARK    7  A    between atoms: C15_21  and  O5_22 
ROOT
HETATM    1  C7  UNL     1     -14.986  17.222 -18.684  1.00  0.00     0.000 A 
HETATM    2  C8  UNL     1     -16.322  17.454 -18.360  1.00  0.00     0.051 A 
HETATM    3  C9  UNL     1     -17.310  17.608 -19.333  1.00  0.00     0.073 A 
HETATM    4  C10 UNL     1     -16.977  17.532 -20.647  1.00  0.00    -0.013 A 
HETATM    5  C11 UNL     1     -15.673  17.305 -20.977  1.00  0.00    -0.015 A 
HETATM    6  C12 UNL     1     -14.659  17.146 -20.022  1.00  0.00     0.083 A 
HETATM    7  C13 UNL     1     -15.315  17.222 -22.403  1.00  0.00     0.044 C 
HETATM    8  C14 UNL     1     -16.020  18.224 -23.269  1.00  0.00     0.037 C 
HETATM    9  C15 UNL     1     -17.360  18.642 -22.757  1.00  0.00     0.122 C 
HETATM   10  C16 UNL     1     -17.953  17.680 -21.762  1.00  0.00     0.073 C 
ENDROOT
BRANCH   1  11
HETATM   11  C6  UNL     1     -14.000  17.070 -17.628  1.00  0.00     0.020 C 
HETATM   12  C5  UNL     1     -13.494  18.032 -16.899  1.00  0.00     0.083 C 
BRANCH  12  13
HETATM   13  C4  UNL     1     -12.502  17.789 -15.851  1.00  0.00     0.283 C 
HETATM   14  O2  UNL     1     -11.355  17.378 -16.170  1.00  0.00    -0.260 OA
BRANCH  13  15
HETATM   15  O1  UNL     1     -12.756  17.991 -14.517  1.00  0.00    -0.314 OA
BRANCH  15  16
HETATM   16  C2  UNL     1     -13.979  18.515 -14.073  1.00  0.00     0.124 C 
HETATM   17  C1  UNL     1     -13.779  19.548 -12.994  1.00  0.00     0.040 C 
HETATM   18  C3  UNL     1     -14.774  17.354 -13.475  1.00  0.00     0.040 C 
ENDBRANCH  15  16
ENDBRANCH  13  15
ENDBRANCH  12  13
ENDBRANCH   1  11
BRANCH   6  19
HETATM   19  O4  UNL     1     -13.362  16.919 -20.411  1.00  0.00    -0.359 OA
ATOM     20  H4  UNL     1     -12.980  16.052 -20.334  1.00  0.00     0.217 HD
ENDBRANCH   6  19
BRANCH   3  21
HETATM   21  O3  UNL     1     -18.636  17.840 -18.993  1.00  0.00    -0.360 OA
ATOM     22  H3  UNL     1     -19.018  18.708 -19.041  1.00  0.00     0.217 HD
ENDBRANCH   3  21
BRANCH   9  23
HETATM   23  O5  UNL     1     -18.253  18.750 -23.830  1.00  0.00    -0.395 OA
ATOM     24  H5  UNL     1     -18.082  18.054 -24.452  1.00  0.00     0.210 HD
ENDBRANCH   9  23
TORSDOF 7
ENDMDL
MODEL 2
REMARK VINA RESULT: -7.813269575      1.269      2.465
REMARK  7 active torsions:
REMARK  status: ('A' for Active; 'I' for Inactive)
REMARK    1  A    between atoms: C2_2  and  O1_4 
REMARK    2  A    between atoms: O1_4  and  C4_5 
REMARK    3  A    between atoms: C4_5  and  C5_7 
REMARK    4  A    between atoms: C6_8  and  C7_9 
REMARK    5  A    between atoms: C9_11  and  O3_12 
REMARK    6  A    between atoms: C12_16  and  O4_17 
REMARK    7  A    between atoms: C15_21  and  O5_22 
ROOT
HETATM    1  C7  UNL     1     -15.001  16.792 -19.297  1.00  0.00     0.000 A 
HETATM    2  C8  UNL     1     -14.357  16.786 -20.534  1.00  0.00     0.051 A 
HETATM    3  C9  UNL     1     -14.961  17.277 -21.691  1.00  0.00     0.073 A 
HETATM    4  C10 UNL     1     -16.218  17.783 -21.631  1.00  0.00    -0.013 A 
HETATM    5  C11 UNL     1     -16.859  17.794 -20.427  1.00  0.00    -0.015 A 
HETATM    6  C12 UNL     1     -16.279  17.308 -19.247  1.00  0.00     0.083 A 
HETATM    7  C13 UNL     1     -18.224  18.345 -20.363  1.00  0.00     0.044 C 
HETATM    8  C14 UNL     1     -19.087  17.973 -21.533  1.00  0.00     0.037 C 
HETATM    9  C15 UNL     1     -18.331  17.729 -22.800  1.00  0.00     0.122 C 
HETATM   10  C16 UNL     1     -16.952  18.332 -22.805  1.00  0.00     0.073 C 
ENDROOT
BRANCH   1  11
HETATM   11  C6  UNL     1     -14.322  16.267 -18.124  1.00  0.00     0.020 C 
HETATM   12  C5  UNL     1     -13.439  16.900 -17.395  1.00  0.00     0.083 C 
BRANCH  12  13
HETATM   13  C4  UNL     1     -12.802  16.293 -16.224  1.00  0.00     0.283 C 
HETATM   14  O2  UNL     1     -12.048  15.296 -16.378  1.00  0.00    -0.260 OA
BRANCH  13  15
HETATM   15  O1  UNL     1     -12.985  16.760 -14.946  1.00  0.00    -0.314 OA
BRANCH  15  16
HETATM   16  C2  UNL     1     -14.147  17.453 -14.577  1.00  0.00     0.124 C 
HETATM   17  C1  UNL     1     -13.831  18.621 -13.677  1.00  0.00     0.040 C 
HETATM   18  C3  UNL     1     -15.022  16.475 -13.792  1.00  0.00     0.040 C 
ENDBRANCH  15  16
ENDBRANCH  13  15
ENDBRANCH  12  13
ENDBRANCH   1  11
BRANCH   6  19
HETATM   19  O4  UNL     1     -16.970  17.345 -18.061  1.00  0.00    -0.359 OA
ATOM     20  H4  UNL     1     -17.075  16.557 -17.540  1.00  0.00     0.217 HD
ENDBRANCH   6  19
BRANCH   3  21
HETATM   21  O3  UNL     1     -14.305  17.263 -22.916  1.00  0.00    -0.360 OA
ATOM     22  H3  UNL     1     -13.797  16.513 -23.200  1.00  0.00     0.217 HD
ENDBRANCH   3  21
BRANCH   9  23
HETATM   23  O5  UNL     1     -19.040  18.277 -23.876  1.00  0.00    -0.395 OA
ATOM     24  H5  UNL     1     -18.603  18.052 -24.688  1.00  0.00     0.210 HD
ENDBRANCH   9  23
TORSDOF 7
ENDMDL
MODEL 3
REMARK VINA RESULT: -7.668846494      0.849      1.032
REMARK  7 active torsions:
REMARK  status: ('A' for Active; 'I' for Inactive)
REMARK    1  A    between atoms: C2_2  and  O1_4 
REMARK    2  A    between atoms: O1_4  and  C4_5 
REMARK    3  A    between atoms: C4_5  and  C5_7 
REMARK    4  A    between atoms: C6_8  and  C7_9 
REMARK    5  A    between atoms: C9_11  and  O3_12 
REMARK    6  A    between atoms: C12_16  and  O4_17 
REMARK    7  A    between atoms: C15_21  and  O5_22 
ROOT
HETATM    1  C7  UNL     1     -15.217  17.301 -18.583  1.00  0.00     0.000 A 
HETATM    2  C8  UNL     1     -16.564  17.545 -18.319  1.00  0.00     0.051 A 
HETATM    3  C9  UNL     1     -17.510  17.681 -19.335  1.00  0.00     0.073 A 
HETATM    4  C10 UNL     1     -17.123  17.576 -20.632  1.00  0.00    -0.013 A 
HETATM    5  C11 UNL     1     -15.808  17.337 -20.903  1.00  0.00    -0.015 A 
HETATM    6  C12 UNL     1     -14.835  17.196 -19.904  1.00  0.00     0.083 A 
HETATM    7  C13 UNL     1     -15.390  17.222 -22.311  1.00  0.00     0.044 C 
HETATM    8  C14 UNL     1     -16.055  18.208 -23.227  1.00  0.00     0.037 C 
HETATM    9  C15 UNL     1     -17.414  18.642 -22.780  1.00  0.00     0.122 C 
HETATM   10  C16 UNL     1     -18.051  17.703 -21.790  1.00  0.00     0.073 C 
ENDROOT
BRANCH   1  11
HETATM   11  C6  UNL     1     -14.276  17.168 -17.483  1.00  0.00     0.020 C 
HETATM   12  C5  UNL     1     -13.226  17.921 -17.269  1.00  0.00     0.083 C 
BRANCH  12  13
HETATM   13  C4  UNL     1     -12.328  17.717 -16.132  1.00  0.00     0.283 C 
HETATM   14  O2  UNL     1     -11.764  16.601 -15.983  1.00  0.00    -0.260 OA
BRANCH  13  15
HETATM   15  O1  UNL     1     -12.062  18.693 -15.203  1.00  0.00    -0.314 OA
BRANCH  15  16
HETATM   16  C2  UNL     1     -13.023  19.650 -14.848  1.00  0.00     0.124 C 
HETATM   17  C1  UNL     1     -12.591  21.040 -15.243  1.00  0.00     0.040 C 
HETATM   18  C3  UNL     1     -13.154  19.611 -13.325  1.00  0.00     0.040 C 
ENDBRANCH  15  16
ENDBRANCH  13  15
ENDBRANCH  12  13
ENDBRANCH   1  11
BRANCH   6  19
HETATM   19  O4  UNL     1     -13.523  16.956 -20.233  1.00  0.00    -0.359 OA
ATOM     20  H4  UNL     1     -13.252  16.933 -21.143  1.00  0.00     0.217 HD
ENDBRANCH   6  19
BRANCH   3  21
HETATM   21  O3  UNL     1     -18.848  17.924 -19.056  1.00  0.00    -0.360 OA
ATOM     22  H3  UNL     1     -19.403  18.404 -19.659  1.00  0.00     0.217 HD
ENDBRANCH   3  21
BRANCH   9  23
HETATM   23  O5  UNL     1     -18.261  18.730 -23.891  1.00  0.00    -0.395 OA
ATOM     24  H5  UNL     1     -17.897  19.347 -24.515  1.00  0.00     0.210 HD
ENDBRANCH   9  23
TORSDOF 7
ENDMDL
MODEL 4
REMARK VINA RESULT: -7.657231056      1.371      1.956
REMARK  7 active torsions:
REMARK  status: ('A' for Active; 'I' for Inactive)
REMARK    1  A    between atoms: C2_2  and  O1_4 
REMARK    2  A    between atoms: O1_4  and  C4_5 
REMARK    3  A    between atoms: C4_5  and  C5_7 
REMARK    4  A    between atoms: C6_8  and  C7_9 
REMARK    5  A    between atoms: C9_11  and  O3_12 
REMARK    6  A    between atoms: C12_16  and  O4_17 
REMARK    7  A    between atoms: C15_21  and  O5_22 
ROOT
HETATM    1  C7  UNL     1     -16.296  17.579 -18.414  1.00  0.00     0.000 A 
HETATM    2  C8  UNL     1     -17.673  17.797 -18.376  1.00  0.00     0.051 A 
HETATM    3  C9  UNL     1     -18.448  17.872 -19.532  1.00  0.00     0.073 A 
HETATM    4  C10 UNL     1     -17.860  17.730 -20.747  1.00  0.00    -0.013 A 
HETATM    5  C11 UNL     1     -16.513  17.516 -20.798  1.00  0.00    -0.015 A 
HETATM    6  C12 UNL     1     -15.708  17.436 -19.653  1.00  0.00     0.083 A 
HETATM    7  C13 UNL     1     -15.877  17.362 -22.118  1.00  0.00     0.044 C 
HETATM    8  C14 UNL     1     -16.408  18.296 -23.164  1.00  0.00     0.037 C 
HETATM    9  C15 UNL     1     -17.829  18.710 -22.954  1.00  0.00     0.122 C 
HETATM   10  C16 UNL     1     -18.595  17.792 -22.040  1.00  0.00     0.073 C 
ENDROOT
BRANCH   1  11
HETATM   11  C6  UNL     1     -15.538  17.511 -17.176  1.00  0.00     0.020 C 
HETATM   12  C5  UNL     1     -15.746  18.230 -16.102  1.00  0.00     0.083 C 
BRANCH  12  13
HETATM   13  C4  UNL     1     -14.932  18.095 -14.893  1.00  0.00     0.283 C 
HETATM   14  O2  UNL     1     -14.946  19.016 -14.034  1.00  0.00    -0.260 OA
BRANCH  13  15
HETATM   15  O1  UNL     1     -14.142  17.002 -14.639  1.00  0.00    -0.314 OA
BRANCH  15  16
HETATM   16  C2  UNL     1     -12.746  17.060 -14.762  1.00  0.00     0.124 C 
HETATM   17  C1  UNL     1     -12.328  17.969 -15.889  1.00  0.00     0.040 C 
HETATM   18  C3  UNL     1     -12.266  15.646 -15.092  1.00  0.00     0.040 C 
ENDBRANCH  15  16
ENDBRANCH  13  15
ENDBRANCH  12  13
ENDBRANCH   1  11
BRANCH   6  19
HETATM   19  O4  UNL     1     -14.357  17.219 -19.763  1.00  0.00    -0.359 OA
ATOM     20  H4  UNL     1     -14.026  16.385 -20.076  1.00  0.00     0.217 HD
ENDBRANCH   6  19
BRANCH   3  21
HETATM   21  O3  UNL     1     -19.819  18.090 -19.477  1.00  0.00    -0.360 OA
ATOM     22  H3  UNL     1     -20.400  17.491 -19.024  1.00  0.00     0.217 HD
ENDBRANCH   3  21
BRANCH   9  23
HETATM   23  O5  UNL     1     -18.491  18.736 -24.187  1.00  0.00    -0.395 OA
ATOM     24  H5  UNL     1     -18.600  19.637 -24.467  1.00  0.00     0.210 HD
ENDBRANCH   9  23
TORSDOF 7
ENDMDL
MODEL 5
REMARK VINA RESULT: -7.632904249      1.194      1.520
REMARK  7 active torsions:
REMARK  status: ('A' for Active; 'I' for Inactive)
REMARK    1  A    between atoms: C2_2  and  O1_4 
REMARK    2  A    between atoms: O1_4  and  C4_5 
REMARK    3  A    between atoms: C4_5  and  C5_7 
REMARK    4  A    between atoms: C6_8  and  C7_9 
REMARK    5  A    between atoms: C9_11  and  O3_12 
REMARK    6  A    between atoms: C12_16  and  O4_17 
REMARK    7  A    between atoms: C15_21  and  O5_22 
ROOT
HETATM    1  C7  UNL     1     -15.886  17.559 -18.466  1.00  0.00     0.000 A 
HETATM    2  C8  UNL     1     -17.244  17.767 -18.228  1.00  0.00     0.051 A 
HETATM    3  C9  UNL     1     -18.181  17.826 -19.259  1.00  0.00     0.073 A 
HETATM    4  C10 UNL     1     -17.776  17.678 -20.545  1.00  0.00    -0.013 A 
HETATM    5  C11 UNL     1     -16.449  17.475 -20.792  1.00  0.00    -0.015 A 
HETATM    6  C12 UNL     1     -15.484  17.410 -19.777  1.00  0.00     0.083 A 
HETATM    7  C13 UNL     1     -16.011  17.313 -22.189  1.00  0.00     0.044 C 
HETATM    8  C14 UNL     1     -16.698  18.235 -23.154  1.00  0.00     0.037 C 
HETATM    9  C15 UNL     1     -18.076  18.640 -22.741  1.00  0.00     0.122 C 
HETATM   10  C16 UNL     1     -18.693  17.723 -21.718  1.00  0.00     0.073 C 
ENDROOT
BRANCH   1  11
HETATM   11  C6  UNL     1     -14.954  17.507 -17.351  1.00  0.00     0.020 C 
HETATM   12  C5  UNL     1     -15.262  17.299 -16.096  1.00  0.00     0.083 C 
BRANCH  12  13
HETATM   13  C4  UNL     1     -14.257  17.261 -15.033  1.00  0.00     0.283 C 
HETATM   14  O2  UNL     1     -14.244  16.293 -14.228  1.00  0.00    -0.260 OA
BRANCH  13  15
HETATM   15  O1  UNL     1     -13.309  18.241 -14.863  1.00  0.00    -0.314 OA
BRANCH  15  16
HETATM   16  C2  UNL     1     -13.665  19.560 -14.549  1.00  0.00     0.124 C 
HETATM   17  C1  UNL     1     -12.784  20.555 -15.259  1.00  0.00     0.040 C 
HETATM   18  C3  UNL     1     -13.457  19.733 -13.044  1.00  0.00     0.040 C 
ENDBRANCH  15  16
ENDBRANCH  13  15
ENDBRANCH  12  13
ENDBRANCH   1  11
BRANCH   6  19
HETATM   19  O4  UNL     1     -14.162  17.203 -20.081  1.00  0.00    -0.359 OA
ATOM     20  H4  UNL     1     -13.540  17.920 -20.044  1.00  0.00     0.217 HD
ENDBRANCH   6  19
BRANCH   3  21
HETATM   21  O3  UNL     1     -19.531  18.034 -19.005  1.00  0.00    -0.360 OA
ATOM     22  H3  UNL     1     -20.103  18.433 -19.649  1.00  0.00     0.217 HD
ENDBRANCH   3  21
BRANCH   9  23
HETATM   23  O5  UNL     1     -18.912  18.650 -23.864  1.00  0.00    -0.395 OA
ATOM     24  H5  UNL     1     -19.766  18.311 -23.623  1.00  0.00     0.210 HD
ENDBRANCH   9  23
TORSDOF 7
ENDMDL
