MODEL 1
REMARK VINA RESULT: -6.970451020      0.000      0.000
REMARK  6 active torsions:
REMARK  status: ('A' for Active; 'I' for Inactive)
REMARK    1  A    between atoms: O1_2  and  C2_3 
REMARK    2  A    between atoms: C2_3  and  C3_5 
REMARK    3  A    between atoms: C3_5  and  C6_8 
REMARK    4  A    between atoms: C8_10  and  C9_11 
REMARK    5  A    between atoms: C11_13  and  O3_14 
REMARK    6  A    between atoms: C12_18  and  O4_19 
ROOT
HETATM    1  C9  UNL     1     -16.167  16.851 -20.074  1.00  0.00     0.078 A 
HETATM    2  C10 UNL     1     -15.814  17.311 -21.426  1.00  0.00     0.016 A 
HETATM    3  C11 UNL     1     -14.796  17.332 -22.393  1.00  0.00     0.149 A 
HETATM    4  N1  UNL     1     -15.258  17.995 -23.465  1.00  0.00    -0.317 N 
ATOM      5  H1  UNL     1     -14.742  18.171 -24.327  1.00  0.00     0.170 HD
HETATM    6  C12 UNL     1     -16.514  18.387 -23.206  1.00  0.00     0.151 A 
HETATM    7  C13 UNL     1     -16.890  17.977 -21.945  1.00  0.00     0.035 A 
HETATM    8  C14 UNL     1     -18.031  18.019 -21.003  1.00  0.00     0.190 A 
HETATM    9  O5  UNL     1     -17.868  18.678 -19.787  1.00  0.00    -0.369 OA
HETATM   10  C15 UNL     1     -17.529  17.341 -19.759  1.00  0.00     0.168 A 
ENDROOT
BRANCH   1  11
HETATM   11  C8  UNL     1     -15.141  17.248 -19.087  1.00  0.00    -0.011 C 
HETATM   12  C6  UNL     1     -14.302  16.398 -18.515  1.00  0.00    -0.069 C 
HETATM   13  C7  UNL     1     -14.359  14.939 -18.855  1.00  0.00     0.044 C 
BRANCH  12  14
HETATM   14  C3  UNL     1     -13.288  16.846 -17.528  1.00  0.00     0.063 C 
HETATM   15  C4  UNL     1     -12.291  17.786 -18.179  1.00  0.00     0.030 C 
HETATM   16  C5  UNL     1     -12.541  15.653 -16.984  1.00  0.00     0.030 C 
BRANCH  14  17
HETATM   17  C2  UNL     1     -13.981  17.504 -16.390  1.00  0.00     0.270 C 
HETATM   18  O2  UNL     1     -13.770  18.700 -16.052  1.00  0.00    -0.264 OA
BRANCH  17  19
HETATM   19  O1  UNL     1     -14.900  16.784 -15.664  1.00  0.00    -0.326 OA
HETATM   20  C1  UNL     1     -14.840  16.732 -14.266  1.00  0.00     0.213 C 
ENDBRANCH  17  19
ENDBRANCH  14  17
ENDBRANCH  12  14
ENDBRANCH   1  11
BRANCH   3  21
HETATM   21  O3  UNL     1     -13.533  16.746 -22.220  1.00  0.00    -0.346 OA
ATOM     22  H3  UNL     1     -13.393  15.828 -22.019  1.00  0.00     0.219 HD
ENDBRANCH   3  21
BRANCH   6  23
HETATM   23  O4  UNL     1     -17.318  19.104 -24.091  1.00  0.00    -0.346 OA
ATOM     24  H4  UNL     1     -17.669  19.970 -23.919  1.00  0.00     0.219 HD
ENDBRANCH   6  23
TORSDOF 6
ENDMDL
MODEL 2
REMARK VINA RESULT: -6.783560708      2.671      4.572
REMARK  6 active torsions:
REMARK  status: ('A' for Active; 'I' for Inactive)
REMARK    1  A    between atoms: O1_2  and  C2_3 
REMARK    2  A    between atoms: C2_3  and  C3_5 
REMARK    3  A    between atoms: C3_5  and  C6_8 
REMARK    4  A    between atoms: C8_10  and  C9_11 
REMARK    5  A    between atoms: C11_13  and  O3_14 
REMARK    6  A    between atoms: C12_18  and  O4_19 
ROOT
HETATM    1  C9  UNL     1     -15.040  17.084 -17.044  1.00  0.00     0.078 A 
HETATM    2  C10 UNL     1     -13.816  17.206 -17.851  1.00  0.00     0.016 A 
HETATM    3  C11 UNL     1     -12.428  17.408 -17.793  1.00  0.00     0.149 A 
HETATM    4  N1  UNL     1     -11.955  17.391 -19.049  1.00  0.00    -0.317 N 
ATOM      5  H1  UNL     1     -10.981  17.512 -19.323  1.00  0.00     0.170 HD
HETATM    6  C12 UNL     1     -12.986  17.188 -19.882  1.00  0.00     0.151 A 
HETATM    7  C13 UNL     1     -14.159  17.069 -19.169  1.00  0.00     0.035 A 
HETATM    8  C14 UNL     1     -15.612  16.850 -19.350  1.00  0.00     0.190 A 
HETATM    9  O5  UNL     1     -16.492  17.850 -18.945  1.00  0.00    -0.369 OA
HETATM   10  C15 UNL     1     -16.190  16.928 -17.965  1.00  0.00     0.168 A 
ENDROOT
BRANCH   1  11
HETATM   11  C8  UNL     1     -15.174  18.213 -16.099  1.00  0.00    -0.011 C 
HETATM   12  C6  UNL     1     -14.856  18.141 -14.816  1.00  0.00    -0.069 C 
HETATM   13  C7  UNL     1     -14.328  16.861 -14.241  1.00  0.00     0.044 C 
BRANCH  12  14
HETATM   14  C3  UNL     1     -15.009  19.305 -13.907  1.00  0.00     0.063 C 
HETATM   15  C4  UNL     1     -15.692  18.888 -12.618  1.00  0.00     0.030 C 
HETATM   16  C5  UNL     1     -15.847  20.369 -14.574  1.00  0.00     0.030 C 
BRANCH  14  17
HETATM   17  C2  UNL     1     -13.669  19.887 -13.639  1.00  0.00     0.270 C 
HETATM   18  O2  UNL     1     -13.323  20.333 -12.513  1.00  0.00    -0.264 OA
BRANCH  17  19
HETATM   19  O1  UNL     1     -12.752  19.946 -14.662  1.00  0.00    -0.326 OA
HETATM   20  C1  UNL     1     -12.409  21.165 -15.260  1.00  0.00     0.213 C 
ENDBRANCH  17  19
ENDBRANCH  14  17
ENDBRANCH  12  14
ENDBRANCH   1  11
BRANCH   3  21
HETATM   21  O3  UNL     1     -11.708  17.592 -16.603  1.00  0.00    -0.346 OA
ATOM     22  H3  UNL     1     -11.769  18.365 -16.055  1.00  0.00     0.219 HD
ENDBRANCH   3  21
BRANCH   6  23
HETATM   23  O4  UNL     1     -12.879  17.110 -21.270  1.00  0.00    -0.346 OA
ATOM     24  H4  UNL     1     -13.443  16.585 -21.826  1.00  0.00     0.219 HD
ENDBRANCH   6  23
TORSDOF 6
ENDMDL
MODEL 3
REMARK VINA RESULT: -6.626262088      1.288      1.578
REMARK  6 active torsions:
REMARK  status: ('A' for Active; 'I' for Inactive)
REMARK    1  A    between atoms: O1_2  and  C2_3 
REMARK    2  A    between atoms: C2_3  and  C3_5 
REMARK    3  A    between atoms: C3_5  and  C6_8 
REMARK    4  A    between atoms: C8_10  and  C9_11 
REMARK    5  A    between atoms: C11_13  and  O3_14 
REMARK    6  A    between atoms: C12_18  and  O4_19 
ROOT
HETATM    1  C9  UNL     1     -16.914  17.162 -19.326  1.00  0.00     0.078 A 
HETATM    2  C10 UNL     1     -16.267  17.374 -20.630  1.00  0.00     0.016 A 
HETATM    3  C11 UNL     1     -15.065  17.232 -21.342  1.00  0.00     0.149 A 
HETATM    4  N1  UNL     1     -15.269  17.684 -22.589  1.00  0.00    -0.317 N 
ATOM      5  H1  UNL     1     -14.576  17.707 -23.337  1.00  0.00     0.170 HD
HETATM    6  C12 UNL     1     -16.540  18.100 -22.682  1.00  0.00     0.151 A 
HETATM    7  C13 UNL     1     -17.189  17.920 -21.480  1.00  0.00     0.035 A 
HETATM    8  C14 UNL     1     -18.504  18.117 -20.829  1.00  0.00     0.190 A 
HETATM    9  O5  UNL     1     -18.587  18.988 -19.745  1.00  0.00    -0.369 OA
HETATM   10  C15 UNL     1     -18.298  17.683 -19.405  1.00  0.00     0.168 A 
ENDROOT
BRANCH   1  11
HETATM   11  C8  UNL     1     -16.113  17.744 -18.228  1.00  0.00    -0.011 C 
HETATM   12  C6  UNL     1     -15.248  17.054 -17.501  1.00  0.00    -0.069 C 
HETATM   13  C7  UNL     1     -15.035  15.594 -17.768  1.00  0.00     0.044 C 
BRANCH  12  14
HETATM   14  C3  UNL     1     -14.467  17.686 -16.408  1.00  0.00     0.063 C 
HETATM   15  C4  UNL     1     -15.149  18.953 -15.930  1.00  0.00     0.030 C 
HETATM   16  C5  UNL     1     -13.086  18.040 -16.904  1.00  0.00     0.030 C 
BRANCH  14  17
HETATM   17  C2  UNL     1     -14.313  16.709 -15.299  1.00  0.00     0.270 C 
HETATM   18  O2  UNL     1     -13.213  16.167 -15.005  1.00  0.00    -0.264 OA
BRANCH  17  19
HETATM   19  O1  UNL     1     -15.415  16.372 -14.550  1.00  0.00    -0.326 OA
HETATM   20  C1  UNL     1     -15.562  16.824 -13.232  1.00  0.00     0.213 C 
ENDBRANCH  17  19
ENDBRANCH  14  17
ENDBRANCH  12  14
ENDBRANCH   1  11
BRANCH   3  21
HETATM   21  O3  UNL     1     -13.884  16.704 -20.798  1.00  0.00    -0.346 OA
ATOM     22  H3  UNL     1     -13.337  16.061 -21.233  1.00  0.00     0.219 HD
ENDBRANCH   3  21
BRANCH   6  23
HETATM   23  O4  UNL     1     -17.116  18.634 -23.834  1.00  0.00    -0.346 OA
ATOM     24  H4  UNL     1     -17.509  19.497 -23.889  1.00  0.00     0.219 HD
ENDBRANCH   6  23
TORSDOF 6
ENDMDL
MODEL 4
REMARK VINA RESULT: -6.621696538      2.722      4.001
REMARK  6 active torsions:
REMARK  status: ('A' for Active; 'I' for Inactive)
REMARK    1  A    between atoms: O1_2  and  C2_3 
REMARK    2  A    between atoms: C2_3  and  C3_5 
REMARK    3  A    between atoms: C3_5  and  C6_8 
REMARK    4  A    between atoms: C8_10  and  C9_11 
REMARK    5  A    between atoms: C11_13  and  O3_14 
REMARK    6  A    between atoms: C12_18  and  O4_19 
ROOT
HETATM    1  C9  UNL     1     -16.589  17.831 -16.260  1.00  0.00     0.078 A 
HETATM    2  C10 UNL     1     -16.992  17.830 -17.675  1.00  0.00     0.016 A 
HETATM    3  C11 UNL     1     -16.622  17.419 -18.965  1.00  0.00     0.149 A 
HETATM    4  N1  UNL     1     -17.582  17.815 -19.816  1.00  0.00    -0.317 N 
ATOM      5  H1  UNL     1     -17.589  17.658 -20.824  1.00  0.00     0.170 HD
HETATM    6  C12 UNL     1     -18.529  18.452 -19.112  1.00  0.00     0.151 A 
HETATM    7  C13 UNL     1     -18.193  18.478 -17.776  1.00  0.00     0.035 A 
HETATM    8  C14 UNL     1     -18.683  18.960 -16.465  1.00  0.00     0.190 A 
HETATM    9  O5  UNL     1     -17.924  19.903 -15.775  1.00  0.00    -0.369 OA
HETATM   10  C15 UNL     1     -17.599  18.593 -15.490  1.00  0.00     0.168 A 
ENDROOT
BRANCH   1  11
HETATM   11  C8  UNL     1     -15.206  18.328 -16.097  1.00  0.00    -0.011 C 
HETATM   12  C6  UNL     1     -14.326  17.797 -15.263  1.00  0.00    -0.069 C 
HETATM   13  C7  UNL     1     -14.708  16.622 -14.412  1.00  0.00     0.044 C 
BRANCH  12  14
HETATM   14  C3  UNL     1     -12.948  18.333 -15.136  1.00  0.00     0.063 C 
HETATM   15  C4  UNL     1     -12.658  18.722 -13.698  1.00  0.00     0.030 C 
HETATM   16  C5  UNL     1     -12.792  19.556 -16.006  1.00  0.00     0.030 C 
BRANCH  14  17
HETATM   17  C2  UNL     1     -11.985  17.309 -15.618  1.00  0.00     0.270 C 
HETATM   18  O2  UNL     1     -11.167  16.721 -14.862  1.00  0.00    -0.264 OA
BRANCH  17  19
HETATM   19  O1  UNL     1     -11.979  16.977 -16.953  1.00  0.00    -0.326 OA
HETATM   20  C1  UNL     1     -12.527  15.769 -17.402  1.00  0.00     0.213 C 
ENDBRANCH  17  19
ENDBRANCH  14  17
ENDBRANCH  12  14
ENDBRANCH   1  11
BRANCH   3  21
HETATM   21  O3  UNL     1     -15.442  16.719 -19.261  1.00  0.00    -0.346 OA
ATOM     22  H3  UNL     1     -14.865  16.345 -18.606  1.00  0.00     0.219 HD
ENDBRANCH   3  21
BRANCH   6  23
HETATM   23  O4  UNL     1     -19.685  19.004 -19.661  1.00  0.00    -0.346 OA
ATOM     24  H4  UNL     1     -20.412  19.347 -19.154  1.00  0.00     0.219 HD
ENDBRANCH   6  23
TORSDOF 6
ENDMDL
MODEL 5
REMARK VINA RESULT: -6.568586400      3.135      6.810
REMARK  6 active torsions:
REMARK  status: ('A' for Active; 'I' for Inactive)
REMARK    1  A    between atoms: O1_2  and  C2_3 
REMARK    2  A    between atoms: C2_3  and  C3_5 
REMARK    3  A    between atoms: C3_5  and  C6_8 
REMARK    4  A    between atoms: C8_10  and  C9_11 
REMARK    5  A    between atoms: C11_13  and  O3_14 
REMARK    6  A    between atoms: C12_18  and  O4_19 
ROOT
HETATM    1  C9  UNL     1     -13.157  18.078 -15.169  1.00  0.00     0.078 A 
HETATM    2  C10 UNL     1     -14.279  17.813 -14.255  1.00  0.00     0.016 A 
HETATM    3  C11 UNL     1     -15.214  16.848 -13.850  1.00  0.00     0.149 A 
HETATM    4  N1  UNL     1     -15.974  17.389 -12.885  1.00  0.00    -0.317 N 
ATOM      5  H1  UNL     1     -16.740  16.925 -12.397  1.00  0.00     0.170 HD
HETATM    6  C12 UNL     1     -15.553  18.644 -12.675  1.00  0.00     0.151 A 
HETATM    7  C13 UNL     1     -14.499  18.940 -13.512  1.00  0.00     0.035 A 
HETATM    8  C14 UNL     1     -13.563  20.032 -13.858  1.00  0.00     0.190 A 
HETATM    9  O5  UNL     1     -13.594  20.552 -15.151  1.00  0.00    -0.369 OA
HETATM   10  C15 UNL     1     -12.734  19.486 -14.987  1.00  0.00     0.168 A 
ENDROOT
BRANCH   1  11
HETATM   11  C8  UNL     1     -13.505  17.729 -16.563  1.00  0.00    -0.011 C 
HETATM   12  C6  UNL     1     -13.202  16.571 -17.129  1.00  0.00    -0.069 C 
HETATM   13  C7  UNL     1     -12.462  15.523 -16.353  1.00  0.00     0.044 C 
BRANCH  12  14
HETATM   14  C3  UNL     1     -13.574  16.268 -18.534  1.00  0.00     0.063 C 
HETATM   15  C4  UNL     1     -13.174  14.851 -18.897  1.00  0.00     0.030 C 
HETATM   16  C5  UNL     1     -12.869  17.222 -19.468  1.00  0.00     0.030 C 
BRANCH  14  17
HETATM   17  C2  UNL     1     -15.037  16.472 -18.699  1.00  0.00     0.270 C 
HETATM   18  O2  UNL     1     -15.900  15.679 -18.236  1.00  0.00    -0.264 OA
BRANCH  17  19
HETATM   19  O1  UNL     1     -15.482  17.575 -19.389  1.00  0.00    -0.326 OA
HETATM   20  C1  UNL     1     -16.750  17.596 -19.984  1.00  0.00     0.213 C 
ENDBRANCH  17  19
ENDBRANCH  14  17
ENDBRANCH  12  14
ENDBRANCH   1  11
BRANCH   3  21
HETATM   21  O3  UNL     1     -15.299  15.556 -14.391  1.00  0.00    -0.346 OA
ATOM     22  H3  UNL     1     -16.104  15.158 -14.699  1.00  0.00     0.219 HD
ENDBRANCH   3  21
BRANCH   6  23
HETATM   23  O4  UNL     1     -16.107  19.519 -11.741  1.00  0.00    -0.346 OA
ATOM     24  H4  UNL     1     -15.761  20.380 -11.536  1.00  0.00     0.219 HD
ENDBRANCH   6  23
TORSDOF 6
ENDMDL
