MODEL 1
REMARK VINA RESULT: -5.854914965      0.000      0.000
REMARK  6 active torsions:
REMARK  status: ('A' for Active; 'I' for Inactive)
REMARK    1  A    between atoms: C4_4  and  C5_5 
REMARK    2  A    between atoms: C7_9  and  O3_10 
REMARK    3  A    between atoms: C8_12  and  O4_13 
REMARK    4  A    between atoms: C9_15  and  C11_17 
REMARK    5  A    between atoms: C11_17  and  N1_18 
REMARK    6  A    between atoms: N1_18  and  S1_20 
ROOT
HETATM    1  C1  UNL     1     102.250  20.253  16.148  1.00  0.00     0.016 C 
HETATM    2  C2  UNL     1     102.816  19.267  15.133  1.00  0.00    -0.023 C 
HETATM    3  C3  UNL     1     102.051  19.419  13.872  1.00  0.00     0.016 C 
HETATM    4  C4  UNL     1     104.284  19.607  14.999  1.00  0.00     0.098 C 
HETATM    5  C6  UNL     1     105.004  18.685  14.065  1.00  0.00     0.050 C 
HETATM    6  C7  UNL     1     104.323  17.371  13.908  1.00  0.00     0.148 C 
HETATM    7  C8  UNL     1     103.783  16.950  15.277  1.00  0.00     0.157 C 
HETATM    8  C9  UNL     1     102.724  17.898  15.775  1.00  0.00     0.009 C 
HETATM    9  C10 UNL     1     101.372  17.251  15.478  1.00  0.00     0.020 C 
ENDROOT
BRANCH   8  10
HETATM   10  C11 UNL     1     102.854  18.009  17.276  1.00  0.00     0.144 C 
BRANCH  10  11
HETATM   11  N1  UNL     1     103.973  17.224  17.718  1.00  0.00    -0.319 N 
ATOM     12  H1  UNL     1     104.940  17.390  17.437  1.00  0.00     0.172 HD
BRANCH  11  13
HETATM   13  S1  UNL     1     103.468  15.957  18.791  1.00  0.00     0.222 S 
HETATM   14  C12 UNL     1     102.887  16.633  20.319  1.00  0.00     0.185 C 
HETATM   15  O5  UNL     1     104.662  15.093  19.085  1.00  0.00    -0.206 OA
HETATM   16  O6  UNL     1     102.384  15.131  18.195  1.00  0.00    -0.206 OA
ENDBRANCH  11  13
ENDBRANCH  10  11
ENDBRANCH   8  10
BRANCH   7  17
HETATM   17  O4  UNL     1     103.209  15.679  15.138  1.00  0.00    -0.392 OA
ATOM     18  H4  UNL     1     102.876  15.417  15.988  1.00  0.00     0.210 HD
ENDBRANCH   7  17
BRANCH   4  19
HETATM   19  C5  UNL     1     104.535  21.026  14.687  1.00  0.00     0.177 C 
HETATM   20  O1  UNL     1     104.179  21.600  13.626  1.00  0.00    -0.648 OA
HETATM   21  O2  UNL     1     105.211  21.791  15.624  1.00  0.00    -0.648 OA
ENDBRANCH   4  19
BRANCH   6  22
HETATM   22  O3  UNL     1     105.238  16.353  13.551  1.00  0.00    -0.393 OA
ATOM     23  H3  UNL     1     105.361  16.311  12.610  1.00  0.00     0.210 HD
ENDBRANCH   6  22
TORSDOF 6
ENDMDL
MODEL 2
REMARK VINA RESULT: -5.818051984      0.894      1.052
REMARK  6 active torsions:
REMARK  status: ('A' for Active; 'I' for Inactive)
REMARK    1  A    between atoms: C4_4  and  C5_5 
REMARK    2  A    between atoms: C7_9  and  O3_10 
REMARK    3  A    between atoms: C8_12  and  O4_13 
REMARK    4  A    between atoms: C9_15  and  C11_17 
REMARK    5  A    between atoms: C11_17  and  N1_18 
REMARK    6  A    between atoms: N1_18  and  S1_20 
ROOT
HETATM    1  C1  UNL     1     102.246  20.483  15.892  1.00  0.00     0.016 C 
HETATM    2  C2  UNL     1     102.808  19.409  14.969  1.00  0.00    -0.023 C 
HETATM    3  C3  UNL     1     102.152  19.553  13.647  1.00  0.00     0.016 C 
HETATM    4  C4  UNL     1     104.303  19.635  14.934  1.00  0.00     0.098 C 
HETATM    5  C6  UNL     1     105.019  18.618  14.099  1.00  0.00     0.050 C 
HETATM    6  C7  UNL     1     104.252  17.350  13.948  1.00  0.00     0.148 C 
HETATM    7  C8  UNL     1     103.583  17.039  15.288  1.00  0.00     0.157 C 
HETATM    8  C9  UNL     1     102.565  18.085  15.661  1.00  0.00     0.009 C 
HETATM    9  C10 UNL     1     101.194  17.524  15.289  1.00  0.00     0.020 C 
ENDROOT
BRANCH   8  10
HETATM   10  C11 UNL     1     102.592  18.260  17.161  1.00  0.00     0.144 C 
BRANCH  10  11
HETATM   11  N1  UNL     1     103.645  17.456  17.717  1.00  0.00    -0.319 N 
ATOM     12  H1  UNL     1     104.635  17.572  17.500  1.00  0.00     0.172 HD
BRANCH  11  13
HETATM   13  S1  UNL     1     103.014  16.262  18.808  1.00  0.00     0.222 S 
HETATM   14  C12 UNL     1     104.269  15.092  19.240  1.00  0.00     0.185 C 
HETATM   15  O5  UNL     1     101.911  15.525  18.103  1.00  0.00    -0.206 OA
HETATM   16  O6  UNL     1     102.491  16.878  20.056  1.00  0.00    -0.206 OA
ENDBRANCH  11  13
ENDBRANCH  10  11
ENDBRANCH   8  10
BRANCH   7  17
HETATM   17  O4  UNL     1     102.925  15.807  15.162  1.00  0.00    -0.392 OA
ATOM     18  H4  UNL     1     101.995  15.982  15.082  1.00  0.00     0.210 HD
ENDBRANCH   7  17
BRANCH   4  19
HETATM   19  C5  UNL     1     104.684  21.014  14.580  1.00  0.00     0.177 C 
HETATM   20  O1  UNL     1     104.464  21.555  13.465  1.00  0.00    -0.648 OA
HETATM   21  O2  UNL     1     105.333  21.779  15.537  1.00  0.00    -0.648 OA
ENDBRANCH   4  19
BRANCH   6  22
HETATM   22  O3  UNL     1     105.111  16.252  13.708  1.00  0.00    -0.393 OA
ATOM     23  H3  UNL     1     104.648  15.426  13.784  1.00  0.00     0.210 HD
ENDBRANCH   6  22
TORSDOF 6
ENDMDL
MODEL 3
REMARK VINA RESULT: -5.761188213      1.349      1.615
REMARK  6 active torsions:
REMARK  status: ('A' for Active; 'I' for Inactive)
REMARK    1  A    between atoms: C4_4  and  C5_5 
REMARK    2  A    between atoms: C7_9  and  O3_10 
REMARK    3  A    between atoms: C8_12  and  O4_13 
REMARK    4  A    between atoms: C9_15  and  C11_17 
REMARK    5  A    between atoms: C11_17  and  N1_18 
REMARK    6  A    between atoms: N1_18  and  S1_20 
ROOT
HETATM    1  C1  UNL     1     102.528  20.322  15.938  1.00  0.00     0.016 C 
HETATM    2  C2  UNL     1     102.903  19.065  15.162  1.00  0.00    -0.023 C 
HETATM    3  C3  UNL     1     102.376  19.206  13.783  1.00  0.00     0.016 C 
HETATM    4  C4  UNL     1     104.411  18.970  15.230  1.00  0.00     0.098 C 
HETATM    5  C6  UNL     1     104.941  17.746  14.550  1.00  0.00     0.050 C 
HETATM    6  C7  UNL     1     103.931  16.656  14.448  1.00  0.00     0.148 C 
HETATM    7  C8  UNL     1     103.128  16.631  15.751  1.00  0.00     0.157 C 
HETATM    8  C9  UNL     1     102.339  17.899  15.946  1.00  0.00     0.009 C 
HETATM    9  C10 UNL     1     100.904  17.600  15.513  1.00  0.00     0.020 C 
ENDROOT
BRANCH   8  10
HETATM   10  C11 UNL     1     102.310  18.218  17.421  1.00  0.00     0.144 C 
BRANCH  10  11
HETATM   11  N1  UNL     1     101.834  17.074  18.149  1.00  0.00    -0.319 N 
ATOM     12  H1  UNL     1     100.953  16.595  17.958  1.00  0.00     0.172 HD
BRANCH  11  13
HETATM   13  S1  UNL     1     102.951  16.612  19.394  1.00  0.00     0.222 S 
HETATM   14  C12 UNL     1     103.138  14.853  19.438  1.00  0.00     0.185 C 
HETATM   15  O5  UNL     1     102.386  17.056  20.713  1.00  0.00    -0.206 OA
HETATM   16  O6  UNL     1     104.290  17.225  19.187  1.00  0.00    -0.206 OA
ENDBRANCH  11  13
ENDBRANCH  10  11
ENDBRANCH   8  10
BRANCH   7  17
HETATM   17  O4  UNL     1     102.230  15.557  15.679  1.00  0.00    -0.392 OA
ATOM     18  H4  UNL     1     102.339  15.145  14.829  1.00  0.00     0.210 HD
ENDBRANCH   7  17
BRANCH   4  19
HETATM   19  C5  UNL     1     105.101  20.196  14.790  1.00  0.00     0.177 C 
HETATM   20  O1  UNL     1     105.578  21.066  15.562  1.00  0.00    -0.648 OA
HETATM   21  O2  UNL     1     105.238  20.414  13.427  1.00  0.00    -0.648 OA
ENDBRANCH   4  19
BRANCH   6  22
HETATM   22  O3  UNL     1     104.546  15.385  14.376  1.00  0.00    -0.393 OA
ATOM     23  H3  UNL     1     105.285  15.323  14.970  1.00  0.00     0.210 HD
ENDBRANCH   6  22
TORSDOF 6
ENDMDL
MODEL 4
REMARK VINA RESULT: -5.660191448      2.976      5.218
REMARK  6 active torsions:
REMARK  status: ('A' for Active; 'I' for Inactive)
REMARK    1  A    between atoms: C4_4  and  C5_5 
REMARK    2  A    between atoms: C7_9  and  O3_10 
REMARK    3  A    between atoms: C8_12  and  O4_13 
REMARK    4  A    between atoms: C9_15  and  C11_17 
REMARK    5  A    between atoms: C11_17  and  N1_18 
REMARK    6  A    between atoms: N1_18  and  S1_20 
ROOT
HETATM    1  C1  UNL     1     105.588  18.644  15.501  1.00  0.00     0.016 C 
HETATM    2  C2  UNL     1     104.392  17.882  16.058  1.00  0.00    -0.023 C 
HETATM    3  C3  UNL     1     104.444  16.498  15.528  1.00  0.00     0.016 C 
HETATM    4  C4  UNL     1     104.514  17.962  17.563  1.00  0.00     0.098 C 
HETATM    5  C6  UNL     1     103.373  17.296  18.269  1.00  0.00     0.050 C 
HETATM    6  C7  UNL     1     102.149  17.197  17.426  1.00  0.00     0.148 C 
HETATM    7  C8  UNL     1     102.020  18.495  16.625  1.00  0.00     0.157 C 
HETATM    8  C9  UNL     1     103.163  18.672  15.660  1.00  0.00     0.009 C 
HETATM    9  C10 UNL     1     102.658  18.232  14.287  1.00  0.00     0.020 C 
ENDROOT
BRANCH   8  10
HETATM   10  C11 UNL     1     103.487  20.145  15.574  1.00  0.00     0.144 C 
BRANCH  10  11
HETATM   11  N1  UNL     1     102.523  20.892  16.334  1.00  0.00    -0.319 N 
ATOM     12  H1  UNL     1     102.414  20.828  17.347  1.00  0.00     0.172 HD
BRANCH  11  13
HETATM   13  S1  UNL     1     101.569  21.915  15.308  1.00  0.00     0.222 S 
HETATM   14  C12 UNL     1     102.612  22.939  14.310  1.00  0.00     0.185 C 
HETATM   15  O5  UNL     1     100.738  22.808  16.185  1.00  0.00    -0.206 OA
HETATM   16  O6  UNL     1     100.684  21.125  14.411  1.00  0.00    -0.206 OA
ENDBRANCH  11  13
ENDBRANCH  10  11
ENDBRANCH   8  10
BRANCH   7  17
HETATM   17  O4  UNL     1     100.828  18.426  15.891  1.00  0.00    -0.392 OA
ATOM     18  H4  UNL     1     101.057  18.334  14.973  1.00  0.00     0.210 HD
ENDBRANCH   7  17
BRANCH   4  19
HETATM   19  C5  UNL     1     105.823  17.514  18.074  1.00  0.00     0.177 C 
HETATM   20  O1  UNL     1     106.883  18.188  18.014  1.00  0.00    -0.648 OA
HETATM   21  O2  UNL     1     105.900  16.263  18.665  1.00  0.00    -0.648 OA
ENDBRANCH   4  19
BRANCH   6  22
HETATM   22  O3  UNL     1     100.979  17.141  18.218  1.00  0.00    -0.393 OA
ATOM     23  H3  UNL     1     100.207  17.369  17.713  1.00  0.00     0.210 HD
ENDBRANCH   6  22
TORSDOF 6
ENDMDL
MODEL 5
REMARK VINA RESULT: -5.646607597      7.603      9.344
REMARK  6 active torsions:
REMARK  status: ('A' for Active; 'I' for Inactive)
REMARK    1  A    between atoms: C4_4  and  C5_5 
REMARK    2  A    between atoms: C7_9  and  O3_10 
REMARK    3  A    between atoms: C8_12  and  O4_13 
REMARK    4  A    between atoms: C9_15  and  C11_17 
REMARK    5  A    between atoms: C11_17  and  N1_18 
REMARK    6  A    between atoms: N1_18  and  S1_20 
ROOT
HETATM    1  C1  UNL     1     112.328  21.705  12.029  1.00  0.00     0.016 C 
HETATM    2  C2  UNL     1     112.632  20.231  11.794  1.00  0.00    -0.023 C 
HETATM    3  C3  UNL     1     113.253  20.100  10.454  1.00  0.00     0.016 C 
HETATM    4  C4  UNL     1     113.537  19.807  12.929  1.00  0.00     0.098 C 
HETATM    5  C6  UNL     1     113.890  18.353  12.871  1.00  0.00     0.050 C 
HETATM    6  C7  UNL     1     112.901  17.548  12.103  1.00  0.00     0.148 C 
HETATM    7  C8  UNL     1     111.503  18.076  12.430  1.00  0.00     0.157 C 
HETATM    8  C9  UNL     1     111.318  19.496  11.963  1.00  0.00     0.009 C 
HETATM    9  C10 UNL     1     110.559  19.433  10.638  1.00  0.00     0.020 C 
ENDROOT
BRANCH   8  10
HETATM   10  C11 UNL     1     110.436  20.212  12.957  1.00  0.00     0.144 C 
BRANCH  10  11
HETATM   11  N1  UNL     1     109.727  19.246  13.750  1.00  0.00    -0.319 N 
ATOM     12  H1  UNL     1     110.168  18.612  14.417  1.00  0.00     0.172 HD
BRANCH  11  13
HETATM   13  S1  UNL     1     108.023  19.298  13.426  1.00  0.00     0.222 S 
HETATM   14  C12 UNL     1     107.102  18.897  14.882  1.00  0.00     0.185 C 
HETATM   15  O5  UNL     1     107.717  18.263  12.379  1.00  0.00    -0.206 OA
HETATM   16  O6  UNL     1     107.593  20.639  12.948  1.00  0.00    -0.206 OA
ENDBRANCH  11  13
ENDBRANCH  10  11
ENDBRANCH   8  10
BRANCH   7  17
HETATM   17  O4  UNL     1     110.573  17.266  11.763  1.00  0.00    -0.392 OA
ATOM     18  H4  UNL     1     110.206  16.663  12.398  1.00  0.00     0.210 HD
ENDBRANCH   7  17
BRANCH   4  19
HETATM   19  C5  UNL     1     114.726  20.664  13.086  1.00  0.00     0.177 C 
HETATM   20  O1  UNL     1     115.659  20.755  12.248  1.00  0.00    -0.648 OA
HETATM   21  O2  UNL     1     114.833  21.428  14.238  1.00  0.00    -0.648 OA
ENDBRANCH   4  19
BRANCH   6  22
HETATM   22  O3  UNL     1     112.888  16.200  12.530  1.00  0.00    -0.393 OA
ATOM     23  H3  UNL     1     112.927  16.135  13.477  1.00  0.00     0.210 HD
ENDBRANCH   6  22
TORSDOF 6
ENDMDL
