MODEL 1
REMARK VINA RESULT: -5.809614269      0.000      0.000
REMARK  6 active torsions:
REMARK  status: ('A' for Active; 'I' for Inactive)
REMARK    1  A    between atoms: C2_2  and  O2_4 
REMARK    2  A    between atoms: O2_4  and  C3_5 
REMARK    3  A    between atoms: C5_7  and  S1_8 
REMARK    4  A    between atoms: C7_11  and  N1_12 
REMARK       I    between atoms: N1_12  and  C8_14 
REMARK    5  A    between atoms: C9_19  and  N4_20 
REMARK    6  A    between atoms: C12_23  and  O4_24 
ROOT
HETATM    1  C3  UNL     1     101.866  18.753  14.896  1.00  0.00     0.085 C 
HETATM    2  C4  UNL     1     103.045  18.577  14.375  1.00  0.00     0.028 C 
HETATM    3  C5  UNL     1     103.981  17.604  15.054  1.00  0.00     0.129 C 
HETATM    4  C7  UNL     1     104.105  18.053  16.473  1.00  0.00     0.140 C 
HETATM    5  C9  UNL     1     102.718  18.144  17.099  1.00  0.00     0.280 C 
HETATM    6  C12 UNL     1     101.596  17.935  16.136  1.00  0.00     0.210 C 
ENDROOT
BRANCH   4   7
HETATM    7  N1  UNL     1     105.003  17.303  17.299  1.00  0.00    -0.356 N 
HETATM    8  C8  UNL     1     106.241  17.872  17.741  1.00  0.00     0.182 C 
HETATM    9  N2  UNL     1     106.724  18.928  17.191  1.00  0.00    -0.374 N 
HETATM   10  N3  UNL     1     106.988  17.289  18.804  1.00  0.00    -0.064 NA
ATOM     11  H22 UNL     1     106.189  19.346  16.430  1.00  0.00     0.158 HD
ATOM     12  H21 UNL     1     107.606  19.333  17.505  1.00  0.00     0.158 HD
ATOM     13  H1  UNL     1     104.759  16.352  17.576  1.00  0.00     0.162 HD
ENDBRANCH   4   7
BRANCH   3  14
HETATM   14  S1  UNL     1     105.507  17.637  14.147  1.00  0.00     0.021 S 
HETATM   15  C6  UNL     1     106.086  19.228  13.738  1.00  0.00     0.128 C 
HETATM   16  O3  UNL     1     105.454  16.598  12.830  1.00  0.00    -0.258 OA
ENDBRANCH   3  14
BRANCH   5  17
HETATM   17  N4  UNL     1     102.579  17.276  18.259  1.00  0.00     0.089 N 
HETATM   18  C10 UNL     1     102.297  15.914  17.974  1.00  0.00     0.310 C 
HETATM   19  C11 UNL     1     101.545  17.805  19.122  1.00  0.00     0.310 C 
ENDBRANCH   5  17
BRANCH   6  20
HETATM   20  O4  UNL     1     101.296  16.628  15.843  1.00  0.00    -0.387 OA
ATOM     21  H4  UNL     1     102.067  16.073  15.841  1.00  0.00     0.210 HD
ENDBRANCH   6  20
BRANCH   1  22
HETATM   22  O2  UNL     1     100.864  19.583  14.447  1.00  0.00    -0.281 OA
BRANCH  22  23
HETATM   23  C2  UNL     1      99.922  19.389  13.513  1.00  0.00     0.259 C 
HETATM   24  C1  UNL     1     100.188  19.824  12.097  1.00  0.00     0.126 C 
HETATM   25  O1  UNL     1      98.845  18.857  13.802  1.00  0.00    -0.265 OA
ENDBRANCH  22  23
ENDBRANCH   1  22
TORSDOF 6
ENDMDL
MODEL 2
REMARK VINA RESULT: -5.676638970      2.007      4.864
REMARK  6 active torsions:
REMARK  status: ('A' for Active; 'I' for Inactive)
REMARK    1  A    between atoms: C2_2  and  O2_4 
REMARK    2  A    between atoms: O2_4  and  C3_5 
REMARK    3  A    between atoms: C5_7  and  S1_8 
REMARK    4  A    between atoms: C7_11  and  N1_12 
REMARK       I    between atoms: N1_12  and  C8_14 
REMARK    5  A    between atoms: C9_19  and  N4_20 
REMARK    6  A    between atoms: C12_23  and  O4_24 
ROOT
HETATM    1  C3  UNL     1     105.166  17.821  14.251  1.00  0.00     0.085 C 
HETATM    2  C4  UNL     1     103.876  17.710  14.382  1.00  0.00     0.028 C 
HETATM    3  C5  UNL     1     103.268  18.046  15.724  1.00  0.00     0.129 C 
HETATM    4  C7  UNL     1     103.965  17.193  16.732  1.00  0.00     0.140 C 
HETATM    5  C9  UNL     1     105.469  17.423  16.638  1.00  0.00     0.280 C 
HETATM    6  C12 UNL     1     105.887  18.286  15.494  1.00  0.00     0.210 C 
ENDROOT
BRANCH   4   7
HETATM    7  N1  UNL     1     103.502  17.302  18.083  1.00  0.00    -0.356 N 
HETATM    8  C8  UNL     1     102.915  16.179  18.750  1.00  0.00     0.182 C 
HETATM    9  N2  UNL     1     102.517  15.148  18.095  1.00  0.00    -0.374 N 
HETATM   10  N3  UNL     1     102.747  16.161  20.164  1.00  0.00    -0.064 NA
ATOM     11  H22 UNL     1     102.637  15.161  17.083  1.00  0.00     0.158 HD
ATOM     12  H21 UNL     1     102.098  14.348  18.570  1.00  0.00     0.158 HD
ATOM     13  H1  UNL     1     103.592  18.191  18.576  1.00  0.00     0.162 HD
ENDBRANCH   4   7
BRANCH   3  14
HETATM   14  S1  UNL     1     101.525  17.738  15.593  1.00  0.00     0.021 S 
HETATM   15  C6  UNL     1     100.706  18.657  14.360  1.00  0.00     0.128 C 
HETATM   16  O3  UNL     1     100.776  17.834  17.091  1.00  0.00    -0.258 OA
ENDBRANCH   3  14
BRANCH   5  17
HETATM   17  N4  UNL     1     106.030  17.909  17.890  1.00  0.00     0.089 N 
HETATM   18  C10 UNL     1     107.320  18.497  17.796  1.00  0.00     0.310 C 
HETATM   19  C11 UNL     1     106.075  16.818  18.841  1.00  0.00     0.310 C 
ENDBRANCH   5  17
BRANCH   6  20
HETATM   20  O4  UNL     1     105.768  19.639  15.690  1.00  0.00    -0.387 OA
ATOM     21  H4  UNL     1     105.029  19.858  16.244  1.00  0.00     0.210 HD
ENDBRANCH   6  20
BRANCH   1  22
HETATM   22  O2  UNL     1     105.922  17.568  13.129  1.00  0.00    -0.281 OA
BRANCH  22  23
HETATM   23  C2  UNL     1     106.668  18.389  12.376  1.00  0.00     0.259 C 
HETATM   24  C1  UNL     1     106.054  19.650  11.831  1.00  0.00     0.126 C 
HETATM   25  O1  UNL     1     107.849  18.122  12.128  1.00  0.00    -0.265 OA
ENDBRANCH  22  23
ENDBRANCH   1  22
TORSDOF 6
ENDMDL
MODEL 3
REMARK VINA RESULT: -5.622989410      3.000      5.179
REMARK  6 active torsions:
REMARK  status: ('A' for Active; 'I' for Inactive)
REMARK    1  A    between atoms: C2_2  and  O2_4 
REMARK    2  A    between atoms: O2_4  and  C3_5 
REMARK    3  A    between atoms: C5_7  and  S1_8 
REMARK    4  A    between atoms: C7_11  and  N1_12 
REMARK       I    between atoms: N1_12  and  C8_14 
REMARK    5  A    between atoms: C9_19  and  N4_20 
REMARK    6  A    between atoms: C12_23  and  O4_24 
ROOT
HETATM    1  C3  UNL     1     102.970  18.016  16.865  1.00  0.00     0.085 C 
HETATM    2  C4  UNL     1     102.382  19.161  16.678  1.00  0.00     0.028 C 
HETATM    3  C5  UNL     1     102.708  19.927  15.416  1.00  0.00     0.129 C 
HETATM    4  C7  UNL     1     104.192  20.097  15.394  1.00  0.00     0.140 C 
HETATM    5  C9  UNL     1     104.860  18.732  15.502  1.00  0.00     0.280 C 
HETATM    6  C12 UNL     1     103.917  17.606  15.763  1.00  0.00     0.210 C 
ENDROOT
BRANCH   4   7
HETATM    7  N1  UNL     1     104.726  20.858  14.304  1.00  0.00    -0.356 N 
HETATM    8  C8  UNL     1     105.524  22.022  14.544  1.00  0.00     0.182 C 
HETATM    9  N2  UNL     1     105.547  22.590  15.696  1.00  0.00    -0.374 N 
HETATM   10  N3  UNL     1     106.322  22.599  13.515  1.00  0.00    -0.064 NA
ATOM     11  H22 UNL     1     104.975  22.177  16.432  1.00  0.00     0.158 HD
ATOM     12  H21 UNL     1     106.115  23.419  15.867  1.00  0.00     0.158 HD
ATOM     13  H1  UNL     1     104.535  20.566  13.345  1.00  0.00     0.162 HD
ENDBRANCH   4   7
BRANCH   3  14
HETATM   14  S1  UNL     1     101.803  21.452  15.489  1.00  0.00     0.021 S 
HETATM   15  C6  UNL     1     101.208  22.029  13.957  1.00  0.00     0.128 C 
HETATM   16  O3  UNL     1     102.647  22.620  16.348  1.00  0.00    -0.258 OA
ENDBRANCH   3  14
BRANCH   5  17
HETATM   17  N4  UNL     1     105.712  18.445  14.357  1.00  0.00     0.089 N 
HETATM   18  C10 UNL     1     105.624  17.123  13.844  1.00  0.00     0.310 C 
HETATM   19  C11 UNL     1     107.087  18.727  14.709  1.00  0.00     0.310 C 
ENDBRANCH   5  17
BRANCH   6  20
HETATM   20  O4  UNL     1     103.256  17.112  14.666  1.00  0.00    -0.387 OA
ATOM     21  H4  UNL     1     103.792  16.509  14.164  1.00  0.00     0.210 HD
ENDBRANCH   6  20
BRANCH   1  22
HETATM   22  O2  UNL     1     102.823  17.161  17.934  1.00  0.00    -0.281 OA
BRANCH  22  23
HETATM   23  C2  UNL     1     102.451  15.873  17.976  1.00  0.00     0.259 C 
HETATM   24  C1  UNL     1     102.828  15.037  19.168  1.00  0.00     0.126 C 
HETATM   25  O1  UNL     1     101.805  15.370  17.050  1.00  0.00    -0.265 OA
ENDBRANCH  22  23
ENDBRANCH   1  22
TORSDOF 6
ENDMDL
MODEL 4
REMARK VINA RESULT: -5.583850741      2.400      5.356
REMARK  6 active torsions:
REMARK  status: ('A' for Active; 'I' for Inactive)
REMARK    1  A    between atoms: C2_2  and  O2_4 
REMARK    2  A    between atoms: O2_4  and  C3_5 
REMARK    3  A    between atoms: C5_7  and  S1_8 
REMARK    4  A    between atoms: C7_11  and  N1_12 
REMARK       I    between atoms: N1_12  and  C8_14 
REMARK    5  A    between atoms: C9_19  and  N4_20 
REMARK    6  A    between atoms: C12_23  and  O4_24 
ROOT
HETATM    1  C3  UNL     1     106.178  18.775  14.090  1.00  0.00     0.085 C 
HETATM    2  C4  UNL     1     105.044  19.344  13.803  1.00  0.00     0.028 C 
HETATM    3  C5  UNL     1     104.118  19.693  14.946  1.00  0.00     0.129 C 
HETATM    4  C7  UNL     1     103.886  18.429  15.706  1.00  0.00     0.140 C 
HETATM    5  C9  UNL     1     105.226  17.838  16.130  1.00  0.00     0.280 C 
HETATM    6  C12 UNL     1     106.413  18.543  15.563  1.00  0.00     0.210 C 
ENDROOT
BRANCH   4   7
HETATM    7  N1  UNL     1     102.977  18.512  16.811  1.00  0.00    -0.356 N 
HETATM    8  C8  UNL     1     101.740  17.792  16.798  1.00  0.00     0.182 C 
HETATM    9  N2  UNL     1     101.267  17.297  15.711  1.00  0.00    -0.374 N 
HETATM   10  N3  UNL     1     100.982  17.597  17.989  1.00  0.00    -0.064 NA
ATOM     11  H22 UNL     1     101.809  17.437  14.858  1.00  0.00     0.158 HD
ATOM     12  H21 UNL     1     100.385  16.784  15.701  1.00  0.00     0.158 HD
ATOM     13  H1  UNL     1     103.215  19.091  17.616  1.00  0.00     0.162 HD
ENDBRANCH   4   7
BRANCH   3  14
HETATM   14  S1  UNL     1     102.652  20.389  14.228  1.00  0.00     0.021 S 
HETATM   15  C6  UNL     1     102.919  21.774  13.205  1.00  0.00     0.128 C 
HETATM   16  O3  UNL     1     101.469  20.648  15.389  1.00  0.00    -0.258 OA
ENDBRANCH   3  14
BRANCH   5  17
HETATM   17  N4  UNL     1     105.336  17.707  17.575  1.00  0.00     0.089 N 
HETATM   18  C10 UNL     1     106.627  17.951  18.115  1.00  0.00     0.310 C 
HETATM   19  C11 UNL     1     104.902  16.381  17.962  1.00  0.00     0.310 C 
ENDBRANCH   5  17
BRANCH   6  20
HETATM   20  O4  UNL     1     106.796  19.688  16.216  1.00  0.00    -0.387 OA
ATOM     21  H4  UNL     1     106.859  19.563  17.156  1.00  0.00     0.210 HD
ENDBRANCH   6  20
BRANCH   1  22
HETATM   22  O2  UNL     1     107.162  18.374  13.215  1.00  0.00    -0.281 OA
BRANCH  22  23
HETATM   23  C2  UNL     1     108.128  19.078  12.605  1.00  0.00     0.259 C 
HETATM   24  C1  UNL     1     109.262  19.633  13.423  1.00  0.00     0.126 C 
HETATM   25  O1  UNL     1     108.095  19.272  11.385  1.00  0.00    -0.265 OA
ENDBRANCH  22  23
ENDBRANCH   1  22
TORSDOF 6
ENDMDL
MODEL 5
REMARK VINA RESULT: -5.576484227      1.202      1.210
REMARK  6 active torsions:
REMARK  status: ('A' for Active; 'I' for Inactive)
REMARK    1  A    between atoms: C2_2  and  O2_4 
REMARK    2  A    between atoms: O2_4  and  C3_5 
REMARK    3  A    between atoms: C5_7  and  S1_8 
REMARK    4  A    between atoms: C7_11  and  N1_12 
REMARK       I    between atoms: N1_12  and  C8_14 
REMARK    5  A    between atoms: C9_19  and  N4_20 
REMARK    6  A    between atoms: C12_23  and  O4_24 
ROOT
HETATM    1  C3  UNL     1     101.281  18.789  14.574  1.00  0.00     0.085 C 
HETATM    2  C4  UNL     1     102.397  18.777  13.906  1.00  0.00     0.028 C 
HETATM    3  C5  UNL     1     103.537  17.944  14.446  1.00  0.00     0.129 C 
HETATM    4  C7  UNL     1     103.777  18.409  15.845  1.00  0.00     0.140 C 
HETATM    5  C9  UNL     1     102.481  18.308  16.642  1.00  0.00     0.280 C 
HETATM    6  C12 UNL     1     101.286  17.943  15.825  1.00  0.00     0.210 C 
ENDROOT
BRANCH   4   7
HETATM    7  N1  UNL     1     104.867  17.793  16.539  1.00  0.00    -0.356 N 
HETATM    8  C8  UNL     1     106.063  18.527  16.825  1.00  0.00     0.182 C 
HETATM    9  N2  UNL     1     106.323  19.636  16.231  1.00  0.00    -0.374 N 
HETATM   10  N3  UNL     1     107.013  18.056  17.776  1.00  0.00    -0.064 NA
ATOM     11  H22 UNL     1     105.643  19.972  15.550  1.00  0.00     0.158 HD
ATOM     12  H21 UNL     1     107.175  20.158  16.434  1.00  0.00     0.158 HD
ATOM     13  H1  UNL     1     104.792  16.819  16.834  1.00  0.00     0.162 HD
ENDBRANCH   4   7
BRANCH   3  14
HETATM   14  S1  UNL     1     104.915  18.187  13.355  1.00  0.00     0.021 S 
HETATM   15  C6  UNL     1     106.116  16.925  13.393  1.00  0.00     0.128 C 
HETATM   16  O3  UNL     1     105.569  19.722  13.532  1.00  0.00    -0.258 OA
ENDBRANCH   3  14
BRANCH   5  17
HETATM   17  N4  UNL     1     102.612  17.431  17.796  1.00  0.00     0.089 N 
HETATM   18  C10 UNL     1     102.441  16.045  17.536  1.00  0.00     0.310 C 
HETATM   19  C11 UNL     1     101.666  17.844  18.811  1.00  0.00     0.310 C 
ENDBRANCH   5  17
BRANCH   6  20
HETATM   20  O4  UNL     1     101.134  16.607  15.552  1.00  0.00    -0.387 OA
ATOM     21  H4  UNL     1     101.759  16.069  16.023  1.00  0.00     0.210 HD
ENDBRANCH   6  20
BRANCH   1  22
HETATM   22  O2  UNL     1     100.125  19.471  14.268  1.00  0.00    -0.281 OA
BRANCH  22  23
HETATM   23  C2  UNL     1      99.185  19.226  13.344  1.00  0.00     0.259 C 
HETATM   24  C1  UNL     1      98.697  20.352  12.473  1.00  0.00     0.126 C 
HETATM   25  O1  UNL     1      98.720  18.090  13.201  1.00  0.00    -0.265 OA
ENDBRANCH  22  23
ENDBRANCH   1  22
TORSDOF 6
ENDMDL
