MODEL 1
REMARK VINA RESULT: -6.011878437      0.000      0.000
REMARK  5 active torsions:
REMARK  status: ('A' for Active; 'I' for Inactive)
REMARK    1  A    between atoms: C2_2  and  O1_3 
REMARK    2  A    between atoms: C9_12  and  O3_13 
REMARK    3  A    between atoms: C10_15  and  C11_16 
REMARK    4  A    between atoms: C11_16  and  O4_17 
REMARK    5  A    between atoms: C11_16  and  O5_19 
ROOT
HETATM    1  C1  UNL     1     -13.938  17.532 -14.340  1.00  0.00     0.046 C 
HETATM    2  C2  UNL     1     -13.525  18.273 -15.563  1.00  0.00     0.065 C 
HETATM    3  C3  UNL     1     -14.663  19.084 -16.170  1.00  0.00     0.041 C 
HETATM    4  C4  UNL     1     -15.820  18.214 -16.490  1.00  0.00     0.044 C 
HETATM    5  C5  UNL     1     -15.710  17.480 -17.794  1.00  0.00     0.092 A 
HETATM    6  C6  UNL     1     -17.042  17.407 -18.521  1.00  0.00     0.049 C 
HETATM    7  O2  UNL     1     -14.655  17.664 -18.645  1.00  0.00    -0.361 OA
HETATM    8  C7  UNL     1     -14.815  16.436 -17.916  1.00  0.00     0.115 A 
HETATM    9  C8  UNL     1     -15.223  15.225 -18.763  1.00  0.00     0.052 C 
HETATM   10  C9  UNL     1     -13.679  16.216 -16.999  1.00  0.00     0.167 C 
HETATM   11  C10 UNL     1     -12.908  17.467 -16.635  1.00  0.00     0.106 C 
ENDROOT
BRANCH  11  12
HETATM   12  C11 UNL     1     -11.448  17.140 -16.405  1.00  0.00     0.263 C 
BRANCH  12  13
HETATM   13  O4  UNL     1     -10.689  18.236 -16.786  1.00  0.00    -0.371 OA
ATOM     14  H4  UNL     1      -9.927  18.284 -16.220  1.00  0.00     0.212 HD
ENDBRANCH  12  13
BRANCH  12  15
HETATM   15  O5  UNL     1     -11.193  16.859 -15.063  1.00  0.00    -0.371 OA
ATOM     16  H5  UNL     1     -11.339  15.941 -14.866  1.00  0.00     0.212 HD
ENDBRANCH  12  15
ENDBRANCH  11  12
BRANCH   2  17
HETATM   17  O1  UNL     1     -12.583  19.242 -15.148  1.00  0.00    -0.390 OA
ATOM     18  H1  UNL     1     -12.100  19.499 -15.924  1.00  0.00     0.210 HD
ENDBRANCH   2  17
BRANCH  10  19
HETATM   19  O3  UNL     1     -12.728  15.421 -17.692  1.00  0.00    -0.392 OA
ATOM     20  H3  UNL     1     -11.882  15.839 -17.585  1.00  0.00     0.210 HD
ENDBRANCH  10  19
TORSDOF 5
ENDMDL
MODEL 2
REMARK VINA RESULT: -5.942855235      2.275      3.521
REMARK  5 active torsions:
REMARK  status: ('A' for Active; 'I' for Inactive)
REMARK    1  A    between atoms: C2_2  and  O1_3 
REMARK    2  A    between atoms: C9_12  and  O3_13 
REMARK    3  A    between atoms: C10_15  and  C11_16 
REMARK    4  A    between atoms: C11_16  and  O4_17 
REMARK    5  A    between atoms: C11_16  and  O5_19 
ROOT
HETATM    1  C1  UNL     1     -10.580  17.284 -15.080  1.00  0.00     0.046 C 
HETATM    2  C2  UNL     1     -11.470  18.171 -15.878  1.00  0.00     0.065 C 
HETATM    3  C3  UNL     1     -11.815  19.464 -15.149  1.00  0.00     0.041 C 
HETATM    4  C4  UNL     1     -12.449  19.182 -13.840  1.00  0.00     0.044 C 
HETATM    5  C5  UNL     1     -13.918  18.884 -13.908  1.00  0.00     0.092 A 
HETATM    6  C6  UNL     1     -14.679  19.492 -12.742  1.00  0.00     0.049 C 
HETATM    7  O2  UNL     1     -14.620  18.944 -15.082  1.00  0.00    -0.361 OA
HETATM    8  C7  UNL     1     -14.348  17.686 -14.443  1.00  0.00     0.115 A 
HETATM    9  C8  UNL     1     -15.565  17.002 -13.810  1.00  0.00     0.052 C 
HETATM   10  C9  UNL     1     -13.514  16.825 -15.306  1.00  0.00     0.167 C 
HETATM   11  C10 UNL     1     -12.726  17.567 -16.365  1.00  0.00     0.106 C 
ENDROOT
BRANCH  11  12
HETATM   12  C11 UNL     1     -12.563  16.708 -17.601  1.00  0.00     0.263 C 
BRANCH  12  13
HETATM   13  O4  UNL     1     -12.512  17.541 -18.708  1.00  0.00    -0.371 OA
ATOM     14  H4  UNL     1     -11.698  18.029 -18.678  1.00  0.00     0.212 HD
ENDBRANCH  12  13
BRANCH  12  15
HETATM   15  O5  UNL     1     -11.391  15.955 -17.549  1.00  0.00    -0.371 OA
ATOM     16  H5  UNL     1     -11.486  15.201 -16.978  1.00  0.00     0.212 HD
ENDBRANCH  12  15
ENDBRANCH  11  12
BRANCH   2  17
HETATM   17  O1  UNL     1     -10.720  18.588 -17.001  1.00  0.00    -0.390 OA
ATOM     18  H1  UNL     1     -11.236  19.256 -17.436  1.00  0.00     0.210 HD
ENDBRANCH   2  17
BRANCH  10  19
HETATM   19  O3  UNL     1     -14.397  16.002 -16.055  1.00  0.00    -0.392 OA
ATOM     20  H3  UNL     1     -14.272  15.110 -15.754  1.00  0.00     0.210 HD
ENDBRANCH  10  19
TORSDOF 5
ENDMDL
MODEL 3
REMARK VINA RESULT: -5.838080145      1.602      3.745
REMARK  5 active torsions:
REMARK  status: ('A' for Active; 'I' for Inactive)
REMARK    1  A    between atoms: C2_2  and  O1_3 
REMARK    2  A    between atoms: C9_12  and  O3_13 
REMARK    3  A    between atoms: C10_15  and  C11_16 
REMARK    4  A    between atoms: C11_16  and  O4_17 
REMARK    5  A    between atoms: C11_16  and  O5_19 
ROOT
HETATM    1  C1  UNL     1     -15.031  17.632 -18.192  1.00  0.00     0.046 C 
HETATM    2  C2  UNL     1     -14.527  17.076 -16.907  1.00  0.00     0.065 C 
HETATM    3  C3  UNL     1     -15.284  17.612 -15.698  1.00  0.00     0.041 C 
HETATM    4  C4  UNL     1     -15.222  19.092 -15.650  1.00  0.00     0.044 C 
HETATM    5  C5  UNL     1     -13.964  19.647 -15.050  1.00  0.00     0.092 A 
HETATM    6  C6  UNL     1     -14.233  20.872 -14.192  1.00  0.00     0.049 C 
HETATM    7  O2  UNL     1     -12.991  18.841 -14.525  1.00  0.00    -0.361 OA
HETATM    8  C7  UNL     1     -12.778  19.561 -15.751  1.00  0.00     0.115 A 
HETATM    9  C8  UNL     1     -11.791  20.730 -15.654  1.00  0.00     0.052 C 
HETATM   10  C9  UNL     1     -12.554  18.632 -16.876  1.00  0.00     0.167 C 
HETATM   11  C10 UNL     1     -13.081  17.230 -16.653  1.00  0.00     0.106 C 
ENDROOT
BRANCH  11  12
HETATM   12  C11 UNL     1     -12.212  16.219 -17.370  1.00  0.00     0.263 C 
BRANCH  12  13
HETATM   13  O4  UNL     1     -12.065  16.625 -18.688  1.00  0.00    -0.371 OA
ATOM     14  H4  UNL     1     -12.844  17.107 -18.941  1.00  0.00     0.212 HD
ENDBRANCH  12  13
BRANCH  12  15
HETATM   15  O5  UNL     1     -10.951  16.122 -16.785  1.00  0.00    -0.371 OA
ATOM     16  H5  UNL     1     -10.278  15.946 -17.433  1.00  0.00     0.212 HD
ENDBRANCH  12  15
ENDBRANCH  11  12
BRANCH   2  17
HETATM   17  O1  UNL     1     -14.823  15.693 -16.924  1.00  0.00    -0.390 OA
ATOM     18  H1  UNL     1     -15.006  15.446 -16.025  1.00  0.00     0.210 HD
ENDBRANCH   2  17
BRANCH  10  19
HETATM   19  O3  UNL     1     -11.151  18.451 -16.998  1.00  0.00    -0.392 OA
ATOM     20  H3  UNL     1     -10.936  18.536 -17.919  1.00  0.00     0.210 HD
ENDBRANCH  10  19
TORSDOF 5
ENDMDL
MODEL 4
REMARK VINA RESULT: -5.775805145      1.927      3.953
REMARK  5 active torsions:
REMARK  status: ('A' for Active; 'I' for Inactive)
REMARK    1  A    between atoms: C2_2  and  O1_3 
REMARK    2  A    between atoms: C9_12  and  O3_13 
REMARK    3  A    between atoms: C10_15  and  C11_16 
REMARK    4  A    between atoms: C11_16  and  O4_17 
REMARK    5  A    between atoms: C11_16  and  O5_19 
ROOT
HETATM    1  C1  UNL     1     -12.318  16.082 -15.546  1.00  0.00     0.046 C 
HETATM    2  C2  UNL     1     -11.907  17.414 -16.069  1.00  0.00     0.065 C 
HETATM    3  C3  UNL     1     -11.350  18.324 -14.981  1.00  0.00     0.041 C 
HETATM    4  C4  UNL     1     -12.335  18.508 -13.889  1.00  0.00     0.044 C 
HETATM    5  C5  UNL     1     -13.382  19.549 -14.159  1.00  0.00     0.092 A 
HETATM    6  C6  UNL     1     -13.719  20.355 -12.915  1.00  0.00     0.049 C 
HETATM    7  O2  UNL     1     -13.373  20.313 -15.294  1.00  0.00    -0.361 OA
HETATM    8  C7  UNL     1     -14.370  19.298 -15.089  1.00  0.00     0.115 A 
HETATM    9  C8  UNL     1     -15.783  19.823 -14.808  1.00  0.00     0.052 C 
HETATM   10  C9  UNL     1     -14.277  18.250 -16.125  1.00  0.00     0.167 C 
HETATM   11  C10 UNL     1     -12.933  18.165 -16.818  1.00  0.00     0.106 C 
ENDROOT
BRANCH  11  12
HETATM   12  C11 UNL     1     -13.107  17.715 -18.254  1.00  0.00     0.263 C 
BRANCH  12  13
HETATM   13  O4  UNL     1     -12.108  18.298 -19.018  1.00  0.00    -0.371 OA
ATOM     14  H4  UNL     1     -11.900  17.711 -19.736  1.00  0.00     0.212 HD
ENDBRANCH  12  13
BRANCH  12  15
HETATM   15  O5  UNL     1     -13.013  16.329 -18.370  1.00  0.00    -0.371 OA
ATOM     16  H5  UNL     1     -13.038  15.906 -17.519  1.00  0.00     0.212 HD
ENDBRANCH  12  15
ENDBRANCH  11  12
BRANCH   2  17
HETATM   17  O1  UNL     1     -10.812  17.187 -16.933  1.00  0.00    -0.390 OA
ATOM     18  H1  UNL     1     -10.532  18.039 -17.244  1.00  0.00     0.210 HD
ENDBRANCH   2  17
BRANCH  10  19
HETATM   19  O3  UNL     1     -15.174  18.608 -17.166  1.00  0.00    -0.392 OA
ATOM     20  H3  UNL     1     -14.776  18.335 -17.985  1.00  0.00     0.210 HD
ENDBRANCH  10  19
TORSDOF 5
ENDMDL
MODEL 5
REMARK VINA RESULT: -5.770894266      1.432      2.461
REMARK  5 active torsions:
REMARK  status: ('A' for Active; 'I' for Inactive)
REMARK    1  A    between atoms: C2_2  and  O1_3 
REMARK    2  A    between atoms: C9_12  and  O3_13 
REMARK    3  A    between atoms: C10_15  and  C11_16 
REMARK    4  A    between atoms: C11_16  and  O4_17 
REMARK    5  A    between atoms: C11_16  and  O5_19 
ROOT
HETATM    1  C1  UNL     1     -12.984  15.810 -15.146  1.00  0.00     0.046 C 
HETATM    2  C2  UNL     1     -12.897  17.281 -15.358  1.00  0.00     0.065 C 
HETATM    3  C3  UNL     1     -13.759  18.066 -14.376  1.00  0.00     0.041 C 
HETATM    4  C4  UNL     1     -15.176  17.641 -14.458  1.00  0.00     0.044 C 
HETATM    5  C5  UNL     1     -15.955  18.272 -15.574  1.00  0.00     0.092 A 
HETATM    6  C6  UNL     1     -17.377  18.609 -15.158  1.00  0.00     0.049 C 
HETATM    7  O2  UNL     1     -15.410  19.218 -16.398  1.00  0.00    -0.361 OA
HETATM    8  C7  UNL     1     -15.705  17.896 -16.879  1.00  0.00     0.115 A 
HETATM    9  C8  UNL     1     -16.889  17.807 -17.849  1.00  0.00     0.052 C 
HETATM   10  C9  UNL     1     -14.474  17.206 -17.314  1.00  0.00     0.167 C 
HETATM   11  C10 UNL     1     -13.196  17.761 -16.721  1.00  0.00     0.106 C 
ENDROOT
BRANCH  11  12
HETATM   12  C11 UNL     1     -12.050  17.607 -17.699  1.00  0.00     0.263 C 
BRANCH  12  13
HETATM   13  O4  UNL     1     -12.174  16.377 -18.326  1.00  0.00    -0.371 OA
ATOM     14  H4  UNL     1     -12.063  16.505 -19.261  1.00  0.00     0.212 HD
ENDBRANCH  12  13
BRANCH  12  15
HETATM   15  O5  UNL     1     -12.066  18.610 -18.667  1.00  0.00    -0.371 OA
ATOM     16  H5  UNL     1     -12.045  19.475 -18.273  1.00  0.00     0.212 HD
ENDBRANCH  12  15
ENDBRANCH  11  12
BRANCH   2  17
HETATM   17  O1  UNL     1     -11.571  17.655 -15.042  1.00  0.00    -0.390 OA
ATOM     18  H1  UNL     1     -11.562  18.604 -15.002  1.00  0.00     0.210 HD
ENDBRANCH   2  17
BRANCH  10  19
HETATM   19  O3  UNL     1     -14.332  17.441 -18.707  1.00  0.00    -0.392 OA
ATOM     20  H3  UNL     1     -14.352  18.382 -18.837  1.00  0.00     0.210 HD
ENDBRANCH  10  19
TORSDOF 5
ENDMDL
