MODEL 1
REMARK VINA RESULT: -6.391628876      0.000      0.000
REMARK  3 active torsions:
REMARK  status: ('A' for Active; 'I' for Inactive)
REMARK    1  A    between atoms: C2_2  and  C3_3 
REMARK    2  A    between atoms: C3_3  and  N1_4 
REMARK       I    between atoms: N1_4  and  C4_6 
REMARK       I    between atoms: C4_6  and  N2_8 
REMARK    3  A    between atoms: N2_8  and  C6_10 
ROOT
HETATM    1  C6  UNL     1      -5.003   4.769  13.636  1.00  0.00     0.056 A 
HETATM    2  C7  UNL     1      -5.795   4.877  14.789  1.00  0.00     0.055 A 
HETATM    3  C8  UNL     1      -6.090   3.768  15.535  1.00  0.00     0.009 A 
HETATM    4  C9  UNL     1      -6.918   3.906  16.747  1.00  0.00     0.068 C 
HETATM    5  N3  UNL     1      -5.634   2.563  15.187  1.00  0.00    -0.344 N 
ATOM      6  H3  UNL     1      -5.868   1.753  15.760  1.00  0.00     0.167 HD
HETATM    7  C10 UNL     1      -4.866   2.399  14.083  1.00  0.00     0.136 A 
HETATM    8  C11 UNL     1      -4.549   3.517  13.304  1.00  0.00     0.060 A 
HETATM    9  C12 UNL     1      -3.772   3.040  12.279  1.00  0.00     0.038 A 
HETATM   10  C13 UNL     1      -3.170   3.825  11.187  1.00  0.00     0.071 C 
HETATM   11  N4  UNL     1      -3.661   1.695  12.483  1.00  0.00    -0.301 N 
ATOM     12  H4  UNL     1      -3.135   1.069  11.874  1.00  0.00     0.187 HD
HETATM   13  N5  UNL     1      -4.299   1.306  13.540  1.00  0.00    -0.280 N 
HETATM   14  C14 UNL     1      -4.433  -0.040  14.109  1.00  0.00     0.179 C 
ENDROOT
BRANCH   1  15
HETATM   15  N2  UNL     1      -4.716   5.927  12.881  1.00  0.00    -0.303 N 
HETATM   16  C4  UNL     1      -3.559   6.733  13.092  1.00  0.00     0.322 C 
HETATM   17  N1  UNL     1      -2.617   6.408  14.123  1.00  0.00    -0.343 N 
HETATM   18  O1  UNL     1      -3.399   7.730  12.347  1.00  0.00    -0.247 OA
ATOM     19  H1  UNL     1      -2.759   5.590  14.717  1.00  0.00     0.164 HD
HETATM   20  C5  UNL     1      -5.616   6.302  11.824  1.00  0.00     0.161 C 
BRANCH  17  21
HETATM   21  C3  UNL     1      -1.471   7.253  14.304  1.00  0.00     0.124 C 
BRANCH  21  22
HETATM   22  C2  UNL     1      -1.738   8.357  15.277  1.00  0.00     0.015 C 
HETATM   23  C1  UNL     1      -0.631   9.402  15.270  1.00  0.00     0.006 C 
ENDBRANCH  21  22
ENDBRANCH  17  21
ENDBRANCH   1  15
TORSDOF 3
ENDMDL
MODEL 2
REMARK VINA RESULT: -6.104035320      2.091      4.252
REMARK  3 active torsions:
REMARK  status: ('A' for Active; 'I' for Inactive)
REMARK    1  A    between atoms: C2_2  and  C3_3 
REMARK    2  A    between atoms: C3_3  and  N1_4 
REMARK       I    between atoms: N1_4  and  C4_6 
REMARK       I    between atoms: C4_6  and  N2_8 
REMARK    3  A    between atoms: N2_8  and  C6_10 
ROOT
HETATM    1  C6  UNL     1      -3.588   5.040  11.973  1.00  0.00     0.056 A 
HETATM    2  C7  UNL     1      -3.187   6.173  12.699  1.00  0.00     0.055 A 
HETATM    3  C8  UNL     1      -3.259   6.182  14.066  1.00  0.00     0.009 A 
HETATM    4  C9  UNL     1      -2.826   7.380  14.808  1.00  0.00     0.068 C 
HETATM    5  N3  UNL     1      -3.711   5.122  14.738  1.00  0.00    -0.344 N 
ATOM      6  H3  UNL     1      -3.754   5.155  15.757  1.00  0.00     0.167 HD
HETATM    7  C10 UNL     1      -4.113   4.002  14.091  1.00  0.00     0.136 A 
HETATM    8  C11 UNL     1      -4.048   3.966  12.693  1.00  0.00     0.060 A 
HETATM    9  C12 UNL     1      -4.510   2.725  12.338  1.00  0.00     0.038 A 
HETATM   10  C13 UNL     1      -4.631   2.184  10.972  1.00  0.00     0.071 C 
HETATM   11  N4  UNL     1      -4.823   2.089  13.505  1.00  0.00    -0.301 N 
ATOM     12  H4  UNL     1      -5.195   1.141  13.554  1.00  0.00     0.187 HD
HETATM   13  N5  UNL     1      -4.595   2.830  14.541  1.00  0.00    -0.280 N 
HETATM   14  C14 UNL     1      -4.792   2.533  15.966  1.00  0.00     0.179 C 
ENDROOT
BRANCH   1  15
HETATM   15  N2  UNL     1      -3.508   5.056  10.564  1.00  0.00    -0.303 N 
HETATM   16  C4  UNL     1      -4.530   5.592   9.727  1.00  0.00     0.322 C 
HETATM   17  N1  UNL     1      -5.731   6.136  10.293  1.00  0.00    -0.343 N 
HETATM   18  O1  UNL     1      -4.342   5.569   8.487  1.00  0.00    -0.247 OA
ATOM     19  H1  UNL     1      -5.868   6.152  11.304  1.00  0.00     0.164 HD
HETATM   20  C5  UNL     1      -2.325   4.535   9.934  1.00  0.00     0.161 C 
BRANCH  17  21
HETATM   21  C3  UNL     1      -6.736   6.657   9.411  1.00  0.00     0.124 C 
BRANCH  21  22
HETATM   22  C2  UNL     1      -7.483   7.797  10.026  1.00  0.00     0.015 C 
HETATM   23  C1  UNL     1      -7.431   7.759  11.547  1.00  0.00     0.006 C 
ENDBRANCH  21  22
ENDBRANCH  17  21
ENDBRANCH   1  15
TORSDOF 3
ENDMDL
MODEL 3
REMARK VINA RESULT: -6.096445435      2.197      4.322
REMARK  3 active torsions:
REMARK  status: ('A' for Active; 'I' for Inactive)
REMARK    1  A    between atoms: C2_2  and  C3_3 
REMARK    2  A    between atoms: C3_3  and  N1_4 
REMARK       I    between atoms: N1_4  and  C4_6 
REMARK       I    between atoms: C4_6  and  N2_8 
REMARK    3  A    between atoms: N2_8  and  C6_10 
ROOT
HETATM    1  C6  UNL     1      -3.950   4.081  11.372  1.00  0.00     0.056 A 
HETATM    2  C7  UNL     1      -4.306   2.851  10.797  1.00  0.00     0.055 A 
HETATM    3  C8  UNL     1      -4.678   1.797  11.587  1.00  0.00     0.009 A 
HETATM    4  C9  UNL     1      -5.054   0.516  10.961  1.00  0.00     0.068 C 
HETATM    5  N3  UNL     1      -4.711   1.911  12.916  1.00  0.00    -0.344 N 
ATOM      6  H3  UNL     1      -4.992   1.110  13.482  1.00  0.00     0.167 HD
HETATM    7  C10 UNL     1      -4.377   3.074  13.526  1.00  0.00     0.136 A 
HETATM    8  C11 UNL     1      -3.994   4.167  12.741  1.00  0.00     0.060 A 
HETATM    9  C12 UNL     1      -3.726   5.178  13.628  1.00  0.00     0.038 A 
HETATM   10  C13 UNL     1      -3.292   6.548  13.302  1.00  0.00     0.071 C 
HETATM   11  N4  UNL     1      -3.952   4.661  14.871  1.00  0.00    -0.301 N 
ATOM     12  H4  UNL     1      -3.834   5.187  15.736  1.00  0.00     0.187 HD
HETATM   13  N5  UNL     1      -4.335   3.425  14.824  1.00  0.00    -0.280 N 
HETATM   14  C14 UNL     1      -4.679   2.510  15.919  1.00  0.00     0.179 C 
ENDROOT
BRANCH   1  15
HETATM   15  N2  UNL     1      -3.566   5.151  10.536  1.00  0.00    -0.303 N 
HETATM   16  C4  UNL     1      -4.476   6.142  10.065  1.00  0.00     0.322 C 
HETATM   17  N1  UNL     1      -5.867   6.084  10.410  1.00  0.00    -0.343 N 
HETATM   18  O1  UNL     1      -4.018   7.059   9.341  1.00  0.00    -0.247 OA
ATOM     19  H1  UNL     1      -6.224   5.335  11.003  1.00  0.00     0.164 HD
HETATM   20  C5  UNL     1      -2.182   5.273  10.162  1.00  0.00     0.161 C 
BRANCH  17  21
HETATM   21  C3  UNL     1      -6.747   7.099   9.905  1.00  0.00     0.124 C 
BRANCH  21  22
HETATM   22  C2  UNL     1      -6.956   8.201  10.893  1.00  0.00     0.015 C 
HETATM   23  C1  UNL     1      -6.334   9.510  10.426  1.00  0.00     0.006 C 
ENDBRANCH  21  22
ENDBRANCH  17  21
ENDBRANCH   1  15
TORSDOF 3
ENDMDL
MODEL 4
REMARK VINA RESULT: -6.077707484      1.248      3.021
REMARK  3 active torsions:
REMARK  status: ('A' for Active; 'I' for Inactive)
REMARK    1  A    between atoms: C2_2  and  C3_3 
REMARK    2  A    between atoms: C3_3  and  N1_4 
REMARK       I    between atoms: N1_4  and  C4_6 
REMARK       I    between atoms: C4_6  and  N2_8 
REMARK    3  A    between atoms: N2_8  and  C6_10 
ROOT
HETATM    1  C6  UNL     1      -4.249   4.994  13.813  1.00  0.00     0.056 A 
HETATM    2  C7  UNL     1      -5.214   5.008  14.832  1.00  0.00     0.055 A 
HETATM    3  C8  UNL     1      -5.791   3.843  15.259  1.00  0.00     0.009 A 
HETATM    4  C9  UNL     1      -6.798   3.881  16.335  1.00  0.00     0.068 C 
HETATM    5  N3  UNL     1      -5.452   2.670  14.720  1.00  0.00    -0.344 N 
ATOM      6  H3  UNL     1      -5.896   1.815  15.057  1.00  0.00     0.167 HD
HETATM    7  C10 UNL     1      -4.526   2.595  13.734  1.00  0.00     0.136 A 
HETATM    8  C11 UNL     1      -3.921   3.772  13.280  1.00  0.00     0.060 A 
HETATM    9  C12 UNL     1      -3.045   3.379  12.301  1.00  0.00     0.038 A 
HETATM   10  C13 UNL     1      -2.152   4.247  11.513  1.00  0.00     0.071 C 
HETATM   11  N4  UNL     1      -3.161   2.021  12.212  1.00  0.00    -0.301 N 
ATOM     12  H4  UNL     1      -2.626   1.446  11.562  1.00  0.00     0.187 HD
HETATM   13  N5  UNL     1      -4.028   1.549  13.049  1.00  0.00    -0.280 N 
HETATM   14  C14 UNL     1      -4.449   0.162  13.276  1.00  0.00     0.179 C 
ENDROOT
BRANCH   1  15
HETATM   15  N2  UNL     1      -3.672   6.210  13.387  1.00  0.00    -0.303 N 
HETATM   16  C4  UNL     1      -4.118   6.928  12.240  1.00  0.00     0.322 C 
HETATM   17  N1  UNL     1      -5.189   6.425  11.430  1.00  0.00    -0.343 N 
HETATM   18  O1  UNL     1      -3.542   8.009  11.967  1.00  0.00    -0.247 OA
ATOM     19  H1  UNL     1      -5.652   5.547  11.667  1.00  0.00     0.164 HD
HETATM   20  C5  UNL     1      -2.600   6.774  14.162  1.00  0.00     0.161 C 
BRANCH  17  21
HETATM   21  C3  UNL     1      -5.599   7.179  10.279  1.00  0.00     0.124 C 
BRANCH  21  22
HETATM   22  C2  UNL     1      -6.708   8.130  10.599  1.00  0.00     0.015 C 
HETATM   23  C1  UNL     1      -7.641   7.579  11.668  1.00  0.00     0.006 C 
ENDBRANCH  21  22
ENDBRANCH  17  21
ENDBRANCH   1  15
TORSDOF 3
ENDMDL
MODEL 5
REMARK VINA RESULT: -5.904522815      2.390      3.792
REMARK  3 active torsions:
REMARK  status: ('A' for Active; 'I' for Inactive)
REMARK    1  A    between atoms: C2_2  and  C3_3 
REMARK    2  A    between atoms: C3_3  and  N1_4 
REMARK       I    between atoms: N1_4  and  C4_6 
REMARK       I    between atoms: C4_6  and  N2_8 
REMARK    3  A    between atoms: N2_8  and  C6_10 
ROOT
HETATM    1  C6  UNL     1      -4.168   3.750  11.998  1.00  0.00     0.056 A 
HETATM    2  C7  UNL     1      -4.437   2.705  11.100  1.00  0.00     0.055 A 
HETATM    3  C8  UNL     1      -4.771   1.461  11.564  1.00  0.00     0.009 A 
HETATM    4  C9  UNL     1      -5.056   0.379  10.603  1.00  0.00     0.068 C 
HETATM    5  N3  UNL     1      -4.849   1.212  12.872  1.00  0.00    -0.344 N 
ATOM      6  H3  UNL     1      -5.101   0.276  13.191  1.00  0.00     0.167 HD
HETATM    7  C10 UNL     1      -4.600   2.182  13.784  1.00  0.00     0.136 A 
HETATM    8  C11 UNL     1      -4.256   3.463  13.337  1.00  0.00     0.060 A 
HETATM    9  C12 UNL     1      -4.072   4.209  14.472  1.00  0.00     0.038 A 
HETATM   10  C13 UNL     1      -3.707   5.636  14.543  1.00  0.00     0.071 C 
HETATM   11  N4  UNL     1      -4.305   3.367  15.521  1.00  0.00    -0.301 N 
ATOM     12  H4  UNL     1      -4.241   3.646  16.500  1.00  0.00     0.187 HD
HETATM   13  N5  UNL     1      -4.615   2.173  15.130  1.00  0.00    -0.280 N 
HETATM   14  C14 UNL     1      -4.937   0.982  15.925  1.00  0.00     0.179 C 
ENDROOT
BRANCH   1  15
HETATM   15  N2  UNL     1      -3.822   5.023  11.495  1.00  0.00    -0.303 N 
HETATM   16  C4  UNL     1      -2.474   5.459  11.330  1.00  0.00     0.322 C 
HETATM   17  N1  UNL     1      -1.378   4.610  11.697  1.00  0.00    -0.343 N 
HETATM   18  O1  UNL     1      -2.286   6.606  10.857  1.00  0.00    -0.247 OA
ATOM     19  H1  UNL     1      -1.547   3.678  12.076  1.00  0.00     0.164 HD
HETATM   20  C5  UNL     1      -4.874   5.919  11.099  1.00  0.00     0.161 C 
BRANCH  17  21
HETATM   21  C3  UNL     1      -0.039   5.095  11.521  1.00  0.00     0.124 C 
BRANCH  21  22
HETATM   22  C2  UNL     1       0.832   4.095  10.830  1.00  0.00     0.015 C 
HETATM   23  C1  UNL     1       2.307   4.465  10.921  1.00  0.00     0.006 C 
ENDBRANCH  21  22
ENDBRANCH  17  21
ENDBRANCH   1  15
TORSDOF 3
ENDMDL
