MODEL 1
REMARK VINA RESULT: -8.001312796      0.000      0.000
REMARK  5 active torsions:
REMARK  status: ('A' for Active; 'I' for Inactive)
REMARK    1  A    between atoms: C1_2  and  C2_3 
REMARK       I    between atoms: C1_2  and  N4_19 
REMARK    2  A    between atoms: C2_3  and  S1_4 
REMARK    3  A    between atoms: S1_4  and  C3_5 
REMARK    4  A    between atoms: C4_8  and  C5_9 
REMARK    5  A    between atoms: N4_19  and  C11_21 
ROOT
HETATM    1  C3  UNL     1      -5.210   6.286  11.593  1.00  0.00     0.160 A 
HETATM    2  N1  UNL     1      -6.281   7.118  11.435  1.00  0.00    -0.324 N 
ATOM      3  H1  UNL     1      -6.843   7.506  12.193  1.00  0.00     0.169 HD
HETATM    4  C4  UNL     1      -6.477   7.342  10.136  1.00  0.00     0.102 A 
HETATM    5  N2  UNL     1      -5.528   6.647   9.490  1.00  0.00    -0.287 N 
ATOM      6  H2  UNL     1      -5.415   6.616   8.476  1.00  0.00     0.188 HD
HETATM    7  N3  UNL     1      -4.755   6.004  10.362  1.00  0.00    -0.278 N 
ATOM      8  H3  UNL     1      -3.960   5.404  10.135  1.00  0.00     0.189 HD
ENDROOT
BRANCH   1   9
HETATM    9  S1  UNL     1      -4.481   5.658  13.091  1.00  0.00    -0.083 SA
BRANCH   9  10
HETATM   10  C2  UNL     1      -4.307   3.856  13.032  1.00  0.00     0.185 C 
BRANCH  10  11
HETATM   11  C1  UNL     1      -4.174   3.359  14.418  1.00  0.00     0.228 C 
HETATM   12  O1  UNL     1      -3.061   3.396  15.018  1.00  0.00    -0.273 OA
HETATM   13  N4  UNL     1      -5.291   2.838  15.085  1.00  0.00    -0.347 N 
ATOM     14  H4  UNL     1      -6.182   2.811  14.589  1.00  0.00     0.163 HD
BRANCH  13  15
HETATM   15  C11 UNL     1      -5.249   2.329  16.457  1.00  0.00     0.186 C 
HETATM   16  C12 UNL     1      -6.629   2.380  17.061  1.00  0.00     0.062 C 
HETATM   17  C13 UNL     1      -7.146   0.949  17.096  1.00  0.00     0.181 C 
HETATM   18  O2  UNL     1      -6.238   0.205  16.272  1.00  0.00    -0.320 OA
HETATM   19  C14 UNL     1      -4.994   0.853  16.355  1.00  0.00     0.281 C 
HETATM   20  O3  UNL     1      -3.870   0.327  16.347  1.00  0.00    -0.263 OA
ENDBRANCH  13  15
ENDBRANCH  10  11
ENDBRANCH   9  10
ENDBRANCH   1   9
BRANCH   4  21
HETATM   21  C5  UNL     1      -7.488   8.179   9.441  1.00  0.00     0.055 C 
HETATM   22  C6  UNL     1      -8.158   7.351   8.360  1.00  0.00     0.012 C 
HETATM   23  C7  UNL     1      -9.384   8.069   7.846  1.00  0.00     0.001 C 
HETATM   24  C8  UNL     1      -9.180   9.567   7.825  1.00  0.00     0.000 C 
HETATM   25  C9  UNL     1      -7.723   9.944   7.757  1.00  0.00     0.001 C 
HETATM   26  C10 UNL     1      -6.859   9.369   8.814  1.00  0.00     0.012 C 
ENDBRANCH   4  21
TORSDOF 5
ENDMDL
MODEL 2
REMARK VINA RESULT: -7.967480759      4.725      6.788
REMARK  5 active torsions:
REMARK  status: ('A' for Active; 'I' for Inactive)
REMARK    1  A    between atoms: C1_2  and  C2_3 
REMARK       I    between atoms: C1_2  and  N4_19 
REMARK    2  A    between atoms: C2_3  and  S1_4 
REMARK    3  A    between atoms: S1_4  and  C3_5 
REMARK    4  A    between atoms: C4_8  and  C5_9 
REMARK    5  A    between atoms: N4_19  and  C11_21 
ROOT
HETATM    1  C3  UNL     1      -1.652   4.797  12.355  1.00  0.00     0.160 A 
HETATM    2  N1  UNL     1      -0.803   5.457  11.514  1.00  0.00    -0.324 N 
ATOM      3  H1  UNL     1      -0.949   6.398  11.149  1.00  0.00     0.169 HD
HETATM    4  C4  UNL     1       0.245   4.678  11.245  1.00  0.00     0.102 A 
HETATM    5  N2  UNL     1       0.044   3.535  11.919  1.00  0.00    -0.287 N 
ATOM      6  H2  UNL     1       0.677   2.735  11.914  1.00  0.00     0.188 HD
HETATM    7  N3  UNL     1      -1.102   3.595  12.594  1.00  0.00    -0.278 N 
ATOM      8  H3  UNL     1      -1.492   2.860  13.186  1.00  0.00     0.189 HD
ENDROOT
BRANCH   1   9
HETATM    9  S1  UNL     1      -3.195   5.342  13.057  1.00  0.00    -0.083 SA
BRANCH   9  10
HETATM   10  C2  UNL     1      -4.365   3.968  13.219  1.00  0.00     0.185 C 
BRANCH  10  11
HETATM   11  C1  UNL     1      -4.181   3.361  14.554  1.00  0.00     0.228 C 
HETATM   12  O1  UNL     1      -3.031   3.269  15.074  1.00  0.00    -0.273 OA
HETATM   13  N4  UNL     1      -5.290   2.877  15.262  1.00  0.00    -0.347 N 
ATOM     14  H4  UNL     1      -6.211   2.955  14.830  1.00  0.00     0.163 HD
BRANCH  13  15
HETATM   15  C11 UNL     1      -5.198   2.265  16.588  1.00  0.00     0.186 C 
HETATM   16  C12 UNL     1      -6.544   2.314  17.265  1.00  0.00     0.062 C 
HETATM   17  C13 UNL     1      -7.110   0.902  17.221  1.00  0.00     0.181 C 
HETATM   18  O2  UNL     1      -6.269   0.193  16.298  1.00  0.00    -0.320 OA
HETATM   19  C14 UNL     1      -5.001   0.794  16.365  1.00  0.00     0.281 C 
HETATM   20  O3  UNL     1      -3.897   0.235  16.260  1.00  0.00    -0.263 OA
ENDBRANCH  13  15
ENDBRANCH  10  11
ENDBRANCH   9  10
ENDBRANCH   1   9
BRANCH   4  21
HETATM   21  C5  UNL     1       1.446   4.928  10.408  1.00  0.00     0.055 C 
HETATM   22  C6  UNL     1       1.792   3.661   9.648  1.00  0.00     0.012 C 
HETATM   23  C7  UNL     1       2.809   3.966   8.573  1.00  0.00     0.001 C 
HETATM   24  C8  UNL     1       3.782   5.034   9.018  1.00  0.00     0.000 C 
HETATM   25  C9  UNL     1       3.887   5.122  10.519  1.00  0.00     0.001 C 
HETATM   26  C10 UNL     1       2.610   5.321  11.243  1.00  0.00     0.012 C 
ENDBRANCH   4  21
TORSDOF 5
ENDMDL
MODEL 3
REMARK VINA RESULT: -7.783880771      3.290      8.744
REMARK  5 active torsions:
REMARK  status: ('A' for Active; 'I' for Inactive)
REMARK    1  A    between atoms: C1_2  and  C2_3 
REMARK       I    between atoms: C1_2  and  N4_19 
REMARK    2  A    between atoms: C2_3  and  S1_4 
REMARK    3  A    between atoms: S1_4  and  C3_5 
REMARK    4  A    between atoms: C4_8  and  C5_9 
REMARK    5  A    between atoms: N4_19  and  C11_21 
ROOT
HETATM    1  C3  UNL     1      -4.250   2.600  12.394  1.00  0.00     0.160 A 
HETATM    2  N1  UNL     1      -4.750   3.112  13.556  1.00  0.00    -0.324 N 
ATOM      3  H1  UNL     1      -5.069   4.072  13.689  1.00  0.00     0.169 HD
HETATM    4  C4  UNL     1      -4.755   2.161  14.491  1.00  0.00     0.102 A 
HETATM    5  N2  UNL     1      -4.257   1.061  13.906  1.00  0.00    -0.287 N 
ATOM      6  H2  UNL     1      -4.133   0.160  14.367  1.00  0.00     0.188 HD
HETATM    7  N3  UNL     1      -3.947   1.315  12.637  1.00  0.00    -0.278 N 
ATOM      8  H3  UNL     1      -3.550   0.652  11.969  1.00  0.00     0.189 HD
ENDROOT
BRANCH   1   9
HETATM    9  S1  UNL     1      -4.019   3.396  10.818  1.00  0.00    -0.083 SA
BRANCH   9  10
HETATM   10  C2  UNL     1      -3.722   5.172  11.016  1.00  0.00     0.185 C 
BRANCH  10  11
HETATM   11  C1  UNL     1      -5.031   5.848  11.133  1.00  0.00     0.228 C 
HETATM   12  O1  UNL     1      -5.641   5.897  12.241  1.00  0.00    -0.273 OA
HETATM   13  N4  UNL     1      -5.615   6.446  10.007  1.00  0.00    -0.347 N 
ATOM     14  H4  UNL     1      -5.114   6.397   9.120  1.00  0.00     0.163 HD
BRANCH  13  15
HETATM   15  C11 UNL     1      -6.904   7.137  10.036  1.00  0.00     0.186 C 
HETATM   16  C12 UNL     1      -6.694   8.591  10.372  1.00  0.00     0.062 C 
HETATM   17  C13 UNL     1      -6.889   9.373   9.081  1.00  0.00     0.181 C 
HETATM   18  O2  UNL     1      -6.890   8.382   8.043  1.00  0.00    -0.320 OA
HETATM   19  C14 UNL     1      -7.385   7.199   8.615  1.00  0.00     0.281 C 
HETATM   20  O3  UNL     1      -8.095   6.339   8.069  1.00  0.00    -0.263 OA
ENDBRANCH  13  15
ENDBRANCH  10  11
ENDBRANCH   9  10
ENDBRANCH   1   9
BRANCH   4  21
HETATM   21  C5  UNL     1      -5.212   2.197  15.903  1.00  0.00     0.055 C 
HETATM   22  C6  UNL     1      -5.617   0.797  16.327  1.00  0.00     0.012 C 
HETATM   23  C7  UNL     1      -5.794   0.743  17.827  1.00  0.00     0.001 C 
HETATM   24  C8  UNL     1      -6.361   2.037  18.364  1.00  0.00     0.000 C 
HETATM   25  C9  UNL     1      -7.120   2.807  17.315  1.00  0.00     0.001 C 
HETATM   26  C10 UNL     1      -6.376   3.104  16.069  1.00  0.00     0.012 C 
ENDBRANCH   4  21
TORSDOF 5
ENDMDL
MODEL 4
REMARK VINA RESULT: -7.770727394      4.255      5.163
REMARK  5 active torsions:
REMARK  status: ('A' for Active; 'I' for Inactive)
REMARK    1  A    between atoms: C1_2  and  C2_3 
REMARK       I    between atoms: C1_2  and  N4_19 
REMARK    2  A    between atoms: C2_3  and  S1_4 
REMARK    3  A    between atoms: S1_4  and  C3_5 
REMARK    4  A    between atoms: C4_8  and  C5_9 
REMARK    5  A    between atoms: N4_19  and  C11_21 
ROOT
HETATM    1  C3  UNL     1      -3.134   4.778  11.683  1.00  0.00     0.160 A 
HETATM    2  N1  UNL     1      -3.203   5.959  12.365  1.00  0.00    -0.324 N 
ATOM      3  H1  UNL     1      -4.061   6.472  12.570  1.00  0.00     0.169 HD
HETATM    4  C4  UNL     1      -1.975   6.335  12.722  1.00  0.00     0.102 A 
HETATM    5  N2  UNL     1      -1.145   5.388  12.258  1.00  0.00    -0.287 N 
ATOM      6  H2  UNL     1      -0.131   5.393  12.372  1.00  0.00     0.188 HD
HETATM    7  N3  UNL     1      -1.835   4.440  11.627  1.00  0.00    -0.278 N 
ATOM      8  H3  UNL     1      -1.447   3.608  11.182  1.00  0.00     0.189 HD
ENDROOT
BRANCH   1   9
HETATM    9  S1  UNL     1      -4.446   3.802  10.981  1.00  0.00    -0.083 SA
BRANCH   9  10
HETATM   10  C2  UNL     1      -4.573   2.188  11.795  1.00  0.00     0.185 C 
BRANCH  10  11
HETATM   11  C1  UNL     1      -4.372   2.387  13.246  1.00  0.00     0.228 C 
HETATM   12  O1  UNL     1      -3.283   2.849  13.694  1.00  0.00    -0.273 OA
HETATM   13  N4  UNL     1      -5.397   2.061  14.146  1.00  0.00    -0.347 N 
ATOM     14  H4  UNL     1      -6.268   1.687  13.771  1.00  0.00     0.163 HD
BRANCH  13  15
HETATM   15  C11 UNL     1      -5.283   2.229  15.595  1.00  0.00     0.186 C 
HETATM   16  C12 UNL     1      -6.650   2.452  16.190  1.00  0.00     0.062 C 
HETATM   17  C13 UNL     1      -7.040   1.159  16.891  1.00  0.00     0.181 C 
HETATM   18  O2  UNL     1      -6.087   0.187  16.436  1.00  0.00    -0.320 OA
HETATM   19  C14 UNL     1      -4.903   0.887  16.150  1.00  0.00     0.281 C 
HETATM   20  O3  UNL     1      -3.737   0.492  16.314  1.00  0.00    -0.263 OA
ENDBRANCH  13  15
ENDBRANCH  10  11
ENDBRANCH   9  10
ENDBRANCH   1   9
BRANCH   4  21
HETATM   21  C5  UNL     1      -1.511   7.521  13.487  1.00  0.00     0.055 C 
HETATM   22  C6  UNL     1      -2.294   7.610  14.784  1.00  0.00     0.012 C 
HETATM   23  C7  UNL     1      -1.646   8.612  15.710  1.00  0.00     0.001 C 
HETATM   24  C8  UNL     1      -1.055   9.773  14.943  1.00  0.00     0.000 C 
HETATM   25  C9  UNL     1      -1.709   9.961  13.598  1.00  0.00     0.001 C 
HETATM   26  C10 UNL     1      -1.718   8.772  12.715  1.00  0.00     0.012 C 
ENDBRANCH   4  21
TORSDOF 5
ENDMDL
MODEL 5
REMARK VINA RESULT: -7.730560062      3.229      8.511
REMARK  5 active torsions:
REMARK  status: ('A' for Active; 'I' for Inactive)
REMARK    1  A    between atoms: C1_2  and  C2_3 
REMARK       I    between atoms: C1_2  and  N4_19 
REMARK    2  A    between atoms: C2_3  and  S1_4 
REMARK    3  A    between atoms: S1_4  and  C3_5 
REMARK    4  A    between atoms: C4_8  and  C5_9 
REMARK    5  A    between atoms: N4_19  and  C11_21 
ROOT
HETATM    1  C3  UNL     1      -2.915   4.378  13.525  1.00  0.00     0.160 A 
HETATM    2  N1  UNL     1      -4.144   3.817  13.718  1.00  0.00    -0.324 N 
ATOM      3  H1  UNL     1      -4.950   3.936  13.105  1.00  0.00     0.169 HD
HETATM    4  C4  UNL     1      -4.126   3.090  14.836  1.00  0.00     0.102 A 
HETATM    5  N2  UNL     1      -2.885   3.203  15.334  1.00  0.00    -0.287 N 
ATOM      6  H2  UNL     1      -2.557   2.757  16.191  1.00  0.00     0.188 HD
HETATM    7  N3  UNL     1      -2.143   3.981  14.549  1.00  0.00    -0.278 N 
ATOM      8  H3  UNL     1      -1.165   4.230  14.699  1.00  0.00     0.189 HD
ENDROOT
BRANCH   1   9
HETATM    9  S1  UNL     1      -2.351   5.430  12.204  1.00  0.00    -0.083 SA
BRANCH   9  10
HETATM   10  C2  UNL     1      -2.928   4.832  10.594  1.00  0.00     0.185 C 
BRANCH  10  11
HETATM   11  C1  UNL     1      -4.384   5.073  10.509  1.00  0.00     0.228 C 
HETATM   12  O1  UNL     1      -5.212   4.144  10.740  1.00  0.00    -0.273 OA
HETATM   13  N4  UNL     1      -4.864   6.345  10.166  1.00  0.00    -0.347 N 
ATOM     14  H4  UNL     1      -4.186   7.083   9.980  1.00  0.00     0.163 HD
BRANCH  13  15
HETATM   15  C11 UNL     1      -6.287   6.670  10.062  1.00  0.00     0.186 C 
HETATM   16  C12 UNL     1      -6.583   7.919  10.852  1.00  0.00     0.062 C 
HETATM   17  C13 UNL     1      -6.782   9.041   9.843  1.00  0.00     0.181 C 
HETATM   18  O2  UNL     1      -6.311   8.508   8.596  1.00  0.00    -0.320 OA
HETATM   19  C14 UNL     1      -6.518   7.119   8.648  1.00  0.00     0.281 C 
HETATM   20  O3  UNL     1      -6.835   6.370   7.709  1.00  0.00    -0.263 OA
ENDBRANCH  13  15
ENDBRANCH  10  11
ENDBRANCH   9  10
ENDBRANCH   1   9
BRANCH   4  21
HETATM   21  C5  UNL     1      -5.189   2.273  15.475  1.00  0.00     0.055 C 
HETATM   22  C6  UNL     1      -6.132   3.191  16.229  1.00  0.00     0.012 C 
HETATM   23  C7  UNL     1      -7.377   2.435  16.631  1.00  0.00     0.001 C 
HETATM   24  C8  UNL     1      -7.063   0.997  16.978  1.00  0.00     0.000 C 
HETATM   25  C9  UNL     1      -5.627   0.810  17.392  1.00  0.00     0.001 C 
HETATM   26  C10 UNL     1      -4.610   1.291  16.427  1.00  0.00     0.012 C 
ENDBRANCH   4  21
TORSDOF 5
ENDMDL
