MODEL 1
REMARK VINA RESULT: -3.548462284      0.000      0.000
REMARK  0 active torsions:
REMARK  status: ('A' for Active; 'I' for Inactive)
ROOT
HETATM    1  C1  UNL     1      17.842  -1.801  11.373  1.00  0.00     0.041 C 
HETATM    2  C2  UNL     1      17.651  -0.314  11.498  1.00  0.00     0.080 C 
HETATM    3  S1  UNL     1      19.128   0.635  11.208  1.00  0.00    -0.074 SA
HETATM    4  C3  UNL     1      16.965   0.017  12.810  1.00  0.00     0.050 C 
HETATM    5  C4  UNL     1      16.591   1.489  12.598  1.00  0.00     0.125 C 
HETATM    6  N1  UNL     1      15.611   1.471  11.531  1.00  0.00    -0.178 NA
HETATM    7  S2  UNL     1      16.323   0.288  10.393  1.00  0.00    -0.044 SA
ENDROOT
TORSDOF 0
ENDMDL
MODEL 2
REMARK VINA RESULT: -3.370552452      2.025      2.823
REMARK  0 active torsions:
REMARK  status: ('A' for Active; 'I' for Inactive)
ROOT
HETATM    1  C1  UNL     1      16.811   3.074  10.807  1.00  0.00     0.041 C 
HETATM    2  C2  UNL     1      17.343   1.861  11.520  1.00  0.00     0.080 C 
HETATM    3  S1  UNL     1      19.103   1.644  11.375  1.00  0.00    -0.074 SA
HETATM    4  C3  UNL     1      16.546   0.631  11.126  1.00  0.00     0.050 C 
HETATM    5  C4  UNL     1      17.021  -0.390  12.167  1.00  0.00     0.125 C 
HETATM    6  N1  UNL     1      16.532   0.118  13.432  1.00  0.00    -0.178 NA
HETATM    7  S2  UNL     1      16.881   1.867  13.291  1.00  0.00    -0.044 SA
ENDROOT
TORSDOF 0
ENDMDL
MODEL 3
REMARK VINA RESULT: -3.190321546      3.958      4.918
REMARK  0 active torsions:
REMARK  status: ('A' for Active; 'I' for Inactive)
ROOT
HETATM    1  C1  UNL     1      17.514   4.882  14.186  1.00  0.00     0.041 C 
HETATM    2  C2  UNL     1      16.506   3.798  14.455  1.00  0.00     0.080 C 
HETATM    3  S1  UNL     1      14.842   4.389  14.673  1.00  0.00    -0.074 SA
HETATM    4  C3  UNL     1      16.986   2.907  15.585  1.00  0.00     0.050 C 
HETATM    5  C4  UNL     1      16.010   1.728  15.484  1.00  0.00     0.125 C 
HETATM    6  N1  UNL     1      16.316   1.104  14.213  1.00  0.00    -0.178 NA
HETATM    7  S2  UNL     1      16.525   2.523  13.143  1.00  0.00    -0.044 SA
ENDROOT
TORSDOF 0
ENDMDL
MODEL 4
REMARK VINA RESULT: -3.052380232      2.813      3.286
REMARK  0 active torsions:
REMARK  status: ('A' for Active; 'I' for Inactive)
ROOT
HETATM    1  C1  UNL     1      20.169   2.581  11.810  1.00  0.00     0.041 C 
HETATM    2  C2  UNL     1      18.696   2.823  11.994  1.00  0.00     0.080 C 
HETATM    3  S1  UNL     1      18.275   3.615  13.531  1.00  0.00    -0.074 SA
HETATM    4  C3  UNL     1      17.919   1.545  11.738  1.00  0.00     0.050 C 
HETATM    5  C4  UNL     1      16.480   2.069  11.663  1.00  0.00     0.125 C 
HETATM    6  N1  UNL     1      16.450   2.899  10.476  1.00  0.00    -0.178 NA
HETATM    7  S2  UNL     1      17.996   3.791  10.607  1.00  0.00    -0.044 SA
ENDROOT
TORSDOF 0
ENDMDL
MODEL 5
REMARK VINA RESULT: -3.049619014      3.208      3.871
REMARK  0 active torsions:
REMARK  status: ('A' for Active; 'I' for Inactive)
ROOT
HETATM    1  C1  UNL     1      18.879   3.836  13.505  1.00  0.00     0.041 C 
HETATM    2  C2  UNL     1      17.646   3.273  12.854  1.00  0.00     0.080 C 
HETATM    3  S1  UNL     1      16.336   2.880  13.994  1.00  0.00    -0.074 SA
HETATM    4  C3  UNL     1      18.017   2.123  11.937  1.00  0.00     0.050 C 
HETATM    5  C4  UNL     1      16.711   1.915  11.160  1.00  0.00     0.125 C 
HETATM    6  N1  UNL     1      16.550   3.124  10.378  1.00  0.00    -0.178 NA
HETATM    7  S2  UNL     1      17.000   4.392  11.558  1.00  0.00    -0.044 SA
ENDROOT
TORSDOF 0
ENDMDL
