MODEL 1
REMARK VINA RESULT: -4.922389197      0.000      0.000
REMARK  0 active torsions:
REMARK  status: ('A' for Active; 'I' for Inactive)
ROOT
HETATM    1  C1  UNL     1      14.295   1.807  16.902  1.00  0.00     0.041 C 
HETATM    2  C2  UNL     1      15.041   2.878  16.147  1.00  0.00     0.136 C 
HETATM    3  O1  UNL     1      14.188   3.369  15.155  1.00  0.00    -0.368 OA
HETATM    4  C3  UNL     1      15.089   3.853  14.177  1.00  0.00     0.195 C 
HETATM    5  S1  UNL     1      16.102   5.102  14.965  1.00  0.00    -0.063 SA
HETATM    6  C4  UNL     1      15.903   2.563  13.990  1.00  0.00     0.065 C 
HETATM    7  C5  UNL     1      16.260   2.341  15.454  1.00  0.00     0.124 C 
HETATM    8  C6  UNL     1      16.551   0.963  15.759  1.00  0.00     0.066 C 
HETATM    9  N1  UNL     1      16.796  -0.140  16.010  1.00  0.00    -0.197 NA
ENDROOT
TORSDOF 0
ENDMDL
MODEL 2
REMARK VINA RESULT: -4.757007327      1.191      1.212
REMARK  0 active torsions:
REMARK  status: ('A' for Active; 'I' for Inactive)
ROOT
HETATM    1  C1  UNL     1      14.267   3.189  16.301  1.00  0.00     0.041 C 
HETATM    2  C2  UNL     1      15.447   3.517  15.420  1.00  0.00     0.136 C 
HETATM    3  O1  UNL     1      14.959   3.773  14.136  1.00  0.00    -0.368 OA
HETATM    4  C3  UNL     1      16.065   3.461  13.312  1.00  0.00     0.195 C 
HETATM    5  S1  UNL     1      17.415   4.524  13.814  1.00  0.00    -0.063 SA
HETATM    6  C4  UNL     1      16.307   2.033  13.824  1.00  0.00     0.065 C 
HETATM    7  C5  UNL     1      16.407   2.369  15.306  1.00  0.00     0.124 C 
HETATM    8  C6  UNL     1      16.092   1.250  16.159  1.00  0.00     0.066 C 
HETATM    9  N1  UNL     1      15.850   0.355  16.850  1.00  0.00    -0.197 NA
ENDROOT
TORSDOF 0
ENDMDL
MODEL 3
REMARK VINA RESULT: -4.736950554      2.572      3.208
REMARK  0 active torsions:
REMARK  status: ('A' for Active; 'I' for Inactive)
ROOT
HETATM    1  C1  UNL     1      16.597   0.106  15.379  1.00  0.00     0.041 C 
HETATM    2  C2  UNL     1      15.882   0.864  16.471  1.00  0.00     0.136 C 
HETATM    3  O1  UNL     1      14.553   0.431  16.485  1.00  0.00    -0.368 OA
HETATM    4  C3  UNL     1      13.868   1.540  17.034  1.00  0.00     0.195 C 
HETATM    5  S1  UNL     1      14.564   1.840  18.657  1.00  0.00    -0.063 SA
HETATM    6  C4  UNL     1      14.371   2.603  16.046  1.00  0.00     0.065 C 
HETATM    7  C5  UNL     1      15.862   2.343  16.217  1.00  0.00     0.124 C 
HETATM    8  C6  UNL     1      16.639   2.755  15.075  1.00  0.00     0.066 C 
HETATM    9  N1  UNL     1      17.272   3.093  14.167  1.00  0.00    -0.197 NA
ENDROOT
TORSDOF 0
ENDMDL
MODEL 4
REMARK VINA RESULT: -4.493192836      1.727      2.395
REMARK  0 active torsions:
REMARK  status: ('A' for Active; 'I' for Inactive)
ROOT
HETATM    1  C1  UNL     1      16.608   1.026  12.768  1.00  0.00     0.041 C 
HETATM    2  C2  UNL     1      16.047   2.238  13.470  1.00  0.00     0.136 C 
HETATM    3  O1  UNL     1      16.867   3.326  13.156  1.00  0.00    -0.368 OA
HETATM    4  C3  UNL     1      16.676   4.191  14.259  1.00  0.00     0.195 C 
HETATM    5  S1  UNL     1      14.929   4.579  14.329  1.00  0.00    -0.063 SA
HETATM    6  C4  UNL     1      17.033   3.191  15.370  1.00  0.00     0.065 C 
HETATM    7  C5  UNL     1      16.063   2.090  14.963  1.00  0.00     0.124 C 
HETATM    8  C6  UNL     1      16.472   0.785  15.421  1.00  0.00     0.066 C 
HETATM    9  N1  UNL     1      16.787  -0.265  15.792  1.00  0.00    -0.197 NA
ENDROOT
TORSDOF 0
ENDMDL
MODEL 5
REMARK VINA RESULT: -4.355215587      5.072      5.960
REMARK  0 active torsions:
REMARK  status: ('A' for Active; 'I' for Inactive)
ROOT
HETATM    1  C1  UNL     1      18.836   2.179  11.405  1.00  0.00     0.041 C 
HETATM    2  C2  UNL     1      18.403   0.734  11.422  1.00  0.00     0.136 C 
HETATM    3  O1  UNL     1      18.457   0.260  10.108  1.00  0.00    -0.368 OA
HETATM    4  C3  UNL     1      17.510  -0.791  10.115  1.00  0.00     0.195 C 
HETATM    5  S1  UNL     1      18.044  -1.974  11.350  1.00  0.00    -0.063 SA
HETATM    6  C4  UNL     1      16.313   0.012  10.646  1.00  0.00     0.065 C 
HETATM    7  C5  UNL     1      16.987   0.570  11.893  1.00  0.00     0.124 C 
HETATM    8  C6  UNL     1      16.377   1.790  12.362  1.00  0.00     0.066 C 
HETATM    9  N1  UNL     1      15.888   2.763  12.752  1.00  0.00    -0.197 NA
ENDROOT
TORSDOF 0
ENDMDL
