MODEL 1
REMARK VINA RESULT: -3.143874325      0.000      0.000
REMARK  0 active torsions:
REMARK  status: ('A' for Active; 'I' for Inactive)
ROOT
HETATM    1  S1  UNL     1      13.764   0.987  17.182  1.00  0.00    -0.080 SA
HETATM    2  C1  UNL     1      14.997   2.321  16.909  1.00  0.00     0.132 C 
HETATM    3  C2  UNL     1      14.360   3.350  16.088  1.00  0.00     0.038 C 
HETATM    4  C3  UNL     1      15.295   4.219  15.340  1.00  0.00     0.088 C 
HETATM    5  S2  UNL     1      16.605   3.197  14.618  1.00  0.00    -0.096 SA
HETATM    6  S3  UNL     1      16.335   1.536  15.970  1.00  0.00    -0.081 SA
ENDROOT
TORSDOF 0
ENDMDL
MODEL 2
REMARK VINA RESULT: -3.123206632      1.035      2.961
REMARK  0 active torsions:
REMARK  status: ('A' for Active; 'I' for Inactive)
ROOT
HETATM    1  S1  UNL     1      16.797   3.611  14.848  1.00  0.00    -0.080 SA
HETATM    2  C1  UNL     1      15.449   2.420  15.217  1.00  0.00     0.132 C 
HETATM    3  C2  UNL     1      14.584   3.030  16.227  1.00  0.00     0.038 C 
HETATM    4  C3  UNL     1      13.780   2.074  17.019  1.00  0.00     0.088 C 
HETATM    5  S2  UNL     1      14.819   0.664  17.480  1.00  0.00    -0.096 SA
HETATM    6  S3  UNL     1      16.282   0.974  15.924  1.00  0.00    -0.081 SA
ENDROOT
TORSDOF 0
ENDMDL
MODEL 3
REMARK VINA RESULT: -3.097300985      1.262      2.847
REMARK  0 active torsions:
REMARK  status: ('A' for Active; 'I' for Inactive)
ROOT
HETATM    1  S1  UNL     1      15.166   5.127  15.113  1.00  0.00    -0.080 SA
HETATM    2  C1  UNL     1      14.683   3.356  15.196  1.00  0.00     0.132 C 
HETATM    3  C2  UNL     1      14.283   3.072  16.574  1.00  0.00     0.038 C 
HETATM    4  C3  UNL     1      14.362   1.647  16.964  1.00  0.00     0.088 C 
HETATM    5  S2  UNL     1      15.904   0.942  16.328  1.00  0.00    -0.096 SA
HETATM    6  S3  UNL     1      16.195   2.439  14.800  1.00  0.00    -0.081 SA
ENDROOT
TORSDOF 0
ENDMDL
MODEL 4
REMARK VINA RESULT: -3.021586752      1.703      3.480
REMARK  0 active torsions:
REMARK  status: ('A' for Active; 'I' for Inactive)
ROOT
HETATM    1  S1  UNL     1      16.522   2.867  13.960  1.00  0.00    -0.080 SA
HETATM    2  C1  UNL     1      16.165   2.494  15.722  1.00  0.00     0.132 C 
HETATM    3  C2  UNL     1      16.166   1.039  15.875  1.00  0.00     0.038 C 
HETATM    4  C3  UNL     1      15.411   0.534  17.042  1.00  0.00     0.088 C 
HETATM    5  S2  UNL     1      13.844   1.435  17.170  1.00  0.00    -0.096 SA
HETATM    6  S3  UNL     1      14.493   3.133  16.007  1.00  0.00    -0.081 SA
ENDROOT
TORSDOF 0
ENDMDL
MODEL 5
REMARK VINA RESULT: -2.987318757      4.694      5.378
REMARK  0 active torsions:
REMARK  status: ('A' for Active; 'I' for Inactive)
ROOT
HETATM    1  S1  UNL     1      16.243   2.501  13.619  1.00  0.00    -0.080 SA
HETATM    2  C1  UNL     1      16.652   1.693  12.021  1.00  0.00     0.132 C 
HETATM    3  C2  UNL     1      16.814   0.262  12.278  1.00  0.00     0.038 C 
HETATM    4  C3  UNL     1      17.628  -0.462  11.277  1.00  0.00     0.088 C 
HETATM    5  S2  UNL     1      19.085   0.533  10.866  1.00  0.00    -0.096 SA
HETATM    6  S3  UNL     1      18.244   2.407  11.529  1.00  0.00    -0.081 SA
ENDROOT
TORSDOF 0
ENDMDL
