MODEL 1
REMARK VINA RESULT: -4.560032802      0.000      0.000
REMARK  1 active torsions:
REMARK  status: ('A' for Active; 'I' for Inactive)
REMARK    1  A    between atoms: C5_7  and  N1_8 
ROOT
HETATM    1  C1  UNL     1      14.768   0.326  17.773  1.00  0.00     0.013 C 
HETATM    2  C2  UNL     1      15.247   1.683  17.286  1.00  0.00     0.023 C 
HETATM    3  C3  UNL     1      14.015   2.441  16.835  1.00  0.00     0.018 C 
HETATM    4  C4  UNL     1      14.225   3.955  16.962  1.00  0.00     0.086 C 
HETATM    5  S1  UNL     1      15.080   4.413  15.401  1.00  0.00    -0.096 SA
HETATM    6  S2  UNL     1      15.927   2.548  14.749  1.00  0.00    -0.064 SA
HETATM    7  C5  UNL     1      16.323   1.615  16.280  1.00  0.00     0.259 C 
ENDROOT
BRANCH   7   8
HETATM    8  N1  UNL     1      16.708   0.313  15.854  1.00  0.00    -0.065 N 
ATOM      9  H13 UNL     1      16.705   0.269  14.835  1.00  0.00     0.275 HD
ATOM     10  H12 UNL     1      17.700   0.168  16.044  1.00  0.00     0.275 HD
ATOM     11  H11 UNL     1      16.168  -0.464  16.234  1.00  0.00     0.275 HD
ENDBRANCH   7   8
TORSDOF 1
ENDMDL
MODEL 2
REMARK VINA RESULT: -4.040365393      2.164      3.027
REMARK  1 active torsions:
REMARK  status: ('A' for Active; 'I' for Inactive)
REMARK    1  A    between atoms: C5_7  and  N1_8 
ROOT
HETATM    1  C1  UNL     1      15.027   4.878  15.382  1.00  0.00     0.013 C 
HETATM    2  C2  UNL     1      14.766   3.394  15.581  1.00  0.00     0.023 C 
HETATM    3  C3  UNL     1      14.488   3.198  17.057  1.00  0.00     0.018 C 
HETATM    4  C4  UNL     1      13.591   1.975  17.289  1.00  0.00     0.086 C 
HETATM    5  S1  UNL     1      14.769   0.565  17.321  1.00  0.00    -0.096 SA
HETATM    6  S2  UNL     1      16.483   1.343  16.282  1.00  0.00    -0.064 SA
HETATM    7  C5  UNL     1      15.822   2.520  15.038  1.00  0.00     0.259 C 
ENDROOT
BRANCH   7   8
HETATM    8  N1  UNL     1      16.956   3.173  14.479  1.00  0.00    -0.065 N 
ATOM      9  H13 UNL     1      16.754   4.165  14.352  1.00  0.00     0.275 HD
ATOM     10  H12 UNL     1      17.702   3.224  15.173  1.00  0.00     0.275 HD
ATOM     11  H11 UNL     1      17.320   2.782  13.610  1.00  0.00     0.275 HD
ENDBRANCH   7   8
TORSDOF 1
ENDMDL
MODEL 3
REMARK VINA RESULT: -3.753195287      2.113      2.513
REMARK  1 active torsions:
REMARK  status: ('A' for Active; 'I' for Inactive)
REMARK    1  A    between atoms: C5_7  and  N1_8 
ROOT
HETATM    1  C1  UNL     1      14.426   3.036  16.704  1.00  0.00     0.013 C 
HETATM    2  C2  UNL     1      15.454   3.560  15.717  1.00  0.00     0.023 C 
HETATM    3  C3  UNL     1      14.687   4.319  14.654  1.00  0.00     0.018 C 
HETATM    4  C4  UNL     1      15.559   5.410  14.020  1.00  0.00     0.086 C 
HETATM    5  S1  UNL     1      16.495   4.522  12.712  1.00  0.00    -0.096 SA
HETATM    6  S2  UNL     1      16.397   2.473  13.355  1.00  0.00    -0.064 SA
HETATM    7  C5  UNL     1      16.362   2.524  15.189  1.00  0.00     0.259 C 
ENDROOT
BRANCH   7   8
HETATM    8  N1  UNL     1      16.110   1.189  15.612  1.00  0.00    -0.065 N 
ATOM      9  H13 UNL     1      15.407   1.190  16.352  1.00  0.00     0.275 HD
ATOM     10  H12 UNL     1      15.608   0.685  14.880  1.00  0.00     0.275 HD
ATOM     11  H11 UNL     1      16.922   0.647  15.908  1.00  0.00     0.275 HD
ENDBRANCH   7   8
TORSDOF 1
ENDMDL
MODEL 4
REMARK VINA RESULT: -3.712272223      2.118      3.155
REMARK  1 active torsions:
REMARK  status: ('A' for Active; 'I' for Inactive)
REMARK    1  A    between atoms: C5_7  and  N1_8 
ROOT
HETATM    1  C1  UNL     1      13.623   4.238  17.777  1.00  0.00     0.013 C 
HETATM    2  C2  UNL     1      14.079   3.058  16.936  1.00  0.00     0.023 C 
HETATM    3  C3  UNL     1      14.866   2.148  17.857  1.00  0.00     0.018 C 
HETATM    4  C4  UNL     1      14.804   0.693  17.376  1.00  0.00     0.086 C 
HETATM    5  S1  UNL     1      16.143   0.586  16.123  1.00  0.00    -0.096 SA
HETATM    6  S2  UNL     1      16.435   2.638  15.551  1.00  0.00    -0.064 SA
HETATM    7  C5  UNL     1      14.790   3.439  15.701  1.00  0.00     0.259 C 
ENDROOT
BRANCH   7   8
HETATM    8  N1  UNL     1      15.014   4.830  15.506  1.00  0.00    -0.065 N 
ATOM      9  H13 UNL     1      14.618   5.120  14.612  1.00  0.00     0.275 HD
ATOM     10  H12 UNL     1      14.432   5.366  16.150  1.00  0.00     0.275 HD
ATOM     11  H11 UNL     1      15.982   5.146  15.573  1.00  0.00     0.275 HD
ENDBRANCH   7   8
TORSDOF 1
ENDMDL
MODEL 5
REMARK VINA RESULT: -3.667532928      2.402      3.193
REMARK  1 active torsions:
REMARK  status: ('A' for Active; 'I' for Inactive)
REMARK    1  A    between atoms: C5_7  and  N1_8 
ROOT
HETATM    1  C1  UNL     1      15.595   5.013  13.866  1.00  0.00     0.013 C 
HETATM    2  C2  UNL     1      15.014   3.903  14.726  1.00  0.00     0.023 C 
HETATM    3  C3  UNL     1      15.036   4.407  16.155  1.00  0.00     0.018 C 
HETATM    4  C4  UNL     1      13.932   3.742  16.988  1.00  0.00     0.086 C 
HETATM    5  S1  UNL     1      14.686   2.157  17.533  1.00  0.00    -0.096 SA
HETATM    6  S2  UNL     1      16.261   1.854  16.102  1.00  0.00    -0.064 SA
HETATM    7  C5  UNL     1      15.662   2.592  14.532  1.00  0.00     0.259 C 
ENDROOT
BRANCH   7   8
HETATM    8  N1  UNL     1      16.768   2.561  13.639  1.00  0.00    -0.065 N 
ATOM      9  H13 UNL     1      16.667   1.778  12.993  1.00  0.00     0.275 HD
ATOM     10  H12 UNL     1      16.709   3.346  12.989  1.00  0.00     0.275 HD
ATOM     11  H11 UNL     1      17.694   2.538  14.066  1.00  0.00     0.275 HD
ENDBRANCH   7   8
TORSDOF 1
ENDMDL
