MODEL 1
REMARK VINA RESULT: -5.377979758      0.000      0.000
REMARK  0 active torsions:
REMARK  status: ('A' for Active; 'I' for Inactive)
ROOT
HETATM    1  C1  UNL     1      14.341   2.832  16.846  1.00  0.00     0.000 C 
HETATM    2  C2  UNL     1      14.861   3.884  15.912  1.00  0.00     0.002 C 
HETATM    3  C3  UNL     1      15.018   3.240  14.551  1.00  0.00     0.034 C 
HETATM    4  C4  UNL     1      16.244   2.318  14.671  1.00  0.00     0.061 C 
HETATM    5  C5  UNL     1      15.858   1.224  15.650  1.00  0.00     0.034 C 
HETATM    6  C6  UNL     1      15.357   1.739  16.949  1.00  0.00     0.002 C 
HETATM    7  C7  UNL     1      16.581   1.713  13.367  1.00  0.00     0.153 C 
HETATM    8  N1  UNL     1      17.653   2.310  12.617  1.00  0.00    -0.383 N 
ATOM      9  H1  UNL     1      18.168   1.825  11.882  1.00  0.00     0.160 HD
HETATM   10  C8  UNL     1      17.916   3.656  13.012  1.00  0.00     0.192 C 
HETATM   11  N2  UNL     1      18.045   3.723  14.413  1.00  0.00    -0.300 N 
ATOM     12  H2  UNL     1      18.791   4.293  14.812  1.00  0.00     0.187 HD
HETATM   13  N3  UNL     1      17.298   3.125  15.162  1.00  0.00    -0.324 N 
ATOM     14  H3  UNL     1      17.434   3.205  16.170  1.00  0.00     0.181 HD
ENDROOT
TORSDOF 0
ENDMDL
MODEL 2
REMARK VINA RESULT: -5.283319490      2.488      4.732
REMARK  0 active torsions:
REMARK  status: ('A' for Active; 'I' for Inactive)
ROOT
HETATM    1  C1  UNL     1      17.862  -0.501  10.313  1.00  0.00     0.000 C 
HETATM    2  C2  UNL     1      16.581  -0.122  10.995  1.00  0.00     0.002 C 
HETATM    3  C3  UNL     1      16.421   1.377  10.853  1.00  0.00     0.034 C 
HETATM    4  C4  UNL     1      17.458   1.993  11.808  1.00  0.00     0.061 C 
HETATM    5  C5  UNL     1      18.821   1.626  11.249  1.00  0.00     0.034 C 
HETATM    6  C6  UNL     1      18.996   0.170  11.021  1.00  0.00     0.002 C 
HETATM    7  C7  UNL     1      17.327   3.463  11.854  1.00  0.00     0.153 C 
HETATM    8  N1  UNL     1      16.614   4.030  12.967  1.00  0.00    -0.383 N 
ATOM      9  H1  UNL     1      16.715   4.998  13.270  1.00  0.00     0.160 HD
HETATM   10  C8  UNL     1      15.749   3.088  13.602  1.00  0.00     0.192 C 
HETATM   11  N2  UNL     1      16.458   1.902  13.876  1.00  0.00    -0.300 N 
ATOM     12  H2  UNL     1      16.322   1.444  14.777  1.00  0.00     0.187 HD
HETATM   13  N3  UNL     1      17.226   1.406  13.074  1.00  0.00    -0.324 N 
ATOM     14  H3  UNL     1      17.716   0.546  13.321  1.00  0.00     0.181 HD
ENDROOT
TORSDOF 0
ENDMDL
MODEL 3
REMARK VINA RESULT: -5.279645803      1.441      2.051
REMARK  0 active torsions:
REMARK  status: ('A' for Active; 'I' for Inactive)
ROOT
HETATM    1  C1  UNL     1      15.147   4.961  15.037  1.00  0.00     0.000 C 
HETATM    2  C2  UNL     1      16.398   5.507  14.414  1.00  0.00     0.002 C 
HETATM    3  C3  UNL     1      16.626   4.751  13.122  1.00  0.00     0.034 C 
HETATM    4  C4  UNL     1      17.095   3.348  13.545  1.00  0.00     0.061 C 
HETATM    5  C5  UNL     1      15.916   2.700  14.249  1.00  0.00     0.034 C 
HETATM    6  C6  UNL     1      15.367   3.517  15.361  1.00  0.00     0.002 C 
HETATM    7  C7  UNL     1      17.467   2.538  12.367  1.00  0.00     0.153 C 
HETATM    8  N1  UNL     1      18.867   2.431  12.053  1.00  0.00    -0.383 N 
ATOM      9  H1  UNL     1      19.263   1.685  11.482  1.00  0.00     0.160 HD
HETATM   10  C8  UNL     1      19.640   3.484  12.629  1.00  0.00     0.192 C 
HETATM   11  N2  UNL     1      19.334   3.604  13.999  1.00  0.00    -0.300 N 
ATOM     12  H2  UNL     1      20.094   3.747  14.663  1.00  0.00     0.187 HD
HETATM   13  N3  UNL     1      18.192   3.544  14.415  1.00  0.00    -0.324 N 
ATOM     14  H3  UNL     1      18.023   3.637  15.417  1.00  0.00     0.181 HD
ENDROOT
TORSDOF 0
ENDMDL
MODEL 4
REMARK VINA RESULT: -5.036358960      3.628      4.770
REMARK  0 active torsions:
REMARK  status: ('A' for Active; 'I' for Inactive)
ROOT
HETATM    1  C1  UNL     1      16.787   0.025  11.465  1.00  0.00     0.000 C 
HETATM    2  C2  UNL     1      16.802   1.406  12.049  1.00  0.00     0.002 C 
HETATM    3  C3  UNL     1      17.400   2.329  11.008  1.00  0.00     0.034 C 
HETATM    4  C4  UNL     1      18.904   2.002  10.985  1.00  0.00     0.061 C 
HETATM    5  C5  UNL     1      19.021   0.583  10.456  1.00  0.00     0.034 C 
HETATM    6  C6  UNL     1      18.198  -0.399  11.206  1.00  0.00     0.002 C 
HETATM    7  C7  UNL     1      19.631   2.921  10.086  1.00  0.00     0.153 C 
HETATM    8  N1  UNL     1      20.328   4.024  10.691  1.00  0.00    -0.383 N 
ATOM      9  H1  UNL     1      21.090   4.528  10.238  1.00  0.00     0.160 HD
HETATM   10  C8  UNL     1      19.837   4.335  11.994  1.00  0.00     0.192 C 
HETATM   11  N2  UNL     1      19.771   3.161  12.770  1.00  0.00    -0.300 N 
ATOM     12  H2  UNL     1      20.084   3.193  13.740  1.00  0.00     0.187 HD
HETATM   13  N3  UNL     1      19.352   2.111  12.322  1.00  0.00    -0.324 N 
ATOM     14  H3  UNL     1      19.325   1.288  12.924  1.00  0.00     0.181 HD
ENDROOT
TORSDOF 0
ENDMDL
MODEL 5
REMARK VINA RESULT: -4.939738481      1.541      3.789
REMARK  0 active torsions:
REMARK  status: ('A' for Active; 'I' for Inactive)
ROOT
HETATM    1  C1  UNL     1      17.599   4.562  12.544  1.00  0.00     0.000 C 
HETATM    2  C2  UNL     1      17.400   3.104  12.834  1.00  0.00     0.002 C 
HETATM    3  C3  UNL     1      16.004   2.942  13.397  1.00  0.00     0.034 C 
HETATM    4  C4  UNL     1      16.065   3.521  14.821  1.00  0.00     0.061 C 
HETATM    5  C5  UNL     1      16.323   5.009  14.664  1.00  0.00     0.034 C 
HETATM    6  C6  UNL     1      17.512   5.320  13.830  1.00  0.00     0.002 C 
HETATM    7  C7  UNL     1      14.786   3.318  15.530  1.00  0.00     0.153 C 
HETATM    8  N1  UNL     1      14.708   2.218  16.454  1.00  0.00    -0.383 N 
ATOM      9  H1  UNL     1      14.020   2.157  17.204  1.00  0.00     0.160 HD
HETATM   10  C8  UNL     1      15.699   1.222  16.205  1.00  0.00     0.192 C 
HETATM   11  N2  UNL     1      16.965   1.829  16.090  1.00  0.00    -0.300 N 
ATOM     12  H2  UNL     1      17.766   1.388  16.542  1.00  0.00     0.187 HD
HETATM   13  N3  UNL     1      17.135   2.861  15.470  1.00  0.00    -0.324 N 
ATOM     14  H3  UNL     1      18.072   3.261  15.417  1.00  0.00     0.181 HD
ENDROOT
TORSDOF 0
ENDMDL
