MODEL 1
REMARK VINA RESULT: -5.210771324      0.000      0.000
REMARK  1 active torsions:
REMARK  status: ('A' for Active; 'I' for Inactive)
REMARK    1  A    between atoms: N1_4  and  N2_6 
ROOT
HETATM    1  N2  UNL     1      16.781   1.455  14.625  1.00  0.00    -0.287 N 
ATOM      2  H2  UNL     1      17.057   2.339  14.197  1.00  0.00     0.188 HD
HETATM    3  C2  UNL     1      16.237   1.505  15.767  1.00  0.00     0.091 C 
HETATM    4  C3  UNL     1      15.955   2.726  16.558  1.00  0.00     0.079 C 
HETATM    5  C4  UNL     1      14.747   2.302  17.356  1.00  0.00     0.027 C 
HETATM    6  C5  UNL     1      15.226   0.916  17.810  1.00  0.00     0.121 C 
HETATM    7  N3  UNL     1      15.771   0.417  16.555  1.00  0.00    -0.379 N 
ATOM      8  H3  UNL     1      15.813  -0.565  16.282  1.00  0.00     0.160 HD
ENDROOT
BRANCH   1   9
HETATM    9  N1  UNL     1      17.029   0.303  13.919  1.00  0.00    -0.279 N 
HETATM   10  C1  UNL     1      16.763   0.223  12.667  1.00  0.00     0.189 C 
HETATM   11 CL1  UNL     1      17.067  -1.231  11.741  1.00  0.00    -0.050 Cl
HETATM   12 CL2  UNL     1      16.076   1.607  11.856  1.00  0.00    -0.050 Cl
ATOM     13  H1  UNL     1      17.431  -0.502  14.398  1.00  0.00     0.189 HD
ENDBRANCH   1   9
TORSDOF 1
ENDMDL
MODEL 2
REMARK VINA RESULT: -5.041186898      2.766      4.861
REMARK  1 active torsions:
REMARK  status: ('A' for Active; 'I' for Inactive)
REMARK    1  A    between atoms: N1_4  and  N2_6 
ROOT
HETATM    1  N2  UNL     1      16.981   1.351  14.283  1.00  0.00    -0.287 N 
ATOM      2  H2  UNL     1      17.307   2.300  14.467  1.00  0.00     0.188 HD
HETATM    3  C2  UNL     1      17.115   0.906  13.106  1.00  0.00     0.091 C 
HETATM    4  C3  UNL     1      17.703   1.627  11.951  1.00  0.00     0.079 C 
HETATM    5  C4  UNL     1      18.257   0.489  11.130  1.00  0.00     0.027 C 
HETATM    6  C5  UNL     1      17.058  -0.469  11.196  1.00  0.00     0.121 C 
HETATM    7  N3  UNL     1      16.740  -0.374  12.614  1.00  0.00    -0.379 N 
ATOM      8  H3  UNL     1      16.313  -1.115  13.171  1.00  0.00     0.160 HD
ENDROOT
BRANCH   1   9
HETATM    9  N1  UNL     1      16.431   0.655  15.332  1.00  0.00    -0.279 N 
HETATM   10  C1  UNL     1      15.946   1.264  16.351  1.00  0.00     0.189 C 
HETATM   11 CL1  UNL     1      15.239   0.405  17.702  1.00  0.00    -0.050 Cl
HETATM   12 CL2  UNL     1      15.990   3.008  16.395  1.00  0.00    -0.050 Cl
ATOM     13  H1  UNL     1      16.408  -0.364  15.300  1.00  0.00     0.189 HD
ENDBRANCH   1   9
TORSDOF 1
ENDMDL
MODEL 3
REMARK VINA RESULT: -5.036821364      1.104      1.298
REMARK  1 active torsions:
REMARK  status: ('A' for Active; 'I' for Inactive)
REMARK    1  A    between atoms: N1_4  and  N2_6 
ROOT
HETATM    1  N2  UNL     1      17.061   2.252  14.050  1.00  0.00    -0.287 N 
ATOM      2  H2  UNL     1      17.509   2.970  13.479  1.00  0.00     0.188 HD
HETATM    3  C2  UNL     1      16.394   2.637  15.055  1.00  0.00     0.091 C 
HETATM    4  C3  UNL     1      16.193   4.038  15.497  1.00  0.00     0.079 C 
HETATM    5  C4  UNL     1      14.849   3.953  16.178  1.00  0.00     0.027 C 
HETATM    6  C5  UNL     1      15.071   2.676  17.001  1.00  0.00     0.121 C 
HETATM    7  N3  UNL     1      15.688   1.830  15.988  1.00  0.00    -0.379 N 
ATOM      8  H3  UNL     1      15.623   0.813  15.954  1.00  0.00     0.160 HD
ENDROOT
BRANCH   1   9
HETATM    9  N1  UNL     1      17.227   0.943  13.668  1.00  0.00    -0.279 N 
HETATM   10  C1  UNL     1      16.764   0.514  12.552  1.00  0.00     0.189 C 
HETATM   11 CL1  UNL     1      16.961  -1.148  12.039  1.00  0.00    -0.050 Cl
HETATM   12 CL2  UNL     1      15.910   1.620  11.508  1.00  0.00    -0.050 Cl
ATOM     13  H1  UNL     1      17.728   0.301  14.282  1.00  0.00     0.189 HD
ENDBRANCH   1   9
TORSDOF 1
ENDMDL
MODEL 4
REMARK VINA RESULT: -5.002981113      1.915      2.341
REMARK  1 active torsions:
REMARK  status: ('A' for Active; 'I' for Inactive)
REMARK    1  A    between atoms: N1_4  and  N2_6 
ROOT
HETATM    1  N2  UNL     1      16.646   0.659  12.545  1.00  0.00    -0.287 N 
ATOM      2  H2  UNL     1      16.436   1.253  11.743  1.00  0.00     0.188 HD
HETATM    3  C2  UNL     1      16.672   1.207  13.687  1.00  0.00     0.091 C 
HETATM    4  C3  UNL     1      16.426   2.638  13.984  1.00  0.00     0.079 C 
HETATM    5  C4  UNL     1      15.873   2.568  15.386  1.00  0.00     0.027 C 
HETATM    6  C5  UNL     1      16.882   1.587  16.000  1.00  0.00     0.121 C 
HETATM    7  N3  UNL     1      16.938   0.590  14.939  1.00  0.00    -0.379 N 
ATOM      8  H3  UNL     1      17.138  -0.401  15.075  1.00  0.00     0.160 HD
ENDROOT
BRANCH   1   9
HETATM    9  N1  UNL     1      16.879  -0.673  12.305  1.00  0.00    -0.279 N 
HETATM   10  C1  UNL     1      17.880  -1.054  11.600  1.00  0.00     0.189 C 
HETATM   11 CL1  UNL     1      18.203  -2.744  11.276  1.00  0.00    -0.050 Cl
HETATM   12 CL2  UNL     1      18.959   0.148  10.940  1.00  0.00    -0.050 Cl
ATOM     13  H1  UNL     1      16.245  -1.371  12.693  1.00  0.00     0.189 HD
ENDBRANCH   1   9
TORSDOF 1
ENDMDL
MODEL 5
REMARK VINA RESULT: -4.980581597      3.047      4.941
REMARK  1 active torsions:
REMARK  status: ('A' for Active; 'I' for Inactive)
REMARK    1  A    between atoms: N1_4  and  N2_6 
ROOT
HETATM    1  N2  UNL     1      16.197   0.924  15.561  1.00  0.00    -0.287 N 
ATOM      2  H2  UNL     1      15.920  -0.016  15.844  1.00  0.00     0.188 HD
HETATM    3  C2  UNL     1      16.643   1.074  14.386  1.00  0.00     0.091 C 
HETATM    4  C3  UNL     1      16.807   0.013  13.363  1.00  0.00     0.079 C 
HETATM    5  C4  UNL     1      16.642   0.795  12.083  1.00  0.00     0.027 C 
HETATM    6  C5  UNL     1      17.535   1.999  12.414  1.00  0.00     0.121 C 
HETATM    7  N3  UNL     1      17.088   2.276  13.772  1.00  0.00    -0.379 N 
ATOM      8  H3  UNL     1      17.092   3.195  14.216  1.00  0.00     0.160 HD
ENDROOT
BRANCH   1   9
HETATM    9  N1  UNL     1      16.059   1.931  16.486  1.00  0.00    -0.279 N 
HETATM   10  C1  UNL     1      15.010   2.020  17.218  1.00  0.00     0.189 C 
HETATM   11 CL1  UNL     1      14.805   3.290  18.403  1.00  0.00    -0.050 Cl
HETATM   12 CL2  UNL     1      13.742   0.836  17.027  1.00  0.00    -0.050 Cl
ATOM     13  H1  UNL     1      16.804   2.620  16.593  1.00  0.00     0.189 HD
ENDBRANCH   1   9
TORSDOF 1
ENDMDL
