MODEL 1
REMARK VINA RESULT: -4.769748904      0.000      0.000
REMARK  1 active torsions:
REMARK  status: ('A' for Active; 'I' for Inactive)
REMARK    1  A    between atoms: N1_2  and  C1_4 
ROOT
HETATM    1  C1  UNL     1      16.454   0.709  15.119  1.00  0.00     0.241 A 
HETATM    2  N2  UNL     1      16.596   1.883  14.464  1.00  0.00    -0.308 N 
ATOM      3  H2  UNL     1      16.594   2.813  14.883  1.00  0.00     0.170 HD
HETATM    4  C2  UNL     1      16.740   1.598  13.150  1.00  0.00     0.152 A 
HETATM    5 CL2  UNL     1      16.956   2.772  11.869  1.00  0.00    -0.060 Cl
HETATM    6  C3  UNL     1      16.679   0.223  13.048  1.00  0.00     0.187 A 
HETATM    7 CL3  UNL     1      16.819  -0.615  11.515  1.00  0.00    -0.053 Cl
HETATM    8  O1  UNL     1      16.507  -0.276  14.252  1.00  0.00    -0.263 OA
ENDROOT
BRANCH   1   9
HETATM    9  N1  UNL     1      16.278   0.559  16.518  1.00  0.00    -0.263 N 
HETATM   10 CL1  UNL     1      14.743   0.840  17.257  1.00  0.00     0.014 Cl
ATOM     11  H1  UNL     1      17.071   0.282  17.096  1.00  0.00     0.184 HD
ENDBRANCH   1   9
TORSDOF 1
ENDMDL
MODEL 2
REMARK VINA RESULT: -4.740440134      1.707      4.071
REMARK  1 active torsions:
REMARK  status: ('A' for Active; 'I' for Inactive)
REMARK    1  A    between atoms: N1_2  and  C1_4 
ROOT
HETATM    1  C1  UNL     1      16.374   1.513  14.389  1.00  0.00     0.241 A 
HETATM    2  N2  UNL     1      15.745   2.644  14.783  1.00  0.00    -0.308 N 
ATOM      3  H2  UNL     1      15.695   3.519  14.263  1.00  0.00     0.170 HD
HETATM    4  C2  UNL     1      15.195   2.399  15.994  1.00  0.00     0.152 A 
HETATM    5 CL2  UNL     1      14.270   3.543  16.943  1.00  0.00    -0.060 Cl
HETATM    6  C3  UNL     1      15.518   1.094  16.303  1.00  0.00     0.187 A 
HETATM    7 CL3  UNL     1      15.013   0.328  17.798  1.00  0.00    -0.053 Cl
HETATM    8  O1  UNL     1      16.226   0.595  15.315  1.00  0.00    -0.263 OA
ENDROOT
BRANCH   1   9
HETATM    9  N1  UNL     1      17.080   1.342  13.172  1.00  0.00    -0.263 N 
HETATM   10 CL1  UNL     1      16.656   0.086  12.065  1.00  0.00     0.014 Cl
ATOM     11  H1  UNL     1      17.850   1.971  12.946  1.00  0.00     0.184 HD
ENDBRANCH   1   9
TORSDOF 1
ENDMDL
MODEL 3
REMARK VINA RESULT: -4.634004699      1.835      3.808
REMARK  1 active torsions:
REMARK  status: ('A' for Active; 'I' for Inactive)
REMARK    1  A    between atoms: N1_2  and  C1_4 
ROOT
HETATM    1  C1  UNL     1      16.718   0.463  13.278  1.00  0.00     0.241 A 
HETATM    2  N2  UNL     1      16.817   1.812  13.271  1.00  0.00    -0.308 N 
ATOM      3  H2  UNL     1      17.069   2.395  12.473  1.00  0.00     0.170 HD
HETATM    4  C2  UNL     1      16.520   2.245  14.517  1.00  0.00     0.152 A 
HETATM    5 CL2  UNL     1      16.505   3.917  15.039  1.00  0.00    -0.060 Cl
HETATM    6  C3  UNL     1      16.244   1.115  15.260  1.00  0.00     0.187 A 
HETATM    7 CL3  UNL     1      15.804   1.186  16.956  1.00  0.00    -0.053 Cl
HETATM    8  O1  UNL     1      16.374   0.064  14.481  1.00  0.00    -0.263 OA
ENDROOT
BRANCH   1   9
HETATM    9  N1  UNL     1      16.948  -0.388  12.168  1.00  0.00    -0.263 N 
HETATM   10 CL1  UNL     1      18.238  -0.080  11.062  1.00  0.00     0.014 Cl
ATOM     11  H1  UNL     1      16.342  -1.194  12.021  1.00  0.00     0.184 HD
ENDBRANCH   1   9
TORSDOF 1
ENDMDL
MODEL 4
REMARK VINA RESULT: -4.557136705      1.894      4.493
REMARK  1 active torsions:
REMARK  status: ('A' for Active; 'I' for Inactive)
REMARK    1  A    between atoms: N1_2  and  C1_4 
ROOT
HETATM    1  C1  UNL     1      16.462   1.664  14.348  1.00  0.00     0.241 A 
HETATM    2  N2  UNL     1      16.408   0.749  15.342  1.00  0.00    -0.308 N 
ATOM      3  H2  UNL     1      16.861  -0.165  15.348  1.00  0.00     0.170 HD
HETATM    4  C2  UNL     1      15.641   1.268  16.328  1.00  0.00     0.152 A 
HETATM    5 CL2  UNL     1      15.255   0.479  17.842  1.00  0.00    -0.060 Cl
HETATM    6  C3  UNL     1      15.244   2.514  15.887  1.00  0.00     0.187 A 
HETATM    7 CL3  UNL     1      14.222   3.570  16.843  1.00  0.00    -0.053 Cl
HETATM    8  O1  UNL     1      15.757   2.716  14.694  1.00  0.00    -0.263 OA
ENDROOT
BRANCH   1   9
HETATM    9  N1  UNL     1      17.166   1.516  13.127  1.00  0.00    -0.263 N 
HETATM   10 CL1  UNL     1      16.773   0.249  12.020  1.00  0.00     0.014 Cl
ATOM     11  H1  UNL     1      17.917   2.167  12.898  1.00  0.00     0.184 HD
ENDBRANCH   1   9
TORSDOF 1
ENDMDL
MODEL 5
REMARK VINA RESULT: -4.553864348      3.133      3.460
REMARK  1 active torsions:
REMARK  status: ('A' for Active; 'I' for Inactive)
REMARK    1  A    between atoms: N1_2  and  C1_4 
ROOT
HETATM    1  C1  UNL     1      15.713   2.285  16.037  1.00  0.00     0.241 A 
HETATM    2  N2  UNL     1      16.940   2.571  15.544  1.00  0.00    -0.308 N 
ATOM      3  H2  UNL     1      17.793   2.034  15.698  1.00  0.00     0.170 HD
HETATM    4  C2  UNL     1      16.827   3.700  14.809  1.00  0.00     0.152 A 
HETATM    5 CL2  UNL     1      18.132   4.495  13.955  1.00  0.00    -0.060 Cl
HETATM    6  C3  UNL     1      15.500   4.073  14.882  1.00  0.00     0.187 A 
HETATM    7 CL3  UNL     1      14.876   5.499  14.074  1.00  0.00    -0.053 Cl
HETATM    8  O1  UNL     1      14.863   3.199  15.629  1.00  0.00    -0.263 OA
ENDROOT
BRANCH   1   9
HETATM    9  N1  UNL     1      15.392   1.178  16.861  1.00  0.00    -0.263 N 
HETATM   10 CL1  UNL     1      13.765   0.882  17.362  1.00  0.00     0.014 Cl
ATOM     11  H1  UNL     1      16.133   0.546  17.163  1.00  0.00     0.184 HD
ENDBRANCH   1   9
TORSDOF 1
ENDMDL
