MODEL 1
REMARK VINA RESULT: -4.853157875      0.000      0.000
REMARK  2 active torsions:
REMARK  status: ('A' for Active; 'I' for Inactive)
REMARK    1  A    between atoms: N2_4  and  C1_6 
REMARK    2  A    between atoms: C1_6  and  N3_8 
ROOT
HETATM    1  C1  UNL     1      15.636   1.699  16.274  1.00  0.00     0.188 C 
HETATM    2  S1  UNL     1      14.394   1.076  17.139  1.00  0.00    -0.039 SA
ENDROOT
BRANCH   1   3
HETATM    3  N2  UNL     1      16.889   0.988  16.178  1.00  0.00    -0.283 N 
HETATM    4  N1  UNL     1      16.809  -0.180  15.685  1.00  0.00    -0.343 N 
ATOM      5  H12 UNL     1      15.917  -0.572  15.384  1.00  0.00     0.176 HD
ATOM      6  H11 UNL     1      17.694  -0.683  15.616  1.00  0.00     0.176 HD
ATOM      7  H2  UNL     1      17.773   1.394  16.483  1.00  0.00     0.188 HD
ENDBRANCH   1   3
BRANCH   1   8
HETATM    8  N3  UNL     1      15.466   2.944  15.621  1.00  0.00    -0.357 N 
HETATM    9  C2  UNL     1      16.042   3.297  14.344  1.00  0.00     0.125 C 
HETATM   10  C3  UNL     1      16.174   4.819  14.500  1.00  0.00     0.021 C 
HETATM   11  C4  UNL     1      14.801   5.140  15.058  1.00  0.00     0.021 C 
HETATM   12  C5  UNL     1      14.690   4.064  16.121  1.00  0.00     0.125 C 
ENDBRANCH   1   8
TORSDOF 2
ENDMDL
MODEL 2
REMARK VINA RESULT: -4.768633011      2.224      3.554
REMARK  2 active torsions:
REMARK  status: ('A' for Active; 'I' for Inactive)
REMARK    1  A    between atoms: N2_4  and  C1_6 
REMARK    2  A    between atoms: C1_6  and  N3_8 
ROOT
HETATM    1  C1  UNL     1      15.950   3.120  15.002  1.00  0.00     0.188 C 
HETATM    2  S1  UNL     1      15.098   4.423  14.495  1.00  0.00    -0.039 SA
ENDROOT
BRANCH   1   3
HETATM    3  N2  UNL     1      17.220   2.796  14.396  1.00  0.00    -0.283 N 
HETATM    4  N1  UNL     1      17.146   2.235  13.258  1.00  0.00    -0.343 N 
ATOM      5  H12 UNL     1      16.248   2.036  12.818  1.00  0.00     0.176 HD
ATOM      6  H11 UNL     1      18.043   2.006  12.829  1.00  0.00     0.176 HD
ATOM      7  H2  UNL     1      18.110   3.002  14.848  1.00  0.00     0.188 HD
ENDBRANCH   1   3
BRANCH   1   8
HETATM    8  N3  UNL     1      15.427   2.316  16.043  1.00  0.00    -0.357 N 
HETATM    9  C2  UNL     1      14.277   2.649  16.852  1.00  0.00     0.125 C 
HETATM   10  C3  UNL     1      14.621   1.913  18.155  1.00  0.00     0.021 C 
HETATM   11  C4  UNL     1      15.043   0.571  17.589  1.00  0.00     0.021 C 
HETATM   12  C5  UNL     1      15.955   1.032  16.468  1.00  0.00     0.125 C 
ENDBRANCH   1   8
TORSDOF 2
ENDMDL
MODEL 3
REMARK VINA RESULT: -4.755438537      0.329      1.343
REMARK  2 active torsions:
REMARK  status: ('A' for Active; 'I' for Inactive)
REMARK    1  A    between atoms: N2_4  and  C1_6 
REMARK    2  A    between atoms: C1_6  and  N3_8 
ROOT
HETATM    1  C1  UNL     1      15.687   1.815  16.208  1.00  0.00     0.188 C 
HETATM    2  S1  UNL     1      14.343   1.265  16.964  1.00  0.00    -0.039 SA
ENDROOT
BRANCH   1   3
HETATM    3  N2  UNL     1      16.892   1.021  16.191  1.00  0.00    -0.283 N 
HETATM    4  N1  UNL     1      16.755  -0.158  15.738  1.00  0.00    -0.343 N 
ATOM      5  H12 UNL     1      15.852  -0.504  15.414  1.00  0.00     0.176 HD
ATOM      6  H11 UNL     1      17.607  -0.720  15.726  1.00  0.00     0.176 HD
ATOM      7  H2  UNL     1      17.789   1.380  16.519  1.00  0.00     0.188 HD
ENDBRANCH   1   3
BRANCH   1   8
HETATM    8  N3  UNL     1      15.651   3.078  15.570  1.00  0.00    -0.357 N 
HETATM    9  C2  UNL     1      14.749   4.154  15.908  1.00  0.00     0.125 C 
HETATM   10  C3  UNL     1      14.633   4.867  14.552  1.00  0.00     0.021 C 
HETATM   11  C4  UNL     1      16.099   4.926  14.167  1.00  0.00     0.021 C 
HETATM   12  C5  UNL     1      16.511   3.500  14.479  1.00  0.00     0.125 C 
ENDBRANCH   1   8
TORSDOF 2
ENDMDL
MODEL 4
REMARK VINA RESULT: -4.632806855      2.395      3.241
REMARK  2 active torsions:
REMARK  status: ('A' for Active; 'I' for Inactive)
REMARK    1  A    between atoms: N2_4  and  C1_6 
REMARK    2  A    between atoms: C1_6  and  N3_8 
ROOT
HETATM    1  C1  UNL     1      16.312   2.357  14.355  1.00  0.00     0.188 C 
HETATM    2  S1  UNL     1      16.587   3.840  13.720  1.00  0.00    -0.039 SA
ENDROOT
BRANCH   1   3
HETATM    3  N2  UNL     1      16.688   1.169  13.626  1.00  0.00    -0.283 N 
HETATM    4  N1  UNL     1      17.437   1.367  12.619  1.00  0.00    -0.343 N 
ATOM      5  H12 UNL     1      17.743   2.304  12.359  1.00  0.00     0.176 HD
ATOM      6  H11 UNL     1      17.702   0.528  12.104  1.00  0.00     0.176 HD
ATOM      7  H2  UNL     1      16.374   0.237  13.899  1.00  0.00     0.188 HD
ENDBRANCH   1   3
BRANCH   1   8
HETATM    8  N3  UNL     1      15.704   2.254  15.629  1.00  0.00    -0.357 N 
HETATM    9  C2  UNL     1      15.906   1.167  16.560  1.00  0.00     0.125 C 
HETATM   10  C3  UNL     1      14.565   1.182  17.311  1.00  0.00     0.021 C 
HETATM   11  C4  UNL     1      14.437   2.668  17.580  1.00  0.00     0.021 C 
HETATM   12  C5  UNL     1      14.785   3.216  16.209  1.00  0.00     0.125 C 
ENDBRANCH   1   8
TORSDOF 2
ENDMDL
MODEL 5
REMARK VINA RESULT: -4.521195644      5.119      5.999
REMARK  2 active torsions:
REMARK  status: ('A' for Active; 'I' for Inactive)
REMARK    1  A    between atoms: N2_4  and  C1_6 
REMARK    2  A    between atoms: C1_6  and  N3_8 
ROOT
HETATM    1  C1  UNL     1      18.734   2.717  11.759  1.00  0.00     0.188 C 
HETATM    2  S1  UNL     1      17.957   3.902  10.939  1.00  0.00    -0.039 SA
ENDROOT
BRANCH   1   3
HETATM    3  N2  UNL     1      19.872   3.029  12.590  1.00  0.00    -0.283 N 
HETATM    4  N1  UNL     1      19.591   3.531  13.723  1.00  0.00    -0.343 N 
ATOM      5  H12 UNL     1      18.627   3.694  14.010  1.00  0.00     0.176 HD
ATOM      6  H11 UNL     1      20.396   3.751  14.311  1.00  0.00     0.176 HD
ATOM      7  H2  UNL     1      20.832   2.860  12.290  1.00  0.00     0.188 HD
ENDBRANCH   1   3
BRANCH   1   8
HETATM    8  N3  UNL     1      18.275   1.383  11.643  1.00  0.00    -0.357 N 
HETATM    9  C2  UNL     1      19.001   0.307  11.009  1.00  0.00     0.125 C 
HETATM   10  C3  UNL     1      17.840  -0.579  10.532  1.00  0.00     0.021 C 
HETATM   11  C4  UNL     1      16.997  -0.599  11.792  1.00  0.00     0.021 C 
HETATM   12  C5  UNL     1      17.009   0.877  12.141  1.00  0.00     0.125 C 
ENDBRANCH   1   8
TORSDOF 2
ENDMDL
