MODEL 1
REMARK VINA RESULT: -11.938367358      0.000      0.000
REMARK  17 active torsions:
REMARK  status: ('A' for Active; 'I' for Inactive)
REMARK    1  A    between atoms: N3_11  and  C5_12 
REMARK    2  A    between atoms: C5_12  and  C6_13 
REMARK    3  A    between atoms: C6_13  and  C7_14 
REMARK    4  A    between atoms: C7_14  and  O4_15 
REMARK    5  A    between atoms: C7_14  and  C8_17 
REMARK    6  A    between atoms: C8_17  and  C9_18 
REMARK    7  A    between atoms: C9_18  and  N4_20 
REMARK    8  A    between atoms: C9_18  and  C18_39 
REMARK    9  A    between atoms: N4_20  and  O5_21 
REMARK   10  A    between atoms: O5_21  and  C11_22 
REMARK   11  A    between atoms: C11_22  and  C12_27 
REMARK   12  A    between atoms: N5_23  and  O6_25 
REMARK   13  A    between atoms: C15_30  and  O7_31 
REMARK   14  A    between atoms: C16_33  and  O8_34 
REMARK   15  A    between atoms: C17_36  and  O9_37 
REMARK       I    between atoms: C18_39  and  N6_41 
REMARK   16  A    between atoms: C19_43  and  C20_44 
REMARK   17  A    between atoms: C20_44  and  N7_45 
ROOT
HETATM    1  C9  UNL     1      45.470  22.816  25.050  1.00  0.00     0.137 C 
HETATM    2  C10 UNL     1      44.814  23.884  24.229  1.00  0.00     0.047 C 
ENDROOT
BRANCH   1   3
HETATM    3  C8  UNL     1      45.630  21.549  24.301  1.00  0.00     0.070 C 
BRANCH   3   4
HETATM    4  C7  UNL     1      45.176  20.255  24.827  1.00  0.00     0.122 C 
BRANCH   4   5
HETATM    5  C6  UNL     1      45.794  19.786  26.107  1.00  0.00     0.053 C 
BRANCH   5   6
HETATM    6  C5  UNL     1      47.052  18.967  25.740  1.00  0.00     0.155 C 
BRANCH   6   7
HETATM    7  N3  UNL     1      48.262  19.691  26.004  1.00  0.00    -0.247 N 
HETATM    8  N1  UNL     1      48.674  19.944  27.228  1.00  0.00    -0.242 N 
HETATM    9  C1  UNL     1      47.913  19.500  28.404  1.00  0.00     0.183 C 
HETATM   10  C2  UNL     1      49.815  20.623  27.436  1.00  0.00     0.343 A 
HETATM   11  O1  UNL     1      50.214  20.869  28.598  1.00  0.00    -0.245 OA
HETATM   12  N2  UNL     1      50.576  21.068  26.421  1.00  0.00    -0.270 N 
HETATM   13  C3  UNL     1      50.168  20.817  25.174  1.00  0.00     0.319 A 
ATOM     14  H2  UNL     1      51.439  21.583  26.598  1.00  0.00     0.174 HD
HETATM   15  O2  UNL     1      50.890  21.241  24.218  1.00  0.00    -0.262 OA
HETATM   16  C4  UNL     1      49.005  20.125  24.942  1.00  0.00     0.330 A 
HETATM   17  O3  UNL     1      48.659  19.911  23.755  1.00  0.00    -0.260 OA
ENDBRANCH   6   7
ENDBRANCH   5   6
ENDBRANCH   4   5
BRANCH   4  18
HETATM   18  O4  UNL     1      43.750  20.339  25.026  1.00  0.00    -0.395 OA
ATOM     19  H4  UNL     1      43.326  19.914  24.291  1.00  0.00     0.210 HD
ENDBRANCH   4  18
ENDBRANCH   3   4
ENDBRANCH   1   3
BRANCH   1  20
HETATM   20  N4  UNL     1      44.636  22.596  26.263  1.00  0.00    -0.073 NA
BRANCH  20  21
HETATM   21  O5  UNL     1      44.651  23.731  27.032  1.00  0.00    -0.222 OA
BRANCH  21  22
HETATM   22  C11 UNL     1      43.567  23.871  27.965  1.00  0.00     0.198 C 
HETATM   23  N5  UNL     1      43.334  22.905  28.648  1.00  0.00    -0.245 N 
ATOM     24  H5  UNL     1      44.049  22.265  28.301  1.00  0.00     0.196 HD
BRANCH  23  25
HETATM   25  O6  UNL     1      42.782  22.170  29.514  1.00  0.00    -0.288 OA
ATOM     26  H6  UNL     1      42.477  21.386  29.955  1.00  0.00     0.244 HD
ENDBRANCH  23  25
BRANCH  22  27
HETATM   27  C12 UNL     1      42.871  25.159  27.980  1.00  0.00     0.054 A 
HETATM   28  C13 UNL     1      42.844  25.918  26.809  1.00  0.00     0.022 A 
HETATM   29  C14 UNL     1      42.195  27.116  26.814  1.00  0.00     0.040 A 
HETATM   30  C15 UNL     1      41.574  27.589  27.937  1.00  0.00     0.101 A 
HETATM   31  C16 UNL     1      41.583  26.860  29.115  1.00  0.00     0.133 A 
HETATM   32  C17 UNL     1      42.251  25.628  29.107  1.00  0.00     0.116 A 
BRANCH  30  33
HETATM   33  O7  UNL     1      40.925  28.801  27.915  1.00  0.00    -0.358 OA
ATOM     34  H7  UNL     1      41.407  29.606  28.065  1.00  0.00     0.217 HD
ENDBRANCH  30  33
BRANCH  31  35
HETATM   35  O8  UNL     1      40.946  27.377  30.210  1.00  0.00    -0.356 OA
ATOM     36  H8  UNL     1      41.410  27.401  31.038  1.00  0.00     0.218 HD
ENDBRANCH  31  35
BRANCH  32  37
HETATM   37  O9  UNL     1      42.253  24.910  30.287  1.00  0.00    -0.357 OA
ATOM     38  H9  UNL     1      42.118  25.332  31.127  1.00  0.00     0.217 HD
ENDBRANCH  32  37
ENDBRANCH  22  27
ENDBRANCH  21  22
ENDBRANCH  20  21
ENDBRANCH   1  20
BRANCH   1  39
HETATM   39  C18 UNL     1      46.794  23.275  25.576  1.00  0.00     0.248 C 
HETATM   40  O10 UNL     1      47.240  22.884  26.665  1.00  0.00    -0.271 OA
HETATM   41  N6  UNL     1      47.631  24.195  24.845  1.00  0.00    -0.337 N 
HETATM   42  C19 UNL     1      48.850  23.861  24.703  1.00  0.00     0.084 C 
ATOM     43  H6  UNL     1      47.264  25.066  24.462  1.00  0.00     0.168 HD
BRANCH  42  44
HETATM   44  C20 UNL     1      49.870  24.670  23.982  1.00  0.00     0.174 C 
BRANCH  44  45
HETATM   45  N7  UNL     1      51.077  24.618  24.781  1.00  0.00    -0.338 N 
HETATM   46  C21 UNL     1      51.033  24.993  26.099  1.00  0.00     0.093 A 
HETATM   47  C22 UNL     1      52.168  24.946  26.863  1.00  0.00     0.018 A 
HETATM   48  C23 UNL     1      53.352  24.529  26.326  1.00  0.00     0.014 A 
HETATM   49  C24 UNL     1      53.409  24.152  25.006  1.00  0.00     0.010 A 
HETATM   50  C25 UNL     1      52.234  24.214  24.264  1.00  0.00     0.112 A 
HETATM   51  C28 UNL     1      54.758  23.751  24.654  1.00  0.00     0.221 C 
HETATM   52  N8  UNL     1      52.118  23.869  22.904  1.00  0.00    -0.366 N 
HETATM   53  C26 UNL     1      53.105  24.067  21.848  1.00  0.00     0.232 C 
ATOM     54  H8  UNL     1      51.240  23.430  22.624  1.00  0.00     0.161 HD
HETATM   55  C27 UNL     1      54.369  23.405  22.159  1.00  0.00     0.276 C 
HETATM   56  O11 UNL     1      55.060  23.026  21.189  1.00  0.00    -0.263 OA
HETATM   57  O12 UNL     1      54.892  23.152  23.394  1.00  0.00    -0.315 OA
ENDBRANCH  44  45
ENDBRANCH  42  44
ENDBRANCH   1  39
TORSDOF 17
ENDMDL
MODEL 2
REMARK VINA RESULT: -11.247724327      2.979      8.444
REMARK  17 active torsions:
REMARK  status: ('A' for Active; 'I' for Inactive)
REMARK    1  A    between atoms: N3_11  and  C5_12 
REMARK    2  A    between atoms: C5_12  and  C6_13 
REMARK    3  A    between atoms: C6_13  and  C7_14 
REMARK    4  A    between atoms: C7_14  and  O4_15 
REMARK    5  A    between atoms: C7_14  and  C8_17 
REMARK    6  A    between atoms: C8_17  and  C9_18 
REMARK    7  A    between atoms: C9_18  and  N4_20 
REMARK    8  A    between atoms: C9_18  and  C18_39 
REMARK    9  A    between atoms: N4_20  and  O5_21 
REMARK   10  A    between atoms: O5_21  and  C11_22 
REMARK   11  A    between atoms: C11_22  and  C12_27 
REMARK   12  A    between atoms: N5_23  and  O6_25 
REMARK   13  A    between atoms: C15_30  and  O7_31 
REMARK   14  A    between atoms: C16_33  and  O8_34 
REMARK   15  A    between atoms: C17_36  and  O9_37 
REMARK       I    between atoms: C18_39  and  N6_41 
REMARK   16  A    between atoms: C19_43  and  C20_44 
REMARK   17  A    between atoms: C20_44  and  N7_45 
ROOT
HETATM    1  C9  UNL     1      51.826  21.943  25.223  1.00  0.00     0.137 C 
HETATM    2  C10 UNL     1      51.166  22.797  24.184  1.00  0.00     0.047 C 
ENDROOT
BRANCH   1   3
HETATM    3  C8  UNL     1      50.902  20.936  25.792  1.00  0.00     0.070 C 
BRANCH   3   4
HETATM    4  C7  UNL     1      49.979  21.240  26.892  1.00  0.00     0.122 C 
BRANCH   4   5
HETATM    5  C6  UNL     1      48.711  20.447  26.957  1.00  0.00     0.053 C 
BRANCH   5   6
HETATM    6  C5  UNL     1      47.826  20.893  25.771  1.00  0.00     0.155 C 
BRANCH   6   7
HETATM    7  N3  UNL     1      46.762  21.759  26.188  1.00  0.00    -0.247 N 
HETATM    8  N1  UNL     1      46.699  23.020  25.816  1.00  0.00    -0.242 N 
HETATM    9  C1  UNL     1      47.723  23.619  24.949  1.00  0.00     0.183 C 
HETATM   10  C2  UNL     1      45.685  23.801  26.224  1.00  0.00     0.343 A 
HETATM   11  O1  UNL     1      45.618  25.003  25.876  1.00  0.00    -0.245 OA
HETATM   12  N2  UNL     1      44.703  23.339  27.019  1.00  0.00    -0.270 N 
HETATM   13  C3  UNL     1      44.756  22.061  27.403  1.00  0.00     0.319 A 
ATOM     14  H2  UNL     1      43.942  23.947  27.320  1.00  0.00     0.174 HD
HETATM   15  O2  UNL     1      43.827  21.629  28.155  1.00  0.00    -0.262 OA
HETATM   16  C4  UNL     1      45.785  21.248  26.996  1.00  0.00     0.330 A 
HETATM   17  O3  UNL     1      45.796  20.053  27.380  1.00  0.00    -0.260 OA
ENDBRANCH   6   7
ENDBRANCH   5   6
ENDBRANCH   4   5
BRANCH   4  18
HETATM   18  O4  UNL     1      50.692  21.040  28.130  1.00  0.00    -0.395 OA
ATOM     19  H4  UNL     1      50.938  21.893  28.468  1.00  0.00     0.210 HD
ENDBRANCH   4  18
ENDBRANCH   3   4
ENDBRANCH   1   3
BRANCH   1  20
HETATM   20  N4  UNL     1      52.335  22.840  26.296  1.00  0.00    -0.073 NA
BRANCH  20  21
HETATM   21  O5  UNL     1      51.706  24.055  26.204  1.00  0.00    -0.222 OA
BRANCH  21  22
HETATM   22  C11 UNL     1      52.556  25.210  26.301  1.00  0.00     0.198 C 
HETATM   23  N5  UNL     1      52.104  26.144  26.914  1.00  0.00    -0.245 N 
ATOM     24  H5  UNL     1      51.196  25.762  27.177  1.00  0.00     0.196 HD
BRANCH  23  25
HETATM   25  O6  UNL     1      52.023  27.288  27.442  1.00  0.00    -0.288 OA
ATOM     26  H6  UNL     1      51.736  27.987  28.018  1.00  0.00     0.244 HD
ENDBRANCH  23  25
BRANCH  22  27
HETATM   27  C12 UNL     1      53.865  25.122  25.650  1.00  0.00     0.054 A 
HETATM   28  C13 UNL     1      54.924  24.546  26.354  1.00  0.00     0.022 A 
HETATM   29  C14 UNL     1      56.144  24.456  25.753  1.00  0.00     0.040 A 
HETATM   30  C15 UNL     1      56.351  24.917  24.483  1.00  0.00     0.101 A 
HETATM   31  C16 UNL     1      55.321  25.494  23.758  1.00  0.00     0.133 A 
HETATM   32  C17 UNL     1      54.067  25.584  24.378  1.00  0.00     0.116 A 
BRANCH  30  33
HETATM   33  O7  UNL     1      57.593  24.814  23.900  1.00  0.00    -0.358 OA
ATOM     34  H7  UNL     1      57.674  24.592  22.980  1.00  0.00     0.217 HD
ENDBRANCH  30  33
BRANCH  31  35
HETATM   35  O8  UNL     1      55.581  25.937  22.490  1.00  0.00    -0.356 OA
ATOM     36  H8  UNL     1      55.006  26.591  22.110  1.00  0.00     0.218 HD
ENDBRANCH  31  35
BRANCH  32  37
HETATM   37  O9  UNL     1      53.048  26.161  23.646  1.00  0.00    -0.357 OA
ATOM     38  H9  UNL     1      53.225  26.708  22.890  1.00  0.00     0.217 HD
ENDBRANCH  32  37
ENDBRANCH  22  27
ENDBRANCH  21  22
ENDBRANCH  20  21
ENDBRANCH   1  20
BRANCH   1  39
HETATM   39  C18 UNL     1      53.047  21.271  24.676  1.00  0.00     0.248 C 
HETATM   40  O10 UNL     1      53.223  20.048  24.774  1.00  0.00    -0.271 OA
HETATM   41  N6  UNL     1      54.088  22.008  24.000  1.00  0.00    -0.337 N 
HETATM   42  C19 UNL     1      54.467  21.548  22.877  1.00  0.00     0.084 C 
ATOM     43  H6  UNL     1      54.496  22.851  24.401  1.00  0.00     0.168 HD
BRANCH  42  44
HETATM   44  C20 UNL     1      55.524  22.160  22.025  1.00  0.00     0.174 C 
BRANCH  44  45
HETATM   45  N7  UNL     1      54.840  22.981  21.047  1.00  0.00    -0.338 N 
HETATM   46  C21 UNL     1      53.528  23.323  21.249  1.00  0.00     0.093 A 
HETATM   47  C22 UNL     1      52.872  24.099  20.331  1.00  0.00     0.018 A 
HETATM   48  C23 UNL     1      53.513  24.539  19.208  1.00  0.00     0.014 A 
HETATM   49  C24 UNL     1      54.827  24.201  18.994  1.00  0.00     0.010 A 
HETATM   50  C25 UNL     1      55.457  23.412  19.950  1.00  0.00     0.112 A 
HETATM   51  C28 UNL     1      55.298  24.772  17.746  1.00  0.00     0.221 C 
HETATM   52  N8  UNL     1      56.793  22.973  19.885  1.00  0.00    -0.366 N 
HETATM   53  C26 UNL     1      57.549  22.595  18.695  1.00  0.00     0.232 C 
ATOM     54  H8  UNL     1      57.291  22.912  20.773  1.00  0.00     0.161 HD
HETATM   55  C27 UNL     1      57.601  23.681  17.720  1.00  0.00     0.276 C 
HETATM   56  O11 UNL     1      58.602  23.719  16.972  1.00  0.00    -0.263 OA
HETATM   57  O12 UNL     1      56.678  24.668  17.525  1.00  0.00    -0.315 OA
ENDBRANCH  44  45
ENDBRANCH  42  44
ENDBRANCH   1  39
TORSDOF 17
ENDMDL
MODEL 3
REMARK VINA RESULT: -11.228255367      1.982      7.953
REMARK  17 active torsions:
REMARK  status: ('A' for Active; 'I' for Inactive)
REMARK    1  A    between atoms: N3_11  and  C5_12 
REMARK    2  A    between atoms: C5_12  and  C6_13 
REMARK    3  A    between atoms: C6_13  and  C7_14 
REMARK    4  A    between atoms: C7_14  and  O4_15 
REMARK    5  A    between atoms: C7_14  and  C8_17 
REMARK    6  A    between atoms: C8_17  and  C9_18 
REMARK    7  A    between atoms: C9_18  and  N4_20 
REMARK    8  A    between atoms: C9_18  and  C18_39 
REMARK    9  A    between atoms: N4_20  and  O5_21 
REMARK   10  A    between atoms: O5_21  and  C11_22 
REMARK   11  A    between atoms: C11_22  and  C12_27 
REMARK   12  A    between atoms: N5_23  and  O6_25 
REMARK   13  A    between atoms: C15_30  and  O7_31 
REMARK   14  A    between atoms: C16_33  and  O8_34 
REMARK   15  A    between atoms: C17_36  and  O9_37 
REMARK       I    between atoms: C18_39  and  N6_41 
REMARK   16  A    between atoms: C19_43  and  C20_44 
REMARK   17  A    between atoms: C20_44  and  N7_45 
ROOT
HETATM    1  C9  UNL     1      48.413  22.245  25.669  1.00  0.00     0.137 C 
HETATM    2  C10 UNL     1      48.568  21.461  24.402  1.00  0.00     0.047 C 
ENDROOT
BRANCH   1   3
HETATM    3  C8  UNL     1      49.702  22.787  26.156  1.00  0.00     0.070 C 
BRANCH   3   4
HETATM    4  C7  UNL     1      50.837  21.926  26.516  1.00  0.00     0.122 C 
BRANCH   4   5
HETATM    5  C6  UNL     1      52.178  22.581  26.632  1.00  0.00     0.053 C 
BRANCH   5   6
HETATM    6  C5  UNL     1      52.318  23.560  25.445  1.00  0.00     0.155 C 
BRANCH   6   7
HETATM    7  N3  UNL     1      53.358  23.164  24.539  1.00  0.00    -0.247 N 
HETATM    8  N1  UNL     1      54.588  23.621  24.642  1.00  0.00    -0.242 N 
HETATM    9  C1  UNL     1      54.970  24.571  25.697  1.00  0.00     0.183 C 
HETATM   10  C2  UNL     1      55.537  23.226  23.777  1.00  0.00     0.343 A 
HETATM   11  O1  UNL     1      56.710  23.657  23.868  1.00  0.00    -0.245 OA
HETATM   12  N2  UNL     1      55.279  22.361  22.781  1.00  0.00    -0.270 N 
HETATM   13  C3  UNL     1      54.034  21.890  22.666  1.00  0.00     0.319 A 
ATOM     14  H2  UNL     1      56.011  22.072  22.133  1.00  0.00     0.174 HD
HETATM   15  O2  UNL     1      53.794  21.073  21.723  1.00  0.00    -0.262 OA
HETATM   16  C4  UNL     1      53.051  22.283  23.541  1.00  0.00     0.330 A 
HETATM   17  O3  UNL     1      51.895  21.816  23.397  1.00  0.00    -0.260 OA
ENDBRANCH   6   7
ENDBRANCH   5   6
ENDBRANCH   4   5
BRANCH   4  18
HETATM   18  O4  UNL     1      50.533  21.307  27.783  1.00  0.00    -0.395 OA
ATOM     19  H4  UNL     1      50.246  21.988  28.380  1.00  0.00     0.210 HD
ENDBRANCH   4  18
ENDBRANCH   3   4
ENDBRANCH   1   3
BRANCH   1  20
HETATM   20  N4  UNL     1      47.811  21.347  26.692  1.00  0.00    -0.073 NA
BRANCH  20  21
HETATM   21  O5  UNL     1      47.964  20.044  26.293  1.00  0.00    -0.222 OA
BRANCH  21  22
HETATM   22  C11 UNL     1      46.964  19.125  26.761  1.00  0.00     0.198 C 
HETATM   23  N5  UNL     1      47.327  18.335  27.596  1.00  0.00    -0.245 N 
ATOM     24  H5  UNL     1      48.303  18.614  27.693  1.00  0.00     0.196 HD
BRANCH  23  25
HETATM   25  O6  UNL     1      47.285  17.386  28.428  1.00  0.00    -0.288 OA
ATOM     26  H6  UNL     1      47.571  16.652  28.960  1.00  0.00     0.244 HD
ENDBRANCH  23  25
BRANCH  22  27
HETATM   27  C12 UNL     1      45.627  19.250  26.176  1.00  0.00     0.054 A 
HETATM   28  C13 UNL     1      45.232  18.325  25.208  1.00  0.00     0.022 A 
HETATM   29  C14 UNL     1      43.988  18.432  24.663  1.00  0.00     0.040 A 
HETATM   30  C15 UNL     1      43.123  19.421  25.042  1.00  0.00     0.101 A 
HETATM   31  C16 UNL     1      43.485  20.354  25.999  1.00  0.00     0.133 A 
HETATM   32  C17 UNL     1      44.765  20.242  26.559  1.00  0.00     0.116 A 
BRANCH  30  33
HETATM   33  O7  UNL     1      41.872  19.507  24.475  1.00  0.00    -0.358 OA
ATOM     34  H7  UNL     1      41.097  19.334  24.995  1.00  0.00     0.217 HD
ENDBRANCH  30  33
BRANCH  31  35
HETATM   35  O8  UNL     1      42.582  21.323  26.344  1.00  0.00    -0.356 OA
ATOM     36  H8  UNL     1      41.657  21.111  26.325  1.00  0.00     0.218 HD
ENDBRANCH  31  35
BRANCH  32  37
HETATM   37  O9  UNL     1      45.115  21.177  27.514  1.00  0.00    -0.357 OA
ATOM     38  H9  UNL     1      45.144  22.106  27.314  1.00  0.00     0.217 HD
ENDBRANCH  32  37
ENDBRANCH  22  27
ENDBRANCH  21  22
ENDBRANCH  20  21
ENDBRANCH   1  20
BRANCH   1  39
HETATM   39  C18 UNL     1      47.420  23.353  25.501  1.00  0.00     0.248 C 
HETATM   40  O10 UNL     1      47.771  24.523  25.289  1.00  0.00    -0.271 OA
HETATM   41  N6  UNL     1      45.997  23.123  25.573  1.00  0.00    -0.337 N 
HETATM   42  C19 UNL     1      45.298  23.604  24.627  1.00  0.00     0.084 C 
ATOM     43  H6  UNL     1      45.575  22.601  26.342  1.00  0.00     0.168 HD
BRANCH  42  44
HETATM   44  C20 UNL     1      43.819  23.475  24.517  1.00  0.00     0.174 C 
BRANCH  44  45
HETATM   45  N7  UNL     1      43.269  24.786  24.795  1.00  0.00    -0.338 N 
HETATM   46  C21 UNL     1      43.040  25.657  23.761  1.00  0.00     0.093 A 
HETATM   47  C22 UNL     1      42.520  26.898  24.013  1.00  0.00     0.018 A 
HETATM   48  C23 UNL     1      42.224  27.283  25.290  1.00  0.00     0.014 A 
HETATM   49  C24 UNL     1      42.450  26.419  26.334  1.00  0.00     0.010 A 
HETATM   50  C25 UNL     1      42.980  25.168  26.036  1.00  0.00     0.112 A 
HETATM   51  C28 UNL     1      42.068  27.035  27.591  1.00  0.00     0.221 C 
HETATM   52  N8  UNL     1      43.275  24.168  26.982  1.00  0.00    -0.366 N 
HETATM   53  C26 UNL     1      43.779  24.349  28.340  1.00  0.00     0.232 C 
ATOM     54  H8  UNL     1      43.119  23.205  26.684  1.00  0.00     0.161 HD
HETATM   55  C27 UNL     1      42.888  25.186  29.140  1.00  0.00     0.276 C 
HETATM   56  O11 UNL     1      42.879  24.979  30.373  1.00  0.00    -0.263 OA
HETATM   57  O12 UNL     1      42.060  26.176  28.698  1.00  0.00    -0.315 OA
ENDBRANCH  44  45
ENDBRANCH  42  44
ENDBRANCH   1  39
TORSDOF 17
ENDMDL
MODEL 4
REMARK VINA RESULT: -11.200969335      3.190      5.597
REMARK  17 active torsions:
REMARK  status: ('A' for Active; 'I' for Inactive)
REMARK    1  A    between atoms: N3_11  and  C5_12 
REMARK    2  A    between atoms: C5_12  and  C6_13 
REMARK    3  A    between atoms: C6_13  and  C7_14 
REMARK    4  A    between atoms: C7_14  and  O4_15 
REMARK    5  A    between atoms: C7_14  and  C8_17 
REMARK    6  A    between atoms: C8_17  and  C9_18 
REMARK    7  A    between atoms: C9_18  and  N4_20 
REMARK    8  A    between atoms: C9_18  and  C18_39 
REMARK    9  A    between atoms: N4_20  and  O5_21 
REMARK   10  A    between atoms: O5_21  and  C11_22 
REMARK   11  A    between atoms: C11_22  and  C12_27 
REMARK   12  A    between atoms: N5_23  and  O6_25 
REMARK   13  A    between atoms: C15_30  and  O7_31 
REMARK   14  A    between atoms: C16_33  and  O8_34 
REMARK   15  A    between atoms: C17_36  and  O9_37 
REMARK       I    between atoms: C18_39  and  N6_41 
REMARK   16  A    between atoms: C19_43  and  C20_44 
REMARK   17  A    between atoms: C20_44  and  N7_45 
ROOT
HETATM    1  C9  UNL     1      46.593  20.766  26.663  1.00  0.00     0.137 C 
HETATM    2  C10 UNL     1      47.037  19.388  27.046  1.00  0.00     0.047 C 
ENDROOT
BRANCH   1   3
HETATM    3  C8  UNL     1      47.643  21.782  26.905  1.00  0.00     0.070 C 
BRANCH   3   4
HETATM    4  C7  UNL     1      49.075  21.460  26.887  1.00  0.00     0.122 C 
BRANCH   4   5
HETATM    5  C6  UNL     1      49.962  22.339  26.061  1.00  0.00     0.053 C 
BRANCH   5   6
HETATM    6  C5  UNL     1      51.397  22.198  26.615  1.00  0.00     0.155 C 
BRANCH   6   7
HETATM    7  N3  UNL     1      52.356  22.908  25.817  1.00  0.00    -0.247 N 
HETATM    8  N1  UNL     1      52.686  24.157  26.066  1.00  0.00    -0.242 N 
HETATM    9  C1  UNL     1      52.088  24.904  27.181  1.00  0.00     0.183 C 
HETATM   10  C2  UNL     1      53.590  24.789  25.298  1.00  0.00     0.343 A 
HETATM   11  O1  UNL     1      53.909  25.978  25.527  1.00  0.00    -0.245 OA
HETATM   12  N2  UNL     1      54.188  24.185  24.256  1.00  0.00    -0.270 N 
HETATM   13  C3  UNL     1      53.860  22.916  23.993  1.00  0.00     0.319 A 
ATOM     14  H2  UNL     1      54.871  24.680  23.683  1.00  0.00     0.174 HD
HETATM   15  O2  UNL     1      54.427  22.349  23.008  1.00  0.00    -0.262 OA
HETATM   16  C4  UNL     1      52.938  22.255  24.768  1.00  0.00     0.330 A 
HETATM   17  O3  UNL     1      52.661  21.064  24.486  1.00  0.00    -0.260 OA
ENDBRANCH   6   7
ENDBRANCH   5   6
ENDBRANCH   4   5
BRANCH   4  18
HETATM   18  O4  UNL     1      49.551  21.503  28.249  1.00  0.00    -0.395 OA
ATOM     19  H4  UNL     1      50.488  21.352  28.236  1.00  0.00     0.210 HD
ENDBRANCH   4  18
ENDBRANCH   3   4
ENDBRANCH   1   3
BRANCH   1  20
HETATM   20  N4  UNL     1      45.372  21.089  27.450  1.00  0.00    -0.073 NA
BRANCH  20  21
HETATM   21  O5  UNL     1      44.920  22.333  27.090  1.00  0.00    -0.222 OA
BRANCH  21  22
HETATM   22  C11 UNL     1      43.713  22.772  27.735  1.00  0.00     0.198 C 
HETATM   23  N5  UNL     1      43.164  21.957  28.432  1.00  0.00    -0.245 N 
ATOM     24  H5  UNL     1      43.798  21.167  28.316  1.00  0.00     0.196 HD
BRANCH  23  25
HETATM   25  O6  UNL     1      42.314  21.444  29.212  1.00  0.00    -0.288 OA
ATOM     26  H6  UNL     1      41.895  21.171  30.020  1.00  0.00     0.244 HD
ENDBRANCH  23  25
BRANCH  22  27
HETATM   27  C12 UNL     1      43.291  24.150  27.476  1.00  0.00     0.054 A 
HETATM   28  C13 UNL     1      43.391  24.646  26.175  1.00  0.00     0.022 A 
HETATM   29  C14 UNL     1      42.995  25.926  25.925  1.00  0.00     0.040 A 
HETATM   30  C15 UNL     1      42.505  26.730  26.917  1.00  0.00     0.101 A 
HETATM   31  C16 UNL     1      42.393  26.268  28.217  1.00  0.00     0.133 A 
HETATM   32  C17 UNL     1      42.801  24.951  28.472  1.00  0.00     0.116 A 
BRANCH  30  33
HETATM   33  O7  UNL     1      42.112  28.018  26.637  1.00  0.00    -0.358 OA
ATOM     34  H7  UNL     1      42.719  28.741  26.749  1.00  0.00     0.217 HD
ENDBRANCH  30  33
BRANCH  31  35
HETATM   35  O8  UNL     1      41.895  27.112  29.172  1.00  0.00    -0.356 OA
ATOM     36  H8  UNL     1      41.210  26.794  29.748  1.00  0.00     0.218 HD
ENDBRANCH  31  35
BRANCH  32  37
HETATM   37  O9  UNL     1      42.684  24.500  29.773  1.00  0.00    -0.357 OA
ATOM     38  H9  UNL     1      43.203  24.870  30.477  1.00  0.00     0.217 HD
ENDBRANCH  32  37
ENDBRANCH  22  27
ENDBRANCH  21  22
ENDBRANCH  20  21
ENDBRANCH   1  20
BRANCH   1  39
HETATM   39  C18 UNL     1      46.149  20.814  25.234  1.00  0.00     0.248 C 
HETATM   40  O10 UNL     1      45.413  19.944  24.745  1.00  0.00    -0.271 OA
HETATM   41  N6  UNL     1      46.549  21.877  24.344  1.00  0.00    -0.337 N 
HETATM   42  C19 UNL     1      45.621  22.439  23.680  1.00  0.00     0.084 C 
ATOM     43  H6  UNL     1      47.524  22.163  24.252  1.00  0.00     0.168 HD
BRANCH  42  44
HETATM   44  C20 UNL     1      45.826  23.552  22.714  1.00  0.00     0.174 C 
BRANCH  44  45
HETATM   45  N7  UNL     1      45.685  22.980  21.390  1.00  0.00    -0.338 N 
HETATM   46  C21 UNL     1      45.185  21.710  21.252  1.00  0.00     0.093 A 
HETATM   47  C22 UNL     1      45.048  21.160  20.006  1.00  0.00     0.018 A 
HETATM   48  C23 UNL     1      45.404  21.864  18.891  1.00  0.00     0.014 A 
HETATM   49  C24 UNL     1      45.907  23.136  19.018  1.00  0.00     0.010 A 
HETATM   50  C25 UNL     1      46.032  23.659  20.301  1.00  0.00     0.112 A 
HETATM   51  C28 UNL     1      46.218  23.688  17.712  1.00  0.00     0.221 C 
HETATM   52  N8  UNL     1      46.529  24.939  20.608  1.00  0.00    -0.366 N 
HETATM   53  C26 UNL     1      47.593  25.668  19.924  1.00  0.00     0.232 C 
ATOM     54  H8  UNL     1      46.097  25.412  21.401  1.00  0.00     0.161 HD
HETATM   55  C27 UNL     1      47.295  25.856  18.507  1.00  0.00     0.276 C 
HETATM   56  O11 UNL     1      47.784  26.868  17.959  1.00  0.00    -0.263 OA
HETATM   57  O12 UNL     1      46.542  25.052  17.703  1.00  0.00    -0.315 OA
ENDBRANCH  44  45
ENDBRANCH  42  44
ENDBRANCH   1  39
TORSDOF 17
ENDMDL
MODEL 5
REMARK VINA RESULT: -11.074595897      2.853      5.760
REMARK  17 active torsions:
REMARK  status: ('A' for Active; 'I' for Inactive)
REMARK    1  A    between atoms: N3_11  and  C5_12 
REMARK    2  A    between atoms: C5_12  and  C6_13 
REMARK    3  A    between atoms: C6_13  and  C7_14 
REMARK    4  A    between atoms: C7_14  and  O4_15 
REMARK    5  A    between atoms: C7_14  and  C8_17 
REMARK    6  A    between atoms: C8_17  and  C9_18 
REMARK    7  A    between atoms: C9_18  and  N4_20 
REMARK    8  A    between atoms: C9_18  and  C18_39 
REMARK    9  A    between atoms: N4_20  and  O5_21 
REMARK   10  A    between atoms: O5_21  and  C11_22 
REMARK   11  A    between atoms: C11_22  and  C12_27 
REMARK   12  A    between atoms: N5_23  and  O6_25 
REMARK   13  A    between atoms: C15_30  and  O7_31 
REMARK   14  A    between atoms: C16_33  and  O8_34 
REMARK   15  A    between atoms: C17_36  and  O9_37 
REMARK       I    between atoms: C18_39  and  N6_41 
REMARK   16  A    between atoms: C19_43  and  C20_44 
REMARK   17  A    between atoms: C20_44  and  N7_45 
ROOT
HETATM    1  C9  UNL     1      46.037  21.924  26.349  1.00  0.00     0.137 C 
HETATM    2  C10 UNL     1      46.366  20.635  27.038  1.00  0.00     0.047 C 
ENDROOT
BRANCH   1   3
HETATM    3  C8  UNL     1      47.145  22.401  25.490  1.00  0.00     0.070 C 
BRANCH   3   4
HETATM    4  C7  UNL     1      47.681  23.766  25.575  1.00  0.00     0.122 C 
BRANCH   4   5
HETATM    5  C6  UNL     1      48.842  24.098  24.690  1.00  0.00     0.053 C 
BRANCH   5   6
HETATM    6  C5  UNL     1      50.111  24.087  25.572  1.00  0.00     0.155 C 
BRANCH   6   7
HETATM    7  N3  UNL     1      51.113  23.194  25.065  1.00  0.00    -0.247 N 
HETATM    8  N1  UNL     1      51.314  22.000  25.582  1.00  0.00    -0.242 N 
HETATM    9  C1  UNL     1      50.520  21.510  26.718  1.00  0.00     0.183 C 
HETATM   10  C2  UNL     1      52.260  21.190  25.079  1.00  0.00     0.343 A 
HETATM   11  O1  UNL     1      52.458  20.053  25.566  1.00  0.00    -0.245 OA
HETATM   12  N2  UNL     1      53.034  21.554  24.042  1.00  0.00    -0.270 N 
HETATM   13  C3  UNL     1      52.840  22.763  23.508  1.00  0.00     0.319 A 
ATOM     14  H2  UNL     1      53.748  20.926  23.673  1.00  0.00     0.174 HD
HETATM   15  O2  UNL     1      53.574  23.104  22.528  1.00  0.00    -0.262 OA
HETATM   16  C4  UNL     1      51.877  23.606  24.009  1.00  0.00     0.330 A 
HETATM   17  O3  UNL     1      51.728  24.732  23.478  1.00  0.00    -0.260 OA
ENDBRANCH   6   7
ENDBRANCH   5   6
ENDBRANCH   4   5
BRANCH   4  18
HETATM   18  O4  UNL     1      46.608  24.678  25.260  1.00  0.00    -0.395 OA
ATOM     19  H4  UNL     1      45.825  24.165  25.100  1.00  0.00     0.210 HD
ENDBRANCH   4  18
ENDBRANCH   3   4
ENDBRANCH   1   3
BRANCH   1  20
HETATM   20  N4  UNL     1      45.722  22.935  27.394  1.00  0.00    -0.073 NA
BRANCH  20  21
HETATM   21  O5  UNL     1      44.656  23.692  26.982  1.00  0.00    -0.222 OA
BRANCH  21  22
HETATM   22  C11 UNL     1      43.591  23.846  27.935  1.00  0.00     0.198 C 
HETATM   23  N5  UNL     1      43.371  22.890  28.635  1.00  0.00    -0.245 N 
ATOM     24  H5  UNL     1      44.077  22.244  28.282  1.00  0.00     0.196 HD
BRANCH  23  25
HETATM   25  O6  UNL     1      42.835  22.168  29.521  1.00  0.00    -0.288 OA
ATOM     26  H6  UNL     1      42.471  21.906  30.359  1.00  0.00     0.244 HD
ENDBRANCH  23  25
BRANCH  22  27
HETATM   27  C12 UNL     1      42.899  25.137  27.948  1.00  0.00     0.054 A 
HETATM   28  C13 UNL     1      42.868  25.890  26.773  1.00  0.00     0.022 A 
HETATM   29  C14 UNL     1      42.222  27.090  26.776  1.00  0.00     0.040 A 
HETATM   30  C15 UNL     1      41.608  27.569  27.900  1.00  0.00     0.101 A 
HETATM   31  C16 UNL     1      41.621  26.846  29.081  1.00  0.00     0.133 A 
HETATM   32  C17 UNL     1      42.286  25.612  29.076  1.00  0.00     0.116 A 
BRANCH  30  33
HETATM   33  O7  UNL     1      40.963  28.784  27.876  1.00  0.00    -0.358 OA
ATOM     34  H7  UNL     1      40.327  28.976  27.198  1.00  0.00     0.217 HD
ENDBRANCH  30  33
BRANCH  31  35
HETATM   35  O8  UNL     1      40.991  27.369  30.177  1.00  0.00    -0.356 OA
ATOM     36  H8  UNL     1      40.746  26.784  30.884  1.00  0.00     0.218 HD
ENDBRANCH  31  35
BRANCH  32  37
HETATM   37  O9  UNL     1      42.292  24.899  30.259  1.00  0.00    -0.357 OA
ATOM     38  H9  UNL     1      42.300  25.335  31.103  1.00  0.00     0.217 HD
ENDBRANCH  32  37
ENDBRANCH  22  27
ENDBRANCH  21  22
ENDBRANCH  20  21
ENDBRANCH   1  20
BRANCH   1  39
HETATM   39  C18 UNL     1      44.779  21.802  25.545  1.00  0.00     0.248 C 
HETATM   40  O10 UNL     1      43.828  21.098  25.917  1.00  0.00    -0.271 OA
HETATM   41  N6  UNL     1      44.600  22.498  24.294  1.00  0.00    -0.337 N 
HETATM   42  C19 UNL     1      43.518  23.153  24.162  1.00  0.00     0.084 C 
ATOM     43  H6  UNL     1      45.303  22.466  23.556  1.00  0.00     0.168 HD
BRANCH  42  44
HETATM   44  C20 UNL     1      43.146  23.936  22.952  1.00  0.00     0.174 C 
BRANCH  44  45
HETATM   45  N7  UNL     1      43.133  23.003  21.844  1.00  0.00    -0.338 N 
HETATM   46  C21 UNL     1      42.186  22.011  21.807  1.00  0.00     0.093 A 
HETATM   47  C22 UNL     1      42.164  21.124  20.765  1.00  0.00     0.018 A 
HETATM   48  C23 UNL     1      43.079  21.214  19.755  1.00  0.00     0.014 A 
HETATM   49  C24 UNL     1      44.032  22.203  19.782  1.00  0.00     0.010 A 
HETATM   50  C25 UNL     1      44.021  23.084  20.858  1.00  0.00     0.112 A 
HETATM   51  C28 UNL     1      44.893  22.106  18.617  1.00  0.00     0.221 C 
HETATM   52  N8  UNL     1      44.925  24.147  21.043  1.00  0.00    -0.366 N 
HETATM   53  C26 UNL     1      46.341  24.183  20.690  1.00  0.00     0.232 C 
ATOM     54  H8  UNL     1      44.547  24.990  21.474  1.00  0.00     0.161 HD
HETATM   55  C27 UNL     1      46.550  23.929  19.267  1.00  0.00     0.276 C 
HETATM   56  O11 UNL     1      47.560  24.450  18.746  1.00  0.00    -0.263 OA
HETATM   57  O12 UNL     1      45.769  23.184  18.433  1.00  0.00    -0.315 OA
ENDBRANCH  44  45
ENDBRANCH  42  44
ENDBRANCH   1  39
TORSDOF 17
ENDMDL
