MODEL 1
REMARK VINA RESULT: -8.165928121      0.000      0.000
REMARK  3 active torsions:
REMARK  status: ('A' for Active; 'I' for Inactive)
REMARK    1  A    between atoms: C5_7  and  N2_8 
REMARK    2  A    between atoms: C6_11  and  N3_12 
REMARK    3  A    between atoms: N3_12  and  C7_14 
ROOT
HETATM    1  C1  UNL     1     -44.298 -43.497  30.603  1.00  0.00     0.070 C 
HETATM    2  C2  UNL     1     -44.241 -44.806  29.880  1.00  0.00     0.029 A 
HETATM    3  N1  UNL     1     -43.253 -45.072  29.021  1.00  0.00    -0.360 N 
ATOM      4  H1  UNL     1     -42.531 -44.369  28.863  1.00  0.00     0.165 HD
HETATM    5  C3  UNL     1     -43.184 -46.242  28.360  1.00  0.00     0.041 A 
HETATM    6  C4  UNL     1     -42.049 -46.463  27.417  1.00  0.00     0.071 C 
HETATM    7  C5  UNL     1     -44.146 -47.208  28.557  1.00  0.00     0.153 A 
HETATM    8  C6  UNL     1     -45.208 -46.990  29.447  1.00  0.00     0.092 A 
HETATM    9  C12 UNL     1     -45.206 -45.776  30.080  1.00  0.00     0.085 A 
HETATM   10 CL2  UNL     1     -46.486 -45.396  31.193  1.00  0.00    -0.080 Cl
ENDROOT
BRANCH   8  11
HETATM   11  N3  UNL     1     -46.045 -47.905  29.563  1.00  0.00    -0.350 N 
ATOM     12  H3  UNL     1     -45.619 -48.824  29.686  1.00  0.00     0.166 HD
BRANCH  11  13
HETATM   13  C7  UNL     1     -47.435 -47.941  29.559  1.00  0.00     0.076 A 
HETATM   14  C8  UNL     1     -48.235 -47.361  28.605  1.00  0.00     0.075 A 
HETATM   15  C9  UNL     1     -49.600 -47.436  28.682  1.00  0.00     0.105 A 
HETATM   16 CL1  UNL     1     -50.643 -46.696  27.461  1.00  0.00    -0.064 Cl
HETATM   17  N4  UNL     1     -50.169 -48.099  29.721  1.00  0.00    -0.353 N 
HETATM   18  C10 UNL     1     -49.405 -48.680  30.672  1.00  0.00     0.133 A 
ATOM     19  H4  UNL     1     -51.185 -48.159  29.785  1.00  0.00     0.166 HD
HETATM   20  C11 UNL     1     -48.049 -48.608  30.602  1.00  0.00     0.158 A 
HETATM   21  F1  UNL     1     -47.315 -49.209  31.588  1.00  0.00    -0.202 F 
ENDBRANCH  11  13
ENDBRANCH   8  11
BRANCH   7  22
HETATM   22  N2  UNL     1     -44.003 -48.417  27.828  1.00  0.00    -0.111 N 
HETATM   23  O1  UNL     1     -44.541 -48.550  26.711  1.00  0.00    -0.532 OA
HETATM   24  O2  UNL     1     -43.281 -49.444  28.335  1.00  0.00    -0.532 OA
ENDBRANCH   7  22
TORSDOF 3
ENDMDL
MODEL 2
REMARK VINA RESULT: -7.402540460      3.631      5.259
REMARK  3 active torsions:
REMARK  status: ('A' for Active; 'I' for Inactive)
REMARK    1  A    between atoms: C5_7  and  N2_8 
REMARK    2  A    between atoms: C6_11  and  N3_12 
REMARK    3  A    between atoms: N3_12  and  C7_14 
ROOT
HETATM    1  C1  UNL     1     -40.625 -51.299  27.403  1.00  0.00     0.070 C 
HETATM    2  C2  UNL     1     -40.601 -49.815  27.594  1.00  0.00     0.029 A 
HETATM    3  N1  UNL     1     -39.747 -49.051  26.908  1.00  0.00    -0.360 N 
ATOM      4  H1  UNL     1     -39.108 -49.491  26.246  1.00  0.00     0.165 HD
HETATM    5  C3  UNL     1     -39.707 -47.715  27.065  1.00  0.00     0.041 A 
HETATM    6  C4  UNL     1     -38.724 -46.930  26.263  1.00  0.00     0.071 C 
HETATM    7  C5  UNL     1     -40.560 -47.095  27.951  1.00  0.00     0.153 A 
HETATM    8  C6  UNL     1     -41.482 -47.843  28.700  1.00  0.00     0.092 A 
HETATM    9  C12 UNL     1     -41.458 -49.194  28.482  1.00  0.00     0.085 A 
HETATM   10 CL2  UNL     1     -42.549 -50.217  29.369  1.00  0.00    -0.080 Cl
ENDROOT
BRANCH   8  11
HETATM   11  N3  UNL     1     -42.211 -47.214  29.489  1.00  0.00    -0.350 N 
ATOM     12  H3  UNL     1     -41.793 -47.095  30.412  1.00  0.00     0.166 HD
BRANCH  11  13
HETATM   13  C7  UNL     1     -43.473 -46.639  29.382  1.00  0.00     0.076 A 
HETATM   14  C8  UNL     1     -44.594 -47.283  28.918  1.00  0.00     0.075 A 
HETATM   15  C9  UNL     1     -45.799 -46.639  28.835  1.00  0.00     0.105 A 
HETATM   16 CL1  UNL     1     -47.251 -47.454  28.242  1.00  0.00    -0.064 Cl
HETATM   17  N4  UNL     1     -45.883 -45.340  29.221  1.00  0.00    -0.353 N 
HETATM   18  C10 UNL     1     -44.797 -44.684  29.683  1.00  0.00     0.133 A 
ATOM     19  H4  UNL     1     -46.778 -44.854  29.163  1.00  0.00     0.166 HD
HETATM   20  C11 UNL     1     -43.596 -45.318  29.767  1.00  0.00     0.158 A 
HETATM   21  F1  UNL     1     -42.522 -44.614  30.238  1.00  0.00    -0.202 F 
ENDBRANCH  11  13
ENDBRANCH   8  11
BRANCH   7  22
HETATM   22  N2  UNL     1     -40.463 -45.684  28.059  1.00  0.00    -0.111 N 
HETATM   23  O1  UNL     1     -41.124 -44.943  27.304  1.00  0.00    -0.532 OA
HETATM   24  O2  UNL     1     -39.649 -45.120  28.984  1.00  0.00    -0.532 OA
ENDBRANCH   7  22
TORSDOF 3
ENDMDL
MODEL 3
REMARK VINA RESULT: -7.301220459      1.553      1.844
REMARK  3 active torsions:
REMARK  status: ('A' for Active; 'I' for Inactive)
REMARK    1  A    between atoms: C5_7  and  N2_8 
REMARK    2  A    between atoms: C6_11  and  N3_12 
REMARK    3  A    between atoms: N3_12  and  C7_14 
ROOT
HETATM    1  C1  UNL     1     -44.729 -43.444  31.267  1.00  0.00     0.070 C 
HETATM    2  C2  UNL     1     -44.645 -44.744  30.531  1.00  0.00     0.029 A 
HETATM    3  N1  UNL     1     -43.611 -45.010  29.728  1.00  0.00    -0.360 N 
ATOM      4  H1  UNL     1     -42.873 -44.315  29.623  1.00  0.00     0.165 HD
HETATM    5  C3  UNL     1     -43.516 -46.172  29.055  1.00  0.00     0.041 A 
HETATM    6  C4  UNL     1     -42.330 -46.394  28.177  1.00  0.00     0.071 C 
HETATM    7  C5  UNL     1     -44.499 -47.128  29.181  1.00  0.00     0.153 A 
HETATM    8  C6  UNL     1     -45.610 -46.909  30.010  1.00  0.00     0.092 A 
HETATM    9  C12 UNL     1     -45.631 -45.703  30.659  1.00  0.00     0.085 A 
HETATM   10 CL2  UNL     1     -46.970 -45.323  31.700  1.00  0.00    -0.080 Cl
ENDROOT
BRANCH   8  11
HETATM   11  N3  UNL     1     -46.463 -47.814  30.062  1.00  0.00    -0.350 N 
ATOM     12  H3  UNL     1     -46.090 -48.697  30.413  1.00  0.00     0.166 HD
BRANCH  11  13
HETATM   13  C7  UNL     1     -47.816 -47.880  29.745  1.00  0.00     0.076 A 
HETATM   14  C8  UNL     1     -48.801 -48.330  30.590  1.00  0.00     0.075 A 
HETATM   15  C9  UNL     1     -50.111 -48.371  30.193  1.00  0.00     0.105 A 
HETATM   16 CL1  UNL     1     -51.391 -48.946  31.270  1.00  0.00    -0.064 Cl
HETATM   17  N4  UNL     1     -50.437 -47.958  28.943  1.00  0.00    -0.353 N 
HETATM   18  C10 UNL     1     -49.488 -47.511  28.093  1.00  0.00     0.133 A 
ATOM     19  H4  UNL     1     -51.411 -47.986  28.641  1.00  0.00     0.166 HD
HETATM   20  C11 UNL     1     -48.185 -47.467  28.480  1.00  0.00     0.158 A 
HETATM   21  F1  UNL     1     -47.257 -47.009  27.585  1.00  0.00    -0.202 F 
ENDBRANCH  11  13
ENDBRANCH   8  11
BRANCH   7  22
HETATM   22  N2  UNL     1     -44.328 -48.329  28.444  1.00  0.00    -0.111 N 
HETATM   23  O1  UNL     1     -44.733 -48.413  27.268  1.00  0.00    -0.532 OA
HETATM   24  O2  UNL     1     -43.723 -49.401  29.009  1.00  0.00    -0.532 OA
ENDBRANCH   7  22
TORSDOF 3
ENDMDL
MODEL 4
REMARK VINA RESULT: -7.269110573      2.071      2.543
REMARK  3 active torsions:
REMARK  status: ('A' for Active; 'I' for Inactive)
REMARK    1  A    between atoms: C5_7  and  N2_8 
REMARK    2  A    between atoms: C6_11  and  N3_12 
REMARK    3  A    between atoms: N3_12  and  C7_14 
ROOT
HETATM    1  C1  UNL     1     -40.971 -44.303  28.285  1.00  0.00     0.070 C 
HETATM    2  C2  UNL     1     -41.613 -45.636  28.066  1.00  0.00     0.029 A 
HETATM    3  N1  UNL     1     -41.260 -46.405  27.032  1.00  0.00    -0.360 N 
ATOM      4  H1  UNL     1     -40.541 -46.073  26.390  1.00  0.00     0.165 HD
HETATM    5  C3  UNL     1     -41.826 -47.607  26.816  1.00  0.00     0.041 A 
HETATM    6  C4  UNL     1     -41.377 -48.406  25.638  1.00  0.00     0.071 C 
HETATM    7  C5  UNL     1     -42.798 -48.079  27.669  1.00  0.00     0.153 A 
HETATM    8  C6  UNL     1     -43.211 -47.320  28.774  1.00  0.00     0.092 A 
HETATM    9  C12 UNL     1     -42.588 -46.110  28.924  1.00  0.00     0.085 A 
HETATM   10 CL2  UNL     1     -43.035 -45.082  30.252  1.00  0.00    -0.080 Cl
ENDROOT
BRANCH   8  11
HETATM   11  N3  UNL     1     -44.104 -47.808  29.493  1.00  0.00    -0.350 N 
ATOM     12  H3  UNL     1     -43.772 -48.574  30.079  1.00  0.00     0.166 HD
BRANCH  11  13
HETATM   13  C7  UNL     1     -45.456 -47.532  29.667  1.00  0.00     0.076 A 
HETATM   14  C8  UNL     1     -46.420 -47.680  28.700  1.00  0.00     0.075 A 
HETATM   15  C9  UNL     1     -47.731 -47.375  28.953  1.00  0.00     0.105 A 
HETATM   16 CL1  UNL     1     -48.984 -47.563  27.720  1.00  0.00    -0.064 Cl
HETATM   17  N4  UNL     1     -48.079 -46.920  30.183  1.00  0.00    -0.353 N 
HETATM   18  C10 UNL     1     -47.151 -46.767  31.152  1.00  0.00     0.133 A 
ATOM     19  H4  UNL     1     -49.054 -46.691  30.378  1.00  0.00     0.166 HD
HETATM   20  C11 UNL     1     -45.847 -47.067  30.907  1.00  0.00     0.158 A 
HETATM   21  F1  UNL     1     -44.941 -46.893  31.917  1.00  0.00    -0.202 F 
ENDBRANCH  11  13
ENDBRANCH   8  11
BRANCH   7  22
HETATM   22  N2  UNL     1     -43.345 -49.356  27.379  1.00  0.00    -0.111 N 
HETATM   23  O1  UNL     1     -44.238 -49.482  26.518  1.00  0.00    -0.532 OA
HETATM   24  O2  UNL     1     -42.905 -50.457  28.034  1.00  0.00    -0.532 OA
ENDBRANCH   7  22
TORSDOF 3
ENDMDL
MODEL 5
REMARK VINA RESULT: -7.059037624      3.175      4.894
REMARK  3 active torsions:
REMARK  status: ('A' for Active; 'I' for Inactive)
REMARK    1  A    between atoms: C5_7  and  N2_8 
REMARK    2  A    between atoms: C6_11  and  N3_12 
REMARK    3  A    between atoms: N3_12  and  C7_14 
ROOT
HETATM    1  C1  UNL     1     -39.629 -45.790  24.812  1.00  0.00     0.070 C 
HETATM    2  C2  UNL     1     -40.285 -46.894  25.579  1.00  0.00     0.029 A 
HETATM    3  N1  UNL     1     -40.224 -48.157  25.148  1.00  0.00    -0.360 N 
ATOM      4  H1  UNL     1     -39.720 -48.363  24.285  1.00  0.00     0.165 HD
HETATM    5  C3  UNL     1     -40.808 -49.165  25.821  1.00  0.00     0.041 A 
HETATM    6  C4  UNL     1     -40.695 -50.549  25.274  1.00  0.00     0.071 C 
HETATM    7  C5  UNL     1     -41.492 -48.914  26.990  1.00  0.00     0.153 A 
HETATM    8  C6  UNL     1     -41.591 -47.610  27.495  1.00  0.00     0.092 A 
HETATM    9  C12 UNL     1     -40.971 -46.642  26.752  1.00  0.00     0.085 A 
HETATM   10 CL2  UNL     1     -41.043 -44.987  27.281  1.00  0.00    -0.080 Cl
ENDROOT
BRANCH   8  11
HETATM   11  N3  UNL     1     -42.237 -47.460  28.549  1.00  0.00    -0.350 N 
ATOM     12  H3  UNL     1     -41.757 -47.832  29.369  1.00  0.00     0.166 HD
BRANCH  11  13
HETATM   13  C7  UNL     1     -43.472 -46.893  28.848  1.00  0.00     0.076 A 
HETATM   14  C8  UNL     1     -44.681 -47.357  28.390  1.00  0.00     0.075 A 
HETATM   15  C9  UNL     1     -45.853 -46.732  28.725  1.00  0.00     0.105 A 
HETATM   16 CL1  UNL     1     -47.417 -47.318  28.146  1.00  0.00    -0.064 Cl
HETATM   17  N4  UNL     1     -45.814 -45.637  29.526  1.00  0.00    -0.353 N 
HETATM   18  C10 UNL     1     -44.638 -45.162  29.991  1.00  0.00     0.133 A 
ATOM     19  H4  UNL     1     -46.683 -45.167  29.780  1.00  0.00     0.166 HD
HETATM   20  C11 UNL     1     -43.470 -45.777  29.661  1.00  0.00     0.158 A 
HETATM   21  F1  UNL     1     -42.303 -45.259  30.153  1.00  0.00    -0.202 F 
ENDBRANCH  11  13
ENDBRANCH   8  11
BRANCH   7  22
HETATM   22  N2  UNL     1     -42.077 -50.029  27.646  1.00  0.00    -0.111 N 
HETATM   23  O1  UNL     1     -43.222 -50.416  27.337  1.00  0.00    -0.532 OA
HETATM   24  O2  UNL     1     -41.401 -50.687  28.617  1.00  0.00    -0.532 OA
ENDBRANCH   7  22
TORSDOF 3
ENDMDL
