MODEL 1
REMARK VINA RESULT: -5.132555464      0.000      0.000
REMARK  3 active torsions:
REMARK  status: ('A' for Active; 'I' for Inactive)
REMARK    1  A    between atoms: C2_2  and  C3_3 
REMARK    2  A    between atoms: C3_3  and  C4_4 
REMARK    3  A    between atoms: C4_4  and  N1_5 
ROOT
HETATM    1  C3  UNL     1       1.659 -18.216  -5.796  1.00  0.00     0.052 C 
HETATM    2  C5  UNL     1       2.356 -19.268  -5.012  1.00  0.00     0.037 C 
HETATM    3  C6  UNL     1       1.508 -19.983  -4.004  1.00  0.00    -0.012 C 
HETATM    4  C7  UNL     1       2.352 -20.757  -3.048  1.00  0.00     0.010 C 
HETATM    5  C8  UNL     1       0.662 -18.914  -3.304  1.00  0.00     0.048 C 
HETATM    6  C9  UNL     1      -0.278 -18.424  -4.352  1.00  0.00     0.057 C 
HETATM    7  N2  UNL     1       0.273 -18.065  -5.584  1.00  0.00    -0.391 N 
ATOM      8  H2  UNL     1      -0.323 -17.697  -6.326  1.00  0.00     0.159 HD
ENDROOT
BRANCH   1   9
HETATM    9  C2  UNL     1       2.332 -16.887  -5.539  1.00  0.00     0.028 C 
HETATM   10  C1  UNL     1       3.810 -16.911  -5.633  1.00  0.00     0.007 C 
ENDBRANCH   1   9
BRANCH   1  11
HETATM   11  C4  UNL     1       1.780 -18.608  -7.279  1.00  0.00     0.260 C 
BRANCH  11  12
HETATM   12  N1  UNL     1       1.049 -17.715  -8.127  1.00  0.00    -0.077 N 
ATOM     13  H13 UNL     1       0.130 -17.504  -7.739  1.00  0.00     0.274 HD
ATOM     14  H12 UNL     1       1.449 -16.777  -8.111  1.00  0.00     0.274 HD
ATOM     15  H11 UNL     1       0.978 -18.071  -9.080  1.00  0.00     0.274 HD
ENDBRANCH  11  12
ENDBRANCH   1  11
TORSDOF 3
ENDMDL
MODEL 2
REMARK VINA RESULT: -4.899611338      3.185      3.916
REMARK  3 active torsions:
REMARK  status: ('A' for Active; 'I' for Inactive)
REMARK    1  A    between atoms: C2_2  and  C3_3 
REMARK    2  A    between atoms: C3_3  and  C4_4 
REMARK    3  A    between atoms: C4_4  and  N1_5 
ROOT
HETATM    1  C3  UNL     1       4.159 -20.740  -5.221  1.00  0.00     0.052 C 
HETATM    2  C5  UNL     1       3.319 -20.741  -3.995  1.00  0.00     0.037 C 
HETATM    3  C6  UNL     1       1.921 -20.233  -4.177  1.00  0.00    -0.012 C 
HETATM    4  C7  UNL     1       1.281 -19.948  -2.859  1.00  0.00     0.010 C 
HETATM    5  C8  UNL     1       2.018 -18.985  -5.061  1.00  0.00     0.048 C 
HETATM    6  C9  UNL     1       2.442 -19.495  -6.395  1.00  0.00     0.057 C 
HETATM    7  N2  UNL     1       3.537 -20.361  -6.428  1.00  0.00    -0.391 N 
ATOM      8  H2  UNL     1       3.885 -20.716  -7.319  1.00  0.00     0.159 HD
ENDROOT
BRANCH   1   9
HETATM    9  C2  UNL     1       5.357 -19.846  -4.995  1.00  0.00     0.028 C 
HETATM   10  C1  UNL     1       6.553 -20.197  -5.796  1.00  0.00     0.007 C 
ENDBRANCH   1   9
BRANCH   1  11
HETATM   11  C4  UNL     1       4.603 -22.194  -5.460  1.00  0.00     0.260 C 
BRANCH  11  12
HETATM   12  N1  UNL     1       4.502 -22.984  -4.269  1.00  0.00    -0.077 N 
ATOM     13  H13 UNL     1       4.748 -23.957  -4.448  1.00  0.00     0.274 HD
ATOM     14  H12 UNL     1       5.240 -22.752  -3.605  1.00  0.00     0.274 HD
ATOM     15  H11 UNL     1       3.580 -22.907  -3.840  1.00  0.00     0.274 HD
ENDBRANCH  11  12
ENDBRANCH   1  11
TORSDOF 3
ENDMDL
MODEL 3
REMARK VINA RESULT: -4.771755930      9.456     10.627
REMARK  3 active torsions:
REMARK  status: ('A' for Active; 'I' for Inactive)
REMARK    1  A    between atoms: C2_2  and  C3_3 
REMARK    2  A    between atoms: C3_3  and  C4_4 
REMARK    3  A    between atoms: C4_4  and  N1_5 
ROOT
HETATM    1  C3  UNL     1      -3.671 -24.644 -10.013  1.00  0.00     0.052 C 
HETATM    2  C5  UNL     1      -4.309 -24.477 -11.344  1.00  0.00     0.037 C 
HETATM    3  C6  UNL     1      -4.933 -25.713 -11.915  1.00  0.00    -0.012 C 
HETATM    4  C7  UNL     1      -5.232 -25.540 -13.367  1.00  0.00     0.010 C 
HETATM    5  C8  UNL     1      -3.952 -26.861 -11.655  1.00  0.00     0.048 C 
HETATM    6  C9  UNL     1      -3.965 -27.045 -10.176  1.00  0.00     0.057 C 
HETATM    7  N2  UNL     1      -3.800 -25.903  -9.390  1.00  0.00    -0.391 N 
ATOM      8  H2  UNL     1      -3.773 -25.977  -8.373  1.00  0.00     0.159 HD
ENDROOT
BRANCH   1   9
HETATM    9  C2  UNL     1      -2.201 -24.313 -10.128  1.00  0.00     0.028 C 
HETATM   10  C1  UNL     1      -1.701 -24.183 -11.517  1.00  0.00     0.007 C 
ENDBRANCH   1   9
BRANCH   1  11
HETATM   11  C4  UNL     1      -4.374 -23.668  -9.054  1.00  0.00     0.260 C 
BRANCH  11  12
HETATM   12  N1  UNL     1      -4.290 -24.105  -7.692  1.00  0.00    -0.077 N 
ATOM     13  H13 UNL     1      -4.034 -25.091  -7.634  1.00  0.00     0.274 HD
ATOM     14  H12 UNL     1      -3.479 -23.703  -7.223  1.00  0.00     0.274 HD
ATOM     15  H11 UNL     1      -5.149 -23.914  -7.178  1.00  0.00     0.274 HD
ENDBRANCH  11  12
ENDBRANCH   1  11
TORSDOF 3
ENDMDL
MODEL 4
REMARK VINA RESULT: -4.762934883      2.894      4.335
REMARK  3 active torsions:
REMARK  status: ('A' for Active; 'I' for Inactive)
REMARK    1  A    between atoms: C2_2  and  C3_3 
REMARK    2  A    between atoms: C3_3  and  C4_4 
REMARK    3  A    between atoms: C4_4  and  N1_5 
ROOT
HETATM    1  C3  UNL     1       0.099 -16.281  -8.169  1.00  0.00     0.052 C 
HETATM    2  C5  UNL     1       1.175 -16.793  -9.055  1.00  0.00     0.037 C 
HETATM    3  C6  UNL     1       1.835 -18.058  -8.596  1.00  0.00    -0.012 C 
HETATM    4  C7  UNL     1       3.104 -18.300  -9.342  1.00  0.00     0.010 C 
HETATM    5  C8  UNL     1       2.063 -17.912  -7.088  1.00  0.00     0.048 C 
HETATM    6  C9  UNL     1       0.697 -17.927  -6.492  1.00  0.00     0.057 C 
HETATM    7  N2  UNL     1      -0.253 -17.074  -7.057  1.00  0.00    -0.391 N 
ATOM      8  H2  UNL     1      -1.195 -17.025  -6.669  1.00  0.00     0.159 HD
ENDROOT
BRANCH   1   9
HETATM    9  C2  UNL     1       0.482 -14.905  -7.676  1.00  0.00     0.028 C 
HETATM   10  C1  UNL     1      -0.624 -13.918  -7.667  1.00  0.00     0.007 C 
ENDBRANCH   1   9
BRANCH   1  11
HETATM   11  C4  UNL     1      -1.185 -16.218  -9.016  1.00  0.00     0.260 C 
BRANCH  11  12
HETATM   12  N1  UNL     1      -2.221 -17.046  -8.475  1.00  0.00    -0.077 N 
ATOM     13  H13 UNL     1      -2.644 -17.629  -9.197  1.00  0.00     0.274 HD
ATOM     14  H12 UNL     1      -1.837 -17.781  -7.881  1.00  0.00     0.274 HD
ATOM     15  H11 UNL     1      -2.925 -16.498  -7.980  1.00  0.00     0.274 HD
ENDBRANCH  11  12
ENDBRANCH   1  11
TORSDOF 3
ENDMDL
MODEL 5
REMARK VINA RESULT: -4.745444309      2.652      4.019
REMARK  3 active torsions:
REMARK  status: ('A' for Active; 'I' for Inactive)
REMARK    1  A    between atoms: C2_2  and  C3_3 
REMARK    2  A    between atoms: C3_3  and  C4_4 
REMARK    3  A    between atoms: C4_4  and  N1_5 
ROOT
HETATM    1  C3  UNL     1       3.271 -20.526  -4.977  1.00  0.00     0.052 C 
HETATM    2  C5  UNL     1       3.728 -19.204  -5.478  1.00  0.00     0.037 C 
HETATM    3  C6  UNL     1       2.826 -18.051  -5.157  1.00  0.00    -0.012 C 
HETATM    4  C7  UNL     1       3.175 -16.854  -5.976  1.00  0.00     0.010 C 
HETATM    5  C8  UNL     1       1.393 -18.531  -5.406  1.00  0.00     0.048 C 
HETATM    6  C9  UNL     1       1.143 -19.550  -4.347  1.00  0.00     0.057 C 
HETATM    7  N2  UNL     1       2.107 -20.547  -4.182  1.00  0.00    -0.391 N 
ATOM      8  H2  UNL     1       1.971 -21.285  -3.491  1.00  0.00     0.159 HD
ENDROOT
BRANCH   1   9
HETATM    9  C2  UNL     1       3.067 -21.452  -6.155  1.00  0.00     0.028 C 
HETATM   10  C1  UNL     1       3.538 -20.917  -7.454  1.00  0.00     0.007 C 
ENDBRANCH   1   9
BRANCH   1  11
HETATM   11  C4  UNL     1       4.378 -21.060  -4.051  1.00  0.00     0.260 C 
BRANCH  11  12
HETATM   12  N1  UNL     1       4.216 -22.456  -3.778  1.00  0.00    -0.077 N 
ATOM     13  H13 UNL     1       5.094 -22.962  -3.896  1.00  0.00     0.274 HD
ATOM     14  H12 UNL     1       4.066 -22.626  -2.784  1.00  0.00     0.274 HD
ATOM     15  H11 UNL     1       3.472 -22.869  -4.341  1.00  0.00     0.274 HD
ENDBRANCH  11  12
ENDBRANCH   1  11
TORSDOF 3
ENDMDL
