MODEL 1
REMARK VINA RESULT: -5.627661922      0.000      0.000
REMARK  2 active torsions:
REMARK  status: ('A' for Active; 'I' for Inactive)
REMARK    1  A    between atoms: C2_2  and  N1_3 
REMARK    2  A    between atoms: N1_3  and  C3_6 
ROOT
HETATM    1  C3  UNL     1       4.146 -21.435  -4.330  1.00  0.00     0.186 C 
HETATM    2  C4  UNL     1       4.788 -22.704  -4.715  1.00  0.00     0.033 C 
HETATM    3  C5  UNL     1       6.039 -22.655  -5.504  1.00  0.00     0.010 C 
HETATM    4  C6  UNL     1       6.092 -21.640  -6.598  1.00  0.00     0.042 C 
HETATM    5  C7  UNL     1       7.402 -21.793  -7.361  1.00  0.00     0.239 C 
HETATM    6  N2  UNL     1       8.017 -20.952  -6.347  1.00  0.00    -0.070 N 
ATOM      7  H21 UNL     1       8.824 -20.370  -6.571  1.00  0.00     0.277 HD
ATOM      8  H22 UNL     1       8.548 -21.364  -5.579  1.00  0.00     0.277 HD
HETATM    9  C8  UNL     1       6.743 -20.371  -6.119  1.00  0.00     0.191 C 
HETATM   10  C9  UNL     1       6.279 -20.135  -4.722  1.00  0.00     0.035 C 
HETATM   11  C10 UNL     1       4.782 -20.166  -4.749  1.00  0.00     0.035 C 
ENDROOT
BRANCH   1  12
HETATM   12  N1  UNL     1       2.789 -21.423  -4.885  1.00  0.00    -0.071 N 
ATOM     13  H12 UNL     1       2.296 -22.291  -4.679  1.00  0.00     0.277 HD
ATOM     14  H11 UNL     1       2.802 -21.485  -5.903  1.00  0.00     0.277 HD
BRANCH  12  15
HETATM   15  C2  UNL     1       2.041 -20.276  -4.439  1.00  0.00     0.228 C 
HETATM   16  C1  UNL     1       1.543 -20.431  -3.023  1.00  0.00     0.034 C 
ENDBRANCH  12  15
ENDBRANCH   1  12
TORSDOF 2
ENDMDL
MODEL 2
REMARK VINA RESULT: -5.594220333      2.375      5.149
REMARK  2 active torsions:
REMARK  status: ('A' for Active; 'I' for Inactive)
REMARK    1  A    between atoms: C2_2  and  N1_3 
REMARK    2  A    between atoms: N1_3  and  C3_6 
ROOT
HETATM    1  C3  UNL     1       3.145 -20.351  -4.383  1.00  0.00     0.186 C 
HETATM    2  C4  UNL     1       3.816 -19.390  -5.276  1.00  0.00     0.033 C 
HETATM    3  C5  UNL     1       3.012 -18.307  -5.887  1.00  0.00     0.010 C 
HETATM    4  C6  UNL     1       1.657 -18.690  -6.383  1.00  0.00     0.042 C 
HETATM    5  C7  UNL     1       1.014 -17.487  -7.061  1.00  0.00     0.239 C 
HETATM    6  N2  UNL     1       0.574 -17.060  -5.742  1.00  0.00    -0.070 N 
ATOM      7  H21 UNL     1      -0.273 -16.503  -5.630  1.00  0.00     0.277 HD
ATOM      8  H22 UNL     1       1.091 -16.349  -5.225  1.00  0.00     0.277 HD
HETATM    9  C8  UNL     1       0.609 -18.420  -5.339  1.00  0.00     0.191 C 
HETATM   10  C9  UNL     1       1.196 -18.783  -4.018  1.00  0.00     0.035 C 
HETATM   11  C10 UNL     1       1.695 -20.190  -4.135  1.00  0.00     0.035 C 
ENDROOT
BRANCH   1  12
HETATM   12  N1  UNL     1       3.325 -21.694  -4.940  1.00  0.00    -0.071 N 
ATOM     13  H12 UNL     1       3.470 -21.662  -5.949  1.00  0.00     0.277 HD
ATOM     14  H11 UNL     1       2.454 -22.225  -4.921  1.00  0.00     0.277 HD
BRANCH  12  15
HETATM   15  C2  UNL     1       4.388 -22.407  -4.279  1.00  0.00     0.228 C 
HETATM   16  C1  UNL     1       5.443 -22.889  -5.245  1.00  0.00     0.034 C 
ENDBRANCH  12  15
ENDBRANCH   1  12
TORSDOF 2
ENDMDL
MODEL 3
REMARK VINA RESULT: -5.425866903      1.473      4.711
REMARK  2 active torsions:
REMARK  status: ('A' for Active; 'I' for Inactive)
REMARK    1  A    between atoms: C2_2  and  N1_3 
REMARK    2  A    between atoms: N1_3  and  C3_6 
ROOT
HETATM    1  C3  UNL     1       6.333 -21.496  -6.145  1.00  0.00     0.186 C 
HETATM    2  C4  UNL     1       5.868 -22.617  -5.309  1.00  0.00     0.033 C 
HETATM    3  C5  UNL     1       4.594 -22.471  -4.571  1.00  0.00     0.010 C 
HETATM    4  C6  UNL     1       4.351 -21.146  -3.927  1.00  0.00     0.042 C 
HETATM    5  C7  UNL     1       3.049 -21.204  -3.138  1.00  0.00     0.239 C 
HETATM    6  N2  UNL     1       2.357 -20.895  -4.380  1.00  0.00    -0.070 N 
ATOM      7  H21 UNL     1       1.466 -20.400  -4.371  1.00  0.00     0.277 HD
ATOM      8  H22 UNL     1       1.923 -21.634  -4.933  1.00  0.00     0.277 HD
HETATM    9  C8  UNL     1       3.541 -20.254  -4.828  1.00  0.00     0.191 C 
HETATM   10  C9  UNL     1       4.020 -20.479  -6.222  1.00  0.00     0.035 C 
HETATM   11  C10 UNL     1       5.503 -20.273  -6.211  1.00  0.00     0.035 C 
ENDROOT
BRANCH   1  12
HETATM   12  N1  UNL     1       7.651 -21.079  -5.658  1.00  0.00    -0.071 N 
ATOM     13  H12 UNL     1       7.571 -20.354  -4.945  1.00  0.00     0.277 HD
ATOM     14  H11 UNL     1       8.160 -20.550  -6.367  1.00  0.00     0.277 HD
BRANCH  12  15
HETATM   15  C2  UNL     1       8.423 -22.199  -5.184  1.00  0.00     0.228 C 
HETATM   16  C1  UNL     1       9.874 -22.108  -5.591  1.00  0.00     0.034 C 
ENDBRANCH  12  15
ENDBRANCH   1  12
TORSDOF 2
ENDMDL
MODEL 4
REMARK VINA RESULT: -5.292593353      1.006      1.029
REMARK  2 active torsions:
REMARK  status: ('A' for Active; 'I' for Inactive)
REMARK    1  A    between atoms: C2_2  and  N1_3 
REMARK    2  A    between atoms: N1_3  and  C3_6 
ROOT
HETATM    1  C3  UNL     1       4.049 -21.124  -3.949  1.00  0.00     0.186 C 
HETATM    2  C4  UNL     1       4.550 -22.491  -4.179  1.00  0.00     0.033 C 
HETATM    3  C5  UNL     1       5.423 -22.740  -5.348  1.00  0.00     0.010 C 
HETATM    4  C6  UNL     1       5.036 -22.058  -6.619  1.00  0.00     0.042 C 
HETATM    5  C7  UNL     1       5.980 -22.499  -7.730  1.00  0.00     0.239 C 
HETATM    6  N2  UNL     1       6.895 -21.463  -7.277  1.00  0.00    -0.070 N 
ATOM      7  H21 UNL     1       7.543 -21.018  -7.928  1.00  0.00     0.277 HD
ATOM      8  H22 UNL     1       7.683 -21.691  -6.672  1.00  0.00     0.277 HD
HETATM    9  C8  UNL     1       5.773 -20.756  -6.772  1.00  0.00     0.191 C 
HETATM   10  C9  UNL     1       5.844 -20.126  -5.423  1.00  0.00     0.035 C 
HETATM   11  C10 UNL     1       4.443 -20.060  -4.898  1.00  0.00     0.035 C 
ENDROOT
BRANCH   1  12
HETATM   12  N1  UNL     1       2.584 -21.168  -3.957  1.00  0.00    -0.071 N 
ATOM     13  H12 UNL     1       2.214 -21.374  -3.030  1.00  0.00     0.277 HD
ATOM     14  H11 UNL     1       2.238 -21.989  -4.453  1.00  0.00     0.277 HD
BRANCH  12  15
HETATM   15  C2  UNL     1       2.018 -19.955  -4.491  1.00  0.00     0.228 C 
HETATM   16  C1  UNL     1       0.806 -19.499  -3.716  1.00  0.00     0.034 C 
ENDBRANCH  12  15
ENDBRANCH   1  12
TORSDOF 2
ENDMDL
MODEL 5
REMARK VINA RESULT: -5.285587310      2.458      5.593
REMARK  2 active torsions:
REMARK  status: ('A' for Active; 'I' for Inactive)
REMARK    1  A    between atoms: C2_2  and  N1_3 
REMARK    2  A    between atoms: N1_3  and  C3_6 
ROOT
HETATM    1  C3  UNL     1       3.627 -19.540  -5.975  1.00  0.00     0.186 C 
HETATM    2  C4  UNL     1       2.920 -20.435  -5.043  1.00  0.00     0.033 C 
HETATM    3  C5  UNL     1       1.553 -20.072  -4.608  1.00  0.00     0.010 C 
HETATM    4  C6  UNL     1       1.320 -18.630  -4.295  1.00  0.00     0.042 C 
HETATM    5  C7  UNL     1      -0.101 -18.453  -3.777  1.00  0.00     0.239 C 
HETATM    6  N2  UNL     1      -0.529 -18.375  -5.164  1.00  0.00    -0.070 N 
ATOM      7  H21 UNL     1      -1.359 -17.842  -5.425  1.00  0.00     0.277 HD
ATOM      8  H22 UNL     1      -0.923 -19.189  -5.636  1.00  0.00     0.277 HD
HETATM    9  C8  UNL     1       0.769 -17.905  -5.491  1.00  0.00     0.191 C 
HETATM   10  C9  UNL     1       1.467 -18.441  -6.695  1.00  0.00     0.035 C 
HETATM   11  C10 UNL     1       2.937 -18.316  -6.438  1.00  0.00     0.035 C 
ENDROOT
BRANCH   1  12
HETATM   12  N1  UNL     1       4.869 -19.100  -5.333  1.00  0.00    -0.071 N 
ATOM     13  H12 UNL     1       4.732 -18.927  -4.338  1.00  0.00     0.277 HD
ATOM     14  H11 UNL     1       5.125 -18.156  -5.625  1.00  0.00     0.277 HD
BRANCH  12  15
HETATM   15  C2  UNL     1       5.945 -20.030  -5.561  1.00  0.00     0.228 C 
HETATM   16  C1  UNL     1       6.453 -20.644  -4.280  1.00  0.00     0.034 C 
ENDBRANCH  12  15
ENDBRANCH   1  12
TORSDOF 2
ENDMDL
