MODEL 1
REMARK VINA RESULT: -7.799291042      0.000      0.000
REMARK  5 active torsions:
REMARK  status: ('A' for Active; 'I' for Inactive)
REMARK    1  A    between atoms: O1_1  and  N1_3 
REMARK    2  A    between atoms: C1_5  and  O2_6 
REMARK    3  A    between atoms: C1_5  and  C2_8 
REMARK    4  A    between atoms: C2_8  and  C3_9 
REMARK    5  A    between atoms: C3_9  and  O3_10 
ROOT
HETATM    1  C3  UNL     1      -6.311  23.980   4.838  1.00  0.00     0.053 C 
HETATM    2  C4  UNL     1      -6.155  22.679   4.825  1.00  0.00    -0.050 C 
HETATM    3  C5  UNL     1      -7.014  21.733   5.599  1.00  0.00     0.037 C 
HETATM    4  C6  UNL     1      -6.611  20.370   5.097  1.00  0.00     0.014 C 
HETATM    5  C7  UNL     1      -5.145  20.584   4.791  1.00  0.00    -0.036 C 
HETATM    6  C8  UNL     1      -4.298  20.577   6.033  1.00  0.00     0.010 C 
HETATM    7  C9  UNL     1      -4.304  19.110   6.409  1.00  0.00     0.001 C 
HETATM    8  C10 UNL     1      -4.498  18.360   5.114  1.00  0.00     0.001 C 
HETATM    9  C11 UNL     1      -4.627  19.412   4.030  1.00  0.00     0.010 C 
HETATM   10  C12 UNL     1      -5.127  21.877   4.067  1.00  0.00     0.046 C 
ENDROOT
BRANCH   1  11
HETATM   11  C2  UNL     1      -7.368  24.619   5.635  1.00  0.00     0.150 C 
BRANCH  11  12
HETATM   12  C1  UNL     1      -7.806  25.905   5.028  1.00  0.00     0.141 C 
HETATM   13  N1  UNL     1      -8.168  25.980   3.793  1.00  0.00    -0.251 N 
ATOM     14  H1  UNL     1      -8.160  25.147   3.204  1.00  0.00     0.196 HD
BRANCH  13  15
HETATM   15  O1  UNL     1      -8.563  27.184   3.276  1.00  0.00    -0.288 OA
ATOM     16  H1  UNL     1      -7.964  27.680   2.731  1.00  0.00     0.244 HD
ENDBRANCH  13  15
BRANCH  12  17
HETATM   17  O2  UNL     1      -7.816  27.022   5.827  1.00  0.00    -0.348 OA
ATOM     18  H2  UNL     1      -8.324  27.037   6.629  1.00  0.00     0.219 HD
ENDBRANCH  12  17
ENDBRANCH  11  12
ENDBRANCH   1  11
BRANCH   1  19
HETATM   19  O3  UNL     1      -5.471  24.779   4.092  1.00  0.00    -0.364 OA
ATOM     20  H3  UNL     1      -5.755  25.058   3.230  1.00  0.00     0.217 HD
ENDBRANCH   1  19
TORSDOF 5
ENDMDL
MODEL 2
REMARK VINA RESULT: -7.531770721      0.927      1.156
REMARK  5 active torsions:
REMARK  status: ('A' for Active; 'I' for Inactive)
REMARK    1  A    between atoms: O1_1  and  N1_3 
REMARK    2  A    between atoms: C1_5  and  O2_6 
REMARK    3  A    between atoms: C1_5  and  C2_8 
REMARK    4  A    between atoms: C2_8  and  C3_9 
REMARK    5  A    between atoms: C3_9  and  O3_10 
ROOT
HETATM    1  C3  UNL     1      -6.115  23.677   4.721  1.00  0.00     0.053 C 
HETATM    2  C4  UNL     1      -5.915  22.388   4.841  1.00  0.00    -0.050 C 
HETATM    3  C5  UNL     1      -6.974  21.421   5.261  1.00  0.00     0.037 C 
HETATM    4  C6  UNL     1      -6.351  20.067   5.035  1.00  0.00     0.014 C 
HETATM    5  C7  UNL     1      -4.894  20.354   5.324  1.00  0.00    -0.036 C 
HETATM    6  C8  UNL     1      -4.614  20.438   6.798  1.00  0.00     0.010 C 
HETATM    7  C9  UNL     1      -4.712  18.987   7.220  1.00  0.00     0.001 C 
HETATM    8  C10 UNL     1      -4.344  18.183   5.997  1.00  0.00     0.001 C 
HETATM    9  C11 UNL     1      -4.071  19.189   4.896  1.00  0.00     0.010 C 
HETATM   10  C12 UNL     1      -4.640  21.620   4.598  1.00  0.00     0.046 C 
ENDROOT
BRANCH   1  11
HETATM   11  C2  UNL     1      -7.427  24.281   4.997  1.00  0.00     0.150 C 
BRANCH  11  12
HETATM   12  C1  UNL     1      -7.642  25.509   4.187  1.00  0.00     0.141 C 
HETATM   13  N1  UNL     1      -7.723  26.674   4.733  1.00  0.00    -0.251 N 
ATOM     14  H1  UNL     1      -7.639  26.773   5.745  1.00  0.00     0.196 HD
BRANCH  13  15
HETATM   15  O1  UNL     1      -7.921  27.778   3.948  1.00  0.00    -0.288 OA
ATOM     16  H1  UNL     1      -8.146  27.668   3.032  1.00  0.00     0.244 HD
ENDBRANCH  13  15
BRANCH  12  17
HETATM   17  O2  UNL     1      -7.752  25.369   2.824  1.00  0.00    -0.348 OA
ATOM     18  H2  UNL     1      -7.805  24.506   2.431  1.00  0.00     0.219 HD
ENDBRANCH  12  17
ENDBRANCH  11  12
ENDBRANCH   1  11
BRANCH   1  19
HETATM   19  O3  UNL     1      -5.079  24.497   4.328  1.00  0.00    -0.364 OA
ATOM     20  H3  UNL     1      -4.227  24.381   4.732  1.00  0.00     0.217 HD
ENDBRANCH   1  19
TORSDOF 5
ENDMDL
MODEL 3
REMARK VINA RESULT: -7.482095052      1.251      1.608
REMARK  5 active torsions:
REMARK  status: ('A' for Active; 'I' for Inactive)
REMARK    1  A    between atoms: O1_1  and  N1_3 
REMARK    2  A    between atoms: C1_5  and  O2_6 
REMARK    3  A    between atoms: C1_5  and  C2_8 
REMARK    4  A    between atoms: C2_8  and  C3_9 
REMARK    5  A    between atoms: C3_9  and  O3_10 
ROOT
HETATM    1  C3  UNL     1      -6.425  24.199   4.462  1.00  0.00     0.053 C 
HETATM    2  C4  UNL     1      -6.069  22.988   4.810  1.00  0.00    -0.050 C 
HETATM    3  C5  UNL     1      -7.034  21.929   5.234  1.00  0.00     0.037 C 
HETATM    4  C6  UNL     1      -6.201  20.676   5.311  1.00  0.00     0.014 C 
HETATM    5  C7  UNL     1      -4.862  21.230   5.742  1.00  0.00    -0.036 C 
HETATM    6  C8  UNL     1      -4.828  21.559   7.208  1.00  0.00     0.010 C 
HETATM    7  C9  UNL     1      -4.787  20.184   7.839  1.00  0.00     0.001 C 
HETATM    8  C10 UNL     1      -4.125  19.290   6.819  1.00  0.00     0.001 C 
HETATM    9  C11 UNL     1      -3.827  20.166   5.618  1.00  0.00     0.010 C 
HETATM   10  C12 UNL     1      -4.677  22.410   4.864  1.00  0.00     0.046 C 
ENDROOT
BRANCH   1  11
HETATM   11  C2  UNL     1      -7.835  24.616   4.461  1.00  0.00     0.150 C 
BRANCH  11  12
HETATM   12  C1  UNL     1      -8.036  25.860   5.252  1.00  0.00     0.141 C 
HETATM   13  N1  UNL     1      -8.690  25.856   6.363  1.00  0.00    -0.251 N 
ATOM     14  H1  UNL     1      -9.086  24.988   6.722  1.00  0.00     0.196 HD
BRANCH  13  15
HETATM   15  O1  UNL     1      -8.850  27.025   7.057  1.00  0.00    -0.288 OA
ATOM     16  H1  UNL     1      -8.566  27.076   7.962  1.00  0.00     0.244 HD
ENDBRANCH  13  15
BRANCH  12  17
HETATM   17  O2  UNL     1      -7.498  27.025   4.763  1.00  0.00    -0.348 OA
ATOM     18  H2  UNL     1      -6.577  27.074   4.536  1.00  0.00     0.219 HD
ENDBRANCH  12  17
ENDBRANCH  11  12
ENDBRANCH   1  11
BRANCH   1  19
HETATM   19  O3  UNL     1      -5.465  25.114   4.084  1.00  0.00    -0.364 OA
ATOM     20  H3  UNL     1      -5.014  25.605   4.760  1.00  0.00     0.217 HD
ENDBRANCH   1  19
TORSDOF 5
ENDMDL
MODEL 4
REMARK VINA RESULT: -7.347473413      1.361      2.186
REMARK  5 active torsions:
REMARK  status: ('A' for Active; 'I' for Inactive)
REMARK    1  A    between atoms: O1_1  and  N1_3 
REMARK    2  A    between atoms: C1_5  and  O2_6 
REMARK    3  A    between atoms: C1_5  and  C2_8 
REMARK    4  A    between atoms: C2_8  and  C3_9 
REMARK    5  A    between atoms: C3_9  and  O3_10 
ROOT
HETATM    1  C3  UNL     1      -6.700  23.747   4.478  1.00  0.00     0.053 C 
HETATM    2  C4  UNL     1      -5.974  22.746   4.910  1.00  0.00    -0.050 C 
HETATM    3  C5  UNL     1      -4.559  22.508   4.494  1.00  0.00     0.037 C 
HETATM    4  C6  UNL     1      -4.084  21.405   5.405  1.00  0.00     0.014 C 
HETATM    5  C7  UNL     1      -5.357  20.614   5.608  1.00  0.00    -0.036 C 
HETATM    6  C8  UNL     1      -5.681  19.745   4.426  1.00  0.00     0.010 C 
HETATM    7  C9  UNL     1      -4.641  18.652   4.544  1.00  0.00     0.001 C 
HETATM    8  C10 UNL     1      -4.312  18.562   6.015  1.00  0.00     0.001 C 
HETATM    9  C11 UNL     1      -5.150  19.623   6.701  1.00  0.00     0.010 C 
HETATM   10  C12 UNL     1      -6.375  21.658   5.875  1.00  0.00     0.046 C 
ENDROOT
BRANCH   1  11
HETATM   11  C2  UNL     1      -6.162  24.734   3.530  1.00  0.00     0.150 C 
BRANCH  11  12
HETATM   12  C1  UNL     1      -7.225  25.649   3.035  1.00  0.00     0.141 C 
HETATM   13  N1  UNL     1      -7.798  26.503   3.813  1.00  0.00    -0.251 N 
ATOM     14  H1  UNL     1      -7.527  26.565   4.795  1.00  0.00     0.196 HD
BRANCH  13  15
HETATM   15  O1  UNL     1      -8.772  27.325   3.315  1.00  0.00    -0.288 OA
ATOM     16  H1  UNL     1      -8.894  28.189   3.691  1.00  0.00     0.244 HD
ENDBRANCH  13  15
BRANCH  12  17
HETATM   17  O2  UNL     1      -7.584  25.561   1.712  1.00  0.00    -0.348 OA
ATOM     18  H2  UNL     1      -6.922  25.466   1.038  1.00  0.00     0.219 HD
ENDBRANCH  12  17
ENDBRANCH  11  12
ENDBRANCH   1  11
BRANCH   1  19
HETATM   19  O3  UNL     1      -7.999  23.890   4.915  1.00  0.00    -0.364 OA
ATOM     20  H3  UNL     1      -8.180  24.514   5.608  1.00  0.00     0.217 HD
ENDBRANCH   1  19
TORSDOF 5
ENDMDL
MODEL 5
REMARK VINA RESULT: -7.267591520      1.220      1.280
REMARK  5 active torsions:
REMARK  status: ('A' for Active; 'I' for Inactive)
REMARK    1  A    between atoms: O1_1  and  N1_3 
REMARK    2  A    between atoms: C1_5  and  O2_6 
REMARK    3  A    between atoms: C1_5  and  C2_8 
REMARK    4  A    between atoms: C2_8  and  C3_9 
REMARK    5  A    between atoms: C3_9  and  O3_10 
ROOT
HETATM    1  C3  UNL     1      -6.609  24.296   4.916  1.00  0.00     0.053 C 
HETATM    2  C4  UNL     1      -6.393  23.006   4.841  1.00  0.00    -0.050 C 
HETATM    3  C5  UNL     1      -7.041  22.004   5.740  1.00  0.00     0.037 C 
HETATM    4  C6  UNL     1      -6.672  20.672   5.138  1.00  0.00     0.014 C 
HETATM    5  C7  UNL     1      -5.303  20.969   4.566  1.00  0.00    -0.036 C 
HETATM    6  C8  UNL     1      -4.237  20.990   5.626  1.00  0.00     0.010 C 
HETATM    7  C9  UNL     1      -4.098  19.520   5.960  1.00  0.00     0.001 C 
HETATM    8  C10 UNL     1      -4.496  18.779   4.707  1.00  0.00     0.001 C 
HETATM    9  C11 UNL     1      -4.880  19.838   3.693  1.00  0.00     0.010 C 
HETATM   10  C12 UNL     1      -5.488  22.272   3.884  1.00  0.00     0.046 C 
ENDROOT
BRANCH   1  11
HETATM   11  C2  UNL     1      -7.528  24.865   5.914  1.00  0.00     0.150 C 
BRANCH  11  12
HETATM   12  C1  UNL     1      -8.715  25.486   5.268  1.00  0.00     0.141 C 
HETATM   13  N1  UNL     1      -9.899  25.352   5.761  1.00  0.00    -0.251 N 
ATOM     14  H1  UNL     1     -10.042  24.811   6.614  1.00  0.00     0.196 HD
BRANCH  13  15
HETATM   15  O1  UNL     1     -10.963  25.940   5.133  1.00  0.00    -0.288 OA
ATOM     16  H1  UNL     1     -11.265  26.794   5.421  1.00  0.00     0.244 HD
ENDBRANCH  13  15
BRANCH  12  17
HETATM   17  O2  UNL     1      -8.515  26.215   4.121  1.00  0.00    -0.348 OA
ATOM     18  H2  UNL     1      -7.850  26.892   4.090  1.00  0.00     0.219 HD
ENDBRANCH  12  17
ENDBRANCH  11  12
ENDBRANCH   1  11
BRANCH   1  19
HETATM   19  O3  UNL     1      -5.966  25.150   4.045  1.00  0.00    -0.364 OA
ATOM     20  H3  UNL     1      -6.178  25.102   3.121  1.00  0.00     0.217 HD
ENDBRANCH   1  19
TORSDOF 5
ENDMDL
