MODEL 1
REMARK VINA RESULT: -8.456182297      0.000      0.000
REMARK  6 active torsions:
REMARK  status: ('A' for Active; 'I' for Inactive)
REMARK    1  A    between atoms: O1_2  and  C2_3 
REMARK    2  A    between atoms: C7_8  and  C8_9 
REMARK    3  A    between atoms: C8_9  and  C9_10 
REMARK    4  A    between atoms: C8_9  and  C18_23 
REMARK    5  A    between atoms: C9_10  and  C10_11 
REMARK    6  A    between atoms: C10_11  and  C11_12 
ROOT
HETATM    1  C8  UNL     1      69.664  -4.527  71.207  1.00  0.00     0.029 C 
ENDROOT
BRANCH   1   2
HETATM    2  C7  UNL     1      70.918  -3.793  71.021  1.00  0.00    -0.017 A 
HETATM    3  C2  UNL     1      71.522  -3.116  72.057  1.00  0.00     0.077 A 
HETATM    4  C3  UNL     1      72.749  -2.508  71.818  1.00  0.00     0.077 A 
HETATM    5  C4  UNL     1      73.381  -2.551  70.602  1.00  0.00     0.111 A 
HETATM    6  C5  UNL     1      72.776  -3.226  69.569  1.00  0.00     0.109 A 
HETATM    7  O7  UNL     1      74.574  -2.046  70.101  1.00  0.00    -0.284 OA
HETATM    8  C6  UNL     1      71.570  -3.833  69.778  1.00  0.00     0.050 A 
HETATM    9  O6  UNL     1      73.625  -3.115  68.447  1.00  0.00    -0.284 OA
HETATM   10  C22 UNL     1      74.898  -2.668  68.871  1.00  0.00     0.325 C 
HETATM   11  C23 UNL     1      75.425  -1.563  67.970  1.00  0.00     0.121 C 
HETATM   12  F1  UNL     1      75.807  -3.675  69.013  1.00  0.00    -0.180 F 
BRANCH   3  13
HETATM   13  O1  UNL     1      70.970  -2.999  73.333  1.00  0.00    -0.355 OA
HETATM   14  C1  UNL     1      71.585  -3.584  74.431  1.00  0.00     0.210 C 
ENDBRANCH   3  13
ENDBRANCH   1   2
BRANCH   1  15
HETATM   15  C9  UNL     1      68.755  -4.413  69.968  1.00  0.00     0.011 C 
BRANCH  15  16
HETATM   16  C10 UNL     1      67.426  -3.823  70.343  1.00  0.00     0.018 C 
BRANCH  16  17
HETATM   17  C11 UNL     1      66.379  -4.275  69.385  1.00  0.00     0.119 C 
HETATM   18  C12 UNL     1      66.613  -5.576  68.784  1.00  0.00     0.268 C 
HETATM   19  O2  UNL     1      66.622  -6.707  69.301  1.00  0.00    -0.265 OA
HETATM   20  O3  UNL     1      66.845  -5.372  67.417  1.00  0.00    -0.286 OA
HETATM   21  C13 UNL     1      66.081  -4.203  67.041  1.00  0.00     0.302 C 
HETATM   22  O4  UNL     1      66.676  -3.511  66.015  1.00  0.00    -0.323 OA
HETATM   23  C17 UNL     1      66.194  -3.292  68.242  1.00  0.00     0.194 C 
HETATM   24  C14 UNL     1      67.358  -2.442  66.573  1.00  0.00     0.160 C 
HETATM   25  C15 UNL     1      68.799  -2.444  66.068  1.00  0.00     0.078 C 
HETATM   26  C16 UNL     1      66.669  -1.130  66.276  1.00  0.00     0.078 C 
HETATM   27  O5  UNL     1      67.389  -2.630  67.954  1.00  0.00    -0.345 OA
ENDBRANCH  16  17
ENDBRANCH  15  16
ENDBRANCH   1  15
BRANCH   1  28
HETATM   28  C18 UNL     1      69.893  -5.983  71.490  1.00  0.00    -0.044 C 
HETATM   29  C19 UNL     1      69.958  -6.827  70.208  1.00  0.00     0.015 C 
HETATM   30  C20 UNL     1      71.091  -6.344  72.302  1.00  0.00     0.015 C 
HETATM   31  C21 UNL     1      68.689  -6.577  72.244  1.00  0.00     0.015 C 
ENDBRANCH   1  28
TORSDOF 6
ENDMDL
MODEL 2
REMARK VINA RESULT: -8.001749827      2.701      6.662
REMARK  6 active torsions:
REMARK  status: ('A' for Active; 'I' for Inactive)
REMARK    1  A    between atoms: O1_2  and  C2_3 
REMARK    2  A    between atoms: C7_8  and  C8_9 
REMARK    3  A    between atoms: C8_9  and  C9_10 
REMARK    4  A    between atoms: C8_9  and  C18_23 
REMARK    5  A    between atoms: C9_10  and  C10_11 
REMARK    6  A    between atoms: C10_11  and  C11_12 
ROOT
HETATM    1  C8  UNL     1      71.225  -4.279  72.905  1.00  0.00     0.029 C 
ENDROOT
BRANCH   1   2
HETATM    2  C7  UNL     1      70.356  -4.644  71.784  1.00  0.00    -0.017 A 
HETATM    3  C2  UNL     1      70.283  -5.937  71.315  1.00  0.00     0.077 A 
HETATM    4  C3  UNL     1      69.379  -6.217  70.297  1.00  0.00     0.077 A 
HETATM    5  C4  UNL     1      68.561  -5.267  69.741  1.00  0.00     0.111 A 
HETATM    6  C5  UNL     1      68.636  -3.977  70.209  1.00  0.00     0.109 A 
HETATM    7  O7  UNL     1      67.595  -5.270  68.742  1.00  0.00    -0.284 OA
HETATM    8  C6  UNL     1      69.517  -3.676  71.210  1.00  0.00     0.050 A 
HETATM    9  O6  UNL     1      67.704  -3.213  69.475  1.00  0.00    -0.284 OA
HETATM   10  C22 UNL     1      66.821  -4.085  68.797  1.00  0.00     0.325 C 
HETATM   11  C23 UNL     1      66.615  -3.653  67.354  1.00  0.00     0.121 C 
HETATM   12  F1  UNL     1      65.632  -4.263  69.442  1.00  0.00    -0.180 F 
BRANCH   3  13
HETATM   13  O1  UNL     1      71.069  -6.983  71.798  1.00  0.00    -0.355 OA
HETATM   14  C1  UNL     1      70.703  -8.305  71.587  1.00  0.00     0.210 C 
ENDBRANCH   3  13
ENDBRANCH   1   2
BRANCH   1  15
HETATM   15  C9  UNL     1      71.652  -2.801  72.831  1.00  0.00     0.011 C 
BRANCH  15  16
HETATM   16  C10 UNL     1      72.800  -2.632  71.879  1.00  0.00     0.018 C 
BRANCH  16  17
HETATM   17  C11 UNL     1      72.375  -1.819  70.705  1.00  0.00     0.119 C 
HETATM   18  C12 UNL     1      72.661  -2.411  69.410  1.00  0.00     0.268 C 
HETATM   19  O2  UNL     1      72.187  -3.428  68.873  1.00  0.00    -0.265 OA
HETATM   20  O3  UNL     1      73.627  -1.610  68.785  1.00  0.00    -0.286 OA
HETATM   21  C13 UNL     1      73.409  -0.261  69.259  1.00  0.00     0.302 C 
HETATM   22  O4  UNL     1      74.576   0.462  69.296  1.00  0.00    -0.323 OA
HETATM   23  C17 UNL     1      73.016  -0.442  70.707  1.00  0.00     0.194 C 
HETATM   24  C14 UNL     1      75.027   0.459  70.606  1.00  0.00     0.160 C 
HETATM   25  C15 UNL     1      76.484   0.005  70.639  1.00  0.00     0.078 C 
HETATM   26  C16 UNL     1      74.854   1.813  71.255  1.00  0.00     0.078 C 
HETATM   27  O5  UNL     1      74.273  -0.476  71.314  1.00  0.00    -0.345 OA
ENDBRANCH  16  17
ENDBRANCH  15  16
ENDBRANCH   1  15
BRANCH   1  28
HETATM   28  C18 UNL     1      70.568  -4.512  74.234  1.00  0.00    -0.044 C 
HETATM   29  C19 UNL     1      69.907  -3.243  74.793  1.00  0.00     0.015 C 
HETATM   30  C20 UNL     1      69.546  -5.597  74.313  1.00  0.00     0.015 C 
HETATM   31  C21 UNL     1      71.623  -4.860  75.300  1.00  0.00     0.015 C 
ENDBRANCH   1  28
TORSDOF 6
ENDMDL
MODEL 3
REMARK VINA RESULT: -7.878907336      2.534      7.114
REMARK  6 active torsions:
REMARK  status: ('A' for Active; 'I' for Inactive)
REMARK    1  A    between atoms: O1_2  and  C2_3 
REMARK    2  A    between atoms: C7_8  and  C8_9 
REMARK    3  A    between atoms: C8_9  and  C9_10 
REMARK    4  A    between atoms: C8_9  and  C18_23 
REMARK    5  A    between atoms: C9_10  and  C10_11 
REMARK    6  A    between atoms: C10_11  and  C11_12 
ROOT
HETATM    1  C8  UNL     1      71.293  -4.462  72.343  1.00  0.00     0.029 C 
ENDROOT
BRANCH   1   2
HETATM    2  C7  UNL     1      70.312  -4.807  71.310  1.00  0.00    -0.017 A 
HETATM    3  C2  UNL     1      70.070  -6.114  70.950  1.00  0.00     0.077 A 
HETATM    4  C3  UNL     1      69.071  -6.364  70.016  1.00  0.00     0.077 A 
HETATM    5  C4  UNL     1      68.320  -5.371  69.440  1.00  0.00     0.111 A 
HETATM    6  C5  UNL     1      68.565  -4.067  69.800  1.00  0.00     0.109 A 
HETATM    7  O7  UNL     1      67.291  -5.339  68.508  1.00  0.00    -0.284 OA
HETATM    8  C6  UNL     1      69.542  -3.795  70.716  1.00  0.00     0.050 A 
HETATM    9  O6  UNL     1      67.669  -3.259  69.068  1.00  0.00    -0.284 OA
HETATM   10  C22 UNL     1      66.652  -4.074  68.519  1.00  0.00     0.325 C 
HETATM   11  C23 UNL     1      66.391  -3.726  67.062  1.00  0.00     0.121 C 
HETATM   12  F1  UNL     1      65.500  -4.073  69.249  1.00  0.00    -0.180 F 
BRANCH   3  13
HETATM   13  O1  UNL     1      70.773  -7.204  71.463  1.00  0.00    -0.355 OA
HETATM   14  C1  UNL     1      70.725  -8.442  70.837  1.00  0.00     0.210 C 
ENDBRANCH   3  13
ENDBRANCH   1   2
BRANCH   1  15
HETATM   15  C9  UNL     1      71.865  -3.047  72.127  1.00  0.00     0.011 C 
BRANCH  15  16
HETATM   16  C10 UNL     1      73.279  -3.122  71.628  1.00  0.00     0.018 C 
BRANCH  16  17
HETATM   17  C11 UNL     1      73.444  -2.250  70.432  1.00  0.00     0.119 C 
HETATM   18  C12 UNL     1      73.233  -2.909  69.154  1.00  0.00     0.268 C 
HETATM   19  O2  UNL     1      72.195  -3.384  68.660  1.00  0.00    -0.265 OA
HETATM   20  O3  UNL     1      74.466  -2.940  68.489  1.00  0.00    -0.286 OA
HETATM   21  C13 UNL     1      75.192  -1.764  68.916  1.00  0.00     0.302 C 
HETATM   22  O4  UNL     1      76.550  -1.973  68.912  1.00  0.00    -0.323 OA
HETATM   23  C17 UNL     1      74.824  -1.620  70.375  1.00  0.00     0.194 C 
HETATM   24  C14 UNL     1      76.934  -2.244  70.216  1.00  0.00     0.160 C 
HETATM   25  C15 UNL     1      77.748  -3.535  70.245  1.00  0.00     0.078 C 
HETATM   26  C16 UNL     1      77.703  -1.091  70.817  1.00  0.00     0.078 C 
HETATM   27  O5  UNL     1      75.778  -2.451  70.967  1.00  0.00    -0.345 OA
ENDBRANCH  16  17
ENDBRANCH  15  16
ENDBRANCH   1  15
BRANCH   1  28
HETATM   28  C18 UNL     1      70.712  -4.528  73.724  1.00  0.00    -0.044 C 
HETATM   29  C19 UNL     1      70.254  -3.154  74.236  1.00  0.00     0.015 C 
HETATM   30  C20 UNL     1      69.575  -5.469  73.946  1.00  0.00     0.015 C 
HETATM   31  C21 UNL     1      71.793  -4.941  74.740  1.00  0.00     0.015 C 
ENDBRANCH   1  28
TORSDOF 6
ENDMDL
MODEL 4
REMARK VINA RESULT: -7.758453418      2.654      6.988
REMARK  6 active torsions:
REMARK  status: ('A' for Active; 'I' for Inactive)
REMARK    1  A    between atoms: O1_2  and  C2_3 
REMARK    2  A    between atoms: C7_8  and  C8_9 
REMARK    3  A    between atoms: C8_9  and  C9_10 
REMARK    4  A    between atoms: C8_9  and  C18_23 
REMARK    5  A    between atoms: C9_10  and  C10_11 
REMARK    6  A    between atoms: C10_11  and  C11_12 
ROOT
HETATM    1  C8  UNL     1      70.996  -4.653  71.919  1.00  0.00     0.029 C 
ENDROOT
BRANCH   1   2
HETATM    2  C7  UNL     1      70.029  -4.935  70.855  1.00  0.00    -0.017 A 
HETATM    3  C2  UNL     1      69.793  -6.217  70.412  1.00  0.00     0.077 A 
HETATM    4  C3  UNL     1      68.806  -6.410  69.452  1.00  0.00     0.077 A 
HETATM    5  C4  UNL     1      68.061  -5.384  68.929  1.00  0.00     0.111 A 
HETATM    6  C5  UNL     1      68.300  -4.104  69.371  1.00  0.00     0.109 A 
HETATM    7  O7  UNL     1      67.044  -5.295  67.987  1.00  0.00    -0.284 OA
HETATM    8  C6  UNL     1      69.264  -3.888  70.314  1.00  0.00     0.050 A 
HETATM    9  O6  UNL     1      67.412  -3.253  68.679  1.00  0.00    -0.284 OA
HETATM   10  C22 UNL     1      66.403  -4.034  68.068  1.00  0.00     0.325 C 
HETATM   11  C23 UNL     1      66.160  -3.597  66.632  1.00  0.00     0.121 C 
HETATM   12  F1  UNL     1      65.242  -4.077  68.782  1.00  0.00    -0.180 F 
BRANCH   3  13
HETATM   13  O1  UNL     1      70.491  -7.336  70.866  1.00  0.00    -0.355 OA
HETATM   14  C1  UNL     1      70.659  -8.448  70.054  1.00  0.00     0.210 C 
ENDBRANCH   3  13
ENDBRANCH   1   2
BRANCH   1  15
HETATM   15  C9  UNL     1      71.413  -3.169  71.924  1.00  0.00     0.011 C 
BRANCH  15  16
HETATM   16  C10 UNL     1      72.659  -2.970  71.112  1.00  0.00     0.018 C 
BRANCH  16  17
HETATM   17  C11 UNL     1      72.587  -1.678  70.374  1.00  0.00     0.119 C 
HETATM   18  C12 UNL     1      72.648  -1.788  68.927  1.00  0.00     0.268 C 
HETATM   19  O2  UNL     1      71.836  -2.286  68.127  1.00  0.00    -0.265 OA
HETATM   20  O3  UNL     1      73.853  -1.205  68.512  1.00  0.00    -0.286 OA
HETATM   21  C13 UNL     1      74.149  -0.156  69.462  1.00  0.00     0.302 C 
HETATM   22  O4  UNL     1      75.502   0.038  69.604  1.00  0.00    -0.323 OA
HETATM   23  C17 UNL     1      73.696  -0.726  70.786  1.00  0.00     0.194 C 
HETATM   24  C14 UNL     1      75.899  -0.624  70.754  1.00  0.00     0.160 C 
HETATM   25  C15 UNL     1      77.080  -1.536  70.431  1.00  0.00     0.078 C 
HETATM   26  C16 UNL     1      76.237   0.347  71.862  1.00  0.00     0.078 C 
HETATM   27  O5  UNL     1      74.840  -1.428  71.172  1.00  0.00    -0.345 OA
ENDBRANCH  16  17
ENDBRANCH  15  16
ENDBRANCH   1  15
BRANCH   1  28
HETATM   28  C18 UNL     1      70.463  -4.995  73.278  1.00  0.00    -0.044 C 
HETATM   29  C19 UNL     1      70.174  -3.748  74.128  1.00  0.00     0.015 C 
HETATM   30  C20 UNL     1      69.240  -5.848  73.340  1.00  0.00     0.015 C 
HETATM   31  C21 UNL     1      71.530  -5.743  74.099  1.00  0.00     0.015 C 
ENDBRANCH   1  28
TORSDOF 6
ENDMDL
MODEL 5
REMARK VINA RESULT: -7.573355629      3.082      5.523
REMARK  6 active torsions:
REMARK  status: ('A' for Active; 'I' for Inactive)
REMARK    1  A    between atoms: O1_2  and  C2_3 
REMARK    2  A    between atoms: C7_8  and  C8_9 
REMARK    3  A    between atoms: C8_9  and  C9_10 
REMARK    4  A    between atoms: C8_9  and  C18_23 
REMARK    5  A    between atoms: C9_10  and  C10_11 
REMARK    6  A    between atoms: C10_11  and  C11_12 
ROOT
HETATM    1  C8  UNL     1      70.310  -4.663  71.663  1.00  0.00     0.029 C 
ENDROOT
BRANCH   1   2
HETATM    2  C7  UNL     1      70.049  -5.705  72.659  1.00  0.00    -0.017 A 
HETATM    3  C2  UNL     1      70.247  -7.039  72.380  1.00  0.00     0.077 A 
HETATM    4  C3  UNL     1      70.050  -7.961  73.401  1.00  0.00     0.077 A 
HETATM    5  C4  UNL     1      69.668  -7.602  74.668  1.00  0.00     0.111 A 
HETATM    6  C5  UNL     1      69.470  -6.270  74.945  1.00  0.00     0.109 A 
HETATM    7  O7  UNL     1      69.407  -8.294  75.844  1.00  0.00    -0.284 OA
HETATM    8  C6  UNL     1      69.658  -5.344  73.958  1.00  0.00     0.050 A 
HETATM    9  O6  UNL     1      69.086  -6.179  76.300  1.00  0.00    -0.284 OA
HETATM   10  C22 UNL     1      69.373  -7.404  76.946  1.00  0.00     0.325 C 
HETATM   11  C23 UNL     1      68.210  -7.858  77.814  1.00  0.00     0.121 C 
HETATM   12  F1  UNL     1      70.544  -7.387  77.646  1.00  0.00    -0.180 F 
BRANCH   3  13
HETATM   13  O1  UNL     1      70.628  -7.522  71.127  1.00  0.00    -0.355 OA
HETATM   14  C1  UNL     1      69.698  -8.095  70.272  1.00  0.00     0.210 C 
ENDBRANCH   3  13
ENDBRANCH   1   2
BRANCH   1  15
HETATM   15  C9  UNL     1      69.001  -4.029  71.153  1.00  0.00     0.011 C 
BRANCH  15  16
HETATM   16  C10 UNL     1      68.739  -4.433  69.731  1.00  0.00     0.018 C 
BRANCH  16  17
HETATM   17  C11 UNL     1      67.278  -4.383  69.448  1.00  0.00     0.119 C 
HETATM   18  C12 UNL     1      66.723  -5.588  68.855  1.00  0.00     0.268 C 
HETATM   19  O2  UNL     1      66.587  -6.727  69.336  1.00  0.00    -0.265 OA
HETATM   20  O3  UNL     1      66.321  -5.268  67.551  1.00  0.00    -0.286 OA
HETATM   21  C13 UNL     1      65.931  -3.875  67.572  1.00  0.00     0.302 C 
HETATM   22  O4  UNL     1      66.154  -3.264  66.363  1.00  0.00    -0.323 OA
HETATM   23  C17 UNL     1      66.918  -3.236  68.520  1.00  0.00     0.194 C 
HETATM   24  C14 UNL     1      67.344  -2.561  66.464  1.00  0.00     0.160 C 
HETATM   25  C15 UNL     1      68.258  -2.944  65.303  1.00  0.00     0.078 C 
HETATM   26  C16 UNL     1      67.103  -1.070  66.510  1.00  0.00     0.078 C 
HETATM   27  O5  UNL     1      67.970  -2.951  67.647  1.00  0.00    -0.345 OA
ENDBRANCH  16  17
ENDBRANCH  15  16
ENDBRANCH   1  15
BRANCH   1  28
HETATM   28  C18 UNL     1      71.183  -3.568  72.200  1.00  0.00    -0.044 C 
HETATM   29  C19 UNL     1      71.594  -2.559  71.116  1.00  0.00     0.015 C 
HETATM   30  C20 UNL     1      70.658  -2.772  73.348  1.00  0.00     0.015 C 
HETATM   31  C21 UNL     1      72.530  -4.142  72.677  1.00  0.00     0.015 C 
ENDBRANCH   1  28
TORSDOF 6
ENDMDL
