MODEL 1
REMARK VINA RESULT: -8.344710925      0.000      0.000
REMARK  5 active torsions:
REMARK  status: ('A' for Active; 'I' for Inactive)
REMARK    1  A    between atoms: C2_3  and  O1_4 
REMARK    2  A    between atoms: O1_4  and  C3_5 
REMARK    3  A    between atoms: C3_5  and  C4_6 
REMARK    4  A    between atoms: C4_6  and  N1_7 
REMARK    5  A    between atoms: N2_16  and  C13_17 
ROOT
HETATM    1 CL1  UNL     1      69.190  -5.645  73.061  1.00  0.00    -0.079 Cl
HETATM    2  C1  UNL     1      69.830  -6.860  72.008  1.00  0.00     0.094 A 
HETATM    3  C2  UNL     1      69.553  -6.834  70.641  1.00  0.00     0.092 A 
HETATM    4  C9  UNL     1      70.062  -7.783  69.788  1.00  0.00     0.039 A 
HETATM    5  C10 UNL     1      70.859  -8.769  70.326  1.00  0.00     0.012 A 
HETATM    6  C11 UNL     1      71.145  -8.821  71.649  1.00  0.00    -0.029 A 
HETATM    7  C12 UNL     1      70.627  -7.851  72.525  1.00  0.00     0.067 A 
HETATM    8  N2  UNL     1      70.945  -7.933  73.906  1.00  0.00    -0.329 N 
HETATM    9  C21 UNL     1      72.277  -8.402  74.296  1.00  0.00     0.131 C 
HETATM   10  C22 UNL     1      72.934  -9.205  73.233  1.00  0.00     0.025 C 
HETATM   11  C23 UNL     1      71.996  -9.865  72.279  1.00  0.00     0.042 C 
ENDROOT
BRANCH   8  12
HETATM   12  C13 UNL     1      70.010  -7.595  74.881  1.00  0.00     0.145 A 
HETATM   13  N3  UNL     1      68.928  -8.347  75.092  1.00  0.00    -0.336 N 
HETATM   14  C14 UNL     1      68.031  -8.076  76.068  1.00  0.00     0.182 A 
ATOM     15  H3  UNL     1      68.771  -9.158  74.494  1.00  0.00     0.168 HD
HETATM   16  N4  UNL     1      68.192  -7.018  76.879  1.00  0.00    -0.349 N 
HETATM   17  C15 UNL     1      69.271  -6.234  76.698  1.00  0.00     0.082 A 
ATOM     18  H4  UNL     1      67.514  -6.814  77.614  1.00  0.00     0.166 HD
HETATM   19  C16 UNL     1      69.743  -5.101  77.323  1.00  0.00     0.027 A 
HETATM   20  C18 UNL     1      70.197  -6.508  75.697  1.00  0.00     0.147 A 
HETATM   21  C17 UNL     1      70.913  -4.723  76.703  1.00  0.00     0.088 A 
HETATM   22  C20 UNL     1      69.520  -4.110  78.390  1.00  0.00     0.212 C 
HETATM   23  O2  UNL     1      71.130  -5.592  75.750  1.00  0.00    -0.306 OA
HETATM   24  C19 UNL     1      71.418  -3.485  77.394  1.00  0.00     0.233 C 
HETATM   25  O3  UNL     1      70.771  -3.538  78.602  1.00  0.00    -0.380 OA
ENDBRANCH   8  12
BRANCH   3  26
HETATM   26  O1  UNL     1      68.757  -5.839  70.147  1.00  0.00    -0.348 OA
BRANCH  26  27
HETATM   27  C3  UNL     1      67.366  -5.821  70.058  1.00  0.00     0.206 C 
BRANCH  27  28
HETATM   28  C4  UNL     1      67.018  -5.646  68.599  1.00  0.00     0.299 C 
BRANCH  28  29
HETATM   29  N1  UNL     1      66.304  -4.424  68.337  1.00  0.00     0.090 N 
HETATM   30  C5  UNL     1      65.633  -4.398  67.078  1.00  0.00     0.272 C 
HETATM   31  C6  UNL     1      65.968  -3.082  66.414  1.00  0.00     0.032 C 
HETATM   32  C7  UNL     1      67.282  -2.691  67.060  1.00  0.00     0.032 C 
HETATM   33  C8  UNL     1      67.128  -3.250  68.448  1.00  0.00     0.272 C 
ENDBRANCH  28  29
ENDBRANCH  27  28
ENDBRANCH  26  27
ENDBRANCH   3  26
TORSDOF 5
ENDMDL
MODEL 2
REMARK VINA RESULT: -8.296546891      1.744      2.505
REMARK  5 active torsions:
REMARK  status: ('A' for Active; 'I' for Inactive)
REMARK    1  A    between atoms: C2_3  and  O1_4 
REMARK    2  A    between atoms: O1_4  and  C3_5 
REMARK    3  A    between atoms: C3_5  and  C4_6 
REMARK    4  A    between atoms: C4_6  and  N1_7 
REMARK    5  A    between atoms: N2_16  and  C13_17 
ROOT
HETATM    1 CL1  UNL     1      71.208  -4.434  72.435  1.00  0.00    -0.079 Cl
HETATM    2  C1  UNL     1      70.576  -5.858  71.682  1.00  0.00     0.094 A 
HETATM    3  C2  UNL     1      69.737  -5.763  70.572  1.00  0.00     0.092 A 
HETATM    4  C9  UNL     1      69.235  -6.882  69.955  1.00  0.00     0.039 A 
HETATM    5  C10 UNL     1      69.587  -8.112  70.467  1.00  0.00     0.012 A 
HETATM    6  C11 UNL     1      70.400  -8.236  71.544  1.00  0.00    -0.029 A 
HETATM    7  C12 UNL     1      70.916  -7.092  72.177  1.00  0.00     0.067 A 
HETATM    8  N2  UNL     1      71.765  -7.256  73.304  1.00  0.00    -0.329 N 
HETATM    9  C21 UNL     1      72.690  -8.390  73.329  1.00  0.00     0.131 C 
HETATM   10  C22 UNL     1      72.269  -9.493  72.428  1.00  0.00     0.025 C 
HETATM   11  C23 UNL     1      70.806  -9.537  72.137  1.00  0.00     0.042 C 
ENDROOT
BRANCH   8  12
HETATM   12  C13 UNL     1      71.713  -6.371  74.378  1.00  0.00     0.145 A 
HETATM   13  N3  UNL     1      72.629  -5.412  74.530  1.00  0.00    -0.336 N 
HETATM   14  C14 UNL     1      72.574  -4.504  75.531  1.00  0.00     0.182 A 
ATOM     15  H3  UNL     1      73.401  -5.363  73.866  1.00  0.00     0.168 HD
HETATM   16  N4  UNL     1      71.579  -4.529  76.432  1.00  0.00    -0.349 N 
HETATM   17  C15 UNL     1      70.635  -5.481  76.314  1.00  0.00     0.082 A 
ATOM     18  H4  UNL     1      71.539  -3.844  77.188  1.00  0.00     0.166 HD
HETATM   19  C16 UNL     1      69.504  -5.800  77.033  1.00  0.00     0.027 A 
HETATM   20  C18 UNL     1      70.686  -6.418  75.286  1.00  0.00     0.147 A 
HETATM   21  C17 UNL     1      68.911  -6.893  76.442  1.00  0.00     0.088 A 
HETATM   22  C20 UNL     1      68.651  -5.459  78.185  1.00  0.00     0.212 C 
HETATM   23  O2  UNL     1      69.655  -7.214  75.415  1.00  0.00    -0.306 OA
HETATM   24  C19 UNL     1      67.679  -7.232  77.238  1.00  0.00     0.233 C 
HETATM   25  O3  UNL     1      67.428  -6.059  77.903  1.00  0.00    -0.380 OA
ENDBRANCH   8  12
BRANCH   3  26
HETATM   26  O1  UNL     1      69.410  -4.525  70.095  1.00  0.00    -0.348 OA
BRANCH  26  27
HETATM   27  C3  UNL     1      68.497  -3.615  70.626  1.00  0.00     0.206 C 
BRANCH  27  28
HETATM   28  C4  UNL     1      67.186  -3.835  69.912  1.00  0.00     0.299 C 
BRANCH  28  29
HETATM   29  N1  UNL     1      67.349  -4.044  68.496  1.00  0.00     0.090 N 
HETATM   30  C5  UNL     1      67.211  -2.861  67.711  1.00  0.00     0.272 C 
HETATM   31  C6  UNL     1      66.284  -3.186  66.562  1.00  0.00     0.032 C 
HETATM   32  C7  UNL     1      65.476  -4.354  67.087  1.00  0.00     0.032 C 
HETATM   33  C8  UNL     1      66.474  -5.056  67.968  1.00  0.00     0.272 C 
ENDBRANCH  28  29
ENDBRANCH  27  28
ENDBRANCH  26  27
ENDBRANCH   3  26
TORSDOF 5
ENDMDL
MODEL 3
REMARK VINA RESULT: -7.993489951      5.011      7.464
REMARK  5 active torsions:
REMARK  status: ('A' for Active; 'I' for Inactive)
REMARK    1  A    between atoms: C2_3  and  O1_4 
REMARK    2  A    between atoms: O1_4  and  C3_5 
REMARK    3  A    between atoms: C3_5  and  C4_6 
REMARK    4  A    between atoms: C4_6  and  N1_7 
REMARK    5  A    between atoms: N2_16  and  C13_17 
ROOT
HETATM    1 CL1  UNL     1      71.466  -3.922  69.399  1.00  0.00    -0.079 Cl
HETATM    2  C1  UNL     1      72.415  -3.487  70.779  1.00  0.00     0.094 A 
HETATM    3  C2  UNL     1      73.675  -2.911  70.623  1.00  0.00     0.092 A 
HETATM    4  C9  UNL     1      74.438  -2.549  71.707  1.00  0.00     0.039 A 
HETATM    5  C10 UNL     1      73.917  -2.774  72.962  1.00  0.00     0.012 A 
HETATM    6  C11 UNL     1      72.696  -3.332  73.145  1.00  0.00    -0.029 A 
HETATM    7  C12 UNL     1      71.913  -3.702  72.039  1.00  0.00     0.067 A 
HETATM    8  N2  UNL     1      70.639  -4.285  72.264  1.00  0.00    -0.329 N 
HETATM    9  C21 UNL     1      69.840  -3.816  73.398  1.00  0.00     0.131 C 
HETATM   10  C22 UNL     1      70.665  -3.167  74.450  1.00  0.00     0.025 C 
HETATM   11  C23 UNL     1      72.093  -3.599  74.478  1.00  0.00     0.042 C 
ENDROOT
BRANCH   8  12
HETATM   12  C13 UNL     1      70.156  -5.299  71.441  1.00  0.00     0.145 A 
HETATM   13  N3  UNL     1      70.649  -6.538  71.505  1.00  0.00    -0.336 N 
HETATM   14  C14 UNL     1      70.163  -7.556  70.758  1.00  0.00     0.182 A 
ATOM     15  H3  UNL     1      71.423  -6.724  72.143  1.00  0.00     0.168 HD
HETATM   16  N4  UNL     1      69.146  -7.361  69.903  1.00  0.00    -0.349 N 
HETATM   17  C15 UNL     1      68.621  -6.125  69.809  1.00  0.00     0.082 A 
ATOM     18  H4  UNL     1      68.781  -8.129  69.340  1.00  0.00     0.166 HD
HETATM   19  C16 UNL     1      67.603  -5.575  69.061  1.00  0.00     0.027 A 
HETATM   20  C18 UNL     1      69.116  -5.075  70.574  1.00  0.00     0.147 A 
HETATM   21  C17 UNL     1      67.507  -4.240  69.380  1.00  0.00     0.088 A 
HETATM   22  C20 UNL     1      66.561  -5.818  68.048  1.00  0.00     0.212 C 
HETATM   23  O2  UNL     1      68.427  -4.002  70.280  1.00  0.00    -0.306 OA
HETATM   24  C19 UNL     1      66.393  -3.651  68.557  1.00  0.00     0.233 C 
HETATM   25  O3  UNL     1      65.669  -4.761  68.205  1.00  0.00    -0.380 OA
ENDBRANCH   8  12
BRANCH   3  26
HETATM   26  O1  UNL     1      74.155  -2.705  69.360  1.00  0.00    -0.348 OA
BRANCH  26  27
HETATM   27  C3  UNL     1      75.231  -1.907  68.972  1.00  0.00     0.206 C 
BRANCH  27  28
HETATM   28  C4  UNL     1      74.685  -0.851  68.042  1.00  0.00     0.299 C 
BRANCH  28  29
HETATM   29  N1  UNL     1      74.489   0.419  68.692  1.00  0.00     0.090 N 
HETATM   30  C5  UNL     1      75.298   0.614  69.850  1.00  0.00     0.272 C 
HETATM   31  C6  UNL     1      74.397   1.127  70.950  1.00  0.00     0.032 C 
HETATM   32  C7  UNL     1      73.027   0.630  70.538  1.00  0.00     0.032 C 
HETATM   33  C8  UNL     1      73.116   0.674  69.036  1.00  0.00     0.272 C 
ENDBRANCH  28  29
ENDBRANCH  27  28
ENDBRANCH  26  27
ENDBRANCH   3  26
TORSDOF 5
ENDMDL
MODEL 4
REMARK VINA RESULT: -7.634075474      3.968      5.962
REMARK  5 active torsions:
REMARK  status: ('A' for Active; 'I' for Inactive)
REMARK    1  A    between atoms: C2_3  and  O1_4 
REMARK    2  A    between atoms: O1_4  and  C3_5 
REMARK    3  A    between atoms: C3_5  and  C4_6 
REMARK    4  A    between atoms: C4_6  and  N1_7 
REMARK    5  A    between atoms: N2_16  and  C13_17 
ROOT
HETATM    1 CL1  UNL     1      71.890  -6.327  73.100  1.00  0.00    -0.079 Cl
HETATM    2  C1  UNL     1      70.962  -5.304  72.056  1.00  0.00     0.094 A 
HETATM    3  C2  UNL     1      71.382  -4.004  71.778  1.00  0.00     0.092 A 
HETATM    4  C9  UNL     1      70.665  -3.182  70.943  1.00  0.00     0.039 A 
HETATM    5  C10 UNL     1      69.510  -3.684  70.384  1.00  0.00     0.012 A 
HETATM    6  C11 UNL     1      69.077  -4.942  70.636  1.00  0.00    -0.029 A 
HETATM    7  C12 UNL     1      69.809  -5.786  71.489  1.00  0.00     0.067 A 
HETATM    8  N2  UNL     1      69.328  -7.099  71.733  1.00  0.00    -0.329 N 
HETATM    9  C21 UNL     1      68.668  -7.822  70.644  1.00  0.00     0.131 C 
HETATM   10  C22 UNL     1      68.136  -6.914  69.596  1.00  0.00     0.025 C 
HETATM   11  C23 UNL     1      67.837  -5.528  70.062  1.00  0.00     0.042 C 
ENDROOT
BRANCH   8  12
HETATM   12  C13 UNL     1      69.460  -7.692  72.987  1.00  0.00     0.145 A 
HETATM   13  N3  UNL     1      68.895  -7.154  74.070  1.00  0.00    -0.336 N 
HETATM   14  C14 UNL     1      68.958  -7.735  75.290  1.00  0.00     0.182 A 
ATOM     15  H3  UNL     1      68.396  -6.269  73.974  1.00  0.00     0.168 HD
HETATM   16  N4  UNL     1      69.604  -8.898  75.468  1.00  0.00    -0.349 N 
HETATM   17  C15 UNL     1      70.187  -9.474  74.400  1.00  0.00     0.082 A 
ATOM     18  H4  UNL     1      69.651  -9.335  76.389  1.00  0.00     0.166 HD
HETATM   19  C16 UNL     1      70.913 -10.630  74.216  1.00  0.00     0.027 A 
HETATM   20  C18 UNL     1      70.126  -8.881  73.143  1.00  0.00     0.147 A 
HETATM   21  C17 UNL     1      71.265 -10.711  72.888  1.00  0.00     0.088 A 
HETATM   22  C20 UNL     1      71.478 -11.833  74.851  1.00  0.00     0.212 C 
HETATM   23  O2  UNL     1      70.773  -9.649  72.304  1.00  0.00    -0.306 OA
HETATM   24  C19 UNL     1      72.057 -11.977  72.700  1.00  0.00     0.233 C 
HETATM   25  O3  UNL     1      71.694 -12.716  73.797  1.00  0.00    -0.380 OA
ENDBRANCH   8  12
BRANCH   3  26
HETATM   26  O1  UNL     1      72.533  -3.544  72.354  1.00  0.00    -0.348 OA
BRANCH  26  27
HETATM   27  C3  UNL     1      73.263  -2.405  72.017  1.00  0.00     0.206 C 
BRANCH  27  28
HETATM   28  C4  UNL     1      74.329  -2.836  71.038  1.00  0.00     0.299 C 
BRANCH  28  29
HETATM   29  N1  UNL     1      74.395  -1.989  69.875  1.00  0.00     0.090 N 
HETATM   30  C5  UNL     1      73.712  -0.745  70.018  1.00  0.00     0.272 C 
HETATM   31  C6  UNL     1      72.861  -0.552  68.783  1.00  0.00     0.032 C 
HETATM   32  C7  UNL     1      72.645  -1.966  68.285  1.00  0.00     0.032 C 
HETATM   33  C8  UNL     1      73.934  -2.637  68.676  1.00  0.00     0.272 C 
ENDBRANCH  28  29
ENDBRANCH  27  28
ENDBRANCH  26  27
ENDBRANCH   3  26
TORSDOF 5
ENDMDL
MODEL 5
REMARK VINA RESULT: -7.607935265      5.482      7.066
REMARK  5 active torsions:
REMARK  status: ('A' for Active; 'I' for Inactive)
REMARK    1  A    between atoms: C2_3  and  O1_4 
REMARK    2  A    between atoms: O1_4  and  C3_5 
REMARK    3  A    between atoms: C3_5  and  C4_6 
REMARK    4  A    between atoms: C4_6  and  N1_7 
REMARK    5  A    between atoms: N2_16  and  C13_17 
ROOT
HETATM    1 CL1  UNL     1      71.725  -3.695  69.534  1.00  0.00    -0.079 Cl
HETATM    2  C1  UNL     1      71.023  -4.001  71.086  1.00  0.00     0.094 A 
HETATM    3  C2  UNL     1      69.802  -4.665  71.196  1.00  0.00     0.092 A 
HETATM    4  C9  UNL     1      69.235  -4.926  72.419  1.00  0.00     0.039 A 
HETATM    5  C10 UNL     1      69.913  -4.509  73.544  1.00  0.00     0.012 A 
HETATM    6  C11 UNL     1      71.101  -3.862  73.468  1.00  0.00    -0.029 A 
HETATM    7  C12 UNL     1      71.684  -3.594  72.218  1.00  0.00     0.067 A 
HETATM    8  N2  UNL     1      72.929  -2.913  72.173  1.00  0.00    -0.329 N 
HETATM    9  C21 UNL     1      73.918  -3.183  73.219  1.00  0.00     0.131 C 
HETATM   10  C22 UNL     1      73.307  -3.736  74.455  1.00  0.00     0.025 C 
HETATM   11  C23 UNL     1      71.869  -3.388  74.650  1.00  0.00     0.042 C 
ENDROOT
BRANCH   8  12
HETATM   12  C13 UNL     1      73.208  -1.989  71.169  1.00  0.00     0.145 A 
HETATM   13  N3  UNL     1      72.394  -0.957  70.932  1.00  0.00    -0.336 N 
HETATM   14  C14 UNL     1      72.666  -0.014  70.002  1.00  0.00     0.182 A 
ATOM     15  H3  UNL     1      71.534  -0.878  71.474  1.00  0.00     0.168 HD
HETATM   16  N4  UNL     1      73.785  -0.075  69.262  1.00  0.00    -0.349 N 
HETATM   17  C15 UNL     1      74.632  -1.101  69.471  1.00  0.00     0.082 A 
ATOM     18  H4  UNL     1      73.988   0.637  68.561  1.00  0.00     0.166 HD
HETATM   19  C16 UNL     1      75.836  -1.473  68.914  1.00  0.00     0.027 A 
HETATM   20  C18 UNL     1      74.357  -2.074  70.426  1.00  0.00     0.147 A 
HETATM   21  C17 UNL     1      76.253  -2.633  69.528  1.00  0.00     0.088 A 
HETATM   22  C20 UNL     1      76.878  -1.148  67.925  1.00  0.00     0.212 C 
HETATM   23  O2  UNL     1      75.338  -2.940  70.411  1.00  0.00    -0.306 OA
HETATM   24  C19 UNL     1      77.568  -3.029  68.911  1.00  0.00     0.233 C 
HETATM   25  O3  UNL     1      77.999  -1.851  68.357  1.00  0.00    -0.380 OA
ENDBRANCH   8  12
BRANCH   3  26
HETATM   26  O1  UNL     1      69.160  -5.061  70.056  1.00  0.00    -0.348 OA
BRANCH  26  27
HETATM   27  C3  UNL     1      67.897  -5.638  69.940  1.00  0.00     0.206 C 
BRANCH  27  28
HETATM   28  C4  UNL     1      67.441  -5.425  68.517  1.00  0.00     0.299 C 
BRANCH  28  29
HETATM   29  N1  UNL     1      66.609  -4.259  68.365  1.00  0.00     0.090 N 
HETATM   30  C5  UNL     1      65.735  -4.308  67.238  1.00  0.00     0.272 C 
HETATM   31  C6  UNL     1      65.861  -2.989  66.511  1.00  0.00     0.032 C 
HETATM   32  C7  UNL     1      67.234  -2.496  66.919  1.00  0.00     0.032 C 
HETATM   33  C8  UNL     1      67.356  -3.031  68.320  1.00  0.00     0.272 C 
ENDBRANCH  28  29
ENDBRANCH  27  28
ENDBRANCH  26  27
ENDBRANCH   3  26
TORSDOF 5
ENDMDL
