MODEL 1
REMARK VINA RESULT: -8.427907644      0.000      0.000
REMARK  5 active torsions:
REMARK  status: ('A' for Active; 'I' for Inactive)
REMARK    1  A    between atoms: C4_5  and  C5_6 
REMARK    2  A    between atoms: N2_9  and  C8_10 
REMARK    3  A    between atoms: N5_24  and  C16_25 
REMARK    4  A    between atoms: C16_25  and  C17_26 
REMARK    5  A    between atoms: C17_26  and  N6_27 
ROOT
HETATM    1  N1  UNL     1      72.809  -1.707  71.218  1.00  0.00    -0.191 NA
HETATM    2  C1  UNL     1      71.999  -2.546  71.206  1.00  0.00     0.101 C 
HETATM    3  C2  UNL     1      71.011  -3.588  71.180  1.00  0.00     0.062 A 
HETATM    4  C3  UNL     1      70.890  -4.700  71.984  1.00  0.00     0.049 A 
HETATM    5  C4  UNL     1      69.773  -5.455  71.607  1.00  0.00     0.019 A 
HETATM    6  N5  UNL     1      69.231  -4.780  70.566  1.00  0.00    -0.356 N 
HETATM    7  C23 UNL     1      69.950  -3.673  70.301  1.00  0.00     0.113 A 
ENDROOT
BRANCH   5   8
HETATM    8  C5  UNL     1      69.305  -6.725  72.219  1.00  0.00     0.073 C 
HETATM    9  C6  UNL     1      69.693  -7.873  71.309  1.00  0.00     0.033 C 
HETATM   10  C7  UNL     1      70.586  -8.866  72.014  1.00  0.00     0.125 C 
HETATM   11  N2  UNL     1      69.995  -9.258  73.278  1.00  0.00    -0.363 N 
HETATM   12  C14 UNL     1      69.695  -8.197  74.213  1.00  0.00     0.162 C 
HETATM   13  C15 UNL     1      69.922  -6.849  73.576  1.00  0.00     0.198 C 
HETATM   14  F1  UNL     1      69.395  -5.893  74.412  1.00  0.00    -0.247 F 
BRANCH  11  15
HETATM   15  C8  UNL     1      69.751 -10.607  73.536  1.00  0.00     0.123 A 
HETATM   16  N3  UNL     1      68.540 -11.074  73.886  1.00  0.00    -0.338 N 
HETATM   17  C9  UNL     1      68.472 -12.406  74.097  1.00  0.00     0.182 A 
ATOM     18  H3  UNL     1      67.728 -10.464  73.986  1.00  0.00     0.168 HD
HETATM   19  N4  UNL     1      69.496 -13.255  73.983  1.00  0.00    -0.351 N 
HETATM   20  C10 UNL     1      70.744 -12.814  73.628  1.00  0.00     0.054 A 
ATOM     21  H4  UNL     1      69.347 -14.247  74.162  1.00  0.00     0.166 HD
HETATM   22  C11 UNL     1      71.871 -13.553  73.476  1.00  0.00     0.038 A 
HETATM   23  C13 UNL     1      70.846 -11.473  73.408  1.00  0.00     0.075 A 
HETATM   24  C12 UNL     1      73.006 -12.890  73.116  1.00  0.00     0.053 A 
HETATM   25  S1  UNL     1      72.486 -11.268  72.998  1.00  0.00    -0.096 SA
ENDBRANCH  11  15
ENDBRANCH   5   8
BRANCH   6  26
HETATM   26  C16 UNL     1      68.040  -5.189  69.828  1.00  0.00     0.158 C 
BRANCH  26  27
HETATM   27  C17 UNL     1      67.009  -4.095  69.968  1.00  0.00     0.292 C 
BRANCH  27  28
HETATM   28  N6  UNL     1      66.428  -3.670  68.722  1.00  0.00     0.090 N 
HETATM   29  C18 UNL     1      66.029  -4.797  67.956  1.00  0.00     0.272 C 
HETATM   30  C19 UNL     1      65.547  -4.469  66.560  1.00  0.00     0.030 C 
HETATM   31  C20 UNL     1      66.636  -3.684  65.867  1.00  0.00     0.003 C 
HETATM   32  C21 UNL     1      66.823  -2.403  66.690  1.00  0.00     0.030 C 
HETATM   33  C22 UNL     1      67.410  -2.867  68.022  1.00  0.00     0.272 C 
ENDBRANCH  27  28
ENDBRANCH  26  27
ENDBRANCH   6  26
TORSDOF 5
ENDMDL
MODEL 2
REMARK VINA RESULT: -8.417302379      3.280      8.276
REMARK  5 active torsions:
REMARK  status: ('A' for Active; 'I' for Inactive)
REMARK    1  A    between atoms: C4_5  and  C5_6 
REMARK    2  A    between atoms: N2_9  and  C8_10 
REMARK    3  A    between atoms: N5_24  and  C16_25 
REMARK    4  A    between atoms: C16_25  and  C17_26 
REMARK    5  A    between atoms: C17_26  and  N6_27 
ROOT
HETATM    1  N1  UNL     1      70.433  -8.873  73.865  1.00  0.00    -0.191 NA
HETATM    2  C1  UNL     1      70.225  -7.876  73.297  1.00  0.00     0.101 C 
HETATM    3  C2  UNL     1      69.963  -6.641  72.614  1.00  0.00     0.062 A 
HETATM    4  C3  UNL     1      70.817  -5.595  72.337  1.00  0.00     0.049 A 
HETATM    5  C4  UNL     1      70.141  -4.582  71.647  1.00  0.00     0.019 A 
HETATM    6  N5  UNL     1      68.872  -5.037  71.516  1.00  0.00    -0.356 N 
HETATM    7  C23 UNL     1      68.750  -6.252  72.081  1.00  0.00     0.113 A 
ENDROOT
BRANCH   5   8
HETATM    8  C5  UNL     1      70.705  -3.291  71.176  1.00  0.00     0.073 C 
HETATM    9  C6  UNL     1      71.542  -2.695  72.290  1.00  0.00     0.033 C 
HETATM   10  C7  UNL     1      72.977  -2.490  71.861  1.00  0.00     0.125 C 
HETATM   11  N2  UNL     1      73.022  -1.769  70.604  1.00  0.00    -0.363 N 
HETATM   12  C14 UNL     1      72.310  -2.354  69.491  1.00  0.00     0.162 C 
HETATM   13  C15 UNL     1      71.510  -3.551  69.943  1.00  0.00     0.198 C 
HETATM   14  F1  UNL     1      70.674  -3.913  68.913  1.00  0.00    -0.247 F 
BRANCH  11  15
HETATM   15  C8  UNL     1      73.736  -0.574  70.523  1.00  0.00     0.123 A 
HETATM   16  N3  UNL     1      73.178   0.626  70.763  1.00  0.00    -0.338 N 
HETATM   17  C9  UNL     1      74.008   1.685  70.644  1.00  0.00     0.182 A 
ATOM     18  H3  UNL     1      72.195   0.730  71.019  1.00  0.00     0.168 HD
HETATM   19  N4  UNL     1      75.300   1.615  70.315  1.00  0.00    -0.351 N 
HETATM   20  C10 UNL     1      75.901   0.410  70.062  1.00  0.00     0.054 A 
ATOM     21  H4  UNL     1      75.848   2.473  70.250  1.00  0.00     0.166 HD
HETATM   22  C11 UNL     1      77.193   0.186  69.718  1.00  0.00     0.038 A 
HETATM   23  C13 UNL     1      75.090  -0.679  70.174  1.00  0.00     0.075 A 
HETATM   24  C12 UNL     1      77.567  -1.109  69.514  1.00  0.00     0.053 A 
HETATM   25  S1  UNL     1      76.127  -1.978  69.803  1.00  0.00    -0.096 SA
ENDBRANCH  11  15
ENDBRANCH   5   8
BRANCH   6  26
HETATM   26  C16 UNL     1      67.785  -4.316  70.861  1.00  0.00     0.158 C 
BRANCH  26  27
HETATM   27  C17 UNL     1      67.252  -5.189  69.751  1.00  0.00     0.292 C 
BRANCH  27  28
HETATM   28  N6  UNL     1      67.273  -4.571  68.452  1.00  0.00     0.090 N 
HETATM   29  C18 UNL     1      67.517  -3.177  68.576  1.00  0.00     0.272 C 
HETATM   30  C19 UNL     1      67.406  -2.403  67.281  1.00  0.00     0.030 C 
HETATM   31  C20 UNL     1      66.042  -2.677  66.692  1.00  0.00     0.003 C 
HETATM   32  C21 UNL     1      65.993  -4.187  66.426  1.00  0.00     0.030 C 
HETATM   33  C22 UNL     1      66.003  -4.837  67.809  1.00  0.00     0.272 C 
ENDBRANCH  27  28
ENDBRANCH  26  27
ENDBRANCH   6  26
TORSDOF 5
ENDMDL
MODEL 3
REMARK VINA RESULT: -8.386846045      3.704      8.179
REMARK  5 active torsions:
REMARK  status: ('A' for Active; 'I' for Inactive)
REMARK    1  A    between atoms: C4_5  and  C5_6 
REMARK    2  A    between atoms: N2_9  and  C8_10 
REMARK    3  A    between atoms: N5_24  and  C16_25 
REMARK    4  A    between atoms: C16_25  and  C17_26 
REMARK    5  A    between atoms: C17_26  and  N6_27 
ROOT
HETATM    1  N1  UNL     1      69.702  -7.586  75.527  1.00  0.00    -0.191 NA
HETATM    2  C1  UNL     1      69.641  -6.979  74.533  1.00  0.00     0.101 C 
HETATM    3  C2  UNL     1      69.552  -6.221  73.316  1.00  0.00     0.062 A 
HETATM    4  C3  UNL     1      70.258  -5.104  72.928  1.00  0.00     0.049 A 
HETATM    5  C4  UNL     1      69.850  -4.687  71.655  1.00  0.00     0.019 A 
HETATM    6  N5  UNL     1      68.891  -5.571  71.289  1.00  0.00    -0.356 N 
HETATM    7  C23 UNL     1      68.703  -6.485  72.260  1.00  0.00     0.113 A 
ENDROOT
BRANCH   5   8
HETATM    8  C5  UNL     1      70.362  -3.521  70.889  1.00  0.00     0.073 C 
HETATM    9  C6  UNL     1      70.918  -2.507  71.868  1.00  0.00     0.033 C 
HETATM   10  C7  UNL     1      72.380  -2.225  71.608  1.00  0.00     0.125 C 
HETATM   11  N2  UNL     1      72.583  -1.904  70.209  1.00  0.00    -0.363 N 
HETATM   12  C14 UNL     1      72.148  -2.890  69.245  1.00  0.00     0.162 C 
HETATM   13  C15 UNL     1      71.400  -4.007  69.929  1.00  0.00     0.198 C 
HETATM   14  F1  UNL     1      70.806  -4.775  68.956  1.00  0.00    -0.247 F 
BRANCH  11  15
HETATM   15  C8  UNL     1      73.180  -0.693  69.860  1.00  0.00     0.123 A 
HETATM   16  N3  UNL     1      72.474   0.433  69.652  1.00  0.00    -0.338 N 
HETATM   17  C9  UNL     1      73.203   1.521  69.324  1.00  0.00     0.182 A 
ATOM     18  H3  UNL     1      71.457   0.463  69.737  1.00  0.00     0.168 HD
HETATM   19  N4  UNL     1      74.532   1.546  69.199  1.00  0.00    -0.351 N 
HETATM   20  C10 UNL     1      75.282   0.418  69.403  1.00  0.00     0.054 A 
ATOM     21  H4  UNL     1      74.996   2.419  68.948  1.00  0.00     0.166 HD
HETATM   22  C11 UNL     1      76.629   0.292  69.311  1.00  0.00     0.038 A 
HETATM   23  C13 UNL     1      74.576  -0.698  69.735  1.00  0.00     0.075 A 
HETATM   24  C12 UNL     1      77.158  -0.940  69.559  1.00  0.00     0.053 A 
HETATM   25  S1  UNL     1      75.783  -1.887  69.912  1.00  0.00    -0.096 SA
ENDBRANCH  11  15
ENDBRANCH   5   8
BRANCH   6  26
HETATM   26  C16 UNL     1      68.158  -5.541  70.028  1.00  0.00     0.158 C 
BRANCH  26  27
HETATM   27  C17 UNL     1      66.919  -4.704  70.231  1.00  0.00     0.292 C 
BRANCH  27  28
HETATM   28  N6  UNL     1      66.481  -4.004  69.051  1.00  0.00     0.090 N 
HETATM   29  C18 UNL     1      66.063  -4.930  68.058  1.00  0.00     0.272 C 
HETATM   30  C19 UNL     1      65.729  -4.307  66.721  1.00  0.00     0.030 C 
HETATM   31  C20 UNL     1      66.930  -3.512  66.267  1.00  0.00     0.003 C 
HETATM   32  C21 UNL     1      67.146  -2.427  67.330  1.00  0.00     0.030 C 
HETATM   33  C22 UNL     1      67.578  -3.181  68.587  1.00  0.00     0.272 C 
ENDBRANCH  27  28
ENDBRANCH  26  27
ENDBRANCH   6  26
TORSDOF 5
ENDMDL
MODEL 4
REMARK VINA RESULT: -8.373411936      3.452      8.239
REMARK  5 active torsions:
REMARK  status: ('A' for Active; 'I' for Inactive)
REMARK    1  A    between atoms: C4_5  and  C5_6 
REMARK    2  A    between atoms: N2_9  and  C8_10 
REMARK    3  A    between atoms: N5_24  and  C16_25 
REMARK    4  A    between atoms: C16_25  and  C17_26 
REMARK    5  A    between atoms: C17_26  and  N6_27 
ROOT
HETATM    1  N1  UNL     1      69.865  -8.804  72.903  1.00  0.00    -0.191 NA
HETATM    2  C1  UNL     1      69.833  -7.718  72.480  1.00  0.00     0.101 C 
HETATM    3  C2  UNL     1      69.789  -6.375  71.974  1.00  0.00     0.062 A 
HETATM    4  C3  UNL     1      70.801  -5.446  71.867  1.00  0.00     0.049 A 
HETATM    5  C4  UNL     1      70.314  -4.255  71.314  1.00  0.00     0.019 A 
HETATM    6  N5  UNL     1      68.998  -4.486  71.093  1.00  0.00    -0.356 N 
HETATM    7  C23 UNL     1      68.671  -5.734  71.477  1.00  0.00     0.113 A 
ENDROOT
BRANCH   5   8
HETATM    8  C5  UNL     1      71.085  -3.014  71.044  1.00  0.00     0.073 C 
HETATM    9  C6  UNL     1      72.102  -2.826  72.153  1.00  0.00     0.033 C 
HETATM   10  C7  UNL     1      73.513  -2.792  71.614  1.00  0.00     0.125 C 
HETATM   11  N2  UNL     1      73.607  -1.839  70.525  1.00  0.00    -0.363 N 
HETATM   12  C14 UNL     1      72.715  -2.039  69.405  1.00  0.00     0.162 C 
HETATM   13  C15 UNL     1      71.731  -3.144  69.702  1.00  0.00     0.198 C 
HETATM   14  F1  UNL     1      70.768  -3.125  68.722  1.00  0.00    -0.247 F 
BRANCH  11  15
HETATM   15  C8  UNL     1      74.534  -0.800  70.599  1.00  0.00     0.123 A 
HETATM   16  N3  UNL     1      74.280   0.358  71.234  1.00  0.00    -0.338 N 
HETATM   17  C9  UNL     1      75.285   1.261  71.215  1.00  0.00     0.182 A 
ATOM     18  H3  UNL     1      73.390   0.543  71.698  1.00  0.00     0.168 HD
HETATM   19  N4  UNL     1      76.470   1.079  70.628  1.00  0.00    -0.351 N 
HETATM   20  C10 UNL     1      76.762  -0.087  69.972  1.00  0.00     0.054 A 
ATOM     21  H4  UNL     1      77.168   1.821  70.667  1.00  0.00     0.166 HD
HETATM   22  C11 UNL     1      77.913  -0.411  69.331  1.00  0.00     0.038 A 
HETATM   23  C13 UNL     1      75.769  -1.020  69.971  1.00  0.00     0.075 A 
HETATM   24  C12 UNL     1      77.975  -1.640  68.744  1.00  0.00     0.053 A 
HETATM   25  S1  UNL     1      76.444  -2.313  69.093  1.00  0.00    -0.096 SA
ENDBRANCH  11  15
ENDBRANCH   5   8
BRANCH   6  26
HETATM   26  C16 UNL     1      68.060  -3.523  70.525  1.00  0.00     0.158 C 
BRANCH  26  27
HETATM   27  C17 UNL     1      66.938  -4.296  69.875  1.00  0.00     0.292 C 
BRANCH  27  28
HETATM   28  N6  UNL     1      66.458  -3.718  68.648  1.00  0.00     0.090 N 
HETATM   29  C18 UNL     1      66.076  -4.740  67.740  1.00  0.00     0.272 C 
HETATM   30  C19 UNL     1      65.702  -4.247  66.360  1.00  0.00     0.030 C 
HETATM   31  C20 UNL     1      66.860  -3.437  65.827  1.00  0.00     0.003 C 
HETATM   32  C21 UNL     1      67.033  -2.259  66.795  1.00  0.00     0.030 C 
HETATM   33  C22 UNL     1      67.511  -2.885  68.104  1.00  0.00     0.272 C 
ENDBRANCH  27  28
ENDBRANCH  26  27
ENDBRANCH   6  26
TORSDOF 5
ENDMDL
MODEL 5
REMARK VINA RESULT: -8.336109729      4.340      8.732
REMARK  5 active torsions:
REMARK  status: ('A' for Active; 'I' for Inactive)
REMARK    1  A    between atoms: C4_5  and  C5_6 
REMARK    2  A    between atoms: N2_9  and  C8_10 
REMARK    3  A    between atoms: N5_24  and  C16_25 
REMARK    4  A    between atoms: C16_25  and  C17_26 
REMARK    5  A    between atoms: C17_26  and  N6_27 
ROOT
HETATM    1  N1  UNL     1      68.327  -3.287  77.678  1.00  0.00    -0.191 NA
HETATM    2  C1  UNL     1      68.994  -3.726  76.828  1.00  0.00     0.101 C 
HETATM    3  C2  UNL     1      69.801  -4.265  75.770  1.00  0.00     0.062 A 
HETATM    4  C3  UNL     1      70.655  -3.619  74.904  1.00  0.00     0.049 A 
HETATM    5  C4  UNL     1      71.244  -4.535  74.024  1.00  0.00     0.019 A 
HETATM    6  N5  UNL     1      70.729  -5.737  74.376  1.00  0.00    -0.356 N 
HETATM    7  C23 UNL     1      69.875  -5.596  75.407  1.00  0.00     0.113 A 
ENDROOT
BRANCH   5   8
HETATM    8  C5  UNL     1      72.213  -4.236  72.938  1.00  0.00     0.073 C 
HETATM    9  C6  UNL     1      71.443  -3.788  71.712  1.00  0.00     0.033 C 
HETATM   10  C7  UNL     1      71.844  -2.398  71.279  1.00  0.00     0.125 C 
HETATM   11  N2  UNL     1      73.286  -2.308  71.165  1.00  0.00    -0.363 N 
HETATM   12  C14 UNL     1      74.055  -2.639  72.344  1.00  0.00     0.162 C 
HETATM   13  C15 UNL     1      73.157  -3.182  73.427  1.00  0.00     0.198 C 
HETATM   14  F1  UNL     1      73.956  -3.702  74.417  1.00  0.00    -0.247 F 
BRANCH  11  15
HETATM   15  C8  UNL     1      73.858  -1.912  69.956  1.00  0.00     0.123 A 
HETATM   16  N3  UNL     1      74.123  -2.774  68.959  1.00  0.00    -0.338 N 
HETATM   17  C9  UNL     1      74.674  -2.229  67.853  1.00  0.00     0.182 A 
ATOM     18  H3  UNL     1      73.921  -3.772  69.032  1.00  0.00     0.168 HD
HETATM   19  N4  UNL     1      74.960  -0.935  67.696  1.00  0.00    -0.351 N 
HETATM   20  C10 UNL     1      74.705  -0.028  68.691  1.00  0.00     0.054 A 
ATOM     21  H4  UNL     1      75.377  -0.616  66.822  1.00  0.00     0.166 HD
HETATM   22  C11 UNL     1      74.942   1.307  68.676  1.00  0.00     0.038 A 
HETATM   23  C13 UNL     1      74.148  -0.547  69.821  1.00  0.00     0.075 A 
HETATM   24  C12 UNL     1      74.603   2.013  69.792  1.00  0.00     0.053 A 
HETATM   25  S1  UNL     1      73.967   0.814  70.829  1.00  0.00    -0.096 SA
ENDBRANCH  11  15
ENDBRANCH   5   8
BRANCH   6  26
HETATM   26  C16 UNL     1      71.046  -7.008  73.733  1.00  0.00     0.158 C 
BRANCH  26  27
HETATM   27  C17 UNL     1      69.750  -7.745  73.499  1.00  0.00     0.292 C 
BRANCH  27  28
HETATM   28  N6  UNL     1      69.484  -8.046  72.117  1.00  0.00     0.090 N 
HETATM   29  C18 UNL     1      70.701  -8.266  71.419  1.00  0.00     0.272 C 
HETATM   30  C19 UNL     1      70.545  -8.437  69.925  1.00  0.00     0.030 C 
HETATM   31  C20 UNL     1      69.812  -7.228  69.393  1.00  0.00     0.003 C 
HETATM   32  C21 UNL     1      68.442  -7.227  70.084  1.00  0.00     0.030 C 
HETATM   33  C22 UNL     1      68.737  -6.940  71.555  1.00  0.00     0.272 C 
ENDBRANCH  27  28
ENDBRANCH  26  27
ENDBRANCH   6  26
TORSDOF 5
ENDMDL
