MODEL 1
REMARK VINA RESULT: -6.451914752      0.000      0.000
REMARK  5 active torsions:
REMARK  status: ('A' for Active; 'I' for Inactive)
REMARK    1  A    between atoms: C1_2  and  N1_3 
REMARK    2  A    between atoms: N1_3  and  C2_4 
REMARK    3  A    between atoms: C2_4  and  C3_5 
REMARK    4  A    between atoms: C3_5  and  N2_6 
REMARK       I    between atoms: N2_6  and  C4_8 
REMARK       I    between atoms: C4_8  and  N3_10 
REMARK    5  A    between atoms: N3_10  and  C5_12 
ROOT
HETATM    1  N2  UNL     1     -20.949   8.125   4.971  1.00  0.00    -0.341 N 
ATOM      2  H2  UNL     1     -20.286   8.393   4.244  1.00  0.00     0.164 HD
HETATM    3  C4  UNL     1     -21.276   6.736   5.182  1.00  0.00     0.317 C 
HETATM    4  O2  UNL     1     -22.028   6.442   6.125  1.00  0.00    -0.247 OA
HETATM    5  N3  UNL     1     -20.747   5.778   4.334  1.00  0.00    -0.329 N 
ATOM      6  H3  UNL     1     -20.182   6.078   3.539  1.00  0.00     0.165 HD
ENDROOT
BRANCH   1   7
HETATM    7  C3  UNL     1     -21.569   9.131   5.794  1.00  0.00     0.157 C 
BRANCH   7   8
HETATM    8  C2  UNL     1     -22.010  10.299   4.897  1.00  0.00     0.240 C 
BRANCH   8   9
HETATM    9  N1  UNL     1     -23.340  10.273   4.697  1.00  0.00    -0.421 NA
BRANCH   9  10
HETATM   10  C1  UNL     1     -24.694  10.248   4.494  1.00  0.00     0.435 C 
HETATM   11  O1  UNL     1     -25.316   9.840   3.456  1.00  0.00    -0.269 OA
ENDBRANCH   9  10
ENDBRANCH   8   9
ENDBRANCH   7   8
ENDBRANCH   1   7
BRANCH   5  12
HETATM   12  C5  UNL     1     -20.974   4.360   4.542  1.00  0.00     0.153 C 
HETATM   13  C6  UNL     1     -19.877   3.542   4.764  1.00  0.00    -0.158 C 
HETATM   14  C7  UNL     1     -18.756   2.678   4.876  1.00  0.00     0.082 C 
HETATM   15  C8  UNL     1     -18.953   1.569   3.787  1.00  0.00     0.011 C 
HETATM   16  C9  UNL     1     -20.392   1.553   3.257  1.00  0.00     0.001 C 
HETATM   17  C10 UNL     1     -20.918   2.710   2.581  1.00  0.00     0.003 C 
HETATM   18  C11 UNL     1     -21.700   3.808   3.247  1.00  0.00     0.037 C 
ENDBRANCH   5  12
TORSDOF 5
ENDMDL
MODEL 2
REMARK VINA RESULT: -6.370679139      6.041      8.088
REMARK  5 active torsions:
REMARK  status: ('A' for Active; 'I' for Inactive)
REMARK    1  A    between atoms: C1_2  and  N1_3 
REMARK    2  A    between atoms: N1_3  and  C2_4 
REMARK    3  A    between atoms: C2_4  and  C3_5 
REMARK    4  A    between atoms: C3_5  and  N2_6 
REMARK       I    between atoms: N2_6  and  C4_8 
REMARK       I    between atoms: C4_8  and  N3_10 
REMARK    5  A    between atoms: N3_10  and  C5_12 
ROOT
HETATM    1  N2  UNL     1     -16.358  -0.095   7.020  1.00  0.00    -0.341 N 
ATOM      2  H2  UNL     1     -16.937  -0.930   7.108  1.00  0.00     0.164 HD
HETATM    3  C4  UNL     1     -16.706   0.933   6.069  1.00  0.00     0.317 C 
HETATM    4  O2  UNL     1     -16.024   1.970   6.043  1.00  0.00    -0.247 OA
HETATM    5  N3  UNL     1     -17.780   0.736   5.219  1.00  0.00    -0.329 N 
ATOM      6  H3  UNL     1     -18.272  -0.158   5.240  1.00  0.00     0.165 HD
ENDROOT
BRANCH   1   7
HETATM    7  C3  UNL     1     -15.188   0.068   7.842  1.00  0.00     0.157 C 
BRANCH   7   8
HETATM    8  C2  UNL     1     -15.614   0.036   9.318  1.00  0.00     0.240 C 
BRANCH   8   9
HETATM    9  N1  UNL     1     -16.415   1.078   9.608  1.00  0.00    -0.421 NA
BRANCH   9  10
HETATM   10  C1  UNL     1     -17.231   2.137   9.903  1.00  0.00     0.435 C 
HETATM   11  O1  UNL     1     -18.302   2.123  10.599  1.00  0.00    -0.269 OA
ENDBRANCH   9  10
ENDBRANCH   8   9
ENDBRANCH   7   8
ENDBRANCH   1   7
BRANCH   5  12
HETATM   12  C5  UNL     1     -18.228   1.763   4.297  1.00  0.00     0.153 C 
HETATM   13  C6  UNL     1     -19.167   2.683   4.738  1.00  0.00    -0.158 C 
HETATM   14  C7  UNL     1     -20.211   3.557   5.140  1.00  0.00     0.082 C 
HETATM   15  C8  UNL     1     -21.321   3.440   4.041  1.00  0.00     0.011 C 
HETATM   16  C9  UNL     1     -20.785   2.767   2.771  1.00  0.00     0.001 C 
HETATM   17  C10 UNL     1     -20.302   1.412   2.831  1.00  0.00     0.003 C 
HETATM   18  C11 UNL     1     -18.865   1.025   3.048  1.00  0.00     0.037 C 
ENDBRANCH   5  12
TORSDOF 5
ENDMDL
MODEL 3
REMARK VINA RESULT: -6.280540554      6.246      9.819
REMARK  5 active torsions:
REMARK  status: ('A' for Active; 'I' for Inactive)
REMARK    1  A    between atoms: C1_2  and  N1_3 
REMARK    2  A    between atoms: N1_3  and  C2_4 
REMARK    3  A    between atoms: C2_4  and  C3_5 
REMARK    4  A    between atoms: C3_5  and  N2_6 
REMARK       I    between atoms: N2_6  and  C4_8 
REMARK       I    between atoms: C4_8  and  N3_10 
REMARK    5  A    between atoms: N3_10  and  C5_12 
ROOT
HETATM    1  N2  UNL     1     -16.448  -0.153   6.999  1.00  0.00    -0.341 N 
ATOM      2  H2  UNL     1     -17.010  -1.003   7.034  1.00  0.00     0.164 HD
HETATM    3  C4  UNL     1     -16.783   0.902   6.073  1.00  0.00     0.317 C 
HETATM    4  O2  UNL     1     -16.125   1.954   6.113  1.00  0.00    -0.247 OA
HETATM    5  N3  UNL     1     -17.818   0.713   5.174  1.00  0.00    -0.329 N 
ATOM      6  H3  UNL     1     -18.289  -0.192   5.144  1.00  0.00     0.165 HD
ENDROOT
BRANCH   1   7
HETATM    7  C3  UNL     1     -15.315   0.005   7.873  1.00  0.00     0.157 C 
BRANCH   7   8
HETATM    8  C2  UNL     1     -15.054  -1.329   8.589  1.00  0.00     0.240 C 
BRANCH   8   9
HETATM    9  N1  UNL     1     -13.867  -1.846   8.222  1.00  0.00    -0.421 NA
BRANCH   9  10
HETATM   10  C1  UNL     1     -12.660  -2.373   7.849  1.00  0.00     0.435 C 
HETATM   11  O1  UNL     1     -12.317  -3.603   7.843  1.00  0.00    -0.269 OA
ENDBRANCH   9  10
ENDBRANCH   8   9
ENDBRANCH   7   8
ENDBRANCH   1   7
BRANCH   5  12
HETATM   12  C5  UNL     1     -18.254   1.764   4.274  1.00  0.00     0.153 C 
HETATM   13  C6  UNL     1     -19.201   2.670   4.724  1.00  0.00    -0.158 C 
HETATM   14  C7  UNL     1     -20.254   3.530   5.133  1.00  0.00     0.082 C 
HETATM   15  C8  UNL     1     -21.346   3.440   4.014  1.00  0.00     0.011 C 
HETATM   16  C9  UNL     1     -20.788   2.803   2.735  1.00  0.00     0.001 C 
HETATM   17  C10 UNL     1     -20.303   1.449   2.766  1.00  0.00     0.003 C 
HETATM   18  C11 UNL     1     -18.869   1.059   2.995  1.00  0.00     0.037 C 
ENDBRANCH   5  12
TORSDOF 5
ENDMDL
MODEL 4
REMARK VINA RESULT: -6.163237438      6.061      9.275
REMARK  5 active torsions:
REMARK  status: ('A' for Active; 'I' for Inactive)
REMARK    1  A    between atoms: C1_2  and  N1_3 
REMARK    2  A    between atoms: N1_3  and  C2_4 
REMARK    3  A    between atoms: C2_4  and  C3_5 
REMARK    4  A    between atoms: C3_5  and  N2_6 
REMARK       I    between atoms: N2_6  and  C4_8 
REMARK       I    between atoms: C4_8  and  N3_10 
REMARK    5  A    between atoms: N3_10  and  C5_12 
ROOT
HETATM    1  N2  UNL     1     -16.407  -0.125   7.031  1.00  0.00    -0.341 N 
ATOM      2  H2  UNL     1     -16.993  -0.956   7.103  1.00  0.00     0.164 HD
HETATM    3  C4  UNL     1     -16.731   0.913   6.082  1.00  0.00     0.317 C 
HETATM    4  O2  UNL     1     -16.040   1.945   6.076  1.00  0.00    -0.247 OA
HETATM    5  N3  UNL     1     -17.792   0.730   5.212  1.00  0.00    -0.329 N 
ATOM      6  H3  UNL     1     -18.290  -0.160   5.218  1.00  0.00     0.165 HD
ENDROOT
BRANCH   1   7
HETATM    7  C3  UNL     1     -15.250   0.023   7.875  1.00  0.00     0.157 C 
BRANCH   7   8
HETATM    8  C2  UNL     1     -14.999  -1.306   8.605  1.00  0.00     0.240 C 
BRANCH   8   9
HETATM    9  N1  UNL     1     -15.531  -1.281   9.841  1.00  0.00    -0.421 NA
BRANCH   9  10
HETATM   10  C1  UNL     1     -16.073  -1.255  11.098  1.00  0.00     0.435 C 
HETATM   11  O1  UNL     1     -16.495  -2.248  11.783  1.00  0.00    -0.269 OA
ENDBRANCH   9  10
ENDBRANCH   8   9
ENDBRANCH   7   8
ENDBRANCH   1   7
BRANCH   5  12
HETATM   12  C5  UNL     1     -18.216   1.768   4.291  1.00  0.00     0.153 C 
HETATM   13  C6  UNL     1     -19.165   2.683   4.718  1.00  0.00    -0.158 C 
HETATM   14  C7  UNL     1     -20.220   3.553   5.103  1.00  0.00     0.082 C 
HETATM   15  C8  UNL     1     -21.301   3.448   3.975  1.00  0.00     0.011 C 
HETATM   16  C9  UNL     1     -20.732   2.790   2.711  1.00  0.00     0.001 C 
HETATM   17  C10 UNL     1     -20.250   1.434   2.768  1.00  0.00     0.003 C 
HETATM   18  C11 UNL     1     -18.820   1.045   3.018  1.00  0.00     0.037 C 
ENDBRANCH   5  12
TORSDOF 5
ENDMDL
MODEL 5
REMARK VINA RESULT: -6.063217779      6.131      9.307
REMARK  5 active torsions:
REMARK  status: ('A' for Active; 'I' for Inactive)
REMARK    1  A    between atoms: C1_2  and  N1_3 
REMARK    2  A    between atoms: N1_3  and  C2_4 
REMARK    3  A    between atoms: C2_4  and  C3_5 
REMARK    4  A    between atoms: C3_5  and  N2_6 
REMARK       I    between atoms: N2_6  and  C4_8 
REMARK       I    between atoms: C4_8  and  N3_10 
REMARK    5  A    between atoms: N3_10  and  C5_12 
ROOT
HETATM    1  N2  UNL     1     -16.403  -0.220   7.121  1.00  0.00    -0.341 N 
ATOM      2  H2  UNL     1     -16.745  -1.166   6.950  1.00  0.00     0.164 HD
HETATM    3  C4  UNL     1     -16.797   0.862   6.253  1.00  0.00     0.317 C 
HETATM    4  O2  UNL     1     -16.424   2.012   6.535  1.00  0.00    -0.247 OA
HETATM    5  N3  UNL     1     -17.572   0.591   5.138  1.00  0.00    -0.329 N 
ATOM      6  H3  UNL     1     -17.802  -0.378   4.919  1.00  0.00     0.165 HD
ENDROOT
BRANCH   1   7
HETATM    7  C3  UNL     1     -15.523   0.045   8.229  1.00  0.00     0.157 C 
BRANCH   7   8
HETATM    8  C2  UNL     1     -14.111  -0.441   7.864  1.00  0.00     0.240 C 
BRANCH   8   9
HETATM    9  N1  UNL     1     -13.199   0.047   8.725  1.00  0.00    -0.421 NA
BRANCH   9  10
HETATM   10  C1  UNL     1     -12.271   0.543   9.600  1.00  0.00     0.435 C 
HETATM   11  O1  UNL     1     -12.465   1.376  10.549  1.00  0.00    -0.269 OA
ENDBRANCH   9  10
ENDBRANCH   8   9
ENDBRANCH   7   8
ENDBRANCH   1   7
BRANCH   5  12
HETATM   12  C5  UNL     1     -18.066   1.646   4.273  1.00  0.00     0.153 C 
HETATM   13  C6  UNL     1     -19.037   2.505   4.765  1.00  0.00    -0.158 C 
HETATM   14  C7  UNL     1     -20.111   3.315   5.216  1.00  0.00     0.082 C 
HETATM   15  C8  UNL     1     -21.223   3.211   4.119  1.00  0.00     0.011 C 
HETATM   16  C9  UNL     1     -20.671   2.624   2.814  1.00  0.00     0.001 C 
HETATM   17  C10 UNL     1     -20.135   1.289   2.801  1.00  0.00     0.003 C 
HETATM   18  C11 UNL     1     -18.683   0.948   2.991  1.00  0.00     0.037 C 
ENDBRANCH   5  12
TORSDOF 5
ENDMDL
