MODEL 1
REMARK VINA RESULT: -9.482019320      0.000      0.000
REMARK  7 active torsions:
REMARK  status: ('A' for Active; 'I' for Inactive)
REMARK    1  A    between atoms: C2_2  and  C3_3 
REMARK    2  A    between atoms: C4_5  and  S2_6 
REMARK    3  A    between atoms: S2_6  and  C5_7 
REMARK    4  A    between atoms: C5_7  and  C6_8 
REMARK       I    between atoms: C6_8  and  N1_10 
REMARK       I    between atoms: N1_10  and  C7_12 
REMARK    5  A    between atoms: C7_12  and  C8_14 
REMARK    6  A    between atoms: C13_20  and  C14_21 
REMARK    7  A    between atoms: C14_21  and  O3_22 
ROOT
HETATM    1  C3  UNL     1      79.777  49.362  34.550  1.00  0.00    -0.009 A 
HETATM    2  S1  UNL     1      80.904  48.207  35.069  1.00  0.00    -0.085 SA
HETATM    3  C4  UNL     1      81.399  48.946  36.559  1.00  0.00     0.067 A 
HETATM    4  C16 UNL     1      80.649  50.075  36.584  1.00  0.00     0.075 A 
HETATM    5  C17 UNL     1      80.709  50.992  37.742  1.00  0.00     0.102 C 
HETATM    6  N3  UNL     1      80.774  51.705  38.675  1.00  0.00    -0.191 NA
HETATM    7  C18 UNL     1      79.804  50.304  35.546  1.00  0.00    -0.026 A 
HETATM    8  C19 UNL     1      78.905  51.539  35.447  1.00  0.00     0.051 C 
ENDROOT
BRANCH   3   9
HETATM    9  S2  UNL     1      82.533  48.237  37.727  1.00  0.00    -0.088 SA
BRANCH   9  10
HETATM   10  C5  UNL     1      81.834  47.663  39.236  1.00  0.00     0.125 C 
BRANCH  10  11
HETATM   11  C6  UNL     1      82.223  48.379  40.432  1.00  0.00     0.254 C 
HETATM   12  O1  UNL     1      83.441  48.398  40.822  1.00  0.00    -0.268 OA
HETATM   13  N1  UNL     1      81.332  49.104  41.266  1.00  0.00    -0.289 N 
HETATM   14  C7  UNL     1      79.979  49.238  40.983  1.00  0.00     0.258 C 
ATOM     15  H1  UNL     1      81.701  49.546  42.108  1.00  0.00     0.172 HD
HETATM   16  O2  UNL     1      79.452  48.734  39.966  1.00  0.00    -0.267 OA
BRANCH  14  17
HETATM   17  C8  UNL     1      79.065  49.995  41.882  1.00  0.00     0.034 A 
HETATM   18  C9  UNL     1      78.003  50.685  41.348  1.00  0.00     0.044 A 
HETATM   19  C10 UNL     1      77.133  51.391  42.186  1.00  0.00     0.053 A 
HETATM   20  N2  UNL     1      76.033  52.110  41.641  1.00  0.00    -0.102 NA
HETATM   21  C11 UNL     1      77.325  51.405  43.552  1.00  0.00    -0.029 A 
HETATM   22  C12 UNL     1      76.392  52.155  44.434  1.00  0.00     0.050 C 
HETATM   23  C13 UNL     1      78.387  50.713  44.086  1.00  0.00    -0.026 A 
HETATM   24  C15 UNL     1      79.236  50.023  43.245  1.00  0.00     0.027 A 
BRANCH  23  25
HETATM   25  C14 UNL     1      78.609  50.713  45.556  1.00  0.00     0.203 C 
BRANCH  25  26
HETATM   26  O3  UNL     1      79.727  49.979  45.904  1.00  0.00    -0.396 OA
ATOM     27  H3  UNL     1      80.444  50.540  46.174  1.00  0.00     0.209 HD
ENDBRANCH  25  26
ENDBRANCH  23  25
ENDBRANCH  14  17
ENDBRANCH  10  11
ENDBRANCH   9  10
ENDBRANCH   3   9
BRANCH   1  28
HETATM   28  C2  UNL     1      78.923  49.382  33.297  1.00  0.00     0.042 C 
HETATM   29  C1  UNL     1      79.874  49.343  32.134  1.00  0.00     0.010 C 
ENDBRANCH   1  28
TORSDOF 7
ENDMDL
MODEL 2
REMARK VINA RESULT: -9.468418067      1.541      2.089
REMARK  7 active torsions:
REMARK  status: ('A' for Active; 'I' for Inactive)
REMARK    1  A    between atoms: C2_2  and  C3_3 
REMARK    2  A    between atoms: C4_5  and  S2_6 
REMARK    3  A    between atoms: S2_6  and  C5_7 
REMARK    4  A    between atoms: C5_7  and  C6_8 
REMARK       I    between atoms: C6_8  and  N1_10 
REMARK       I    between atoms: N1_10  and  C7_12 
REMARK    5  A    between atoms: C7_12  and  C8_14 
REMARK    6  A    between atoms: C13_20  and  C14_21 
REMARK    7  A    between atoms: C14_21  and  O3_22 
ROOT
HETATM    1  C3  UNL     1      79.772  49.322  34.566  1.00  0.00    -0.009 A 
HETATM    2  S1  UNL     1      80.912  48.179  35.081  1.00  0.00    -0.085 SA
HETATM    3  C4  UNL     1      81.410  48.927  36.566  1.00  0.00     0.067 A 
HETATM    4  C16 UNL     1      80.651  50.050  36.591  1.00  0.00     0.075 A 
HETATM    5  C17 UNL     1      80.710  50.971  37.746  1.00  0.00     0.102 C 
HETATM    6  N3  UNL     1      80.775  51.687  38.676  1.00  0.00    -0.191 NA
HETATM    7  C18 UNL     1      79.797  50.268  35.558  1.00  0.00    -0.026 A 
HETATM    8  C19 UNL     1      78.887  51.494  35.461  1.00  0.00     0.051 C 
ENDROOT
BRANCH   3   9
HETATM    9  S2  UNL     1      82.558  48.232  37.729  1.00  0.00    -0.088 SA
BRANCH   9  10
HETATM   10  C5  UNL     1      81.874  47.656  39.244  1.00  0.00     0.125 C 
BRANCH  10  11
HETATM   11  C6  UNL     1      82.290  48.357  40.439  1.00  0.00     0.254 C 
HETATM   12  O1  UNL     1      83.516  48.370  40.803  1.00  0.00    -0.268 OA
HETATM   13  N1  UNL     1      81.419  49.074  41.300  1.00  0.00    -0.289 N 
HETATM   14  C7  UNL     1      80.060  49.212  41.049  1.00  0.00     0.258 C 
ATOM     15  H1  UNL     1      81.807  49.505  42.139  1.00  0.00     0.172 HD
HETATM   16  O2  UNL     1      79.511  48.721  40.037  1.00  0.00    -0.267 OA
BRANCH  14  17
HETATM   17  C8  UNL     1      79.166  49.960  41.976  1.00  0.00     0.034 A 
HETATM   18  C9  UNL     1      79.446  49.983  43.322  1.00  0.00     0.044 A 
HETATM   19  C10 UNL     1      78.618  50.690  44.198  1.00  0.00     0.053 A 
HETATM   20  N2  UNL     1      78.899  50.715  45.593  1.00  0.00    -0.102 NA
HETATM   21  C11 UNL     1      77.515  51.374  43.730  1.00  0.00    -0.029 A 
HETATM   22  C12 UNL     1      76.642  52.126  44.670  1.00  0.00     0.050 C 
HETATM   23  C13 UNL     1      77.236  51.353  42.384  1.00  0.00    -0.026 A 
HETATM   24  C15 UNL     1      78.063  50.648  41.533  1.00  0.00     0.027 A 
BRANCH  23  25
HETATM   25  C14 UNL     1      76.054  52.086  41.859  1.00  0.00     0.203 C 
BRANCH  25  26
HETATM   26  O3  UNL     1      76.221  52.444  40.535  1.00  0.00    -0.396 OA
ATOM     27  H3  UNL     1      76.644  53.290  40.450  1.00  0.00     0.209 HD
ENDBRANCH  25  26
ENDBRANCH  23  25
ENDBRANCH  14  17
ENDBRANCH  10  11
ENDBRANCH   9  10
ENDBRANCH   3   9
BRANCH   1  28
HETATM   28  C2  UNL     1      78.910  49.330  33.319  1.00  0.00     0.042 C 
HETATM   29  C1  UNL     1      79.854  49.356  32.150  1.00  0.00     0.010 C 
ENDBRANCH   1  28
TORSDOF 7
ENDMDL
MODEL 3
REMARK VINA RESULT: -8.998936128      2.193      2.902
REMARK  7 active torsions:
REMARK  status: ('A' for Active; 'I' for Inactive)
REMARK    1  A    between atoms: C2_2  and  C3_3 
REMARK    2  A    between atoms: C4_5  and  S2_6 
REMARK    3  A    between atoms: S2_6  and  C5_7 
REMARK    4  A    between atoms: C5_7  and  C6_8 
REMARK       I    between atoms: C6_8  and  N1_10 
REMARK       I    between atoms: N1_10  and  C7_12 
REMARK    5  A    between atoms: C7_12  and  C8_14 
REMARK    6  A    between atoms: C13_20  and  C14_21 
REMARK    7  A    between atoms: C14_21  and  O3_22 
ROOT
HETATM    1  C3  UNL     1      78.775  49.923  35.019  1.00  0.00    -0.009 A 
HETATM    2  S1  UNL     1      79.262  49.940  36.642  1.00  0.00    -0.085 SA
HETATM    3  C4  UNL     1      80.912  49.442  36.447  1.00  0.00     0.067 A 
HETATM    4  C16 UNL     1      81.009  49.285  35.103  1.00  0.00     0.075 A 
HETATM    5  C17 UNL     1      82.299  48.920  34.480  1.00  0.00     0.102 C 
HETATM    6  N3  UNL     1      83.336  48.631  34.008  1.00  0.00    -0.191 NA
HETATM    7  C18 UNL     1      79.906  49.530  34.351  1.00  0.00    -0.026 A 
HETATM    8  C19 UNL     1      79.877  49.388  32.827  1.00  0.00     0.051 C 
ENDROOT
BRANCH   3   9
HETATM    9  S2  UNL     1      82.107  49.317  37.755  1.00  0.00    -0.088 SA
BRANCH   9  10
HETATM   10  C5  UNL     1      81.769  48.122  39.002  1.00  0.00     0.125 C 
BRANCH  10  11
HETATM   11  C6  UNL     1      82.240  48.439  40.333  1.00  0.00     0.254 C 
HETATM   12  O1  UNL     1      83.452  48.216  40.674  1.00  0.00    -0.268 OA
HETATM   13  N1  UNL     1      81.440  49.006  41.359  1.00  0.00    -0.289 N 
HETATM   14  C7  UNL     1      80.112  49.362  41.167  1.00  0.00     0.258 C 
ATOM     15  H1  UNL     1      81.859  49.160  42.277  1.00  0.00     0.172 HD
HETATM   16  O2  UNL     1      79.529  49.215  40.069  1.00  0.00    -0.267 OA
BRANCH  14  17
HETATM   17  C8  UNL     1      79.292  49.944  42.266  1.00  0.00     0.034 A 
HETATM   18  C9  UNL     1      79.667  49.747  43.573  1.00  0.00     0.044 A 
HETATM   19  C10 UNL     1      78.909  50.298  44.611  1.00  0.00     0.053 A 
HETATM   20  N2  UNL     1      79.288  50.096  45.967  1.00  0.00    -0.102 NA
HETATM   21  C11 UNL     1      77.781  51.045  44.340  1.00  0.00    -0.029 A 
HETATM   22  C12 UNL     1      76.983  51.630  45.451  1.00  0.00     0.050 C 
HETATM   23  C13 UNL     1      77.407  51.244  43.032  1.00  0.00    -0.026 A 
HETATM   24  C15 UNL     1      78.166  50.692  42.021  1.00  0.00     0.027 A 
BRANCH  23  25
HETATM   25  C14 UNL     1      76.196  52.050  42.720  1.00  0.00     0.203 C 
BRANCH  25  26
HETATM   26  O3  UNL     1      75.914  52.044  41.368  1.00  0.00    -0.396 OA
ATOM     27  H3  UNL     1      75.368  52.780  41.120  1.00  0.00     0.209 HD
ENDBRANCH  25  26
ENDBRANCH  23  25
ENDBRANCH  14  17
ENDBRANCH  10  11
ENDBRANCH   9  10
ENDBRANCH   3   9
BRANCH   1  28
HETATM   28  C2  UNL     1      77.427  50.259  34.412  1.00  0.00     0.042 C 
HETATM   29  C1  UNL     1      76.390  49.750  35.374  1.00  0.00     0.010 C 
ENDBRANCH   1  28
TORSDOF 7
ENDMDL
MODEL 4
REMARK VINA RESULT: -8.992714918      2.863      8.015
REMARK  7 active torsions:
REMARK  status: ('A' for Active; 'I' for Inactive)
REMARK    1  A    between atoms: C2_2  and  C3_3 
REMARK    2  A    between atoms: C4_5  and  S2_6 
REMARK    3  A    between atoms: S2_6  and  C5_7 
REMARK    4  A    between atoms: C5_7  and  C6_8 
REMARK       I    between atoms: C6_8  and  N1_10 
REMARK       I    between atoms: N1_10  and  C7_12 
REMARK    5  A    between atoms: C7_12  and  C8_14 
REMARK    6  A    between atoms: C13_20  and  C14_21 
REMARK    7  A    between atoms: C14_21  and  O3_22 
ROOT
HETATM    1  C3  UNL     1      76.530  51.911  42.497  1.00  0.00    -0.009 A 
HETATM    2  S1  UNL     1      77.574  51.156  41.397  1.00  0.00    -0.085 SA
HETATM    3  C4  UNL     1      78.713  50.471  42.513  1.00  0.00     0.067 A 
HETATM    4  C16 UNL     1      78.216  50.868  43.711  1.00  0.00     0.075 A 
HETATM    5  C17 UNL     1      78.859  50.438  44.971  1.00  0.00     0.102 C 
HETATM    6  N3  UNL     1      79.387  50.082  45.959  1.00  0.00    -0.191 NA
HETATM    7  C18 UNL     1      77.084  51.618  43.716  1.00  0.00    -0.026 A 
HETATM    8  C19 UNL     1      76.421  52.134  44.995  1.00  0.00     0.051 C 
ENDROOT
BRANCH   3   9
HETATM    9  S2  UNL     1      80.083  49.432  42.072  1.00  0.00    -0.088 SA
BRANCH   9  10
HETATM   10  C5  UNL     1      81.278  50.142  40.991  1.00  0.00     0.125 C 
BRANCH  10  11
HETATM   11  C6  UNL     1      81.933  49.230  40.079  1.00  0.00     0.254 C 
HETATM   12  O1  UNL     1      82.839  48.425  40.488  1.00  0.00    -0.268 OA
HETATM   13  N1  UNL     1      81.654  49.137  38.690  1.00  0.00    -0.289 N 
HETATM   14  C7  UNL     1      80.672  49.896  38.068  1.00  0.00     0.258 C 
ATOM     15  H1  UNL     1      82.198  48.485  38.125  1.00  0.00     0.172 HD
HETATM   16  O2  UNL     1      79.956  50.711  38.693  1.00  0.00    -0.267 OA
BRANCH  14  17
HETATM   17  C8  UNL     1      80.409  49.786  36.607  1.00  0.00     0.034 A 
HETATM   18  C9  UNL     1      79.316  50.418  36.062  1.00  0.00     0.044 A 
HETATM   19  C10 UNL     1      79.066  50.329  34.689  1.00  0.00     0.053 A 
HETATM   20  N2  UNL     1      77.936  50.977  34.118  1.00  0.00    -0.102 NA
HETATM   21  C11 UNL     1      79.907  49.611  33.865  1.00  0.00    -0.029 A 
HETATM   22  C12 UNL     1      79.635  49.524  32.405  1.00  0.00     0.050 C 
HETATM   23  C13 UNL     1      81.001  48.980  34.409  1.00  0.00    -0.026 A 
HETATM   24  C15 UNL     1      81.232  49.077  35.766  1.00  0.00     0.027 A 
BRANCH  23  25
HETATM   25  C14 UNL     1      81.921  48.203  33.536  1.00  0.00     0.203 C 
BRANCH  25  26
HETATM   26  O3  UNL     1      81.963  46.870  33.895  1.00  0.00    -0.396 OA
ATOM     27  H3  UNL     1      82.406  46.344  33.240  1.00  0.00     0.209 HD
ENDBRANCH  25  26
ENDBRANCH  23  25
ENDBRANCH  14  17
ENDBRANCH  10  11
ENDBRANCH   9  10
ENDBRANCH   3   9
BRANCH   1  28
HETATM   28  C2  UNL     1      75.274  52.720  42.236  1.00  0.00     0.042 C 
HETATM   29  C1  UNL     1      75.097  52.761  40.744  1.00  0.00     0.010 C 
ENDBRANCH   1  28
TORSDOF 7
ENDMDL
MODEL 5
REMARK VINA RESULT: -8.896187170      2.550      3.193
REMARK  7 active torsions:
REMARK  status: ('A' for Active; 'I' for Inactive)
REMARK    1  A    between atoms: C2_2  and  C3_3 
REMARK    2  A    between atoms: C4_5  and  S2_6 
REMARK    3  A    between atoms: S2_6  and  C5_7 
REMARK    4  A    between atoms: C5_7  and  C6_8 
REMARK       I    between atoms: C6_8  and  N1_10 
REMARK       I    between atoms: N1_10  and  C7_12 
REMARK    5  A    between atoms: C7_12  and  C8_14 
REMARK    6  A    between atoms: C13_20  and  C14_21 
REMARK    7  A    between atoms: C14_21  and  O3_22 
ROOT
HETATM    1  C3  UNL     1      80.312  49.401  34.993  1.00  0.00    -0.009 A 
HETATM    2  S1  UNL     1      79.542  49.934  36.406  1.00  0.00    -0.085 SA
HETATM    3  C4  UNL     1      80.879  49.839  37.509  1.00  0.00     0.067 A 
HETATM    4  C16 UNL     1      81.879  49.390  36.711  1.00  0.00     0.075 A 
HETATM    5  C17 UNL     1      83.248  49.225  37.244  1.00  0.00     0.102 C 
HETATM    6  N3  UNL     1      84.329  49.102  37.691  1.00  0.00    -0.191 NA
HETATM    7  C18 UNL     1      81.598  49.158  35.403  1.00  0.00    -0.026 A 
HETATM    8  C19 UNL     1      82.631  48.648  34.397  1.00  0.00     0.051 C 
ENDROOT
BRANCH   3   9
HETATM    9  S2  UNL     1      80.840  50.342  39.211  1.00  0.00    -0.088 SA
BRANCH   9  10
HETATM   10  C5  UNL     1      80.097  49.212  40.337  1.00  0.00     0.125 C 
BRANCH  10  11
HETATM   11  C6  UNL     1      80.732  49.090  41.632  1.00  0.00     0.254 C 
HETATM   12  O1  UNL     1      81.832  48.453  41.769  1.00  0.00    -0.268 OA
HETATM   13  N1  UNL     1      80.223  49.641  42.837  1.00  0.00    -0.289 N 
HETATM   14  C7  UNL     1      79.064  50.404  42.883  1.00  0.00     0.258 C 
ATOM     15  H1  UNL     1      80.729  49.468  43.705  1.00  0.00     0.172 HD
HETATM   16  O2  UNL     1      78.392  50.668  41.861  1.00  0.00    -0.267 OA
BRANCH  14  17
HETATM   17  C8  UNL     1      78.545  50.960  44.164  1.00  0.00     0.034 A 
HETATM   18  C9  UNL     1      78.015  50.113  45.108  1.00  0.00     0.044 A 
HETATM   19  C10 UNL     1      77.535  50.625  46.318  1.00  0.00     0.053 A 
HETATM   20  N2  UNL     1      76.981  49.756  47.299  1.00  0.00    -0.102 NA
HETATM   21  C11 UNL     1      77.586  51.978  46.582  1.00  0.00    -0.029 A 
HETATM   22  C12 UNL     1      77.076  52.512  47.873  1.00  0.00     0.050 C 
HETATM   23  C13 UNL     1      78.118  52.825  45.637  1.00  0.00    -0.026 A 
HETATM   24  C15 UNL     1      78.586  52.303  44.449  1.00  0.00     0.027 A 
BRANCH  23  25
HETATM   25  C14 UNL     1      78.186  54.286  45.904  1.00  0.00     0.203 C 
BRANCH  25  26
HETATM   26  O3  UNL     1      77.026  54.930  45.518  1.00  0.00    -0.396 OA
ATOM     27  H3  UNL     1      77.075  55.232  44.619  1.00  0.00     0.209 HD
ENDBRANCH  25  26
ENDBRANCH  23  25
ENDBRANCH  14  17
ENDBRANCH  10  11
ENDBRANCH   9  10
ENDBRANCH   3   9
BRANCH   1  28
HETATM   28  C2  UNL     1      79.751  49.227  33.596  1.00  0.00     0.042 C 
HETATM   29  C1  UNL     1      78.824  48.046  33.655  1.00  0.00     0.010 C 
ENDBRANCH   1  28
TORSDOF 7
ENDMDL
