MODEL 1
REMARK VINA RESULT: -9.881789815      0.000      0.000
REMARK  9 active torsions:
REMARK  status: ('A' for Active; 'I' for Inactive)
REMARK    1  A    between atoms: C3_5  and  C4_6 
REMARK    2  A    between atoms: C4_6  and  C5_7 
REMARK    3  A    between atoms: C7_9  and  C8_10 
REMARK    4  A    between atoms: C11_14  and  C12_15 
REMARK    5  A    between atoms: C12_15  and  O2_16 
REMARK    6  A    between atoms: O2_16  and  C13_17 
REMARK    7  A    between atoms: C16_21  and  O4_22 
REMARK    8  A    between atoms: C17_24  and  O5_25 
REMARK    9  A    between atoms: C18_27  and  O6_28 
ROOT
HETATM    1  C5  UNL     1      77.927  51.108  41.474  1.00  0.00    -0.016 A 
HETATM    2  C6  UNL     1      76.855  51.998  41.457  1.00  0.00     0.043 A 
HETATM    3  C7  UNL     1      76.069  51.641  40.385  1.00  0.00     0.057 A 
HETATM    4  O1  UNL     1      76.614  50.617  39.794  1.00  0.00    -0.316 OA
HETATM    5  C11 UNL     1      77.740  50.257  40.414  1.00  0.00     0.083 A 
ENDROOT
BRANCH   5   6
HETATM    6  C12 UNL     1      78.605  49.116  39.983  1.00  0.00     0.236 C 
BRANCH   6   7
HETATM    7  O2  UNL     1      79.945  49.552  39.887  1.00  0.00    -0.352 OA
BRANCH   7   8
HETATM    8  C13 UNL     1      80.625  48.764  38.985  1.00  0.00     0.291 C 
HETATM    9  O3  UNL     1      81.298  49.544  38.047  1.00  0.00    -0.351 OA
HETATM   10  C14 UNL     1      82.106  48.721  37.263  1.00  0.00     0.152 C 
HETATM   11  C15 UNL     1      82.632  49.490  36.053  1.00  0.00     0.042 C 
HETATM   12  C16 UNL     1      83.287  48.265  38.053  1.00  0.00     0.178 C 
HETATM   13  C17 UNL     1      82.980  48.422  39.542  1.00  0.00     0.183 C 
HETATM   14  C18 UNL     1      81.574  47.864  39.747  1.00  0.00     0.204 C 
BRANCH  12  15
HETATM   15  O4  UNL     1      84.428  49.024  37.791  1.00  0.00    -0.390 OA
ATOM     16  H4  UNL     1      84.854  49.325  38.585  1.00  0.00     0.210 HD
ENDBRANCH  12  15
BRANCH  13  17
HETATM   17  O5  UNL     1      83.902  47.672  40.258  1.00  0.00    -0.390 OA
ATOM     18  H5  UNL     1      84.456  48.268  40.747  1.00  0.00     0.210 HD
ENDBRANCH  13  17
BRANCH  14  19
HETATM   19  O6  UNL     1      81.474  46.589  39.179  1.00  0.00    -0.388 OA
ATOM     20  H6  UNL     1      82.055  46.574  38.428  1.00  0.00     0.210 HD
ENDBRANCH  14  19
ENDBRANCH   7   8
ENDBRANCH   6   7
ENDBRANCH   5   6
BRANCH   1  21
HETATM   21  C4  UNL     1      79.013  51.133  42.460  1.00  0.00     0.125 C 
BRANCH  21  22
HETATM   22  C3  UNL     1      78.492  51.375  43.829  1.00  0.00     0.128 A 
HETATM   23  N1  UNL     1      77.799  50.541  44.624  1.00  0.00    -0.342 N 
HETATM   24  C2  UNL     1      77.507  51.132  45.793  1.00  0.00     0.036 A 
ATOM     25  H1  UNL     1      77.532  49.589  44.373  1.00  0.00     0.167 HD
HETATM   26  C1  UNL     1      76.769  50.598  46.958  1.00  0.00     0.071 C 
HETATM   27  C19 UNL     1      78.052  52.394  45.705  1.00  0.00     0.073 A 
HETATM   28  O7  UNL     1      78.621  52.499  44.538  1.00  0.00    -0.300 OA
HETATM   29  C20 UNL     1      77.995  53.458  46.772  1.00  0.00     0.079 C 
ENDBRANCH  21  22
ENDBRANCH   1  21
BRANCH   3  30
HETATM   30  C8  UNL     1      74.809  52.357  40.021  1.00  0.00     0.035 C 
HETATM   31  C9  UNL     1      74.568  52.223  38.531  1.00  0.00     0.016 C 
HETATM   32  C10 UNL     1      74.986  53.796  40.444  1.00  0.00     0.016 C 
ENDBRANCH   3  30
TORSDOF 9
ENDMDL
MODEL 2
REMARK VINA RESULT: -9.830832614      0.577      1.077
REMARK  9 active torsions:
REMARK  status: ('A' for Active; 'I' for Inactive)
REMARK    1  A    between atoms: C3_5  and  C4_6 
REMARK    2  A    between atoms: C4_6  and  C5_7 
REMARK    3  A    between atoms: C7_9  and  C8_10 
REMARK    4  A    between atoms: C11_14  and  C12_15 
REMARK    5  A    between atoms: C12_15  and  O2_16 
REMARK    6  A    between atoms: O2_16  and  C13_17 
REMARK    7  A    between atoms: C16_21  and  O4_22 
REMARK    8  A    between atoms: C17_24  and  O5_25 
REMARK    9  A    between atoms: C18_27  and  O6_28 
ROOT
HETATM    1  C5  UNL     1      77.945  51.068  41.575  1.00  0.00    -0.016 A 
HETATM    2  C6  UNL     1      76.878  51.962  41.549  1.00  0.00     0.043 A 
HETATM    3  C7  UNL     1      76.111  51.624  40.457  1.00  0.00     0.057 A 
HETATM    4  O1  UNL     1      76.663  50.606  39.863  1.00  0.00    -0.316 OA
HETATM    5  C11 UNL     1      77.775  50.232  40.500  1.00  0.00     0.083 A 
ENDROOT
BRANCH   5   6
HETATM    6  C12 UNL     1      78.644  49.093  40.071  1.00  0.00     0.236 C 
BRANCH   6   7
HETATM    7  O2  UNL     1      79.978  49.540  39.944  1.00  0.00    -0.352 OA
BRANCH   7   8
HETATM    8  C13 UNL     1      80.641  48.763  39.021  1.00  0.00     0.291 C 
HETATM    9  O3  UNL     1      81.301  49.553  38.083  1.00  0.00    -0.351 OA
HETATM   10  C14 UNL     1      82.094  48.739  37.276  1.00  0.00     0.152 C 
HETATM   11  C15 UNL     1      82.603  49.522  36.067  1.00  0.00     0.042 C 
HETATM   12  C16 UNL     1      83.287  48.270  38.041  1.00  0.00     0.178 C 
HETATM   13  C17 UNL     1      83.004  48.409  39.536  1.00  0.00     0.183 C 
HETATM   14  C18 UNL     1      81.601  47.851  39.756  1.00  0.00     0.204 C 
BRANCH  12  15
HETATM   15  O4  UNL     1      84.426  49.030  37.770  1.00  0.00    -0.390 OA
ATOM     16  H4  UNL     1      84.561  49.163  36.839  1.00  0.00     0.210 HD
ENDBRANCH  12  15
BRANCH  13  17
HETATM   17  O5  UNL     1      83.936  47.647  40.228  1.00  0.00    -0.390 OA
ATOM     18  H5  UNL     1      84.108  46.860  39.725  1.00  0.00     0.210 HD
ENDBRANCH  13  17
BRANCH  14  19
HETATM   19  O6  UNL     1      81.489  46.584  39.173  1.00  0.00    -0.388 OA
ATOM     20  H6  UNL     1      81.286  45.974  39.872  1.00  0.00     0.210 HD
ENDBRANCH  14  19
ENDBRANCH   7   8
ENDBRANCH   6   7
ENDBRANCH   5   6
BRANCH   1  21
HETATM   21  C4  UNL     1      79.012  51.075  42.583  1.00  0.00     0.125 C 
BRANCH  21  22
HETATM   22  C3  UNL     1      78.474  51.372  43.934  1.00  0.00     0.128 A 
HETATM   23  N1  UNL     1      78.610  52.493  44.664  1.00  0.00    -0.342 N 
HETATM   24  C2  UNL     1      77.975  52.374  45.840  1.00  0.00     0.036 A 
ATOM     25  H1  UNL     1      79.127  53.320  44.365  1.00  0.00     0.167 HD
HETATM   26  C1  UNL     1      77.857  53.346  46.949  1.00  0.00     0.071 C 
HETATM   27  C19 UNL     1      77.421  51.113  45.824  1.00  0.00     0.073 A 
HETATM   28  O7  UNL     1      77.736  50.556  44.690  1.00  0.00    -0.300 OA
HETATM   29  C20 UNL     1      76.599  50.494  46.927  1.00  0.00     0.079 C 
ENDBRANCH  21  22
ENDBRANCH   1  21
BRANCH   3  30
HETATM   30  C8  UNL     1      74.862  52.351  40.078  1.00  0.00     0.035 C 
HETATM   31  C9  UNL     1      74.651  52.239  38.582  1.00  0.00     0.016 C 
HETATM   32  C10 UNL     1      75.036  53.783  40.525  1.00  0.00     0.016 C 
ENDBRANCH   3  30
TORSDOF 9
ENDMDL
MODEL 3
REMARK VINA RESULT: -9.789574770      1.698      4.459
REMARK  9 active torsions:
REMARK  status: ('A' for Active; 'I' for Inactive)
REMARK    1  A    between atoms: C3_5  and  C4_6 
REMARK    2  A    between atoms: C4_6  and  C5_7 
REMARK    3  A    between atoms: C7_9  and  C8_10 
REMARK    4  A    between atoms: C11_14  and  C12_15 
REMARK    5  A    between atoms: C12_15  and  O2_16 
REMARK    6  A    between atoms: O2_16  and  C13_17 
REMARK    7  A    between atoms: C16_21  and  O4_22 
REMARK    8  A    between atoms: C17_24  and  O5_25 
REMARK    9  A    between atoms: C18_27  and  O6_28 
ROOT
HETATM    1  C5  UNL     1      77.411  51.324  41.662  1.00  0.00    -0.016 A 
HETATM    2  C6  UNL     1      76.694  51.632  42.815  1.00  0.00     0.043 A 
HETATM    3  C7  UNL     1      77.619  51.793  43.819  1.00  0.00     0.057 A 
HETATM    4  O1  UNL     1      78.807  51.599  43.323  1.00  0.00    -0.316 OA
HETATM    5  C11 UNL     1      78.735  51.312  42.021  1.00  0.00     0.083 A 
ENDROOT
BRANCH   5   6
HETATM    6  C12 UNL     1      79.923  51.034  41.157  1.00  0.00     0.236 C 
BRANCH   6   7
HETATM    7  O2  UNL     1      80.420  49.743  41.440  1.00  0.00    -0.352 OA
BRANCH   7   8
HETATM    8  C13 UNL     1      80.660  49.070  40.263  1.00  0.00     0.291 C 
HETATM    9  O3  UNL     1      81.179  49.927  39.294  1.00  0.00    -0.351 OA
HETATM   10  C14 UNL     1      81.566  49.179  38.183  1.00  0.00     0.152 C 
HETATM   11  C15 UNL     1      81.869  50.099  37.002  1.00  0.00     0.042 C 
HETATM   12  C16 UNL     1      82.813  48.418  38.490  1.00  0.00     0.178 C 
HETATM   13  C17 UNL     1      82.968  48.310  40.005  1.00  0.00     0.183 C 
HETATM   14  C18 UNL     1      81.597  47.916  40.547  1.00  0.00     0.204 C 
BRANCH  12  15
HETATM   15  O4  UNL     1      83.957  49.054  38.007  1.00  0.00    -0.390 OA
ATOM     16  H4  UNL     1      84.639  49.123  38.665  1.00  0.00     0.210 HD
ENDBRANCH  12  15
BRANCH  13  17
HETATM   17  O5  UNL     1      83.895  47.313  40.278  1.00  0.00    -0.390 OA
ATOM     18  H5  UNL     1      84.755  47.630  40.029  1.00  0.00     0.210 HD
ENDBRANCH  13  17
BRANCH  14  19
HETATM   19  O6  UNL     1      81.103  46.808  39.848  1.00  0.00    -0.388 OA
ATOM     20  H6  UNL     1      81.112  46.074  40.451  1.00  0.00     0.210 HD
ENDBRANCH  14  19
ENDBRANCH   7   8
ENDBRANCH   6   7
ENDBRANCH   5   6
BRANCH   1  21
HETATM   21  C4  UNL     1      76.807  51.070  40.349  1.00  0.00     0.125 C 
BRANCH  21  22
HETATM   22  C3  UNL     1      75.699  52.020  40.073  1.00  0.00     0.128 A 
HETATM   23  N1  UNL     1      74.492  51.769  39.538  1.00  0.00    -0.342 N 
HETATM   24  C2  UNL     1      73.768  52.896  39.449  1.00  0.00     0.036 A 
ATOM     25  H1  UNL     1      74.169  50.848  39.241  1.00  0.00     0.167 HD
HETATM   26  C1  UNL     1      72.397  53.096  38.931  1.00  0.00     0.071 C 
HETATM   27  C19 UNL     1      74.580  53.885  39.958  1.00  0.00     0.073 A 
HETATM   28  O7  UNL     1      75.704  53.332  40.313  1.00  0.00    -0.300 OA
HETATM   29  C20 UNL     1      74.224  55.347  40.078  1.00  0.00     0.079 C 
ENDBRANCH  21  22
ENDBRANCH   1  21
BRANCH   3  30
HETATM   30  C8  UNL     1      77.249  52.134  45.226  1.00  0.00     0.035 C 
HETATM   31  C9  UNL     1      78.228  53.156  45.768  1.00  0.00     0.016 C 
HETATM   32  C10 UNL     1      77.275  50.845  46.011  1.00  0.00     0.016 C 
ENDBRANCH   3  30
TORSDOF 9
ENDMDL
MODEL 4
REMARK VINA RESULT: -9.762501684      1.572      4.589
REMARK  9 active torsions:
REMARK  status: ('A' for Active; 'I' for Inactive)
REMARK    1  A    between atoms: C3_5  and  C4_6 
REMARK    2  A    between atoms: C4_6  and  C5_7 
REMARK    3  A    between atoms: C7_9  and  C8_10 
REMARK    4  A    between atoms: C11_14  and  C12_15 
REMARK    5  A    between atoms: C12_15  and  O2_16 
REMARK    6  A    between atoms: O2_16  and  C13_17 
REMARK    7  A    between atoms: C16_21  and  O4_22 
REMARK    8  A    between atoms: C17_24  and  O5_25 
REMARK    9  A    between atoms: C18_27  and  O6_28 
ROOT
HETATM    1  C5  UNL     1      77.431  51.294  41.722  1.00  0.00    -0.016 A 
HETATM    2  C6  UNL     1      76.721  51.601  42.880  1.00  0.00     0.043 A 
HETATM    3  C7  UNL     1      77.654  51.777  43.875  1.00  0.00     0.057 A 
HETATM    4  O1  UNL     1      78.839  51.593  43.369  1.00  0.00    -0.316 OA
HETATM    5  C11 UNL     1      78.758  51.297  42.070  1.00  0.00     0.083 A 
ENDROOT
BRANCH   5   6
HETATM    6  C12 UNL     1      79.941  51.027  41.196  1.00  0.00     0.236 C 
BRANCH   6   7
HETATM    7  O2  UNL     1      80.445  49.737  41.470  1.00  0.00    -0.352 OA
BRANCH   7   8
HETATM    8  C13 UNL     1      80.674  49.068  40.288  1.00  0.00     0.291 C 
HETATM    9  O3  UNL     1      81.189  49.928  39.320  1.00  0.00    -0.351 OA
HETATM   10  C14 UNL     1      81.566  49.183  38.203  1.00  0.00     0.152 C 
HETATM   11  C15 UNL     1      81.864  50.107  37.023  1.00  0.00     0.042 C 
HETATM   12  C16 UNL     1      82.813  48.417  38.498  1.00  0.00     0.178 C 
HETATM   13  C17 UNL     1      82.979  48.303  40.012  1.00  0.00     0.183 C 
HETATM   14  C18 UNL     1      81.610  47.910  40.561  1.00  0.00     0.204 C 
BRANCH  12  15
HETATM   15  O4  UNL     1      83.956  49.052  38.010  1.00  0.00    -0.390 OA
ATOM     16  H4  UNL     1      83.936  49.992  38.148  1.00  0.00     0.210 HD
ENDBRANCH  12  15
BRANCH  13  17
HETATM   17  O5  UNL     1      83.904  47.302  40.274  1.00  0.00    -0.390 OA
ATOM     18  H5  UNL     1      84.053  47.272  41.212  1.00  0.00     0.210 HD
ENDBRANCH  13  17
BRANCH  14  19
HETATM   19  O6  UNL     1      81.109  46.806  39.862  1.00  0.00    -0.388 OA
ATOM     20  H6  UNL     1      81.560  46.039  40.194  1.00  0.00     0.210 HD
ENDBRANCH  14  19
ENDBRANCH   7   8
ENDBRANCH   6   7
ENDBRANCH   5   6
BRANCH   1  21
HETATM   21  C4  UNL     1      76.817  51.027  40.416  1.00  0.00     0.125 C 
BRANCH  21  22
HETATM   22  C3  UNL     1      75.734  51.999  40.121  1.00  0.00     0.128 A 
HETATM   23  N1  UNL     1      75.704  53.321  40.362  1.00  0.00    -0.342 N 
HETATM   24  C2  UNL     1      74.543  53.852  39.947  1.00  0.00     0.036 A 
ATOM     25  H1  UNL     1      76.460  53.848  40.800  1.00  0.00     0.167 HD
HETATM   26  C1  UNL     1      74.076  55.255  40.009  1.00  0.00     0.071 C 
HETATM   27  C19 UNL     1      73.830  52.796  39.426  1.00  0.00     0.073 A 
HETATM   28  O7  UNL     1      74.561  51.726  39.546  1.00  0.00    -0.300 OA
HETATM   29  C20 UNL     1      72.447  52.874  38.826  1.00  0.00     0.079 C 
ENDBRANCH  21  22
ENDBRANCH   1  21
BRANCH   3  30
HETATM   30  C8  UNL     1      77.293  52.123  45.283  1.00  0.00     0.035 C 
HETATM   31  C9  UNL     1      78.265  53.159  45.810  1.00  0.00     0.016 C 
HETATM   32  C10 UNL     1      77.342  50.838  46.076  1.00  0.00     0.016 C 
ENDBRANCH   3  30
TORSDOF 9
ENDMDL
MODEL 5
REMARK VINA RESULT: -9.280934238      1.133      2.052
REMARK  9 active torsions:
REMARK  status: ('A' for Active; 'I' for Inactive)
REMARK    1  A    between atoms: C3_5  and  C4_6 
REMARK    2  A    between atoms: C4_6  and  C5_7 
REMARK    3  A    between atoms: C7_9  and  C8_10 
REMARK    4  A    between atoms: C11_14  and  C12_15 
REMARK    5  A    between atoms: C12_15  and  O2_16 
REMARK    6  A    between atoms: O2_16  and  C13_17 
REMARK    7  A    between atoms: C16_21  and  O4_22 
REMARK    8  A    between atoms: C17_24  and  O5_25 
REMARK    9  A    between atoms: C18_27  and  O6_28 
ROOT
HETATM    1  C5  UNL     1      77.560  51.134  41.254  1.00  0.00    -0.016 A 
HETATM    2  C6  UNL     1      76.488  51.984  41.516  1.00  0.00     0.043 A 
HETATM    3  C7  UNL     1      75.685  51.955  40.400  1.00  0.00     0.057 A 
HETATM    4  O1  UNL     1      76.220  51.154  39.524  1.00  0.00    -0.316 OA
HETATM    5  C11 UNL     1      77.356  50.633  39.993  1.00  0.00     0.083 A 
ENDROOT
BRANCH   5   6
HETATM    6  C12 UNL     1      78.215  49.674  39.232  1.00  0.00     0.236 C 
BRANCH   6   7
HETATM    7  O2  UNL     1      78.942  50.374  38.245  1.00  0.00    -0.352 OA
BRANCH   7   8
HETATM    8  C13 UNL     1      80.283  50.083  38.363  1.00  0.00     0.291 C 
HETATM    9  O3  UNL     1      80.532  49.335  39.511  1.00  0.00    -0.351 OA
HETATM   10  C14 UNL     1      81.863  48.918  39.504  1.00  0.00     0.152 C 
HETATM   11  C15 UNL     1      82.248  48.347  40.868  1.00  0.00     0.042 C 
HETATM   12  C16 UNL     1      82.052  47.834  38.495  1.00  0.00     0.178 C 
HETATM   13  C17 UNL     1      80.902  47.886  37.490  1.00  0.00     0.183 C 
HETATM   14  C18 UNL     1      80.732  49.355  37.114  1.00  0.00     0.204 C 
BRANCH  12  15
HETATM   15  O4  UNL     1      82.034  46.563  39.069  1.00  0.00    -0.390 OA
ATOM     16  H4  UNL     1      82.655  45.971  38.660  1.00  0.00     0.210 HD
ENDBRANCH  12  15
BRANCH  13  17
HETATM   17  O5  UNL     1      81.266  47.145  36.374  1.00  0.00    -0.390 OA
ATOM     18  H5  UNL     1      80.528  46.604  36.122  1.00  0.00     0.210 HD
ENDBRANCH  13  17
BRANCH  14  19
HETATM   19  O6  UNL     1      81.965  49.904  36.742  1.00  0.00    -0.388 OA
ATOM     20  H6  UNL     1      81.900  50.843  36.865  1.00  0.00     0.210 HD
ENDBRANCH  14  19
ENDBRANCH   7   8
ENDBRANCH   6   7
ENDBRANCH   5   6
BRANCH   1  21
HETATM   21  C4  UNL     1      78.662  50.872  42.187  1.00  0.00     0.125 C 
BRANCH  21  22
HETATM   22  C3  UNL     1      78.310  51.293  43.567  1.00  0.00     0.128 A 
HETATM   23  N1  UNL     1      77.636  50.608  44.507  1.00  0.00    -0.342 N 
HETATM   24  C2  UNL     1      77.520  51.332  45.631  1.00  0.00     0.036 A 
ATOM     25  H1  UNL     1      77.262  49.667  44.383  1.00  0.00     0.167 HD
HETATM   26  C1  UNL     1      76.865  50.985  46.911  1.00  0.00     0.071 C 
HETATM   27  C19 UNL     1      78.160  52.521  45.360  1.00  0.00     0.073 A 
HETATM   28  O7  UNL     1      78.610  52.460  44.139  1.00  0.00    -0.300 OA
HETATM   29  C20 UNL     1      78.307  53.683  46.311  1.00  0.00     0.079 C 
ENDBRANCH  21  22
ENDBRANCH   1  21
BRANCH   3  30
HETATM   30  C8  UNL     1      74.419  52.741  40.282  1.00  0.00     0.035 C 
HETATM   31  C9  UNL     1      73.782  52.467  38.935  1.00  0.00     0.016 C 
HETATM   32  C10 UNL     1      74.789  54.195  40.454  1.00  0.00     0.016 C 
ENDBRANCH   3  30
TORSDOF 9
ENDMDL
