MODEL 1
REMARK VINA RESULT: -7.813770736      0.000      0.000
REMARK  11 active torsions:
REMARK  status: ('A' for Active; 'I' for Inactive)
REMARK    1  A    between atoms: O1_2  and  C2_3 
REMARK    2  A    between atoms: C3_4  and  N1_5 
REMARK    3  A    between atoms: N1_5  and  C4_7 
REMARK    4  A    between atoms: C8_11  and  N2_12 
REMARK       I    between atoms: N2_12  and  C9_14 
REMARK    5  A    between atoms: C9_14  and  C10_16 
REMARK    6  A    between atoms: C10_16  and  C11_17 
REMARK    7  A    between atoms: C11_17  and  C12_18 
REMARK    8  A    between atoms: N3_21  and  C15_22 
REMARK    9  A    between atoms: C17_28  and  N6_29 
REMARK   10  A    between atoms: C18_32  and  C19_33 
REMARK   11  A    between atoms: C23_40  and  C24_41 
ROOT
HETATM    1  C11 UNL     1      23.528   7.888  14.950  1.00  0.00     0.014 C 
ENDROOT
BRANCH   1   2
HETATM    2  C10 UNL     1      23.439   6.438  15.319  1.00  0.00     0.103 C 
BRANCH   2   3
HETATM    3  C9  UNL     1      24.261   5.537  14.492  1.00  0.00     0.217 C 
HETATM    4  N2  UNL     1      24.359   5.734  13.099  1.00  0.00    -0.356 N 
ATOM      5  H2  UNL     1      23.870   6.535  12.701  1.00  0.00     0.162 HD
HETATM    6  O2  UNL     1      24.891   4.567  15.034  1.00  0.00    -0.274 OA
BRANCH   4   7
HETATM    7  C8  UNL     1      25.093   4.893  12.203  1.00  0.00     0.090 C 
HETATM    8  C7  UNL     1      26.091   5.764  11.414  1.00  0.00     0.080 C 
HETATM    9  C3  UNL     1      26.907   4.756  10.566  1.00  0.00     0.018 C 
HETATM   10  C2  UNL     1      25.955   4.167   9.594  1.00  0.00     0.177 C 
HETATM   11  C23 UNL     1      25.045   3.238  10.450  1.00  0.00     0.091 C 
HETATM   12  C22 UNL     1      24.172   4.168  11.248  1.00  0.00     0.040 C 
BRANCH   9  13
HETATM   13  N1  UNL     1      28.183   5.154  10.285  1.00  0.00    -0.368 N 
ATOM     14  H1  UNL     1      28.884   4.414  10.318  1.00  0.00     0.165 HD
BRANCH  13  15
HETATM   15  C4  UNL     1      28.669   6.404   9.963  1.00  0.00    -0.021 C 
HETATM   16  C5  UNL     1      28.385   6.893   8.530  1.00  0.00     0.062 C 
HETATM   17  C6  UNL     1      29.972   6.890  10.498  1.00  0.00     0.062 C 
ENDBRANCH  13  15
ENDBRANCH   9  13
BRANCH  10  18
HETATM   18  O1  UNL     1      26.486   3.413   8.602  1.00  0.00    -0.384 OA
HETATM   19  C1  UNL     1      26.374   4.030   7.340  1.00  0.00     0.202 C 
ENDBRANCH  10  18
BRANCH  11  20
HETATM   20  C24 UNL     1      24.384   2.183   9.728  1.00  0.00     0.130 C 
HETATM   21  C25 UNL     1      23.243   2.435   8.822  1.00  0.00     0.091 C 
HETATM   22  O3  UNL     1      24.751   1.020   9.840  1.00  0.00    -0.298 OA
ENDBRANCH  11  20
ENDBRANCH   4   7
ENDBRANCH   2   3
ENDBRANCH   1   2
BRANCH   1  23
HETATM   23  C12 UNL     1      24.867   8.444  15.381  1.00  0.00    -0.011 C 
HETATM   24  C13 UNL     1      25.740   8.678  14.147  1.00  0.00     0.024 C 
HETATM   25  C14 UNL     1      25.057   9.577  13.175  1.00  0.00     0.125 C 
HETATM   26  N3  UNL     1      24.637  10.792  13.795  1.00  0.00    -0.366 N 
HETATM   27  C20 UNL     1      24.181  10.826  15.158  1.00  0.00     0.125 C 
HETATM   28  C21 UNL     1      24.701   9.784  16.085  1.00  0.00     0.024 C 
BRANCH  26  29
HETATM   29  C15 UNL     1      24.573  11.977  13.038  1.00  0.00     0.123 A 
HETATM   30  N4  UNL     1      23.321  12.343  12.605  1.00  0.00    -0.338 N 
HETATM   31  C16 UNL     1      23.098  13.445  11.880  1.00  0.00     0.183 A 
ATOM     32  H4  UNL     1      22.528  11.749  12.846  1.00  0.00     0.168 HD
HETATM   33  N5  UNL     1      24.131  14.221  11.565  1.00  0.00    -0.338 N 
HETATM   34  C17 UNL     1      25.425  13.949  11.947  1.00  0.00     0.118 A 
ATOM     35  H5  UNL     1      23.956  15.061  11.013  1.00  0.00     0.168 HD
HETATM   36  C18 UNL     1      25.618  12.765  12.716  1.00  0.00     0.135 A 
BRANCH  34  37
HETATM   37  N6  UNL     1      26.313  14.735  11.603  1.00  0.00    -0.385 N 
ATOM     38  H62 UNL     1      26.773  14.749  10.693  1.00  0.00     0.157 HD
ATOM     39  H61 UNL     1      26.624  15.436  12.275  1.00  0.00     0.157 HD
ENDBRANCH  34  37
BRANCH  36  40
HETATM   40  C19 UNL     1      26.982  12.470  13.122  1.00  0.00     0.424 C 
HETATM   41  F1  UNL     1      26.953  12.005  14.460  1.00  0.00    -0.166 F 
HETATM   42  F2  UNL     1      27.838  13.551  13.196  1.00  0.00    -0.166 F 
HETATM   43  F3  UNL     1      27.511  11.435  12.409  1.00  0.00    -0.166 F 
ENDBRANCH  36  40
ENDBRANCH  26  29
ENDBRANCH   1  23
TORSDOF 11
ENDMDL
MODEL 2
REMARK VINA RESULT: -7.797983457      1.821      2.328
REMARK  11 active torsions:
REMARK  status: ('A' for Active; 'I' for Inactive)
REMARK    1  A    between atoms: O1_2  and  C2_3 
REMARK    2  A    between atoms: C3_4  and  N1_5 
REMARK    3  A    between atoms: N1_5  and  C4_7 
REMARK    4  A    between atoms: C8_11  and  N2_12 
REMARK       I    between atoms: N2_12  and  C9_14 
REMARK    5  A    between atoms: C9_14  and  C10_16 
REMARK    6  A    between atoms: C10_16  and  C11_17 
REMARK    7  A    between atoms: C11_17  and  C12_18 
REMARK    8  A    between atoms: N3_21  and  C15_22 
REMARK    9  A    between atoms: C17_28  and  N6_29 
REMARK   10  A    between atoms: C18_32  and  C19_33 
REMARK   11  A    between atoms: C23_40  and  C24_41 
ROOT
HETATM    1  C11 UNL     1      23.802   8.373  14.215  1.00  0.00     0.014 C 
ENDROOT
BRANCH   1   2
HETATM    2  C10 UNL     1      23.859   7.005  14.822  1.00  0.00     0.103 C 
BRANCH   2   3
HETATM    3  C9  UNL     1      24.544   5.990  14.002  1.00  0.00     0.217 C 
HETATM    4  N2  UNL     1      24.801   6.229  12.636  1.00  0.00    -0.356 N 
ATOM      5  H2  UNL     1      24.527   7.134  12.256  1.00  0.00     0.162 HD
HETATM    6  O2  UNL     1      24.909   4.884  14.525  1.00  0.00    -0.274 OA
BRANCH   4   7
HETATM    7  C8  UNL     1      25.420   5.296  11.745  1.00  0.00     0.090 C 
HETATM    8  C7  UNL     1      26.153   6.080  10.638  1.00  0.00     0.080 C 
HETATM    9  C3  UNL     1      26.877   4.995   9.801  1.00  0.00     0.018 C 
HETATM   10  C2  UNL     1      25.812   4.192   9.156  1.00  0.00     0.177 C 
HETATM   11  C23 UNL     1      25.183   3.367  10.316  1.00  0.00     0.091 C 
HETATM   12  C22 UNL     1      24.401   4.363  11.129  1.00  0.00     0.040 C 
BRANCH   9  13
HETATM   13  N1  UNL     1      28.028   5.418   9.199  1.00  0.00    -0.368 N 
ATOM     14  H1  UNL     1      28.227   4.988   8.296  1.00  0.00     0.165 HD
BRANCH  13  15
HETATM   15  C4  UNL     1      28.962   6.339   9.625  1.00  0.00    -0.021 C 
HETATM   16  C5  UNL     1      29.572   7.239   8.534  1.00  0.00     0.062 C 
HETATM   17  C6  UNL     1      29.919   6.020  10.722  1.00  0.00     0.062 C 
ENDBRANCH  13  15
ENDBRANCH   9  13
BRANCH  10  18
HETATM   18  O1  UNL     1      26.205   3.315   8.201  1.00  0.00    -0.384 OA
HETATM   19  C1  UNL     1      25.778   3.696   6.913  1.00  0.00     0.202 C 
ENDBRANCH  10  18
BRANCH  11  20
HETATM   20  C24 UNL     1      24.496   2.166   9.921  1.00  0.00     0.130 C 
HETATM   21  C25 UNL     1      23.150   2.187   9.310  1.00  0.00     0.091 C 
HETATM   22  O3  UNL     1      25.013   1.067  10.079  1.00  0.00    -0.298 OA
ENDBRANCH  11  20
ENDBRANCH   4   7
ENDBRANCH   2   3
ENDBRANCH   1   2
BRANCH   1  23
HETATM   23  C12 UNL     1      24.370   9.387  15.184  1.00  0.00    -0.011 C 
HETATM   24  C13 UNL     1      25.897   9.373  15.095  1.00  0.00     0.024 C 
HETATM   25  C14 UNL     1      26.351   9.630  13.700  1.00  0.00     0.125 C 
HETATM   26  N3  UNL     1      25.777  10.828  13.178  1.00  0.00    -0.366 N 
HETATM   27  C20 UNL     1      24.444  11.240  13.524  1.00  0.00     0.125 C 
HETATM   28  C21 UNL     1      23.904  10.795  14.838  1.00  0.00     0.024 C 
BRANCH  26  29
HETATM   29  C15 UNL     1      26.485  11.585  12.226  1.00  0.00     0.123 A 
HETATM   30  N4  UNL     1      26.918  12.820  12.645  1.00  0.00    -0.338 N 
HETATM   31  C16 UNL     1      27.607  13.653  11.857  1.00  0.00     0.183 A 
ATOM     32  H4  UNL     1      26.705  13.115  13.598  1.00  0.00     0.168 HD
HETATM   33  N5  UNL     1      27.887  13.270  10.615  1.00  0.00    -0.338 N 
HETATM   34  C17 UNL     1      27.503  12.056  10.093  1.00  0.00     0.118 A 
ATOM     35  H5  UNL     1      28.413  13.909  10.018  1.00  0.00     0.168 HD
HETATM   36  C18 UNL     1      26.770  11.201  10.966  1.00  0.00     0.135 A 
BRANCH  34  37
HETATM   37  N6  UNL     1      27.814  11.797   8.926  1.00  0.00    -0.385 N 
ATOM     38  H62 UNL     1      28.618  12.177   8.428  1.00  0.00     0.157 HD
ATOM     39  H61 UNL     1      27.226  11.148   8.403  1.00  0.00     0.157 HD
ENDBRANCH  34  37
BRANCH  36  40
HETATM   40  C19 UNL     1      26.359   9.918  10.422  1.00  0.00     0.424 C 
HETATM   41  F1  UNL     1      26.248  10.050   9.016  1.00  0.00    -0.166 F 
HETATM   42  F2  UNL     1      25.099   9.481  10.785  1.00  0.00    -0.166 F 
HETATM   43  F3  UNL     1      27.312   8.961  10.602  1.00  0.00    -0.166 F 
ENDBRANCH  36  40
ENDBRANCH  26  29
ENDBRANCH   1  23
TORSDOF 11
ENDMDL
MODEL 3
REMARK VINA RESULT: -7.553086035      1.791      2.306
REMARK  11 active torsions:
REMARK  status: ('A' for Active; 'I' for Inactive)
REMARK    1  A    between atoms: O1_2  and  C2_3 
REMARK    2  A    between atoms: C3_4  and  N1_5 
REMARK    3  A    between atoms: N1_5  and  C4_7 
REMARK    4  A    between atoms: C8_11  and  N2_12 
REMARK       I    between atoms: N2_12  and  C9_14 
REMARK    5  A    between atoms: C9_14  and  C10_16 
REMARK    6  A    between atoms: C10_16  and  C11_17 
REMARK    7  A    between atoms: C11_17  and  C12_18 
REMARK    8  A    between atoms: N3_21  and  C15_22 
REMARK    9  A    between atoms: C17_28  and  N6_29 
REMARK   10  A    between atoms: C18_32  and  C19_33 
REMARK   11  A    between atoms: C23_40  and  C24_41 
ROOT
HETATM    1  C11 UNL     1      24.836   8.436  15.530  1.00  0.00     0.014 C 
ENDROOT
BRANCH   1   2
HETATM    2  C10 UNL     1      24.136   7.139  15.260  1.00  0.00     0.103 C 
BRANCH   2   3
HETATM    3  C9  UNL     1      24.898   6.184  14.435  1.00  0.00     0.217 C 
HETATM    4  N2  UNL     1      24.654   6.081  13.050  1.00  0.00    -0.356 N 
ATOM      5  H2  UNL     1      23.961   6.710  12.645  1.00  0.00     0.162 HD
HETATM    6  O2  UNL     1      25.787   5.442  14.973  1.00  0.00    -0.274 OA
BRANCH   4   7
HETATM    7  C8  UNL     1      25.306   5.159  12.171  1.00  0.00     0.090 C 
HETATM    8  C7  UNL     1      26.279   5.942  11.267  1.00  0.00     0.080 C 
HETATM    9  C3  UNL     1      27.010   4.853  10.441  1.00  0.00     0.018 C 
HETATM   10  C2  UNL     1      25.983   4.234   9.571  1.00  0.00     0.177 C 
HETATM   11  C23 UNL     1      25.101   3.395  10.539  1.00  0.00     0.091 C 
HETATM   12  C22 UNL     1      24.307   4.404  11.324  1.00  0.00     0.040 C 
BRANCH   9  13
HETATM   13  N1  UNL     1      28.278   5.190  10.058  1.00  0.00    -0.368 N 
ATOM     14  H1  UNL     1      28.909   4.401   9.911  1.00  0.00     0.165 HD
BRANCH  13  15
HETATM   15  C4  UNL     1      28.836   6.431   9.840  1.00  0.00    -0.021 C 
HETATM   16  C5  UNL     1      28.632   7.028   8.435  1.00  0.00     0.062 C 
HETATM   17  C6  UNL     1      30.140   6.813  10.452  1.00  0.00     0.062 C 
ENDBRANCH  13  15
ENDBRANCH   9  13
BRANCH  10  18
HETATM   18  O1  UNL     1      26.429   3.399   8.602  1.00  0.00    -0.384 OA
HETATM   19  C1  UNL     1      26.443   4.009   7.331  1.00  0.00     0.202 C 
ENDBRANCH  10  18
BRANCH  11  20
HETATM   20  C24 UNL     1      24.366   2.317   9.931  1.00  0.00     0.130 C 
HETATM   21  C25 UNL     1      23.338   2.545   8.893  1.00  0.00     0.091 C 
HETATM   22  O3  UNL     1      24.571   1.155  10.258  1.00  0.00    -0.298 OA
ENDBRANCH  11  20
ENDBRANCH   4   7
ENDBRANCH   2   3
ENDBRANCH   1   2
BRANCH   1  23
HETATM   23  C12 UNL     1      23.955   9.591  15.106  1.00  0.00    -0.011 C 
HETATM   24  C13 UNL     1      24.767  10.886  15.138  1.00  0.00     0.024 C 
HETATM   25  C14 UNL     1      25.981  10.775  14.280  1.00  0.00     0.125 C 
HETATM   26  N3  UNL     1      25.646  10.364  12.956  1.00  0.00    -0.366 N 
HETATM   27  C20 UNL     1      24.571   9.445  12.699  1.00  0.00     0.125 C 
HETATM   28  C21 UNL     1      23.453   9.400  13.681  1.00  0.00     0.024 C 
BRANCH  26  29
HETATM   29  C15 UNL     1      26.439  10.784  11.872  1.00  0.00     0.123 A 
HETATM   30  N4  UNL     1      27.398   9.894  11.450  1.00  0.00    -0.338 N 
HETATM   31  C16 UNL     1      28.225  10.148  10.430  1.00  0.00     0.183 A 
ATOM     32  H4  UNL     1      27.482   9.001  11.936  1.00  0.00     0.168 HD
HETATM   33  N5  UNL     1      28.116  11.312   9.796  1.00  0.00    -0.338 N 
HETATM   34  C17 UNL     1      27.193  12.274  10.134  1.00  0.00     0.118 A 
ATOM     35  H5  UNL     1      28.749  11.500   9.018  1.00  0.00     0.168 HD
HETATM   36  C18 UNL     1      26.333  11.963  11.227  1.00  0.00     0.135 A 
BRANCH  34  37
HETATM   37  N6  UNL     1      27.174  13.322   9.480  1.00  0.00    -0.385 N 
ATOM     38  H62 UNL     1      27.231  14.263   9.867  1.00  0.00     0.157 HD
ATOM     39  H61 UNL     1      27.095  13.255   8.465  1.00  0.00     0.157 HD
ENDBRANCH  34  37
BRANCH  36  40
HETATM   40  C19 UNL     1      25.356  12.975  11.592  1.00  0.00     0.424 C 
HETATM   41  F1  UNL     1      24.120  12.328  11.837  1.00  0.00    -0.166 F 
HETATM   42  F2  UNL     1      25.030  13.886  10.605  1.00  0.00    -0.166 F 
HETATM   43  F3  UNL     1      25.668  13.579  12.774  1.00  0.00    -0.166 F 
ENDBRANCH  36  40
ENDBRANCH  26  29
ENDBRANCH   1  23
TORSDOF 11
ENDMDL
MODEL 4
REMARK VINA RESULT: -7.476579391      2.664      3.494
REMARK  11 active torsions:
REMARK  status: ('A' for Active; 'I' for Inactive)
REMARK    1  A    between atoms: O1_2  and  C2_3 
REMARK    2  A    between atoms: C3_4  and  N1_5 
REMARK    3  A    between atoms: N1_5  and  C4_7 
REMARK    4  A    between atoms: C8_11  and  N2_12 
REMARK       I    between atoms: N2_12  and  C9_14 
REMARK    5  A    between atoms: C9_14  and  C10_16 
REMARK    6  A    between atoms: C10_16  and  C11_17 
REMARK    7  A    between atoms: C11_17  and  C12_18 
REMARK    8  A    between atoms: N3_21  and  C15_22 
REMARK    9  A    between atoms: C17_28  and  N6_29 
REMARK   10  A    between atoms: C18_32  and  C19_33 
REMARK   11  A    between atoms: C23_40  and  C24_41 
ROOT
HETATM    1  C11 UNL     1      24.128   8.169  15.746  1.00  0.00     0.014 C 
ENDROOT
BRANCH   1   2
HETATM    2  C10 UNL     1      23.523   6.848  15.380  1.00  0.00     0.103 C 
BRANCH   2   3
HETATM    3  C9  UNL     1      24.393   5.968  14.580  1.00  0.00     0.217 C 
HETATM    4  N2  UNL     1      24.172   5.810  13.196  1.00  0.00    -0.356 N 
ATOM      5  H2  UNL     1      23.416   6.348  12.774  1.00  0.00     0.162 HD
HETATM    6  O2  UNL     1      25.355   5.341  15.137  1.00  0.00    -0.274 OA
BRANCH   4   7
HETATM    7  C8  UNL     1      24.930   4.949  12.339  1.00  0.00     0.090 C 
HETATM    8  C7  UNL     1      25.969   5.798  11.580  1.00  0.00     0.080 C 
HETATM    9  C3  UNL     1      26.805   4.770  10.777  1.00  0.00     0.018 C 
HETATM   10  C2  UNL     1      25.885   4.181   9.775  1.00  0.00     0.177 C 
HETATM   11  C23 UNL     1      24.930   3.274  10.604  1.00  0.00     0.091 C 
HETATM   12  C22 UNL     1      24.038   4.224  11.357  1.00  0.00     0.040 C 
BRANCH   9  13
HETATM   13  N1  UNL     1      28.096   5.149  10.542  1.00  0.00    -0.368 N 
ATOM     14  H1  UNL     1      28.791   4.411  10.657  1.00  0.00     0.165 HD
BRANCH  13  15
HETATM   15  C4  UNL     1      28.604   6.377  10.174  1.00  0.00    -0.021 C 
HETATM   16  C5  UNL     1      28.667   6.657   8.660  1.00  0.00     0.062 C 
HETATM   17  C6  UNL     1      29.719   7.013  10.931  1.00  0.00     0.062 C 
ENDBRANCH  13  15
ENDBRANCH   9  13
BRANCH  10  18
HETATM   18  O1  UNL     1      26.444   3.409   8.814  1.00  0.00    -0.384 OA
HETATM   19  C1  UNL     1      26.379   4.007   7.539  1.00  0.00     0.202 C 
ENDBRANCH  10  18
BRANCH  11  20
HETATM   20  C24 UNL     1      24.285   2.219   9.869  1.00  0.00     0.130 C 
HETATM   21  C25 UNL     1      23.257   2.483   8.839  1.00  0.00     0.091 C 
HETATM   22  O3  UNL     1      24.570   1.046  10.074  1.00  0.00    -0.298 OA
ENDBRANCH  11  20
ENDBRANCH   4   7
ENDBRANCH   2   3
ENDBRANCH   1   2
BRANCH   1  23
HETATM   23  C12 UNL     1      24.655   8.851  14.503  1.00  0.00    -0.011 C 
HETATM   24  C13 UNL     1      23.968  10.207  14.339  1.00  0.00     0.024 C 
HETATM   25  C14 UNL     1      24.158  11.051  15.553  1.00  0.00     0.125 C 
HETATM   26  N3  UNL     1      25.538  11.167  15.895  1.00  0.00    -0.366 N 
HETATM   27  C20 UNL     1      26.460  10.082  15.694  1.00  0.00     0.125 C 
HETATM   28  C21 UNL     1      26.152   9.107  14.613  1.00  0.00     0.024 C 
BRANCH  26  29
HETATM   29  C15 UNL     1      26.004  12.331  16.534  1.00  0.00     0.123 A 
HETATM   30  N4  UNL     1      26.623  13.252  15.722  1.00  0.00    -0.338 N 
HETATM   31  C16 UNL     1      27.114  14.409  16.181  1.00  0.00     0.183 A 
ATOM     32  H4  UNL     1      26.711  13.045  14.728  1.00  0.00     0.168 HD
HETATM   33  N5  UNL     1      26.998  14.681  17.478  1.00  0.00    -0.338 N 
HETATM   34  C17 UNL     1      26.398  13.831  18.378  1.00  0.00     0.118 A 
ATOM     35  H5  UNL     1      27.374  15.565  17.822  1.00  0.00     0.168 HD
HETATM   36  C18 UNL     1      25.890  12.610  17.847  1.00  0.00     0.135 A 
BRANCH  34  37
HETATM   37  N6  UNL     1      26.342  14.179  19.562  1.00  0.00    -0.385 N 
ATOM     38  H62 UNL     1      27.133  14.483  20.129  1.00  0.00     0.157 HD
ATOM     39  H61 UNL     1      25.434  14.166  20.026  1.00  0.00     0.157 HD
ENDBRANCH  34  37
BRANCH  36  40
HETATM   40  C19 UNL     1      25.256  11.706  18.792  1.00  0.00     0.424 C 
HETATM   41  F1  UNL     1      26.018  11.711  19.986  1.00  0.00    -0.166 F 
HETATM   42  F2  UNL     1      25.250  10.370  18.442  1.00  0.00    -0.166 F 
HETATM   43  F3  UNL     1      24.023  12.149  19.170  1.00  0.00    -0.166 F 
ENDBRANCH  36  40
ENDBRANCH  26  29
ENDBRANCH   1  23
TORSDOF 11
ENDMDL
MODEL 5
REMARK VINA RESULT: -7.455047065      2.081      2.812
REMARK  11 active torsions:
REMARK  status: ('A' for Active; 'I' for Inactive)
REMARK    1  A    between atoms: O1_2  and  C2_3 
REMARK    2  A    between atoms: C3_4  and  N1_5 
REMARK    3  A    between atoms: N1_5  and  C4_7 
REMARK    4  A    between atoms: C8_11  and  N2_12 
REMARK       I    between atoms: N2_12  and  C9_14 
REMARK    5  A    between atoms: C9_14  and  C10_16 
REMARK    6  A    between atoms: C10_16  and  C11_17 
REMARK    7  A    between atoms: C11_17  and  C12_18 
REMARK    8  A    between atoms: N3_21  and  C15_22 
REMARK    9  A    between atoms: C17_28  and  N6_29 
REMARK   10  A    between atoms: C18_32  and  C19_33 
REMARK   11  A    between atoms: C23_40  and  C24_41 
ROOT
HETATM    1  C11 UNL     1      24.885   8.616  15.616  1.00  0.00     0.014 C 
ENDROOT
BRANCH   1   2
HETATM    2  C10 UNL     1      24.174   7.379  15.160  1.00  0.00     0.103 C 
BRANCH   2   3
HETATM    3  C9  UNL     1      24.983   6.469  14.330  1.00  0.00     0.217 C 
HETATM    4  N2  UNL     1      24.566   6.127  13.027  1.00  0.00    -0.356 N 
ATOM      5  H2  UNL     1      23.710   6.557  12.678  1.00  0.00     0.162 HD
HETATM    6  O2  UNL     1      26.071   5.982  14.788  1.00  0.00    -0.274 OA
BRANCH   4   7
HETATM    7  C8  UNL     1      25.254   5.222  12.158  1.00  0.00     0.090 C 
HETATM    8  C7  UNL     1      26.207   6.031  11.255  1.00  0.00     0.080 C 
HETATM    9  C3  UNL     1      26.980   4.963  10.442  1.00  0.00     0.018 C 
HETATM   10  C2  UNL     1      25.980   4.305   9.568  1.00  0.00     0.177 C 
HETATM   11  C23 UNL     1      25.119   3.443  10.536  1.00  0.00     0.091 C 
HETATM   12  C22 UNL     1      24.287   4.430  11.308  1.00  0.00     0.040 C 
BRANCH   9  13
HETATM   13  N1  UNL     1      28.239   5.339  10.065  1.00  0.00    -0.368 N 
ATOM     14  H1  UNL     1      28.993   4.950  10.631  1.00  0.00     0.165 HD
BRANCH  13  15
HETATM   15  C4  UNL     1      28.645   6.164   9.038  1.00  0.00    -0.021 C 
HETATM   16  C5  UNL     1      30.167   6.301   8.842  1.00  0.00     0.062 C 
HETATM   17  C6  UNL     1      27.900   7.410   8.704  1.00  0.00     0.062 C 
ENDBRANCH  13  15
ENDBRANCH   9  13
BRANCH  10  18
HETATM   18  O1  UNL     1      26.461   3.480   8.607  1.00  0.00    -0.384 OA
HETATM   19  C1  UNL     1      26.379   4.049   7.320  1.00  0.00     0.202 C 
ENDBRANCH  10  18
BRANCH  11  20
HETATM   20  C24 UNL     1      24.425   2.338   9.929  1.00  0.00     0.130 C 
HETATM   21  C25 UNL     1      23.443   2.520   8.839  1.00  0.00     0.091 C 
HETATM   22  O3  UNL     1      24.628   1.189  10.301  1.00  0.00    -0.298 OA
ENDBRANCH  11  20
ENDBRANCH   4   7
ENDBRANCH   2   3
ENDBRANCH   1   2
BRANCH   1  23
HETATM   23  C12 UNL     1      24.162   9.840  15.099  1.00  0.00    -0.011 C 
HETATM   24  C13 UNL     1      25.106  11.043  15.146  1.00  0.00     0.024 C 
HETATM   25  C14 UNL     1      26.352  10.773  14.376  1.00  0.00     0.125 C 
HETATM   26  N3  UNL     1      26.060  10.350  13.044  1.00  0.00    -0.366 N 
HETATM   27  C20 UNL     1      24.910   9.541  12.744  1.00  0.00     0.125 C 
HETATM   28  C21 UNL     1      23.734   9.651  13.649  1.00  0.00     0.024 C 
BRANCH  26  29
HETATM   29  C15 UNL     1      26.961  10.645  12.004  1.00  0.00     0.123 A 
HETATM   30  N4  UNL     1      26.597  11.674  11.169  1.00  0.00    -0.338 N 
HETATM   31  C16 UNL     1      27.351  12.073  10.139  1.00  0.00     0.183 A 
ATOM     32  H4  UNL     1      25.714  12.154  11.343  1.00  0.00     0.168 HD
HETATM   33  N5  UNL     1      28.503  11.449   9.912  1.00  0.00    -0.338 N 
HETATM   34  C17 UNL     1      28.964  10.408  10.685  1.00  0.00     0.118 A 
ATOM     35  H5  UNL     1      29.074  11.758   9.125  1.00  0.00     0.168 HD
HETATM   36  C18 UNL     1      28.129  10.014  11.771  1.00  0.00     0.135 A 
BRANCH  34  37
HETATM   37  N6  UNL     1      30.049   9.897  10.389  1.00  0.00    -0.385 N 
ATOM     38  H62 UNL     1      30.730   9.527  11.052  1.00  0.00     0.157 HD
ATOM     39  H61 UNL     1      30.298   9.831   9.403  1.00  0.00     0.157 HD
ENDBRANCH  34  37
BRANCH  36  40
HETATM   40  C19 UNL     1      28.608   8.914  12.590  1.00  0.00     0.424 C 
HETATM   41  F1  UNL     1      29.256   7.982  11.743  1.00  0.00    -0.166 F 
HETATM   42  F2  UNL     1      27.636   8.144  13.199  1.00  0.00    -0.166 F 
HETATM   43  F3  UNL     1      29.576   9.314  13.463  1.00  0.00    -0.166 F 
ENDBRANCH  36  40
ENDBRANCH  26  29
ENDBRANCH   1  23
TORSDOF 11
ENDMDL
