MODEL 1
REMARK VINA RESULT: -7.296766752      0.000      0.000
REMARK  10 active torsions:
REMARK  status: ('A' for Active; 'I' for Inactive)
REMARK    1  A    between atoms: C2_2  and  C3_3 
REMARK    2  A    between atoms: C2_2  and  C5_11 
REMARK    3  A    between atoms: C3_3  and  C4_4 
REMARK    4  A    between atoms: C4_4  and  N1_5 
REMARK    5  A    between atoms: C4_4  and  O1_9 
REMARK    6  A    between atoms: C5_11  and  C6_13 
REMARK       I    between atoms: C6_13  and  N2_15 
REMARK    7  A    between atoms: C10_19  and  N3_20 
REMARK       I    between atoms: N3_20  and  C11_22 
REMARK    8  A    between atoms: C11_22  and  C12_24 
REMARK    9  A    between atoms: C12_24  and  C13_25 
REMARK   10  A    between atoms: C13_25  and  C16_29 
ROOT
HETATM    1  C13 UNL     1      -0.782  19.100  -4.238  1.00  0.00     0.151 C 
HETATM    2  C14 UNL     1      -1.514  19.783  -3.129  1.00  0.00     0.041 C 
HETATM    3  C15 UNL     1      -0.312  20.077  -5.238  1.00  0.00     0.078 C 
HETATM    4  N4  UNL     1       0.052  20.836  -6.011  1.00  0.00    -0.196 NA
ENDROOT
BRANCH   1   5
HETATM    5  C12 UNL     1      -1.588  18.043  -4.929  1.00  0.00     0.136 C 
BRANCH   5   6
HETATM    6  C11 UNL     1      -3.040  18.199  -4.724  1.00  0.00     0.219 C 
HETATM    7  N3  UNL     1      -3.745  19.376  -5.060  1.00  0.00    -0.356 N 
ATOM      8  H3  UNL     1      -3.223  20.154  -5.463  1.00  0.00     0.162 HD
HETATM    9  O4  UNL     1      -3.680  17.237  -4.225  1.00  0.00    -0.274 OA
BRANCH   7  10
HETATM   10  C10 UNL     1      -5.171  19.532  -4.861  1.00  0.00     0.086 C 
HETATM   11  C9  UNL     1      -5.403  19.999  -3.454  1.00  0.00     0.027 C 
HETATM   12  C8  UNL     1      -4.925  21.380  -3.185  1.00  0.00     0.022 C 
HETATM   13  C7  UNL     1      -5.913  22.458  -3.566  1.00  0.00     0.126 C 
HETATM   14  N2  UNL     1      -5.922  22.642  -4.990  1.00  0.00    -0.345 N 
HETATM   15  C6  UNL     1      -6.673  23.695  -5.582  1.00  0.00     0.294 C 
HETATM   16  C18 UNL     1      -5.189  21.795  -5.949  1.00  0.00     0.128 C 
HETATM   17  O3  UNL     1      -6.619  23.779  -6.848  1.00  0.00    -0.264 OA
HETATM   18  C17 UNL     1      -5.771  20.420  -5.895  1.00  0.00     0.045 C 
BRANCH  15  19
HETATM   19  C5  UNL     1      -7.478  24.655  -4.867  1.00  0.00     0.241 C 
HETATM   20  O2  UNL     1      -8.551  24.285  -4.357  1.00  0.00    -0.282 OA
BRANCH  19  21
HETATM   21  C2  UNL     1      -7.043  26.049  -4.739  1.00  0.00    -0.024 C 
HETATM   22  C1  UNL     1      -6.774  26.498  -3.321  1.00  0.00     0.048 C 
BRANCH  21  23
HETATM   23  C3  UNL     1      -7.748  27.059  -5.556  1.00  0.00     0.098 C 
BRANCH  23  24
HETATM   24  C4  UNL     1      -7.183  27.476  -6.849  1.00  0.00     0.320 C 
BRANCH  24  25
HETATM   25  N1  UNL     1      -8.174  27.755  -7.871  1.00  0.00    -0.053 N 
ATOM     26  H13 UNL     1      -8.338  26.927  -8.443  1.00  0.00     0.277 HD
ATOM     27  H12 UNL     1      -9.098  27.862  -7.453  1.00  0.00     0.277 HD
ATOM     28  H11 UNL     1      -7.955  28.557  -8.461  1.00  0.00     0.277 HD
ENDBRANCH  24  25
BRANCH  24  29
HETATM   29  O1  UNL     1      -6.174  26.736  -7.392  1.00  0.00    -0.370 OA
ATOM     30  H1  UNL     1      -5.835  26.983  -8.244  1.00  0.00     0.212 HD
ENDBRANCH  24  29
ENDBRANCH  23  24
ENDBRANCH  21  23
ENDBRANCH  19  21
ENDBRANCH  15  19
ENDBRANCH   7  10
ENDBRANCH   5   6
ENDBRANCH   1   5
BRANCH   1  31
HETATM   31  C16 UNL     1       0.480  18.413  -3.699  1.00  0.00     0.408 C 
HETATM   32  F1  UNL     1       1.571  19.258  -3.805  1.00  0.00    -0.169 F 
HETATM   33  F2  UNL     1       0.763  17.261  -4.390  1.00  0.00    -0.169 F 
HETATM   34  F3  UNL     1       0.328  18.092  -2.374  1.00  0.00    -0.169 F 
ENDBRANCH   1  31
TORSDOF 10
ENDMDL
MODEL 2
REMARK VINA RESULT: -7.265252855      2.041      2.972
REMARK  10 active torsions:
REMARK  status: ('A' for Active; 'I' for Inactive)
REMARK    1  A    between atoms: C2_2  and  C3_3 
REMARK    2  A    between atoms: C2_2  and  C5_11 
REMARK    3  A    between atoms: C3_3  and  C4_4 
REMARK    4  A    between atoms: C4_4  and  N1_5 
REMARK    5  A    between atoms: C4_4  and  O1_9 
REMARK    6  A    between atoms: C5_11  and  C6_13 
REMARK       I    between atoms: C6_13  and  N2_15 
REMARK    7  A    between atoms: C10_19  and  N3_20 
REMARK       I    between atoms: N3_20  and  C11_22 
REMARK    8  A    between atoms: C11_22  and  C12_24 
REMARK    9  A    between atoms: C12_24  and  C13_25 
REMARK   10  A    between atoms: C13_25  and  C16_29 
ROOT
HETATM    1  C13 UNL     1      -0.524  19.195  -4.086  1.00  0.00     0.151 C 
HETATM    2  C14 UNL     1      -1.626  19.806  -3.285  1.00  0.00     0.041 C 
HETATM    3  C15 UNL     1      -0.131  20.077  -5.201  1.00  0.00     0.078 C 
HETATM    4  N4  UNL     1       0.173  20.763  -6.063  1.00  0.00    -0.196 NA
ENDROOT
BRANCH   1   5
HETATM    5  C12 UNL     1      -0.857  17.839  -4.631  1.00  0.00     0.136 C 
BRANCH   5   6
HETATM    6  C11 UNL     1      -2.307  17.628  -4.805  1.00  0.00     0.219 C 
HETATM    7  N3  UNL     1      -3.206  18.672  -5.115  1.00  0.00    -0.356 N 
ATOM      8  H3  UNL     1      -2.834  19.616  -5.223  1.00  0.00     0.162 HD
HETATM    9  O4  UNL     1      -2.762  16.463  -4.670  1.00  0.00    -0.274 OA
BRANCH   7  10
HETATM   10  C10 UNL     1      -4.630  18.469  -5.288  1.00  0.00     0.086 C 
HETATM   11  C9  UNL     1      -5.272  18.450  -3.932  1.00  0.00     0.027 C 
HETATM   12  C8  UNL     1      -5.254  19.761  -3.233  1.00  0.00     0.022 C 
HETATM   13  C7  UNL     1      -6.394  20.678  -3.615  1.00  0.00     0.126 C 
HETATM   14  N2  UNL     1      -6.151  21.260  -4.905  1.00  0.00    -0.345 N 
HETATM   15  C6  UNL     1      -7.016  22.262  -5.423  1.00  0.00     0.294 C 
HETATM   16  C18 UNL     1      -5.029  20.896  -5.791  1.00  0.00     0.128 C 
HETATM   17  O3  UNL     1      -6.720  22.719  -6.570  1.00  0.00    -0.264 OA
HETATM   18  C17 UNL     1      -5.215  19.476  -6.215  1.00  0.00     0.045 C 
BRANCH  15  19
HETATM   19  C5  UNL     1      -8.184  22.788  -4.759  1.00  0.00     0.241 C 
HETATM   20  O2  UNL     1      -9.287  22.249  -4.958  1.00  0.00    -0.282 OA
BRANCH  19  21
HETATM   21  C2  UNL     1      -8.077  23.942  -3.860  1.00  0.00    -0.024 C 
HETATM   22  C1  UNL     1      -7.654  25.228  -4.533  1.00  0.00     0.048 C 
BRANCH  21  23
HETATM   23  C3  UNL     1      -7.438  23.724  -2.546  1.00  0.00     0.098 C 
BRANCH  23  24
HETATM   24  C4  UNL     1      -8.264  23.365  -1.383  1.00  0.00     0.320 C 
BRANCH  24  25
HETATM   25  N1  UNL     1      -8.511  21.942  -1.240  1.00  0.00    -0.053 N 
ATOM     26  H13 UNL     1      -8.265  21.451  -2.099  1.00  0.00     0.277 HD
ATOM     27  H12 UNL     1      -7.834  21.525  -0.602  1.00  0.00     0.277 HD
ATOM     28  H11 UNL     1      -9.461  21.708  -0.955  1.00  0.00     0.277 HD
ENDBRANCH  24  25
BRANCH  24  29
HETATM   29  O1  UNL     1      -9.428  24.046  -1.172  1.00  0.00    -0.370 OA
ATOM     30  H1  UNL     1      -9.671  24.268  -0.280  1.00  0.00     0.212 HD
ENDBRANCH  24  29
ENDBRANCH  23  24
ENDBRANCH  21  23
ENDBRANCH  19  21
ENDBRANCH  15  19
ENDBRANCH   7  10
ENDBRANCH   5   6
ENDBRANCH   1   5
BRANCH   1  31
HETATM   31  C16 UNL     1       0.733  19.027  -3.222  1.00  0.00     0.408 C 
HETATM   32  F1  UNL     1       0.590  19.708  -2.026  1.00  0.00    -0.169 F 
HETATM   33  F2  UNL     1       1.851  19.509  -3.856  1.00  0.00    -0.169 F 
HETATM   34  F3  UNL     1       0.944  17.704  -2.927  1.00  0.00    -0.169 F 
ENDBRANCH   1  31
TORSDOF 10
ENDMDL
MODEL 3
REMARK VINA RESULT: -7.207542255      1.354      1.688
REMARK  10 active torsions:
REMARK  status: ('A' for Active; 'I' for Inactive)
REMARK    1  A    between atoms: C2_2  and  C3_3 
REMARK    2  A    between atoms: C2_2  and  C5_11 
REMARK    3  A    between atoms: C3_3  and  C4_4 
REMARK    4  A    between atoms: C4_4  and  N1_5 
REMARK    5  A    between atoms: C4_4  and  O1_9 
REMARK    6  A    between atoms: C5_11  and  C6_13 
REMARK       I    between atoms: C6_13  and  N2_15 
REMARK    7  A    between atoms: C10_19  and  N3_20 
REMARK       I    between atoms: N3_20  and  C11_22 
REMARK    8  A    between atoms: C11_22  and  C12_24 
REMARK    9  A    between atoms: C12_24  and  C13_25 
REMARK   10  A    between atoms: C13_25  and  C16_29 
ROOT
HETATM    1  C13 UNL     1      -0.464  18.833  -4.182  1.00  0.00     0.151 C 
HETATM    2  C14 UNL     1      -1.421  19.421  -3.197  1.00  0.00     0.041 C 
HETATM    3  C15 UNL     1      -0.124  19.811  -5.233  1.00  0.00     0.078 C 
HETATM    4  N4  UNL     1       0.139  20.570  -6.046  1.00  0.00    -0.196 NA
ENDROOT
BRANCH   1   5
HETATM    5  C12 UNL     1      -0.962  17.576  -4.827  1.00  0.00     0.136 C 
BRANCH   5   6
HETATM    6  C11 UNL     1      -2.428  17.430  -4.749  1.00  0.00     0.219 C 
HETATM    7  N3  UNL     1      -3.324  18.484  -5.033  1.00  0.00    -0.356 N 
ATOM      8  H3  UNL     1      -2.938  19.388  -5.305  1.00  0.00     0.162 HD
HETATM    9  O4  UNL     1      -2.901  16.313  -4.413  1.00  0.00    -0.274 OA
BRANCH   7  10
HETATM   10  C10 UNL     1      -4.764  18.344  -4.959  1.00  0.00     0.086 C 
HETATM   11  C9  UNL     1      -5.195  18.634  -3.551  1.00  0.00     0.027 C 
HETATM   12  C8  UNL     1      -5.025  20.053  -3.143  1.00  0.00     0.022 C 
HETATM   13  C7  UNL     1      -6.176  20.949  -3.540  1.00  0.00     0.126 C 
HETATM   14  N2  UNL     1      -6.109  21.249  -4.943  1.00  0.00    -0.345 N 
HETATM   15  C6  UNL     1      -7.006  22.185  -5.527  1.00  0.00     0.294 C 
HETATM   16  C18 UNL     1      -5.148  20.647  -5.885  1.00  0.00     0.128 C 
HETATM   17  O3  UNL     1      -6.870  22.387  -6.774  1.00  0.00    -0.264 OA
HETATM   18  C17 UNL     1      -5.446  19.186  -5.981  1.00  0.00     0.045 C 
BRANCH  15  19
HETATM   19  C5  UNL     1      -8.041  22.906  -4.826  1.00  0.00     0.241 C 
HETATM   20  O2  UNL     1      -9.222  22.534  -4.943  1.00  0.00    -0.282 OA
BRANCH  19  21
HETATM   21  C2  UNL     1      -7.710  24.062  -3.987  1.00  0.00    -0.024 C 
HETATM   22  C1  UNL     1      -8.355  24.052  -2.620  1.00  0.00     0.048 C 
BRANCH  21  23
HETATM   23  C3  UNL     1      -7.708  25.391  -4.630  1.00  0.00     0.098 C 
BRANCH  23  24
HETATM   24  C4  UNL     1      -6.540  25.821  -5.415  1.00  0.00     0.320 C 
BRANCH  24  25
HETATM   25  N1  UNL     1      -6.659  25.585  -6.842  1.00  0.00    -0.053 N 
ATOM     26  H13 UNL     1      -7.624  25.366  -7.087  1.00  0.00     0.277 HD
ATOM     27  H12 UNL     1      -6.542  26.456  -7.358  1.00  0.00     0.277 HD
ATOM     28  H11 UNL     1      -6.029  24.869  -7.202  1.00  0.00     0.277 HD
ENDBRANCH  24  25
BRANCH  24  29
HETATM   29  O1  UNL     1      -5.297  25.442  -4.999  1.00  0.00    -0.370 OA
ATOM     30  H1  UNL     1      -4.995  25.728  -4.145  1.00  0.00     0.212 HD
ENDBRANCH  24  29
ENDBRANCH  23  24
ENDBRANCH  21  23
ENDBRANCH  19  21
ENDBRANCH  15  19
ENDBRANCH   7  10
ENDBRANCH   5   6
ENDBRANCH   1   5
BRANCH   1  31
HETATM   31  C16 UNL     1       0.861  18.481  -3.493  1.00  0.00     0.408 C 
HETATM   32  F1  UNL     1       0.684  18.398  -2.123  1.00  0.00    -0.169 F 
HETATM   33  F2  UNL     1       1.828  19.423  -3.743  1.00  0.00    -0.169 F 
HETATM   34  F3  UNL     1       1.324  17.265  -3.928  1.00  0.00    -0.169 F 
ENDBRANCH   1  31
TORSDOF 10
ENDMDL
MODEL 4
REMARK VINA RESULT: -7.152782415      1.612      2.013
REMARK  10 active torsions:
REMARK  status: ('A' for Active; 'I' for Inactive)
REMARK    1  A    between atoms: C2_2  and  C3_3 
REMARK    2  A    between atoms: C2_2  and  C5_11 
REMARK    3  A    between atoms: C3_3  and  C4_4 
REMARK    4  A    between atoms: C4_4  and  N1_5 
REMARK    5  A    between atoms: C4_4  and  O1_9 
REMARK    6  A    between atoms: C5_11  and  C6_13 
REMARK       I    between atoms: C6_13  and  N2_15 
REMARK    7  A    between atoms: C10_19  and  N3_20 
REMARK       I    between atoms: N3_20  and  C11_22 
REMARK    8  A    between atoms: C11_22  and  C12_24 
REMARK    9  A    between atoms: C12_24  and  C13_25 
REMARK   10  A    between atoms: C13_25  and  C16_29 
ROOT
HETATM    1  C13 UNL     1      -1.068  19.138  -3.987  1.00  0.00     0.151 C 
HETATM    2  C14 UNL     1      -1.109  19.122  -2.494  1.00  0.00     0.041 C 
HETATM    3  C15 UNL     1      -1.064  20.521  -4.499  1.00  0.00     0.078 C 
HETATM    4  N4  UNL     1      -1.059  21.594  -4.894  1.00  0.00    -0.196 NA
ENDROOT
BRANCH   1   5
HETATM    5  C12 UNL     1      -2.194  18.384  -4.627  1.00  0.00     0.136 C 
BRANCH   5   6
HETATM    6  C11 UNL     1      -3.523  18.879  -4.221  1.00  0.00     0.219 C 
HETATM    7  N3  UNL     1      -3.873  20.247  -4.232  1.00  0.00    -0.356 N 
ATOM      8  H3  UNL     1      -3.172  20.924  -4.534  1.00  0.00     0.162 HD
HETATM    9  O4  UNL     1      -4.385  18.041  -3.848  1.00  0.00    -0.274 OA
BRANCH   7  10
HETATM   10  C10 UNL     1      -5.177  20.737  -3.835  1.00  0.00     0.086 C 
HETATM   11  C9  UNL     1      -4.989  21.762  -2.756  1.00  0.00     0.027 C 
HETATM   12  C8  UNL     1      -4.341  23.018  -3.216  1.00  0.00     0.022 C 
HETATM   13  C7  UNL     1      -5.300  24.019  -3.818  1.00  0.00     0.126 C 
HETATM   14  N2  UNL     1      -5.670  23.616  -5.146  1.00  0.00    -0.345 N 
HETATM   15  C6  UNL     1      -6.458  24.466  -5.969  1.00  0.00     0.294 C 
HETATM   16  C18 UNL     1      -5.290  22.334  -5.769  1.00  0.00     0.128 C 
HETATM   17  O3  UNL     1      -6.733  24.025  -7.128  1.00  0.00    -0.264 OA
HETATM   18  C17 UNL     1      -5.952  21.233  -5.006  1.00  0.00     0.045 C 
BRANCH  15  19
HETATM   19  C5  UNL     1      -6.962  25.765  -5.595  1.00  0.00     0.241 C 
HETATM   20  O2  UNL     1      -8.018  25.839  -4.943  1.00  0.00    -0.282 OA
BRANCH  19  21
HETATM   21  C2  UNL     1      -6.242  26.984  -5.975  1.00  0.00    -0.024 C 
HETATM   22  C1  UNL     1      -6.983  27.878  -6.943  1.00  0.00     0.048 C 
BRANCH  21  23
HETATM   23  C3  UNL     1      -4.800  26.858  -6.273  1.00  0.00     0.098 C 
BRANCH  23  24
HETATM   24  C4  UNL     1      -4.315  27.081  -7.644  1.00  0.00     0.320 C 
BRANCH  24  25
HETATM   25  N1  UNL     1      -4.566  25.978  -8.553  1.00  0.00    -0.053 N 
ATOM     26  H13 UNL     1      -4.046  26.106  -9.420  1.00  0.00     0.277 HD
ATOM     27  H12 UNL     1      -4.124  25.125  -8.209  1.00  0.00     0.277 HD
ATOM     28  H11 UNL     1      -5.553  25.813  -8.751  1.00  0.00     0.277 HD
ENDBRANCH  24  25
BRANCH  24  29
HETATM   29  O1  UNL     1      -3.037  27.526  -7.821  1.00  0.00    -0.370 OA
ATOM     30  H1  UNL     1      -2.902  28.367  -8.242  1.00  0.00     0.212 HD
ENDBRANCH  24  29
ENDBRANCH  23  24
ENDBRANCH  21  23
ENDBRANCH  19  21
ENDBRANCH  15  19
ENDBRANCH   7  10
ENDBRANCH   5   6
ENDBRANCH   1   5
BRANCH   1  31
HETATM   31  C16 UNL     1       0.233  18.501  -4.492  1.00  0.00     0.408 C 
HETATM   32  F1  UNL     1       0.045  17.152  -4.736  1.00  0.00    -0.169 F 
HETATM   33  F2  UNL     1       1.249  18.632  -3.578  1.00  0.00    -0.169 F 
HETATM   34  F3  UNL     1       0.634  19.086  -5.666  1.00  0.00    -0.169 F 
ENDBRANCH   1  31
TORSDOF 10
ENDMDL
MODEL 5
REMARK VINA RESULT: -7.087233334      2.070      3.075
REMARK  10 active torsions:
REMARK  status: ('A' for Active; 'I' for Inactive)
REMARK    1  A    between atoms: C2_2  and  C3_3 
REMARK    2  A    between atoms: C2_2  and  C5_11 
REMARK    3  A    between atoms: C3_3  and  C4_4 
REMARK    4  A    between atoms: C4_4  and  N1_5 
REMARK    5  A    between atoms: C4_4  and  O1_9 
REMARK    6  A    between atoms: C5_11  and  C6_13 
REMARK       I    between atoms: C6_13  and  N2_15 
REMARK    7  A    between atoms: C10_19  and  N3_20 
REMARK       I    between atoms: N3_20  and  C11_22 
REMARK    8  A    between atoms: C11_22  and  C12_24 
REMARK    9  A    between atoms: C12_24  and  C13_25 
REMARK   10  A    between atoms: C13_25  and  C16_29 
ROOT
HETATM    1  C13 UNL     1      -0.584  18.972  -4.176  1.00  0.00     0.151 C 
HETATM    2  C14 UNL     1      -1.481  19.591  -3.155  1.00  0.00     0.041 C 
HETATM    3  C15 UNL     1      -0.219  19.949  -5.220  1.00  0.00     0.078 C 
HETATM    4  N4  UNL     1       0.062  20.708  -6.026  1.00  0.00    -0.196 NA
ENDROOT
BRANCH   1   5
HETATM    5  C12 UNL     1      -1.166  17.755  -4.828  1.00  0.00     0.136 C 
BRANCH   5   6
HETATM    6  C11 UNL     1      -2.640  17.728  -4.786  1.00  0.00     0.219 C 
HETATM    7  N3  UNL     1      -3.442  18.848  -5.100  1.00  0.00    -0.356 N 
ATOM      8  H3  UNL     1      -2.977  19.716  -5.367  1.00  0.00     0.162 HD
HETATM    9  O4  UNL     1      -3.209  16.656  -4.454  1.00  0.00    -0.274 OA
BRANCH   7  10
HETATM   10  C10 UNL     1      -4.889  18.825  -5.060  1.00  0.00     0.086 C 
HETATM   11  C9  UNL     1      -5.322  18.768  -3.624  1.00  0.00     0.027 C 
HETATM   12  C8  UNL     1      -5.035  20.006  -2.853  1.00  0.00     0.022 C 
HETATM   13  C7  UNL     1      -6.094  21.076  -2.993  1.00  0.00     0.126 C 
HETATM   14  N2  UNL     1      -5.972  21.731  -4.265  1.00  0.00    -0.345 N 
HETATM   15  C6  UNL     1      -6.770  22.866  -4.576  1.00  0.00     0.294 C 
HETATM   16  C18 UNL     1      -5.049  21.316  -5.337  1.00  0.00     0.128 C 
HETATM   17  O3  UNL     1      -6.591  23.379  -5.724  1.00  0.00    -0.264 OA
HETATM   18  C17 UNL     1      -5.473  19.967  -5.818  1.00  0.00     0.045 C 
BRANCH  15  19
HETATM   19  C5  UNL     1      -7.751  23.466  -3.704  1.00  0.00     0.241 C 
HETATM   20  O2  UNL     1      -8.951  23.172  -3.851  1.00  0.00    -0.282 OA
BRANCH  19  21
HETATM   21  C2  UNL     1      -7.345  24.411  -2.659  1.00  0.00    -0.024 C 
HETATM   22  C1  UNL     1      -6.158  25.275  -3.017  1.00  0.00     0.048 C 
BRANCH  21  23
HETATM   23  C3  UNL     1      -7.317  23.914  -1.268  1.00  0.00     0.098 C 
BRANCH  23  24
HETATM   24  C4  UNL     1      -8.562  23.462  -0.628  1.00  0.00     0.320 C 
BRANCH  24  25
HETATM   25  N1  UNL     1      -8.790  22.031  -0.709  1.00  0.00    -0.053 N 
ATOM     26  H13 UNL     1      -8.760  21.720  -1.680  1.00  0.00     0.277 HD
ATOM     27  H12 UNL     1      -7.988  21.521  -0.338  1.00  0.00     0.277 HD
ATOM     28  H11 UNL     1      -9.650  21.717  -0.261  1.00  0.00     0.277 HD
ENDBRANCH  24  25
BRANCH  24  29
HETATM   29  O1  UNL     1      -9.723  24.118  -0.918  1.00  0.00    -0.370 OA
ATOM     30  H1  UNL     1     -10.400  23.656  -1.398  1.00  0.00     0.212 HD
ENDBRANCH  24  29
ENDBRANCH  23  24
ENDBRANCH  21  23
ENDBRANCH  19  21
ENDBRANCH  15  19
ENDBRANCH   7  10
ENDBRANCH   5   6
ENDBRANCH   1   5
BRANCH   1  31
HETATM   31  C16 UNL     1       0.739  18.537  -3.531  1.00  0.00     0.408 C 
HETATM   32  F1  UNL     1       1.163  17.334  -4.067  1.00  0.00    -0.169 F 
HETATM   33  F2  UNL     1       0.611  18.378  -2.173  1.00  0.00    -0.169 F 
HETATM   34  F3  UNL     1       1.719  19.467  -3.764  1.00  0.00    -0.169 F 
ENDBRANCH   1  31
TORSDOF 10
ENDMDL
