MODEL 1
REMARK VINA RESULT: -7.210849614      0.000      0.000
REMARK  9 active torsions:
REMARK  status: ('A' for Active; 'I' for Inactive)
REMARK       I    between atoms: C2_5  and  N3_6 
REMARK       I    between atoms: C2_5  and  N5_14 
REMARK    1  A    between atoms: N3_6  and  C3_8 
REMARK    2  A    between atoms: N5_14  and  C6_16 
REMARK    3  A    between atoms: C6_16  and  C7_17 
REMARK    4  A    between atoms: C7_17  and  C8_18 
REMARK    5  A    between atoms: C8_18  and  N6_19 
REMARK    6  A    between atoms: N6_19  and  C9_22 
REMARK    7  A    between atoms: N7_24  and  C11_25 
REMARK    8  A    between atoms: C11_25  and  C12_26 
REMARK    9  A    between atoms: C12_26  and  C13_27 
ROOT
HETATM    1  N1  UNL     1      -4.058  15.167  -4.159  1.00  0.00    -0.171 NA
HETATM    2  C1  UNL     1      -4.347  16.105  -4.778  1.00  0.00     0.196 C 
HETATM    3  N2  UNL     1      -4.691  17.217  -5.525  1.00  0.00    -0.126 N 
ATOM      4  H2  UNL     1      -5.412  17.088  -6.234  1.00  0.00     0.197 HD
HETATM    5  C2  UNL     1      -4.197  18.383  -5.415  1.00  0.00     0.689 C 
HETATM    6  N3  UNL     1      -4.616  19.473  -6.231  1.00  0.00    -0.170 N 
ATOM      7  H3  UNL     1      -4.105  19.705  -7.083  1.00  0.00     0.186 HD
HETATM    8  N5  UNL     1      -3.195  18.626  -4.445  1.00  0.00    -0.225 N 
ATOM      9  H5  UNL     1      -3.447  18.912  -3.499  1.00  0.00     0.177 HD
ENDROOT
BRANCH   6  10
HETATM   10  C3  UNL     1      -5.662  20.176  -5.878  1.00  0.00     0.163 A 
HETATM   11  N4  UNL     1      -6.722  19.744  -5.204  1.00  0.00    -0.346 N 
HETATM   12  C4  UNL     1      -7.682  20.579  -4.940  1.00  0.00     0.097 A 
ATOM     13  H4  UNL     1      -6.781  18.772  -4.900  1.00  0.00     0.167 HD
HETATM   14  C5  UNL     1      -7.551  21.870  -5.373  1.00  0.00     0.070 A 
HETATM   15  S1  UNL     1      -6.025  21.822  -6.154  1.00  0.00    -0.064 SA
ENDBRANCH   6  10
BRANCH   8  16
HETATM   16  C6  UNL     1      -1.791  18.461  -4.821  1.00  0.00     0.139 C 
BRANCH  16  17
HETATM   17  C7  UNL     1      -0.934  18.671  -3.607  1.00  0.00     0.048 C 
BRANCH  17  18
HETATM   18  C8  UNL     1      -1.357  19.877  -2.840  1.00  0.00     0.237 C 
BRANCH  18  19
HETATM   19  N6  UNL     1      -1.689  19.558  -1.500  1.00  0.00    -0.047 N 
ATOM     20  H62 UNL     1      -1.718  18.547  -1.372  1.00  0.00     0.280 HD
ATOM     21  H61 UNL     1      -0.917  19.792  -0.876  1.00  0.00     0.280 HD
BRANCH  19  22
HETATM   22  C9  UNL     1      -2.919  20.162  -1.027  1.00  0.00     0.338 C 
HETATM   23  C10 UNL     1      -2.797  21.662  -1.006  1.00  0.00     0.178 C 
HETATM   24  N7  UNL     1      -3.962  22.186  -0.390  1.00  0.00    -0.408 N 
HETATM   25  C14 UNL     1      -4.969  22.707  -1.254  1.00  0.00     0.119 C 
HETATM   26  C15 UNL     1      -5.268  21.641  -2.291  1.00  0.00     0.046 C 
HETATM   27  C16 UNL     1      -5.158  20.262  -1.666  1.00  0.00     0.172 C 
HETATM   28  O1  UNL     1      -3.922  19.701  -1.880  1.00  0.00    -0.358 OA
BRANCH  24  29
HETATM   29  C11 UNL     1      -3.844  22.837   0.855  1.00  0.00     0.125 C 
BRANCH  29  30
HETATM   30  C12 UNL     1      -4.369  22.110   2.058  1.00  0.00     0.136 C 
BRANCH  30  31
HETATM   31  C13 UNL     1      -3.188  21.699   2.947  1.00  0.00     0.389 C 
HETATM   32  F1  UNL     1      -1.999  21.803   2.302  1.00  0.00    -0.171 F 
HETATM   33  F2  UNL     1      -3.149  22.513   4.061  1.00  0.00    -0.171 F 
HETATM   34  F3  UNL     1      -3.346  20.398   3.395  1.00  0.00    -0.171 F 
ENDBRANCH  30  31
ENDBRANCH  29  30
ENDBRANCH  24  29
ENDBRANCH  19  22
ENDBRANCH  18  19
ENDBRANCH  17  18
ENDBRANCH  16  17
ENDBRANCH   8  16
TORSDOF 9
ENDMDL
MODEL 2
REMARK VINA RESULT: -7.176673135      3.908      5.384
REMARK  9 active torsions:
REMARK  status: ('A' for Active; 'I' for Inactive)
REMARK       I    between atoms: C2_5  and  N3_6 
REMARK       I    between atoms: C2_5  and  N5_14 
REMARK    1  A    between atoms: N3_6  and  C3_8 
REMARK    2  A    between atoms: N5_14  and  C6_16 
REMARK    3  A    between atoms: C6_16  and  C7_17 
REMARK    4  A    between atoms: C7_17  and  C8_18 
REMARK    5  A    between atoms: C8_18  and  N6_19 
REMARK    6  A    between atoms: N6_19  and  C9_22 
REMARK    7  A    between atoms: N7_24  and  C11_25 
REMARK    8  A    between atoms: C11_25  and  C12_26 
REMARK    9  A    between atoms: C12_26  and  C13_27 
ROOT
HETATM    1  N1  UNL     1       1.909  16.575  -3.420  1.00  0.00    -0.171 NA
HETATM    2  C1  UNL     1       1.044  17.140  -3.950  1.00  0.00     0.196 C 
HETATM    3  N2  UNL     1       0.022  17.817  -4.588  1.00  0.00    -0.126 N 
ATOM      4  H2  UNL     1      -0.043  17.702  -5.599  1.00  0.00     0.197 HD
HETATM    5  C2  UNL     1      -0.846  18.567  -4.040  1.00  0.00     0.689 C 
HETATM    6  N3  UNL     1      -1.869  19.226  -4.781  1.00  0.00    -0.170 N 
ATOM      7  H3  UNL     1      -1.736  20.185  -5.102  1.00  0.00     0.186 HD
HETATM    8  N5  UNL     1      -0.811  18.762  -2.638  1.00  0.00    -0.225 N 
ATOM      9  H5  UNL     1      -1.320  18.135  -2.014  1.00  0.00     0.177 HD
ENDROOT
BRANCH   6  10
HETATM   10  C3  UNL     1      -2.981  18.589  -5.047  1.00  0.00     0.163 A 
HETATM   11  N4  UNL     1      -3.288  17.344  -4.703  1.00  0.00    -0.346 N 
HETATM   12  C4  UNL     1      -4.442  16.861  -5.056  1.00  0.00     0.097 A 
ATOM     13  H4  UNL     1      -2.630  16.776  -4.171  1.00  0.00     0.167 HD
HETATM   14  C5  UNL     1      -5.287  17.666  -5.769  1.00  0.00     0.070 A 
HETATM   15  S1  UNL     1      -4.366  19.107  -5.902  1.00  0.00    -0.064 SA
ENDBRANCH   6  10
BRANCH   8  16
HETATM   16  C6  UNL     1      -0.034  19.877  -2.097  1.00  0.00     0.139 C 
BRANCH  16  17
HETATM   17  C7  UNL     1      -0.943  20.754  -1.286  1.00  0.00     0.048 C 
BRANCH  17  18
HETATM   18  C8  UNL     1      -2.308  20.167  -1.165  1.00  0.00     0.237 C 
BRANCH  18  19
HETATM   19  N6  UNL     1      -3.128  20.920  -0.288  1.00  0.00    -0.047 N 
ATOM     20  H62 UNL     1      -3.477  20.329   0.467  1.00  0.00     0.280 HD
ATOM     21  H61 UNL     1      -2.564  21.577   0.250  1.00  0.00     0.280 HD
BRANCH  19  22
HETATM   22  C9  UNL     1      -4.224  21.610  -0.937  1.00  0.00     0.338 C 
HETATM   23  C10 UNL     1      -5.333  20.646  -1.265  1.00  0.00     0.178 C 
HETATM   24  N7  UNL     1      -6.301  21.342  -2.035  1.00  0.00    -0.408 N 
HETATM   25  C14 UNL     1      -7.469  21.788  -1.350  1.00  0.00     0.119 C 
HETATM   26  C15 UNL     1      -7.007  22.561  -0.130  1.00  0.00     0.046 C 
HETATM   27  C16 UNL     1      -5.730  23.318  -0.445  1.00  0.00     0.172 C 
HETATM   28  O1  UNL     1      -4.613  22.620  -0.058  1.00  0.00    -0.358 OA
BRANCH  24  29
HETATM   29  C11 UNL     1      -6.499  20.972  -3.382  1.00  0.00     0.125 C 
BRANCH  29  30
HETATM   30  C12 UNL     1      -7.912  20.967  -3.887  1.00  0.00     0.136 C 
BRANCH  30  31
HETATM   31  C13 UNL     1      -7.892  20.954  -5.421  1.00  0.00     0.389 C 
HETATM   32  F1  UNL     1      -6.760  21.503  -5.925  1.00  0.00    -0.171 F 
HETATM   33  F2  UNL     1      -7.977  19.650  -5.867  1.00  0.00    -0.171 F 
HETATM   34  F3  UNL     1      -8.988  21.633  -5.926  1.00  0.00    -0.171 F 
ENDBRANCH  30  31
ENDBRANCH  29  30
ENDBRANCH  24  29
ENDBRANCH  19  22
ENDBRANCH  18  19
ENDBRANCH  17  18
ENDBRANCH  16  17
ENDBRANCH   8  16
TORSDOF 9
ENDMDL
MODEL 3
REMARK VINA RESULT: -7.092489014      2.541      3.412
REMARK  9 active torsions:
REMARK  status: ('A' for Active; 'I' for Inactive)
REMARK       I    between atoms: C2_5  and  N3_6 
REMARK       I    between atoms: C2_5  and  N5_14 
REMARK    1  A    between atoms: N3_6  and  C3_8 
REMARK    2  A    between atoms: N5_14  and  C6_16 
REMARK    3  A    between atoms: C6_16  and  C7_17 
REMARK    4  A    between atoms: C7_17  and  C8_18 
REMARK    5  A    between atoms: C8_18  and  N6_19 
REMARK    6  A    between atoms: N6_19  and  C9_22 
REMARK    7  A    between atoms: N7_24  and  C11_25 
REMARK    8  A    between atoms: C11_25  and  C12_26 
REMARK    9  A    between atoms: C12_26  and  C13_27 
ROOT
HETATM    1  N1  UNL     1      -4.052  15.027  -4.185  1.00  0.00    -0.171 NA
HETATM    2  C1  UNL     1      -4.323  16.006  -4.745  1.00  0.00     0.196 C 
HETATM    3  N2  UNL     1      -4.647  17.168  -5.421  1.00  0.00    -0.126 N 
ATOM      4  H2  UNL     1      -5.417  17.111  -6.087  1.00  0.00     0.197 HD
HETATM    5  C2  UNL     1      -4.081  18.299  -5.296  1.00  0.00     0.689 C 
HETATM    6  N3  UNL     1      -4.485  19.446  -6.037  1.00  0.00    -0.170 N 
ATOM      7  H3  UNL     1      -4.015  19.687  -6.910  1.00  0.00     0.186 HD
HETATM    8  N5  UNL     1      -3.008  18.443  -4.383  1.00  0.00    -0.225 N 
ATOM      9  H5  UNL     1      -3.184  18.699  -3.412  1.00  0.00     0.177 HD
ENDROOT
BRANCH   6  10
HETATM   10  C3  UNL     1      -5.464  20.189  -5.589  1.00  0.00     0.163 A 
HETATM   11  N4  UNL     1      -6.191  19.976  -4.498  1.00  0.00    -0.346 N 
HETATM   12  C4  UNL     1      -7.137  20.816  -4.199  1.00  0.00     0.097 A 
ATOM     13  H4  UNL     1      -6.010  19.168  -3.904  1.00  0.00     0.167 HD
HETATM   14  C5  UNL     1      -7.338  21.883  -5.031  1.00  0.00     0.070 A 
HETATM   15  S1  UNL     1      -6.135  21.625  -6.225  1.00  0.00    -0.064 SA
ENDBRANCH   6  10
BRANCH   8  16
HETATM   16  C6  UNL     1      -1.642  18.217  -4.855  1.00  0.00     0.139 C 
BRANCH  16  17
HETATM   17  C7  UNL     1      -0.876  19.504  -4.762  1.00  0.00     0.048 C 
BRANCH  17  18
HETATM   18  C8  UNL     1       0.376  19.342  -3.969  1.00  0.00     0.237 C 
BRANCH  18  19
HETATM   19  N6  UNL     1       0.115  19.310  -2.576  1.00  0.00    -0.047 N 
ATOM     20  H62 UNL     1      -0.291  18.413  -2.312  1.00  0.00     0.280 HD
ATOM     21  H61 UNL     1       0.989  19.268  -2.052  1.00  0.00     0.280 HD
BRANCH  19  22
HETATM   22  C9  UNL     1      -0.709  20.400  -2.095  1.00  0.00     0.338 C 
HETATM   23  C10 UNL     1      -1.814  19.876  -1.216  1.00  0.00     0.178 C 
HETATM   24  N7  UNL     1      -2.675  20.961  -0.907  1.00  0.00    -0.408 N 
HETATM   25  C14 UNL     1      -2.519  21.562   0.376  1.00  0.00     0.119 C 
HETATM   26  C15 UNL     1      -1.049  21.901   0.538  1.00  0.00     0.046 C 
HETATM   27  C16 UNL     1      -0.461  22.319  -0.797  1.00  0.00     0.172 C 
HETATM   28  O1  UNL     1       0.157  21.271  -1.434  1.00  0.00    -0.358 OA
BRANCH  24  29
HETATM   29  C11 UNL     1      -3.993  20.952  -1.410  1.00  0.00     0.125 C 
BRANCH  29  30
HETATM   30  C12 UNL     1      -4.555  22.265  -1.871  1.00  0.00     0.136 C 
BRANCH  30  31
HETATM   31  C13 UNL     1      -3.784  22.728  -3.114  1.00  0.00     0.389 C 
HETATM   32  F1  UNL     1      -3.315  21.687  -3.845  1.00  0.00    -0.171 F 
HETATM   33  F2  UNL     1      -4.620  23.479  -3.916  1.00  0.00    -0.171 F 
HETATM   34  F3  UNL     1      -2.722  23.541  -2.752  1.00  0.00    -0.171 F 
ENDBRANCH  30  31
ENDBRANCH  29  30
ENDBRANCH  24  29
ENDBRANCH  19  22
ENDBRANCH  18  19
ENDBRANCH  17  18
ENDBRANCH  16  17
ENDBRANCH   8  16
TORSDOF 9
ENDMDL
MODEL 4
REMARK VINA RESULT: -7.058297600      2.293      3.036
REMARK  9 active torsions:
REMARK  status: ('A' for Active; 'I' for Inactive)
REMARK       I    between atoms: C2_5  and  N3_6 
REMARK       I    between atoms: C2_5  and  N5_14 
REMARK    1  A    between atoms: N3_6  and  C3_8 
REMARK    2  A    between atoms: N5_14  and  C6_16 
REMARK    3  A    between atoms: C6_16  and  C7_17 
REMARK    4  A    between atoms: C7_17  and  C8_18 
REMARK    5  A    between atoms: C8_18  and  N6_19 
REMARK    6  A    between atoms: N6_19  and  C9_22 
REMARK    7  A    between atoms: N7_24  and  C11_25 
REMARK    8  A    between atoms: C11_25  and  C12_26 
REMARK    9  A    between atoms: C12_26  and  C13_27 
ROOT
HETATM    1  N1  UNL     1      -4.024  15.062  -4.180  1.00  0.00    -0.171 NA
HETATM    2  C1  UNL     1      -4.290  16.033  -4.755  1.00  0.00     0.196 C 
HETATM    3  N2  UNL     1      -4.608  17.186  -5.449  1.00  0.00    -0.126 N 
ATOM      4  H2  UNL     1      -5.360  17.117  -6.134  1.00  0.00     0.197 HD
HETATM    5  C2  UNL     1      -4.057  18.324  -5.318  1.00  0.00     0.689 C 
HETATM    6  N3  UNL     1      -4.453  19.461  -6.079  1.00  0.00    -0.170 N 
ATOM      7  H3  UNL     1      -3.963  19.700  -6.941  1.00  0.00     0.186 HD
HETATM    8  N5  UNL     1      -3.009  18.486  -4.378  1.00  0.00    -0.225 N 
ATOM      9  H5  UNL     1      -3.214  18.747  -3.414  1.00  0.00     0.177 HD
ENDROOT
BRANCH   6  10
HETATM   10  C3  UNL     1      -5.451  20.197  -5.662  1.00  0.00     0.163 A 
HETATM   11  N4  UNL     1      -6.387  19.849  -4.787  1.00  0.00    -0.346 N 
HETATM   12  C4  UNL     1      -7.318  20.706  -4.487  1.00  0.00     0.097 A 
ATOM     13  H4  UNL     1      -6.377  18.924  -4.357  1.00  0.00     0.167 HD
HETATM   14  C5  UNL     1      -7.285  21.932  -5.094  1.00  0.00     0.070 A 
HETATM   15  S1  UNL     1      -5.892  21.793  -6.084  1.00  0.00    -0.064 SA
ENDBRANCH   6  10
BRANCH   8  16
HETATM   16  C6  UNL     1      -1.629  18.270  -4.813  1.00  0.00     0.139 C 
BRANCH  16  17
HETATM   17  C7  UNL     1      -0.845  19.529  -4.583  1.00  0.00     0.048 C 
BRANCH  17  18
HETATM   18  C8  UNL     1       0.353  19.281  -3.732  1.00  0.00     0.237 C 
BRANCH  18  19
HETATM   19  N6  UNL     1       0.054  19.409  -2.353  1.00  0.00    -0.047 N 
ATOM     20  H62 UNL     1      -0.283  18.522  -1.979  1.00  0.00     0.280 HD
ATOM     21  H61 UNL     1       0.912  19.512  -1.811  1.00  0.00     0.280 HD
BRANCH  19  22
HETATM   22  C9  UNL     1      -0.873  20.476  -2.036  1.00  0.00     0.338 C 
HETATM   23  C10 UNL     1      -1.947  19.982  -1.104  1.00  0.00     0.178 C 
HETATM   24  N7  UNL     1      -2.907  21.017  -0.959  1.00  0.00    -0.408 N 
HETATM   25  C14 UNL     1      -2.833  21.801   0.230  1.00  0.00     0.119 C 
HETATM   26  C15 UNL     1      -1.402  22.289   0.358  1.00  0.00     0.046 C 
HETATM   27  C16 UNL     1      -0.823  22.570  -1.016  1.00  0.00     0.172 C 
HETATM   28  O1  UNL     1      -0.101  21.504  -1.494  1.00  0.00    -0.358 OA
BRANCH  24  29
HETATM   29  C11 UNL     1      -4.207  20.821  -1.469  1.00  0.00     0.125 C 
BRANCH  29  30
HETATM   30  C12 UNL     1      -4.950  22.041  -1.928  1.00  0.00     0.136 C 
BRANCH  30  31
HETATM   31  C13 UNL     1      -6.304  22.100  -1.209  1.00  0.00     0.389 C 
HETATM   32  F1  UNL     1      -6.922  20.893  -1.178  1.00  0.00    -0.171 F 
HETATM   33  F2  UNL     1      -6.113  22.523   0.091  1.00  0.00    -0.171 F 
HETATM   34  F3  UNL     1      -7.140  23.019  -1.822  1.00  0.00    -0.171 F 
ENDBRANCH  30  31
ENDBRANCH  29  30
ENDBRANCH  24  29
ENDBRANCH  19  22
ENDBRANCH  18  19
ENDBRANCH  17  18
ENDBRANCH  16  17
ENDBRANCH   8  16
TORSDOF 9
ENDMDL
MODEL 5
REMARK VINA RESULT: -7.005004034      2.390      3.127
REMARK  9 active torsions:
REMARK  status: ('A' for Active; 'I' for Inactive)
REMARK       I    between atoms: C2_5  and  N3_6 
REMARK       I    between atoms: C2_5  and  N5_14 
REMARK    1  A    between atoms: N3_6  and  C3_8 
REMARK    2  A    between atoms: N5_14  and  C6_16 
REMARK    3  A    between atoms: C6_16  and  C7_17 
REMARK    4  A    between atoms: C7_17  and  C8_18 
REMARK    5  A    between atoms: C8_18  and  N6_19 
REMARK    6  A    between atoms: N6_19  and  C9_22 
REMARK    7  A    between atoms: N7_24  and  C11_25 
REMARK    8  A    between atoms: C11_25  and  C12_26 
REMARK    9  A    between atoms: C12_26  and  C13_27 
ROOT
HETATM    1  N1  UNL     1      -4.056  15.032  -4.192  1.00  0.00    -0.171 NA
HETATM    2  C1  UNL     1      -4.302  15.987  -4.804  1.00  0.00     0.196 C 
HETATM    3  N2  UNL     1      -4.593  17.119  -5.542  1.00  0.00    -0.126 N 
ATOM      4  H2  UNL     1      -5.243  17.005  -6.320  1.00  0.00     0.197 HD
HETATM    5  C2  UNL     1      -4.133  18.288  -5.347  1.00  0.00     0.689 C 
HETATM    6  N3  UNL     1      -4.492  19.400  -6.161  1.00  0.00    -0.170 N 
ATOM      7  H3  UNL     1      -3.908  19.668  -6.953  1.00  0.00     0.186 HD
HETATM    8  N5  UNL     1      -3.230  18.511  -4.279  1.00  0.00    -0.225 N 
ATOM      9  H5  UNL     1      -3.576  18.759  -3.352  1.00  0.00     0.177 HD
ENDROOT
BRANCH   6  10
HETATM   10  C3  UNL     1      -5.579  20.074  -5.885  1.00  0.00     0.163 A 
HETATM   11  N4  UNL     1      -6.724  19.586  -5.422  1.00  0.00    -0.346 N 
HETATM   12  C4  UNL     1      -7.713  20.401  -5.207  1.00  0.00     0.097 A 
ATOM     13  H4  UNL     1      -6.825  18.588  -5.239  1.00  0.00     0.167 HD
HETATM   14  C5  UNL     1      -7.523  21.730  -5.470  1.00  0.00     0.070 A 
HETATM   15  S1  UNL     1      -5.901  21.746  -6.026  1.00  0.00    -0.064 SA
ENDBRANCH   6  10
BRANCH   8  16
HETATM   16  C6  UNL     1      -1.795  18.379  -4.526  1.00  0.00     0.139 C 
BRANCH  16  17
HETATM   17  C7  UNL     1      -1.081  19.522  -3.865  1.00  0.00     0.048 C 
BRANCH  17  18
HETATM   18  C8  UNL     1      -0.673  19.182  -2.472  1.00  0.00     0.237 C 
BRANCH  18  19
HETATM   19  N6  UNL     1       0.015  20.253  -1.850  1.00  0.00    -0.047 N 
ATOM     20  H62 UNL     1       0.564  19.912  -1.061  1.00  0.00     0.280 HD
ATOM     21  H61 UNL     1       0.766  20.591  -2.452  1.00  0.00     0.280 HD
BRANCH  19  22
HETATM   22  C9  UNL     1      -0.834  21.352  -1.436  1.00  0.00     0.338 C 
HETATM   23  C10 UNL     1      -1.499  21.039  -0.123  1.00  0.00     0.178 C 
HETATM   24  N7  UNL     1      -2.433  22.072   0.149  1.00  0.00    -0.408 N 
HETATM   25  C14 UNL     1      -2.030  23.075   1.080  1.00  0.00     0.119 C 
HETATM   26  C15 UNL     1      -0.679  23.593   0.626  1.00  0.00     0.046 C 
HETATM   27  C16 UNL     1      -0.608  23.606  -0.890  1.00  0.00     0.172 C 
HETATM   28  O1  UNL     1      -0.007  22.474  -1.383  1.00  0.00    -0.358 OA
BRANCH  24  29
HETATM   29  C11 UNL     1      -3.809  21.767   0.154  1.00  0.00     0.125 C 
BRANCH  29  30
HETATM   30  C12 UNL     1      -4.616  22.236  -1.021  1.00  0.00     0.136 C 
BRANCH  30  31
HETATM   31  C13 UNL     1      -4.638  21.130  -2.083  1.00  0.00     0.389 C 
HETATM   32  F1  UNL     1      -3.826  21.408  -3.133  1.00  0.00    -0.171 F 
HETATM   33  F2  UNL     1      -4.221  19.942  -1.515  1.00  0.00    -0.171 F 
HETATM   34  F3  UNL     1      -5.927  20.930  -2.550  1.00  0.00    -0.171 F 
ENDBRANCH  30  31
ENDBRANCH  29  30
ENDBRANCH  24  29
ENDBRANCH  19  22
ENDBRANCH  18  19
ENDBRANCH  17  18
ENDBRANCH  16  17
ENDBRANCH   8  16
TORSDOF 9
ENDMDL
