MODEL 1
REMARK VINA RESULT: -7.529923916      0.000      0.000
REMARK  11 active torsions:
REMARK  status: ('A' for Active; 'I' for Inactive)
REMARK    1  A    between atoms: S1_2  and  C2_3 
REMARK    2  A    between atoms: C3_4  and  O1_5 
REMARK    3  A    between atoms: C4_10  and  C5_11 
REMARK    4  A    between atoms: C5_11  and  C6_12 
REMARK    5  A    between atoms: C5_11  and  C8_15 
REMARK       I    between atoms: C8_15  and  N2_17 
REMARK    6  A    between atoms: N2_17  and  C9_19 
REMARK    7  A    between atoms: C9_19  and  C10_20 
REMARK    8  A    between atoms: C9_19  and  C12_26 
REMARK    9  A    between atoms: C10_20  and  C11_22 
REMARK   10  A    between atoms: C15_29  and  N3_30 
REMARK   11  A    between atoms: N3_30  and  N4_32 
ROOT
HETATM    1  C2  UNL     1      23.595   2.211   2.261  1.00  0.00     0.129 C 
HETATM    2  C3  UNL     1      24.402   2.347   3.527  1.00  0.00     0.335 C 
HETATM    3  N1  UNL     1      24.266   1.060   4.217  1.00  0.00    -0.040 N 
ATOM      4  H11 UNL     1      23.927   1.143   5.176  1.00  0.00     0.280 HD
ATOM      5  H12 UNL     1      25.159   0.620   4.443  1.00  0.00     0.280 HD
HETATM    6  C4  UNL     1      23.413   0.247   3.362  1.00  0.00     0.234 C 
HETATM    7  C15 UNL     1      22.538   1.221   2.686  1.00  0.00     0.150 C 
ENDROOT
BRANCH   6   8
HETATM    8  C5  UNL     1      22.813  -0.897   4.050  1.00  0.00     0.179 C 
BRANCH   8   9
HETATM    9  C6  UNL     1      23.253  -0.969   5.449  1.00  0.00     0.138 C 
HETATM   10  C7  UNL     1      22.131  -0.703   6.453  1.00  0.00     0.091 C 
HETATM   11  O2  UNL     1      24.367  -1.213   5.864  1.00  0.00    -0.297 OA
ENDBRANCH   8   9
BRANCH   8  12
HETATM   12  C8  UNL     1      22.845  -2.184   3.418  1.00  0.00     0.231 C 
HETATM   13  O3  UNL     1      23.858  -2.746   2.874  1.00  0.00    -0.273 OA
HETATM   14  N2  UNL     1      21.634  -2.916   3.358  1.00  0.00    -0.348 N 
ATOM     15  H2  UNL     1      20.829  -2.457   3.784  1.00  0.00     0.163 HD
BRANCH  14  16
HETATM   16  C9  UNL     1      21.366  -4.207   2.788  1.00  0.00     0.167 C 
BRANCH  16  17
HETATM   17  C10 UNL     1      20.425  -4.947   3.666  1.00  0.00     0.255 C 
HETATM   18  O4  UNL     1      19.693  -4.385   4.454  1.00  0.00    -0.286 OA
BRANCH  17  19
HETATM   19  C11 UNL     1      20.383  -6.436   3.593  1.00  0.00     0.453 C 
HETATM   20  F1  UNL     1      21.744  -6.805   3.496  1.00  0.00    -0.163 F 
HETATM   21  F2  UNL     1      19.924  -6.977   4.787  1.00  0.00    -0.163 F 
HETATM   22  F3  UNL     1      19.702  -6.969   2.555  1.00  0.00    -0.163 F 
ENDBRANCH  17  19
ENDBRANCH  16  17
BRANCH  16  23
HETATM   23  C12 UNL     1      21.123  -4.193   1.344  1.00  0.00     0.008 C 
HETATM   24  C13 UNL     1      22.263  -4.761   0.527  1.00  0.00     0.012 C 
HETATM   25  C14 UNL     1      20.915  -2.716   0.894  1.00  0.00     0.012 C 
ENDBRANCH  16  23
ENDBRANCH  14  16
ENDBRANCH   8  12
ENDBRANCH   6   8
BRANCH   7  26
HETATM   26  N3  UNL     1      21.636   1.735   3.676  1.00  0.00    -0.314 N 
ATOM     27  H3  UNL     1      21.940   1.934   4.629  1.00  0.00     0.182 HD
BRANCH  26  28
HETATM   28  N4  UNL     1      20.472   1.924   3.312  1.00  0.00    -0.253 N 
HETATM   29  N5  UNL     1      19.657   2.356   2.482  1.00  0.00    -0.331 N 
ATOM     30  H52 UNL     1      20.262   2.736   1.754  1.00  0.00     0.178 HD
ATOM     31  H51 UNL     1      18.695   2.513   2.182  1.00  0.00     0.178 HD
ATOM     32  H4  UNL     1      19.899   1.534   4.060  1.00  0.00     0.207 HD
ENDBRANCH  26  28
ENDBRANCH   7  26
BRANCH   2  33
HETATM   33  O1  UNL     1      25.756   2.496   3.311  1.00  0.00    -0.369 OA
ATOM     34  H1  UNL     1      26.295   1.924   3.845  1.00  0.00     0.212 HD
ENDBRANCH   2  33
BRANCH   1  35
HETATM   35  S1  UNL     1      22.971   3.683   1.510  1.00  0.00    -0.162 SA
HETATM   36  C1  UNL     1      22.841   5.018   2.703  1.00  0.00     0.090 C 
ENDBRANCH   1  35
TORSDOF 11
ENDMDL
MODEL 2
REMARK VINA RESULT: -7.421105651      1.744      2.260
REMARK  11 active torsions:
REMARK  status: ('A' for Active; 'I' for Inactive)
REMARK    1  A    between atoms: S1_2  and  C2_3 
REMARK    2  A    between atoms: C3_4  and  O1_5 
REMARK    3  A    between atoms: C4_10  and  C5_11 
REMARK    4  A    between atoms: C5_11  and  C6_12 
REMARK    5  A    between atoms: C5_11  and  C8_15 
REMARK       I    between atoms: C8_15  and  N2_17 
REMARK    6  A    between atoms: N2_17  and  C9_19 
REMARK    7  A    between atoms: C9_19  and  C10_20 
REMARK    8  A    between atoms: C9_19  and  C12_26 
REMARK    9  A    between atoms: C10_20  and  C11_22 
REMARK   10  A    between atoms: C15_29  and  N3_30 
REMARK   11  A    between atoms: N3_30  and  N4_32 
ROOT
HETATM    1  C2  UNL     1      24.242   1.922   3.334  1.00  0.00     0.129 C 
HETATM    2  C3  UNL     1      22.914   2.533   3.700  1.00  0.00     0.335 C 
HETATM    3  N1  UNL     1      22.200   1.494   4.451  1.00  0.00    -0.040 N 
ATOM      4  H11 UNL     1      21.279   1.275   4.072  1.00  0.00     0.280 HD
ATOM      5  H12 UNL     1      21.882   1.800   5.371  1.00  0.00     0.280 HD
HETATM    6  C4  UNL     1      23.103   0.353   4.493  1.00  0.00     0.234 C 
HETATM    7  C15 UNL     1      23.883   0.458   3.247  1.00  0.00     0.150 C 
ENDROOT
BRANCH   6   8
HETATM    8  C5  UNL     1      22.438  -0.910   4.815  1.00  0.00     0.179 C 
BRANCH   8   9
HETATM    9  C6  UNL     1      22.576  -1.237   6.240  1.00  0.00     0.138 C 
HETATM   10  C7  UNL     1      23.720  -0.490   6.927  1.00  0.00     0.091 C 
HETATM   11  O2  UNL     1      21.899  -2.003   6.894  1.00  0.00    -0.297 OA
ENDBRANCH   8   9
BRANCH   8  12
HETATM   12  C8  UNL     1      22.675  -2.054   3.984  1.00  0.00     0.231 C 
HETATM   13  O3  UNL     1      23.786  -2.395   3.449  1.00  0.00    -0.273 OA
HETATM   14  N2  UNL     1      21.572  -2.894   3.693  1.00  0.00    -0.348 N 
ATOM     15  H2  UNL     1      20.687  -2.609   4.114  1.00  0.00     0.163 HD
BRANCH  14  16
HETATM   16  C9  UNL     1      21.509  -4.086   2.894  1.00  0.00     0.167 C 
BRANCH  16  17
HETATM   17  C10 UNL     1      20.609  -5.070   3.548  1.00  0.00     0.255 C 
HETATM   18  O4  UNL     1      19.736  -4.737   4.322  1.00  0.00    -0.286 OA
BRANCH  17  19
HETATM   19  C11 UNL     1      20.789  -6.522   3.261  1.00  0.00     0.453 C 
HETATM   20  F1  UNL     1      20.139  -7.160   4.342  1.00  0.00    -0.163 F 
HETATM   21  F2  UNL     1      20.088  -6.892   2.121  1.00  0.00    -0.163 F 
HETATM   22  F3  UNL     1      22.063  -6.966   3.183  1.00  0.00    -0.163 F 
ENDBRANCH  17  19
ENDBRANCH  16  17
BRANCH  16  23
HETATM   23  C12 UNL     1      21.367  -3.845   1.457  1.00  0.00     0.008 C 
HETATM   24  C13 UNL     1      22.678  -3.871   0.701  1.00  0.00     0.012 C 
HETATM   25  C14 UNL     1      20.737  -2.436   1.253  1.00  0.00     0.012 C 
ENDBRANCH  16  23
ENDBRANCH  14  16
ENDBRANCH   8  12
ENDBRANCH   6   8
BRANCH   7  26
HETATM   26  N3  UNL     1      22.995   0.148   2.165  1.00  0.00    -0.314 N 
ATOM     27  H3  UNL     1      21.992   0.329   2.224  1.00  0.00     0.182 HD
BRANCH  26  28
HETATM   28  N4  UNL     1      23.507  -0.348   1.158  1.00  0.00    -0.253 N 
HETATM   29  N5  UNL     1      23.673  -0.365  -0.071  1.00  0.00    -0.331 N 
ATOM     30  H52 UNL     1      23.101   0.419  -0.384  1.00  0.00     0.178 HD
ATOM     31  H51 UNL     1      24.097  -0.775  -0.904  1.00  0.00     0.178 HD
ATOM     32  H4  UNL     1      24.069  -1.123   1.508  1.00  0.00     0.207 HD
ENDBRANCH  26  28
ENDBRANCH   7  26
BRANCH   2  33
HETATM   33  O1  UNL     1      23.012   3.599   4.569  1.00  0.00    -0.369 OA
ATOM     34  H1  UNL     1      22.459   4.336   4.337  1.00  0.00     0.212 HD
ENDBRANCH   2  33
BRANCH   1  35
HETATM   35  S1  UNL     1      25.090   2.560   1.921  1.00  0.00    -0.162 SA
HETATM   36  C1  UNL     1      26.638   1.695   1.643  1.00  0.00     0.090 C 
ENDBRANCH   1  35
TORSDOF 11
ENDMDL
MODEL 3
REMARK VINA RESULT: -7.385284494      1.571      2.418
REMARK  11 active torsions:
REMARK  status: ('A' for Active; 'I' for Inactive)
REMARK    1  A    between atoms: S1_2  and  C2_3 
REMARK    2  A    between atoms: C3_4  and  O1_5 
REMARK    3  A    between atoms: C4_10  and  C5_11 
REMARK    4  A    between atoms: C5_11  and  C6_12 
REMARK    5  A    between atoms: C5_11  and  C8_15 
REMARK       I    between atoms: C8_15  and  N2_17 
REMARK    6  A    between atoms: N2_17  and  C9_19 
REMARK    7  A    between atoms: C9_19  and  C10_20 
REMARK    8  A    between atoms: C9_19  and  C12_26 
REMARK    9  A    between atoms: C10_20  and  C11_22 
REMARK   10  A    between atoms: C15_29  and  N3_30 
REMARK   11  A    between atoms: N3_30  and  N4_32 
ROOT
HETATM    1  C2  UNL     1      22.164   2.560   3.273  1.00  0.00     0.129 C 
HETATM    2  C3  UNL     1      21.335   1.685   2.369  1.00  0.00     0.335 C 
HETATM    3  N1  UNL     1      21.198   0.408   3.079  1.00  0.00    -0.040 N 
ATOM      4  H11 UNL     1      21.499  -0.399   2.533  1.00  0.00     0.280 HD
ATOM      5  H12 UNL     1      20.231   0.112   3.207  1.00  0.00     0.280 HD
HETATM    6  C4  UNL     1      21.929   0.576   4.327  1.00  0.00     0.234 C 
HETATM    7  C15 UNL     1      23.000   1.533   3.998  1.00  0.00     0.150 C 
ENDROOT
BRANCH   6   8
HETATM    8  C5  UNL     1      22.274  -0.687   4.980  1.00  0.00     0.179 C 
BRANCH   8   9
HETATM    9  C6  UNL     1      23.276  -0.487   6.034  1.00  0.00     0.138 C 
HETATM   10  C7  UNL     1      22.909  -1.161   7.357  1.00  0.00     0.091 C 
HETATM   11  O2  UNL     1      24.319   0.128   5.959  1.00  0.00    -0.297 OA
ENDBRANCH   8   9
BRANCH   8  12
HETATM   12  C8  UNL     1      22.581  -1.828   4.168  1.00  0.00     0.231 C 
HETATM   13  O3  UNL     1      23.717  -2.122   3.657  1.00  0.00    -0.273 OA
HETATM   14  N2  UNL     1      21.525  -2.724   3.867  1.00  0.00    -0.348 N 
ATOM     15  H2  UNL     1      20.621  -2.477   4.268  1.00  0.00     0.163 HD
BRANCH  14  16
HETATM   16  C9  UNL     1      21.534  -3.927   3.083  1.00  0.00     0.167 C 
BRANCH  16  17
HETATM   17  C10 UNL     1      20.567  -4.896   3.656  1.00  0.00     0.255 C 
HETATM   18  O4  UNL     1      19.653  -4.551   4.376  1.00  0.00    -0.286 OA
BRANCH  17  19
HETATM   19  C11 UNL     1      20.727  -6.347   3.354  1.00  0.00     0.453 C 
HETATM   20  F1  UNL     1      20.051  -6.987   4.419  1.00  0.00    -0.163 F 
HETATM   21  F2  UNL     1      20.035  -6.692   2.200  1.00  0.00    -0.163 F 
HETATM   22  F3  UNL     1      21.994  -6.812   3.288  1.00  0.00    -0.163 F 
ENDBRANCH  17  19
ENDBRANCH  16  17
BRANCH  16  23
HETATM   23  C12 UNL     1      21.540  -3.706   1.635  1.00  0.00     0.008 C 
HETATM   24  C13 UNL     1      22.926  -3.665   1.028  1.00  0.00     0.012 C 
HETATM   25  C14 UNL     1      20.861  -2.335   1.343  1.00  0.00     0.012 C 
ENDBRANCH  16  23
ENDBRANCH  14  16
ENDBRANCH   8  12
ENDBRANCH   6   8
BRANCH   7  26
HETATM   26  N3  UNL     1      23.931   0.849   3.150  1.00  0.00    -0.314 N 
ATOM     27  H3  UNL     1      23.654   0.045   2.587  1.00  0.00     0.182 HD
BRANCH  26  28
HETATM   28  N4  UNL     1      25.086   1.285   3.137  1.00  0.00    -0.253 N 
HETATM   29  N5  UNL     1      26.044   1.784   2.528  1.00  0.00    -0.331 N 
ATOM     30  H52 UNL     1      25.684   1.868   1.577  1.00  0.00     0.178 HD
ATOM     31  H51 UNL     1      26.998   2.144   2.517  1.00  0.00     0.178 HD
ATOM     32  H4  UNL     1      25.412   1.186   4.098  1.00  0.00     0.207 HD
ENDBRANCH  26  28
ENDBRANCH   7  26
BRANCH   2  33
HETATM   33  O1  UNL     1      20.044   2.134   2.189  1.00  0.00    -0.369 OA
ATOM     34  H1  UNL     1      19.463   1.488   1.802  1.00  0.00     0.212 HD
ENDBRANCH   2  33
BRANCH   1  35
HETATM   35  S1  UNL     1      23.084   3.878   2.539  1.00  0.00    -0.162 SA
HETATM   36  C1  UNL     1      23.622   5.065   3.774  1.00  0.00     0.090 C 
ENDBRANCH   1  35
TORSDOF 11
ENDMDL
MODEL 4
REMARK VINA RESULT: -7.355846671      1.246      1.480
REMARK  11 active torsions:
REMARK  status: ('A' for Active; 'I' for Inactive)
REMARK    1  A    between atoms: S1_2  and  C2_3 
REMARK    2  A    between atoms: C3_4  and  O1_5 
REMARK    3  A    between atoms: C4_10  and  C5_11 
REMARK    4  A    between atoms: C5_11  and  C6_12 
REMARK    5  A    between atoms: C5_11  and  C8_15 
REMARK       I    between atoms: C8_15  and  N2_17 
REMARK    6  A    between atoms: N2_17  and  C9_19 
REMARK    7  A    between atoms: C9_19  and  C10_20 
REMARK    8  A    between atoms: C9_19  and  C12_26 
REMARK    9  A    between atoms: C10_20  and  C11_22 
REMARK   10  A    between atoms: C15_29  and  N3_30 
REMARK   11  A    between atoms: N3_30  and  N4_32 
ROOT
HETATM    1  C2  UNL     1      23.064   2.280   2.609  1.00  0.00     0.129 C 
HETATM    2  C3  UNL     1      22.529   2.889   3.879  1.00  0.00     0.335 C 
HETATM    3  N1  UNL     1      22.431   1.779   4.833  1.00  0.00    -0.040 N 
ATOM      4  H11 UNL     1      21.503   1.671   5.242  1.00  0.00     0.280 HD
ATOM      5  H12 UNL     1      22.929   1.945   5.708  1.00  0.00     0.280 HD
HETATM    6  C4  UNL     1      22.893   0.602   4.111  1.00  0.00     0.234 C 
HETATM    7  C15 UNL     1      22.534   0.870   2.707  1.00  0.00     0.150 C 
ENDROOT
BRANCH   6   8
HETATM    8  C5  UNL     1      22.483  -0.661   4.725  1.00  0.00     0.179 C 
BRANCH   8   9
HETATM    9  C6  UNL     1      22.891  -0.727   6.133  1.00  0.00     0.138 C 
HETATM   10  C7  UNL     1      22.207  -1.851   6.912  1.00  0.00     0.091 C 
HETATM   11  O2  UNL     1      23.684  -0.013   6.710  1.00  0.00    -0.297 OA
ENDBRANCH   8   9
BRANCH   8  12
HETATM   12  C8  UNL     1      22.755  -1.890   4.037  1.00  0.00     0.231 C 
HETATM   13  O3  UNL     1      23.899  -2.315   3.651  1.00  0.00    -0.273 OA
HETATM   14  N2  UNL     1      21.654  -2.724   3.721  1.00  0.00    -0.348 N 
ATOM     15  H2  UNL     1      20.745  -2.373   4.023  1.00  0.00     0.163 HD
BRANCH  14  16
HETATM   16  C9  UNL     1      21.622  -3.988   3.041  1.00  0.00     0.167 C 
BRANCH  16  17
HETATM   17  C10 UNL     1      20.673  -4.896   3.732  1.00  0.00     0.255 C 
HETATM   18  O4  UNL     1      19.869  -4.495   4.548  1.00  0.00    -0.286 OA
BRANCH  17  19
HETATM   19  C11 UNL     1      20.713  -6.355   3.431  1.00  0.00     0.453 C 
HETATM   20  F1  UNL     1      20.062  -6.945   4.539  1.00  0.00    -0.163 F 
HETATM   21  F2  UNL     1      19.930  -6.654   2.324  1.00  0.00    -0.163 F 
HETATM   22  F3  UNL     1      21.939  -6.907   3.291  1.00  0.00    -0.163 F 
ENDBRANCH  17  19
ENDBRANCH  16  17
BRANCH  16  23
HETATM   23  C12 UNL     1      21.570  -3.889   1.580  1.00  0.00     0.008 C 
HETATM   24  C13 UNL     1      22.930  -3.893   0.918  1.00  0.00     0.012 C 
HETATM   25  C14 UNL     1      20.869  -2.550   1.203  1.00  0.00     0.012 C 
ENDBRANCH  16  23
ENDBRANCH  14  16
ENDBRANCH   8  12
ENDBRANCH   6   8
BRANCH   7  26
HETATM   26  N3  UNL     1      21.106   0.787   2.613  1.00  0.00    -0.314 N 
ATOM     27  H3  UNL     1      20.509   0.837   3.439  1.00  0.00     0.182 HD
BRANCH  26  28
HETATM   28  N4  UNL     1      20.636   0.652   1.480  1.00  0.00    -0.253 N 
HETATM   29  N5  UNL     1      19.768   0.914   0.633  1.00  0.00    -0.331 N 
ATOM     30  H52 UNL     1      19.151   1.551   1.137  1.00  0.00     0.178 HD
ATOM     31  H51 UNL     1      19.381   0.803  -0.304  1.00  0.00     0.178 HD
ATOM     32  H4  UNL     1      21.276   0.013   1.008  1.00  0.00     0.207 HD
ENDBRANCH  26  28
ENDBRANCH   7  26
BRANCH   2  33
HETATM   33  O1  UNL     1      23.388   3.792   4.469  1.00  0.00    -0.369 OA
ATOM     34  H1  UNL     1      23.645   3.557   5.354  1.00  0.00     0.212 HD
ENDBRANCH   2  33
BRANCH   1  35
HETATM   35  S1  UNL     1      22.713   3.098   1.083  1.00  0.00    -0.162 SA
HETATM   36  C1  UNL     1      21.366   4.271   1.267  1.00  0.00     0.090 C 
ENDBRANCH   1  35
TORSDOF 11
ENDMDL
MODEL 5
REMARK VINA RESULT: -6.946540191      2.554      3.401
REMARK  11 active torsions:
REMARK  status: ('A' for Active; 'I' for Inactive)
REMARK    1  A    between atoms: S1_2  and  C2_3 
REMARK    2  A    between atoms: C3_4  and  O1_5 
REMARK    3  A    between atoms: C4_10  and  C5_11 
REMARK    4  A    between atoms: C5_11  and  C6_12 
REMARK    5  A    between atoms: C5_11  and  C8_15 
REMARK       I    between atoms: C8_15  and  N2_17 
REMARK    6  A    between atoms: N2_17  and  C9_19 
REMARK    7  A    between atoms: C9_19  and  C10_20 
REMARK    8  A    between atoms: C9_19  and  C12_26 
REMARK    9  A    between atoms: C10_20  and  C11_22 
REMARK   10  A    between atoms: C15_29  and  N3_30 
REMARK   11  A    between atoms: N3_30  and  N4_32 
ROOT
HETATM    1  C2  UNL     1      21.551   3.864   3.527  1.00  0.00     0.129 C 
HETATM    2  C3  UNL     1      20.612   3.196   2.556  1.00  0.00     0.335 C 
HETATM    3  N1  UNL     1      20.701   1.761   2.850  1.00  0.00    -0.040 N 
ATOM      4  H11 UNL     1      20.934   1.190   2.038  1.00  0.00     0.280 HD
ATOM      5  H12 UNL     1      19.799   1.327   3.047  1.00  0.00     0.280 HD
HETATM    6  C4  UNL     1      21.657   1.646   3.942  1.00  0.00     0.234 C 
HETATM    7  C15 UNL     1      22.578   2.779   3.743  1.00  0.00     0.150 C 
ENDROOT
BRANCH   6   8
HETATM    8  C5  UNL     1      22.205   0.299   4.101  1.00  0.00     0.179 C 
BRANCH   8   9
HETATM    9  C6  UNL     1      23.192   0.249   5.187  1.00  0.00     0.138 C 
HETATM   10  C7  UNL     1      22.758  -0.626   6.363  1.00  0.00     0.091 C 
HETATM   11  O2  UNL     1      24.269   0.805   5.235  1.00  0.00    -0.297 OA
ENDBRANCH   8   9
BRANCH   8  12
HETATM   12  C8  UNL     1      22.659  -0.410   2.941  1.00  0.00     0.231 C 
HETATM   13  O3  UNL     1      23.860  -0.472   2.502  1.00  0.00    -0.273 OA
HETATM   14  N2  UNL     1      21.690  -1.101   2.171  1.00  0.00    -0.348 N 
ATOM     15  H2  UNL     1      20.734  -1.037   2.521  1.00  0.00     0.163 HD
BRANCH  14  16
HETATM   16  C9  UNL     1      21.849  -1.876   0.973  1.00  0.00     0.167 C 
BRANCH  16  17
HETATM   17  C10 UNL     1      21.508  -3.293   1.255  1.00  0.00     0.255 C 
HETATM   18  O4  UNL     1      20.587  -3.608   1.980  1.00  0.00    -0.286 OA
BRANCH  17  19
HETATM   19  C11 UNL     1      22.332  -4.374   0.643  1.00  0.00     0.453 C 
HETATM   20  F1  UNL     1      23.652  -4.055   1.039  1.00  0.00    -0.163 F 
HETATM   21  F2  UNL     1      22.047  -5.604   1.222  1.00  0.00    -0.163 F 
HETATM   22  F3  UNL     1      22.285  -4.477  -0.704  1.00  0.00    -0.163 F 
ENDBRANCH  17  19
ENDBRANCH  16  17
BRANCH  16  23
HETATM   23  C12 UNL     1      21.307  -1.245  -0.233  1.00  0.00     0.008 C 
HETATM   24  C13 UNL     1      22.321  -0.426  -1.002  1.00  0.00     0.012 C 
HETATM   25  C14 UNL     1      20.154  -0.287   0.188  1.00  0.00     0.012 C 
ENDBRANCH  16  23
ENDBRANCH  14  16
ENDBRANCH   8  12
ENDBRANCH   6   8
BRANCH   7  26
HETATM   26  N3  UNL     1      23.358   2.488   2.576  1.00  0.00    -0.314 N 
ATOM     27  H3  UNL     1      22.924   2.253   1.683  1.00  0.00     0.182 HD
BRANCH  26  28
HETATM   28  N4  UNL     1      24.585   2.538   2.708  1.00  0.00    -0.253 N 
HETATM   29  N5  UNL     1      25.687   1.972   2.775  1.00  0.00    -0.331 N 
ATOM     30  H52 UNL     1      25.439   0.988   2.664  1.00  0.00     0.178 HD
ATOM     31  H51 UNL     1      26.700   2.013   2.884  1.00  0.00     0.178 HD
ATOM     32  H4  UNL     1      24.794   3.529   2.816  1.00  0.00     0.207 HD
ENDBRANCH  26  28
ENDBRANCH   7  26
BRANCH   2  33
HETATM   33  O1  UNL     1      19.285   3.519   2.751  1.00  0.00    -0.369 OA
ATOM     34  H1  UNL     1      18.695   3.112   2.128  1.00  0.00     0.212 HD
ENDBRANCH   2  33
BRANCH   1  35
HETATM   35  S1  UNL     1      22.219   5.439   3.087  1.00  0.00    -0.162 SA
HETATM   36  C1  UNL     1      23.674   5.826   4.065  1.00  0.00     0.090 C 
ENDBRANCH   1  35
TORSDOF 11
ENDMDL
