MODEL 1
REMARK VINA RESULT: -5.623650464      0.000      0.000
REMARK  2 active torsions:
REMARK  status: ('A' for Active; 'I' for Inactive)
REMARK    1  A    between atoms: O1_1  and  N1_3 
REMARK    2  A    between atoms: N2_5  and  N3_7 
ROOT
HETATM    1  N3  UNL     1      21.140  43.377 -10.195  1.00  0.00    -0.312 N 
HETATM    2  C1  UNL     1      21.478  44.435  -9.272  1.00  0.00     0.144 C 
HETATM    3  C2  UNL     1      22.926  44.218  -8.880  1.00  0.00     0.021 C 
HETATM    4  C3  UNL     1      23.716  44.374 -10.182  1.00  0.00     0.003 C 
HETATM    5  C4  UNL     1      23.453  43.169 -11.009  1.00  0.00     0.021 C 
HETATM    6  C5  UNL     1      22.038  42.739 -11.098  1.00  0.00     0.144 C 
ENDROOT
BRANCH   1   7
HETATM    7  N2  UNL     1      19.802  42.946 -10.194  1.00  0.00    -0.225 N 
HETATM    8  N1  UNL     1      18.835  43.729 -10.389  1.00  0.00    -0.196 N 
ATOM      9  H1  UNL     1      18.976  44.724 -10.560  1.00  0.00     0.217 HD
ATOM     10  H2  UNL     1      19.606  41.958 -10.027  1.00  0.00     0.210 HD
BRANCH   8  11
HETATM   11  O1  UNL     1      17.570  43.167 -10.360  1.00  0.00    -0.273 OA
ATOM     12  H1  UNL     1      16.941  43.507 -10.986  1.00  0.00     0.246 HD
ENDBRANCH   8  11
ENDBRANCH   1   7
TORSDOF 2
ENDMDL
MODEL 2
REMARK VINA RESULT: -5.582337838      0.488      1.728
REMARK  2 active torsions:
REMARK  status: ('A' for Active; 'I' for Inactive)
REMARK    1  A    between atoms: O1_1  and  N1_3 
REMARK    2  A    between atoms: N2_5  and  N3_7 
ROOT
HETATM    1  N3  UNL     1      21.046  43.482  -9.893  1.00  0.00    -0.312 N 
HETATM    2  C1  UNL     1      22.053  42.782 -10.656  1.00  0.00     0.144 C 
HETATM    3  C2  UNL     1      23.138  43.793 -10.967  1.00  0.00     0.021 C 
HETATM    4  C3  UNL     1      23.696  44.207  -9.603  1.00  0.00     0.003 C 
HETATM    5  C4  UNL     1      22.676  45.065  -8.946  1.00  0.00     0.021 C 
HETATM    6  C5  UNL     1      21.279  44.576  -9.010  1.00  0.00     0.144 C 
ENDROOT
BRANCH   1   7
HETATM    7  N2  UNL     1      19.721  43.036 -10.041  1.00  0.00    -0.225 N 
HETATM    8  N1  UNL     1      18.773  43.809 -10.339  1.00  0.00    -0.196 N 
ATOM      9  H1  UNL     1      18.920  44.807 -10.489  1.00  0.00     0.217 HD
ATOM     10  H2  UNL     1      19.520  42.045  -9.901  1.00  0.00     0.210 HD
BRANCH   8  11
HETATM   11  O1  UNL     1      17.519  43.233 -10.452  1.00  0.00    -0.273 OA
ATOM     12  H1  UNL     1      16.778  43.829 -10.456  1.00  0.00     0.246 HD
ENDBRANCH   8  11
ENDBRANCH   1   7
TORSDOF 2
ENDMDL
MODEL 3
REMARK VINA RESULT: -5.401190135      2.144      2.482
REMARK  2 active torsions:
REMARK  status: ('A' for Active; 'I' for Inactive)
REMARK    1  A    between atoms: O1_1  and  N1_3 
REMARK    2  A    between atoms: N2_5  and  N3_7 
ROOT
HETATM    1  N3  UNL     1      20.560  44.816  -9.700  1.00  0.00    -0.312 N 
HETATM    2  C1  UNL     1      21.964  45.154  -9.693  1.00  0.00     0.144 C 
HETATM    3  C2  UNL     1      22.691  43.960  -9.109  1.00  0.00     0.021 C 
HETATM    4  C3  UNL     1      22.425  42.816 -10.090  1.00  0.00     0.003 C 
HETATM    5  C4  UNL     1      21.007  42.406  -9.922  1.00  0.00     0.021 C 
HETATM    6  C5  UNL     1      20.018  43.506  -9.847  1.00  0.00     0.144 C 
ENDROOT
BRANCH   1   7
HETATM    7  N2  UNL     1      19.655  45.882  -9.549  1.00  0.00    -0.225 N 
HETATM    8  N1  UNL     1      18.937  46.304 -10.495  1.00  0.00    -0.196 N 
ATOM      9  H1  UNL     1      18.977  45.889 -11.425  1.00  0.00     0.217 HD
ATOM     10  H2  UNL     1      19.577  46.332  -8.637  1.00  0.00     0.210 HD
BRANCH   8  11
HETATM   11  O1  UNL     1      18.092  47.361 -10.204  1.00  0.00    -0.273 OA
ATOM     12  H1  UNL     1      17.534  47.664 -10.911  1.00  0.00     0.246 HD
ENDBRANCH   8  11
ENDBRANCH   1   7
TORSDOF 2
ENDMDL
MODEL 4
REMARK VINA RESULT: -5.137784668      3.349      4.138
REMARK  2 active torsions:
REMARK  status: ('A' for Active; 'I' for Inactive)
REMARK    1  A    between atoms: O1_1  and  N1_3 
REMARK    2  A    between atoms: N2_5  and  N3_7 
ROOT
HETATM    1  N3  UNL     1      21.934  44.829  -9.168  1.00  0.00    -0.312 N 
HETATM    2  C1  UNL     1      22.576  44.063 -10.211  1.00  0.00     0.144 C 
HETATM    3  C2  UNL     1      22.084  42.638 -10.063  1.00  0.00     0.021 C 
HETATM    4  C3  UNL     1      20.575  42.711 -10.308  1.00  0.00     0.003 C 
HETATM    5  C4  UNL     1      19.962  43.357  -9.119  1.00  0.00     0.021 C 
HETATM    6  C5  UNL     1      20.648  44.569  -8.613  1.00  0.00     0.144 C 
ENDROOT
BRANCH   1   7
HETATM    7  N2  UNL     1      22.652  45.927  -8.661  1.00  0.00    -0.225 N 
HETATM    8  N1  UNL     1      22.088  46.960  -8.214  1.00  0.00    -0.196 N 
ATOM      9  H1  UNL     1      21.073  47.053  -8.197  1.00  0.00     0.217 HD
ATOM     10  H2  UNL     1      23.672  45.884  -8.656  1.00  0.00     0.210 HD
BRANCH   8  11
HETATM   11  O1  UNL     1      22.919  47.964  -7.747  1.00  0.00    -0.273 OA
ATOM     12  H1  UNL     1      23.299  48.539  -8.402  1.00  0.00     0.246 HD
ENDBRANCH   8  11
ENDBRANCH   1   7
TORSDOF 2
ENDMDL
MODEL 5
REMARK VINA RESULT: -5.102752875      6.814      7.428
REMARK  2 active torsions:
REMARK  status: ('A' for Active; 'I' for Inactive)
REMARK    1  A    between atoms: O1_1  and  N1_3 
REMARK    2  A    between atoms: N2_5  and  N3_7 
ROOT
HETATM    1  N3  UNL     1      24.509  48.989  -7.513  1.00  0.00    -0.312 N 
HETATM    2  C1  UNL     1      24.952  50.361  -7.606  1.00  0.00     0.144 C 
HETATM    3  C2  UNL     1      26.332  50.327  -8.231  1.00  0.00     0.021 C 
HETATM    4  C3  UNL     1      26.120  49.739  -9.629  1.00  0.00     0.003 C 
HETATM    5  C4  UNL     1      25.837  48.290  -9.465  1.00  0.00     0.021 C 
HETATM    6  C5  UNL     1      24.867  47.935  -8.403  1.00  0.00     0.144 C 
ENDROOT
BRANCH   1   7
HETATM    7  N2  UNL     1      23.650  48.677  -6.445  1.00  0.00    -0.225 N 
HETATM    8  N1  UNL     1      23.974  48.845  -5.240  1.00  0.00    -0.196 N 
ATOM      9  H1  UNL     1      24.885  49.220  -4.976  1.00  0.00     0.217 HD
ATOM     10  H2  UNL     1      22.726  48.299  -6.656  1.00  0.00     0.210 HD
BRANCH   8  11
HETATM   11  O1  UNL     1      23.029  48.494  -4.291  1.00  0.00    -0.273 OA
ATOM     12  H1  UNL     1      22.659  47.621  -4.364  1.00  0.00     0.246 HD
ENDBRANCH   8  11
ENDBRANCH   1   7
TORSDOF 2
ENDMDL
