MODEL 1
REMARK VINA RESULT: -4.749832061      0.000      0.000
REMARK  3 active torsions:
REMARK  status: ('A' for Active; 'I' for Inactive)
REMARK    1  A    between atoms: O1_2  and  N1_3 
REMARK    2  A    between atoms: N1_3  and  C2_5 
REMARK    3  A    between atoms: C2_5  and  C3_9 
ROOT
HETATM    1  C3  UNL     1      26.004  50.006  -5.573  1.00  0.00     0.178 C 
HETATM    2  C4  UNL     1      26.886  48.800  -5.747  1.00  0.00     0.065 C 
HETATM    3  C5  UNL     1      27.345  48.406  -4.363  1.00  0.00     0.025 C 
HETATM    4  C6  UNL     1      27.291  49.688  -3.591  1.00  0.00     0.127 C 
HETATM    5  N3  UNL     1      26.232  50.470  -4.218  1.00  0.00    -0.343 N 
HETATM    6  C7  UNL     1      25.436  51.548  -3.743  1.00  0.00     0.193 C 
HETATM    7  N4  UNL     1      25.104  52.556  -4.474  1.00  0.00    -0.264 N 
ATOM      8  H4  UNL     1      24.531  53.316  -4.105  1.00  0.00     0.181 HD
HETATM    9  S1  UNL     1      25.671  52.563  -6.104  1.00  0.00     0.322 S 
HETATM   10  O2  UNL     1      24.518  52.859  -6.997  1.00  0.00    -0.182 OA
HETATM   11  O3  UNL     1      26.753  53.607  -6.231  1.00  0.00    -0.182 OA
HETATM   12  N5  UNL     1      26.406  51.039  -6.482  1.00  0.00    -0.268 N 
ATOM     13  H5  UNL     1      27.049  50.894  -7.261  1.00  0.00     0.177 HD
ENDROOT
BRANCH   1  14
HETATM   14  C2  UNL     1      24.603  49.571  -5.788  1.00  0.00     0.145 C 
HETATM   15  N2  UNL     1      23.920  48.901  -4.959  1.00  0.00    -0.384 N 
ATOM     16  H22 UNL     1      22.956  48.602  -5.106  1.00  0.00     0.157 HD
ATOM     17  H21 UNL     1      24.345  48.629  -4.072  1.00  0.00     0.157 HD
BRANCH  14  18
HETATM   18  N1  UNL     1      24.009  49.951  -7.027  1.00  0.00    -0.251 N 
ATOM     19  H1  UNL     1      23.124  50.458  -7.050  1.00  0.00     0.196 HD
BRANCH  18  20
HETATM   20  O1  UNL     1      24.646  49.624  -8.166  1.00  0.00    -0.284 OA
HETATM   21  C1  UNL     1      24.382  48.334  -8.556  1.00  0.00     0.237 C 
ENDBRANCH  18  20
ENDBRANCH  14  18
ENDBRANCH   1  14
TORSDOF 3
ENDMDL
MODEL 2
REMARK VINA RESULT: -4.630388713      2.671      3.730
REMARK  3 active torsions:
REMARK  status: ('A' for Active; 'I' for Inactive)
REMARK    1  A    between atoms: O1_2  and  N1_3 
REMARK    2  A    between atoms: N1_3  and  C2_5 
REMARK    3  A    between atoms: C2_5  and  C3_9 
ROOT
HETATM    1  C3  UNL     1      25.494  49.937  -8.006  1.00  0.00     0.178 C 
HETATM    2  C4  UNL     1      25.601  50.790  -9.240  1.00  0.00     0.065 C 
HETATM    3  C5  UNL     1      27.059  50.792  -9.632  1.00  0.00     0.025 C 
HETATM    4  C6  UNL     1      27.776  50.547  -8.340  1.00  0.00     0.127 C 
HETATM    5  N3  UNL     1      26.854  49.756  -7.534  1.00  0.00    -0.343 N 
HETATM    6  C7  UNL     1      27.061  48.889  -6.427  1.00  0.00     0.193 C 
HETATM    7  N4  UNL     1      26.262  48.828  -5.417  1.00  0.00    -0.264 N 
ATOM      8  H4  UNL     1      26.437  48.195  -4.636  1.00  0.00     0.181 HD
HETATM    9  S1  UNL     1      24.883  49.866  -5.446  1.00  0.00     0.322 S 
HETATM   10  O2  UNL     1      23.680  49.050  -5.125  1.00  0.00    -0.182 OA
HETATM   11  O3  UNL     1      25.091  50.969  -4.438  1.00  0.00    -0.182 OA
HETATM   12  N5  UNL     1      24.750  50.631  -6.997  1.00  0.00    -0.268 N 
ATOM     13  H5  UNL     1      24.204  51.475  -7.170  1.00  0.00     0.177 HD
ENDROOT
BRANCH   1  14
HETATM   14  C2  UNL     1      24.863  48.655  -8.401  1.00  0.00     0.145 C 
HETATM   15  N2  UNL     1      23.645  48.363  -8.218  1.00  0.00    -0.384 N 
ATOM     16  H22 UNL     1      23.211  47.481  -8.489  1.00  0.00     0.157 HD
ATOM     17  H21 UNL     1      23.035  49.045  -7.768  1.00  0.00     0.157 HD
BRANCH  14  18
HETATM   18  N1  UNL     1      25.717  47.701  -9.030  1.00  0.00    -0.251 N 
ATOM     19  H1  UNL     1      26.425  47.200  -8.493  1.00  0.00     0.196 HD
BRANCH  18  20
HETATM   20  O1  UNL     1      25.565  47.481 -10.348  1.00  0.00    -0.284 OA
HETATM   21  C1  UNL     1      26.769  47.367 -10.998  1.00  0.00     0.237 C 
ENDBRANCH  18  20
ENDBRANCH  14  18
ENDBRANCH   1  14
TORSDOF 3
ENDMDL
MODEL 3
REMARK VINA RESULT: -4.424964411      2.660      4.022
REMARK  3 active torsions:
REMARK  status: ('A' for Active; 'I' for Inactive)
REMARK    1  A    between atoms: O1_2  and  N1_3 
REMARK    2  A    between atoms: N1_3  and  C2_5 
REMARK    3  A    between atoms: C2_5  and  C3_9 
ROOT
HETATM    1  C3  UNL     1      25.237  52.028  -6.823  1.00  0.00     0.178 C 
HETATM    2  C4  UNL     1      24.569  53.214  -7.463  1.00  0.00     0.065 C 
HETATM    3  C5  UNL     1      24.717  54.361  -6.491  1.00  0.00     0.025 C 
HETATM    4  C6  UNL     1      24.830  53.687  -5.159  1.00  0.00     0.127 C 
HETATM    5  N3  UNL     1      25.442  52.392  -5.434  1.00  0.00    -0.343 N 
HETATM    6  C7  UNL     1      26.162  51.485  -4.610  1.00  0.00     0.193 C 
HETATM    7  N4  UNL     1      26.032  50.205  -4.685  1.00  0.00    -0.264 N 
ATOM      8  H4  UNL     1      26.563  49.578  -4.080  1.00  0.00     0.181 HD
HETATM    9  S1  UNL     1      24.919  49.599  -5.857  1.00  0.00     0.322 S 
HETATM   10  O2  UNL     1      25.602  48.533  -6.640  1.00  0.00    -0.182 OA
HETATM   11  O3  UNL     1      23.705  49.067  -5.137  1.00  0.00    -0.182 OA
HETATM   12  N5  UNL     1      24.365  50.892  -6.873  1.00  0.00    -0.268 N 
ATOM     13  H5  UNL     1      23.518  50.848  -7.439  1.00  0.00     0.177 HD
ENDROOT
BRANCH   1  14
HETATM   14  C2  UNL     1      26.517  51.796  -7.536  1.00  0.00     0.145 C 
HETATM   15  N2  UNL     1      27.572  52.475  -7.365  1.00  0.00    -0.384 N 
ATOM     16  H22 UNL     1      28.452  52.316  -7.855  1.00  0.00     0.157 HD
ATOM     17  H21 UNL     1      27.563  53.243  -6.693  1.00  0.00     0.157 HD
BRANCH  14  18
HETATM   18  N1  UNL     1      26.528  50.723  -8.475  1.00  0.00    -0.251 N 
ATOM     19  H1  UNL     1      26.960  49.828  -8.241  1.00  0.00     0.196 HD
BRANCH  18  20
HETATM   20  O1  UNL     1      25.955  50.920  -9.675  1.00  0.00    -0.284 OA
HETATM   21  C1  UNL     1      26.851  50.783 -10.707  1.00  0.00     0.237 C 
ENDBRANCH  18  20
ENDBRANCH  14  18
ENDBRANCH   1  14
TORSDOF 3
ENDMDL
MODEL 4
REMARK VINA RESULT: -4.344411571      2.133      3.939
REMARK  3 active torsions:
REMARK  status: ('A' for Active; 'I' for Inactive)
REMARK    1  A    between atoms: O1_2  and  N1_3 
REMARK    2  A    between atoms: N1_3  and  C2_5 
REMARK    3  A    between atoms: C2_5  and  C3_9 
ROOT
HETATM    1  C3  UNL     1      25.467  49.415  -8.026  1.00  0.00     0.178 C 
HETATM    2  C4  UNL     1      24.763  48.230  -8.627  1.00  0.00     0.065 C 
HETATM    3  C5  UNL     1      25.654  47.722  -9.735  1.00  0.00     0.025 C 
HETATM    4  C6  UNL     1      26.426  48.934 -10.156  1.00  0.00     0.127 C 
HETATM    5  N3  UNL     1      26.521  49.763  -8.961  1.00  0.00    -0.343 N 
HETATM    6  C7  UNL     1      27.423  50.796  -8.587  1.00  0.00     0.193 C 
HETATM    7  N4  UNL     1      27.058  51.862  -7.961  1.00  0.00    -0.264 N 
ATOM      8  H4  UNL     1      27.730  52.587  -7.706  1.00  0.00     0.181 HD
HETATM    9  S1  UNL     1      25.383  52.007  -7.573  1.00  0.00     0.322 S 
HETATM   10  O2  UNL     1      25.268  52.375  -6.135  1.00  0.00    -0.182 OA
HETATM   11  O3  UNL     1      24.773  53.060  -8.465  1.00  0.00    -0.182 OA
HETATM   12  N5  UNL     1      24.561  50.522  -7.927  1.00  0.00    -0.268 N 
ATOM     13  H5  UNL     1      23.552  50.444  -8.049  1.00  0.00     0.177 HD
ENDROOT
BRANCH   1  14
HETATM   14  C2  UNL     1      26.004  48.997  -6.708  1.00  0.00     0.145 C 
HETATM   15  N2  UNL     1      27.113  48.413  -6.533  1.00  0.00    -0.384 N 
ATOM     16  H22 UNL     1      27.482  48.125  -5.627  1.00  0.00     0.157 HD
ATOM     17  H21 UNL     1      27.696  48.205  -7.343  1.00  0.00     0.157 HD
BRANCH  14  18
HETATM   18  N1  UNL     1      25.187  49.288  -5.576  1.00  0.00    -0.251 N 
ATOM     19  H1  UNL     1      24.186  49.451  -5.682  1.00  0.00     0.196 HD
BRANCH  18  20
HETATM   20  O1  UNL     1      25.772  49.343  -4.366  1.00  0.00    -0.284 OA
HETATM   21  C1  UNL     1      25.136  50.219  -3.521  1.00  0.00     0.237 C 
ENDBRANCH  18  20
ENDBRANCH  14  18
ENDBRANCH   1  14
TORSDOF 3
ENDMDL
MODEL 5
REMARK VINA RESULT: -4.255927252      2.300      2.888
REMARK  3 active torsions:
REMARK  status: ('A' for Active; 'I' for Inactive)
REMARK    1  A    between atoms: O1_2  and  N1_3 
REMARK    2  A    between atoms: N1_3  and  C2_5 
REMARK    3  A    between atoms: C2_5  and  C3_9 
ROOT
HETATM    1  C3  UNL     1      25.959  49.771  -6.437  1.00  0.00     0.178 C 
HETATM    2  C4  UNL     1      25.739  49.059  -5.130  1.00  0.00     0.065 C 
HETATM    3  C5  UNL     1      24.881  49.972  -4.287  1.00  0.00     0.025 C 
HETATM    4  C6  UNL     1      25.193  51.339  -4.811  1.00  0.00     0.127 C 
HETATM    5  N3  UNL     1      25.543  51.142  -6.213  1.00  0.00    -0.343 N 
HETATM    6  C7  UNL     1      25.542  52.025  -7.328  1.00  0.00     0.193 C 
HETATM    7  N4  UNL     1      26.453  52.013  -8.239  1.00  0.00    -0.264 N 
ATOM      8  H4  UNL     1      26.426  52.659  -9.028  1.00  0.00     0.181 HD
HETATM    9  S1  UNL     1      27.721  50.855  -8.064  1.00  0.00     0.322 S 
HETATM   10  O2  UNL     1      27.880  50.141  -9.360  1.00  0.00    -0.182 OA
HETATM   11  O3  UNL     1      28.984  51.581  -7.672  1.00  0.00    -0.182 OA
HETATM   12  N5  UNL     1      27.353  49.765  -6.767  1.00  0.00    -0.268 N 
ATOM     13  H5  UNL     1      28.049  49.187  -6.294  1.00  0.00     0.177 HD
ENDROOT
BRANCH   1  14
HETATM   14  C2  UNL     1      25.127  49.093  -7.461  1.00  0.00     0.145 C 
HETATM   15  N2  UNL     1      23.871  49.210  -7.564  1.00  0.00    -0.384 N 
ATOM     16  H22 UNL     1      23.299  48.745  -8.269  1.00  0.00     0.157 HD
ATOM     17  H21 UNL     1      23.374  49.809  -6.904  1.00  0.00     0.157 HD
BRANCH  14  18
HETATM   18  N1  UNL     1      25.823  48.257  -8.383  1.00  0.00    -0.251 N 
ATOM     19  H1  UNL     1      26.701  47.808  -8.122  1.00  0.00     0.196 HD
BRANCH  18  20
HETATM   20  O1  UNL     1      25.292  48.075  -9.605  1.00  0.00    -0.284 OA
HETATM   21  C1  UNL     1      26.066  47.258 -10.392  1.00  0.00     0.237 C 
ENDBRANCH  18  20
ENDBRANCH  14  18
ENDBRANCH   1  14
TORSDOF 3
ENDMDL
