MODEL 1
REMARK VINA RESULT: -9.998783379      0.000      0.000
REMARK  14 active torsions:
REMARK  status: ('A' for Active; 'I' for Inactive)
REMARK    1  A    between atoms: C2_2  and  C3_3 
REMARK    2  A    between atoms: C3_3  and  C6_6 
REMARK    3  A    between atoms: C6_6  and  O2_8 
REMARK    4  A    between atoms: O2_8  and  C7_9 
REMARK    5  A    between atoms: C8_10  and  O3_11 
REMARK    6  A    between atoms: C17_24  and  O7_25 
REMARK    7  A    between atoms: C19_27  and  O8_28 
REMARK    8  A    between atoms: O8_28  and  C20_29 
REMARK    9  A    between atoms: C20_29  and  O9_30 
REMARK   10  A    between atoms: C20_29  and  C21_32 
REMARK   11  A    between atoms: C22_33  and  C23_34 
REMARK   12  A    between atoms: C23_34  and  C24_35 
REMARK   13  A    between atoms: C24_35  and  C25_36 
REMARK   14  A    between atoms: C25_36  and  C26_37 
ROOT
HETATM    1  C7  UNL     1     -15.758   9.320   1.926  1.00  0.00     0.222 C 
HETATM    2  C8  UNL     1     -15.645  10.053   0.652  1.00  0.00     0.186 C 
HETATM    3  C9  UNL     1     -14.239  10.138   0.178  1.00  0.00     0.191 A 
HETATM    4  O4  UNL     1     -14.136  11.254  -0.778  1.00  0.00    -0.364 OA
HETATM    5  C10 UNL     1     -13.378  11.177   0.446  1.00  0.00     0.115 A 
HETATM    6  C11 UNL     1     -11.899  10.983   0.067  1.00  0.00     0.052 C 
HETATM    7  C12 UNL     1     -13.652  12.185   1.515  1.00  0.00     0.197 C 
HETATM    8  O5  UNL     1     -12.527  12.997   1.627  1.00  0.00    -0.344 OA
HETATM    9  C13 UNL     1     -12.248  13.182   2.950  1.00  0.00     0.158 C 
HETATM   10  C14 UNL     1     -12.379  14.654   3.277  1.00  0.00     0.078 C 
HETATM   11  C15 UNL     1     -10.804  12.803   3.299  1.00  0.00     0.078 C 
HETATM   12  O6  UNL     1     -13.075  12.386   3.687  1.00  0.00    -0.341 OA
HETATM   13  C16 UNL     1     -13.748  11.518   2.837  1.00  0.00     0.216 C 
HETATM   14  C17 UNL     1     -15.192  11.394   3.345  1.00  0.00     0.109 C 
HETATM   15  C19 UNL     1     -15.698   9.981   3.239  1.00  0.00     0.114 C 
ENDROOT
BRANCH  15  16
HETATM   16  O8  UNL     1     -16.613   9.724   4.090  1.00  0.00    -0.316 OA
BRANCH  16  17
HETATM   17  C20 UNL     1     -17.262   9.398   5.088  1.00  0.00     0.287 C 
BRANCH  17  18
HETATM   18  O9  UNL     1     -17.306  10.319   6.197  1.00  0.00    -0.367 OA
ATOM     19  H9  UNL     1     -16.486  10.689   6.503  1.00  0.00     0.213 HD
ENDBRANCH  17  18
BRANCH  17  20
HETATM   20  C21 UNL     1     -17.128   8.082   5.775  1.00  0.00     0.029 C 
HETATM   21  C22 UNL     1     -17.511   6.932   5.301  1.00  0.00    -0.026 C 
BRANCH  21  22
HETATM   22  C23 UNL     1     -18.145   6.805   3.980  1.00  0.00     0.027 C 
BRANCH  22  23
HETATM   23  C24 UNL     1     -18.308   5.363   3.549  1.00  0.00     0.007 C 
BRANCH  23  24
HETATM   24  C25 UNL     1     -17.617   4.423   4.498  1.00  0.00     0.028 C 
BRANCH  24  25
HETATM   25  C26 UNL     1     -17.124   3.215   3.785  1.00  0.00    -0.019 C 
HETATM   26  C27 UNL     1     -17.698   2.062   4.004  1.00  0.00    -0.058 A 
HETATM   27  C28 UNL     1     -17.171   0.912   3.274  1.00  0.00     0.008 A 
HETATM   28  C37 UNL     1     -18.820   1.959   4.956  1.00  0.00     0.077 A 
HETATM   29  C29 UNL     1     -17.709  -0.263   3.490  1.00  0.00     0.012 A 
HETATM   30  C30 UNL     1     -18.796  -0.489   4.412  1.00  0.00    -0.028 A 
HETATM   31  C31 UNL     1     -19.314  -1.745   4.610  1.00  0.00     0.036 A 
HETATM   32  C36 UNL     1     -19.320   0.579   5.119  1.00  0.00    -0.043 A 
HETATM   33  C32 UNL     1     -20.337  -1.945   5.497  1.00  0.00     0.040 A 
HETATM   34 CL1  UNL     1     -21.015  -3.549   5.766  1.00  0.00    -0.084 Cl
HETATM   35  C33 UNL     1     -20.869  -0.903   6.206  1.00  0.00    -0.040 A 
HETATM   36  C34 UNL     1     -21.980  -1.132   7.173  1.00  0.00     0.050 C 
HETATM   37  C35 UNL     1     -20.351   0.359   6.009  1.00  0.00     0.016 A 
ENDBRANCH  24  25
ENDBRANCH  23  24
ENDBRANCH  22  23
ENDBRANCH  21  22
ENDBRANCH  17  20
ENDBRANCH  16  17
ENDBRANCH  15  16
BRANCH   1  38
HETATM   38  O2  UNL     1     -14.834   8.253   1.717  1.00  0.00    -0.306 OA
BRANCH  38  39
HETATM   39  C6  UNL     1     -15.123   6.921   1.777  1.00  0.00     0.267 C 
HETATM   40  O1  UNL     1     -14.944   6.434   2.924  1.00  0.00    -0.264 OA
BRANCH  39  41
HETATM   41  C3  UNL     1     -15.602   6.100   0.629  1.00  0.00     0.040 C 
HETATM   42  C4  UNL     1     -14.819   6.446  -0.631  1.00  0.00     0.025 C 
HETATM   43  C5  UNL     1     -17.038   6.509   0.380  1.00  0.00     0.025 C 
BRANCH  41  44
HETATM   44  C2  UNL     1     -15.507   4.624   0.941  1.00  0.00     0.014 C 
HETATM   45  C1  UNL     1     -16.559   3.851   0.187  1.00  0.00     0.006 C 
ENDBRANCH  41  44
ENDBRANCH  39  41
ENDBRANCH  38  39
ENDBRANCH   1  38
BRANCH  14  46
HETATM   46  O7  UNL     1     -15.965  12.425   2.954  1.00  0.00    -0.355 OA
HETATM   47  C18 UNL     1     -16.404  13.298   3.933  1.00  0.00     0.209 C 
ENDBRANCH  14  46
BRANCH   2  48
HETATM   48  O3  UNL     1     -16.402  11.180   0.476  1.00  0.00    -0.390 OA
ATOM     49  H3  UNL     1     -17.253  11.096   0.062  1.00  0.00     0.210 HD
ENDBRANCH   2  48
TORSDOF 14
ENDMDL
MODEL 2
REMARK VINA RESULT: -9.964042796      7.052     12.575
REMARK  14 active torsions:
REMARK  status: ('A' for Active; 'I' for Inactive)
REMARK    1  A    between atoms: C2_2  and  C3_3 
REMARK    2  A    between atoms: C3_3  and  C6_6 
REMARK    3  A    between atoms: C6_6  and  O2_8 
REMARK    4  A    between atoms: O2_8  and  C7_9 
REMARK    5  A    between atoms: C8_10  and  O3_11 
REMARK    6  A    between atoms: C17_24  and  O7_25 
REMARK    7  A    between atoms: C19_27  and  O8_28 
REMARK    8  A    between atoms: O8_28  and  C20_29 
REMARK    9  A    between atoms: C20_29  and  O9_30 
REMARK   10  A    between atoms: C20_29  and  C21_32 
REMARK   11  A    between atoms: C22_33  and  C23_34 
REMARK   12  A    between atoms: C23_34  and  C24_35 
REMARK   13  A    between atoms: C24_35  and  C25_36 
REMARK   14  A    between atoms: C25_36  and  C26_37 
ROOT
HETATM    1  C7  UNL     1     -19.230  -2.752  -0.042  1.00  0.00     0.222 C 
HETATM    2  C8  UNL     1     -19.476  -3.280  -1.396  1.00  0.00     0.186 C 
HETATM    3  C9  UNL     1     -20.279  -2.344  -2.224  1.00  0.00     0.191 A 
HETATM    4  O4  UNL     1     -20.888  -3.104  -3.329  1.00  0.00    -0.364 OA
HETATM    5  C10 UNL     1     -21.650  -2.375  -2.345  1.00  0.00     0.115 A 
HETATM    6  C11 UNL     1     -22.322  -1.190  -3.061  1.00  0.00     0.052 C 
HETATM    7  C12 UNL     1     -22.516  -3.147  -1.404  1.00  0.00     0.197 C 
HETATM    8  O5  UNL     1     -23.841  -2.847  -1.708  1.00  0.00    -0.344 OA
HETATM    9  C13 UNL     1     -24.523  -2.637  -0.545  1.00  0.00     0.158 C 
HETATM   10  C14 UNL     1     -25.608  -3.685  -0.418  1.00  0.00     0.078 C 
HETATM   11  C15 UNL     1     -25.244  -1.284  -0.528  1.00  0.00     0.078 C 
HETATM   12  O6  UNL     1     -23.635  -2.647   0.490  1.00  0.00    -0.341 OA
HETATM   13  C16 UNL     1     -22.343  -2.646  -0.018  1.00  0.00     0.216 C 
HETATM   14  C17 UNL     1     -21.497  -3.581   0.858  1.00  0.00     0.109 C 
HETATM   15  C19 UNL     1     -20.120  -3.023   1.098  1.00  0.00     0.114 C 
ENDROOT
BRANCH  15  16
HETATM   16  O8  UNL     1     -19.602  -3.446   2.184  1.00  0.00    -0.316 OA
BRANCH  16  17
HETATM   17  C20 UNL     1     -19.288  -3.649   3.361  1.00  0.00     0.287 C 
BRANCH  17  18
HETATM   18  O9  UNL     1     -17.978  -4.189   3.628  1.00  0.00    -0.367 OA
ATOM     19  H9  UNL     1     -17.643  -4.129   4.516  1.00  0.00     0.213 HD
ENDBRANCH  17  18
BRANCH  17  20
HETATM   20  C21 UNL     1     -20.141  -4.388   4.334  1.00  0.00     0.029 C 
HETATM   21  C22 UNL     1     -21.110  -3.881   5.039  1.00  0.00    -0.026 C 
BRANCH  21  22
HETATM   22  C23 UNL     1     -21.481  -2.462   4.947  1.00  0.00     0.027 C 
BRANCH  22  23
HETATM   23  C24 UNL     1     -21.195  -1.701   6.225  1.00  0.00     0.007 C 
BRANCH  23  24
HETATM   24  C25 UNL     1     -20.414  -0.446   5.955  1.00  0.00     0.028 C 
BRANCH  24  25
HETATM   25  C26 UNL     1     -19.348  -0.688   4.946  1.00  0.00    -0.019 C 
HETATM   26  C27 UNL     1     -18.652   0.321   4.495  1.00  0.00    -0.058 A 
HETATM   27  C28 UNL     1     -17.619   0.021   3.507  1.00  0.00     0.008 A 
HETATM   28  C37 UNL     1     -18.925   1.688   4.977  1.00  0.00     0.077 A 
HETATM   29  C29 UNL     1     -16.918   1.014   3.016  1.00  0.00     0.012 A 
HETATM   30  C30 UNL     1     -17.110   2.393   3.395  1.00  0.00    -0.028 A 
HETATM   31  C31 UNL     1     -16.357   3.397   2.840  1.00  0.00     0.036 A 
HETATM   32  C36 UNL     1     -18.080   2.712   4.330  1.00  0.00    -0.043 A 
HETATM   33  C32 UNL     1     -16.559   4.702   3.201  1.00  0.00     0.040 A 
HETATM   34 CL1  UNL     1     -15.603   6.004   2.498  1.00  0.00    -0.084 Cl
HETATM   35  C33 UNL     1     -17.512   5.038   4.123  1.00  0.00    -0.040 A 
HETATM   36  C34 UNL     1     -17.727   6.462   4.506  1.00  0.00     0.050 C 
HETATM   37  C35 UNL     1     -18.269   4.033   4.683  1.00  0.00     0.016 A 
ENDBRANCH  24  25
ENDBRANCH  23  24
ENDBRANCH  22  23
ENDBRANCH  21  22
ENDBRANCH  17  20
ENDBRANCH  16  17
ENDBRANCH  15  16
BRANCH   1  38
HETATM   38  O2  UNL     1     -18.967  -1.378  -0.322  1.00  0.00    -0.306 OA
BRANCH  38  39
HETATM   39  C6  UNL     1     -17.735  -0.798  -0.397  1.00  0.00     0.267 C 
HETATM   40  O1  UNL     1     -16.898  -1.326   0.381  1.00  0.00    -0.264 OA
BRANCH  39  41
HETATM   41  C3  UNL     1     -17.381   0.339  -1.293  1.00  0.00     0.040 C 
HETATM   42  C4  UNL     1     -18.632   0.896  -1.959  1.00  0.00     0.025 C 
HETATM   43  C5  UNL     1     -16.517  -0.237  -2.395  1.00  0.00     0.025 C 
BRANCH  41  44
HETATM   44  C2  UNL     1     -16.642   1.418  -0.534  1.00  0.00     0.014 C 
HETATM   45  C1  UNL     1     -17.203   2.779  -0.861  1.00  0.00     0.006 C 
ENDBRANCH  41  44
ENDBRANCH  39  41
ENDBRANCH  38  39
ENDBRANCH   1  38
BRANCH  14  46
HETATM   46  O7  UNL     1     -21.658  -4.878   0.532  1.00  0.00    -0.355 OA
HETATM   47  C18 UNL     1     -22.270  -5.697   1.462  1.00  0.00     0.209 C 
ENDBRANCH  14  46
BRANCH   2  48
HETATM   48  O3  UNL     1     -19.778  -4.608  -1.536  1.00  0.00    -0.390 OA
ATOM     49  H3  UNL     1     -19.075  -5.216  -1.733  1.00  0.00     0.210 HD
ENDBRANCH   2  48
TORSDOF 14
ENDMDL
MODEL 3
REMARK VINA RESULT: -9.959158194      2.734      6.099
REMARK  14 active torsions:
REMARK  status: ('A' for Active; 'I' for Inactive)
REMARK    1  A    between atoms: C2_2  and  C3_3 
REMARK    2  A    between atoms: C3_3  and  C6_6 
REMARK    3  A    between atoms: C6_6  and  O2_8 
REMARK    4  A    between atoms: O2_8  and  C7_9 
REMARK    5  A    between atoms: C8_10  and  O3_11 
REMARK    6  A    between atoms: C17_24  and  O7_25 
REMARK    7  A    between atoms: C19_27  and  O8_28 
REMARK    8  A    between atoms: O8_28  and  C20_29 
REMARK    9  A    between atoms: C20_29  and  O9_30 
REMARK   10  A    between atoms: C20_29  and  C21_32 
REMARK   11  A    between atoms: C22_33  and  C23_34 
REMARK   12  A    between atoms: C23_34  and  C24_35 
REMARK   13  A    between atoms: C24_35  and  C25_36 
REMARK   14  A    between atoms: C25_36  and  C26_37 
ROOT
HETATM    1  C7  UNL     1     -16.235  13.369   5.805  1.00  0.00     0.222 C 
HETATM    2  C8  UNL     1     -15.050  14.143   5.394  1.00  0.00     0.186 C 
HETATM    3  C9  UNL     1     -15.414  15.337   4.588  1.00  0.00     0.191 A 
HETATM    4  O4  UNL     1     -14.228  15.762   3.823  1.00  0.00    -0.364 OA
HETATM    5  C10 UNL     1     -15.476  15.373   3.214  1.00  0.00     0.115 A 
HETATM    6  C11 UNL     1     -16.091  16.628   2.568  1.00  0.00     0.052 C 
HETATM    7  C12 UNL     1     -15.504  14.130   2.385  1.00  0.00     0.197 C 
HETATM    8  O5  UNL     1     -15.722  14.510   1.063  1.00  0.00    -0.344 OA
HETATM    9  C13 UNL     1     -16.647  13.673   0.512  1.00  0.00     0.158 C 
HETATM   10  C14 UNL     1     -16.004  12.918  -0.632  1.00  0.00     0.078 C 
HETATM   11  C15 UNL     1     -17.829  14.434  -0.101  1.00  0.00     0.078 C 
HETATM   12  O6  UNL     1     -17.140  12.860   1.490  1.00  0.00    -0.341 OA
HETATM   13  C16 UNL     1     -16.695  13.313   2.725  1.00  0.00     0.216 C 
HETATM   14  C17 UNL     1     -16.355  12.082   3.578  1.00  0.00     0.109 C 
HETATM   15  C19 UNL     1     -16.784  12.261   5.008  1.00  0.00     0.114 C 
ENDROOT
BRANCH  15  16
HETATM   16  O8  UNL     1     -17.018  11.151   5.593  1.00  0.00    -0.316 OA
BRANCH  16  17
HETATM   17  C20 UNL     1     -17.517  10.204   6.207  1.00  0.00     0.287 C 
BRANCH  17  18
HETATM   18  O9  UNL     1     -18.185  10.482   7.454  1.00  0.00    -0.367 OA
ATOM     19  H9  UNL     1     -18.590   9.755   7.915  1.00  0.00     0.213 HD
ENDBRANCH  17  18
BRANCH  17  20
HETATM   20  C21 UNL     1     -16.794   8.936   6.510  1.00  0.00     0.029 C 
HETATM   21  C22 UNL     1     -16.966   7.796   5.906  1.00  0.00    -0.026 C 
BRANCH  21  22
HETATM   22  C23 UNL     1     -17.937   7.632   4.814  1.00  0.00     0.027 C 
BRANCH  22  23
HETATM   23  C24 UNL     1     -17.565   6.509   3.869  1.00  0.00     0.007 C 
BRANCH  23  24
HETATM   24  C25 UNL     1     -17.829   5.162   4.484  1.00  0.00     0.028 C 
BRANCH  24  25
HETATM   25  C26 UNL     1     -17.157   4.083   3.711  1.00  0.00    -0.019 C 
HETATM   26  C27 UNL     1     -17.559   2.849   3.853  1.00  0.00    -0.058 A 
HETATM   27  C28 UNL     1     -16.863   1.833   3.066  1.00  0.00     0.008 A 
HETATM   28  C37 UNL     1     -18.663   2.527   4.776  1.00  0.00     0.077 A 
HETATM   29  C29 UNL     1     -17.226   0.581   3.204  1.00  0.00     0.012 A 
HETATM   30  C30 UNL     1     -18.276   0.145   4.091  1.00  0.00    -0.028 A 
HETATM   31  C31 UNL     1     -18.608  -1.182   4.206  1.00  0.00     0.036 A 
HETATM   32  C36 UNL     1     -18.958   1.082   4.850  1.00  0.00    -0.043 A 
HETATM   33  C32 UNL     1     -19.599  -1.582   5.062  1.00  0.00     0.040 A 
HETATM   34 CL1  UNL     1     -20.038  -3.280   5.224  1.00  0.00    -0.084 Cl
HETATM   35  C33 UNL     1     -20.284  -0.672   5.820  1.00  0.00    -0.040 A 
HETATM   36  C34 UNL     1     -21.359  -1.118   6.751  1.00  0.00     0.050 C 
HETATM   37  C35 UNL     1     -19.954   0.661   5.706  1.00  0.00     0.016 A 
ENDBRANCH  24  25
ENDBRANCH  23  24
ENDBRANCH  22  23
ENDBRANCH  21  22
ENDBRANCH  17  20
ENDBRANCH  16  17
ENDBRANCH  15  16
BRANCH   1  38
HETATM   38  O2  UNL     1     -17.147  14.413   6.143  1.00  0.00    -0.306 OA
BRANCH  38  39
HETATM   39  C6  UNL     1     -17.336  14.940   7.387  1.00  0.00     0.267 C 
HETATM   40  O1  UNL     1     -17.130  14.105   8.306  1.00  0.00    -0.264 OA
BRANCH  39  41
HETATM   41  C3  UNL     1     -17.742  16.347   7.664  1.00  0.00     0.040 C 
HETATM   42  C4  UNL     1     -18.674  16.854   6.571  1.00  0.00     0.025 C 
HETATM   43  C5  UNL     1     -16.480  17.179   7.586  1.00  0.00     0.025 C 
BRANCH  41  44
HETATM   44  C2  UNL     1     -18.385  16.467   9.027  1.00  0.00     0.014 C 
HETATM   45  C1  UNL     1     -19.394  17.587   9.043  1.00  0.00     0.006 C 
ENDBRANCH  41  44
ENDBRANCH  39  41
ENDBRANCH  38  39
ENDBRANCH   1  38
BRANCH  14  46
HETATM   46  O7  UNL     1     -15.141  11.575   3.290  1.00  0.00    -0.355 OA
HETATM   47  C18 UNL     1     -15.076  10.244   2.924  1.00  0.00     0.209 C 
ENDBRANCH  14  46
BRANCH   2  48
HETATM   48  O3  UNL     1     -13.935  13.464   4.982  1.00  0.00    -0.390 OA
ATOM     49  H3  UNL     1     -13.473  12.923   5.612  1.00  0.00     0.210 HD
ENDBRANCH   2  48
TORSDOF 14
ENDMDL
MODEL 4
REMARK VINA RESULT: -9.522217771      1.396      4.759
REMARK  14 active torsions:
REMARK  status: ('A' for Active; 'I' for Inactive)
REMARK    1  A    between atoms: C2_2  and  C3_3 
REMARK    2  A    between atoms: C3_3  and  C6_6 
REMARK    3  A    between atoms: C6_6  and  O2_8 
REMARK    4  A    between atoms: O2_8  and  C7_9 
REMARK    5  A    between atoms: C8_10  and  O3_11 
REMARK    6  A    between atoms: C17_24  and  O7_25 
REMARK    7  A    between atoms: C19_27  and  O8_28 
REMARK    8  A    between atoms: O8_28  and  C20_29 
REMARK    9  A    between atoms: C20_29  and  O9_30 
REMARK   10  A    between atoms: C20_29  and  C21_32 
REMARK   11  A    between atoms: C22_33  and  C23_34 
REMARK   12  A    between atoms: C23_34  and  C24_35 
REMARK   13  A    between atoms: C24_35  and  C25_36 
REMARK   14  A    between atoms: C25_36  and  C26_37 
ROOT
HETATM    1  C7  UNL     1     -14.955  11.009   2.884  1.00  0.00     0.222 C 
HETATM    2  C8  UNL     1     -13.601  11.034   2.304  1.00  0.00     0.186 C 
HETATM    3  C9  UNL     1     -13.616  11.398   0.863  1.00  0.00     0.191 A 
HETATM    4  O4  UNL     1     -12.358  10.936   0.252  1.00  0.00    -0.364 OA
HETATM    5  C10 UNL     1     -13.664  10.499  -0.177  1.00  0.00     0.115 A 
HETATM    6  C11 UNL     1     -13.904  11.065  -1.588  1.00  0.00     0.052 C 
HETATM    7  C12 UNL     1     -14.033   9.066   0.024  1.00  0.00     0.197 C 
HETATM    8  O5  UNL     1     -14.133   8.476  -1.233  1.00  0.00    -0.344 OA
HETATM    9  C13 UNL     1     -15.253   7.697  -1.266  1.00  0.00     0.158 C 
HETATM   10  C14 UNL     1     -14.843   6.257  -1.486  1.00  0.00     0.078 C 
HETATM   11  C15 UNL     1     -16.176   8.053  -2.438  1.00  0.00     0.078 C 
HETATM   12  O6  UNL     1     -15.955   7.892  -0.112  1.00  0.00    -0.341 OA
HETATM   13  C16 UNL     1     -15.405   8.962   0.580  1.00  0.00     0.216 C 
HETATM   14  C17 UNL     1     -15.422   8.609   2.074  1.00  0.00     0.109 C 
HETATM   15  C19 UNL     1     -15.788   9.797   2.922  1.00  0.00     0.114 C 
ENDROOT
BRANCH  15  16
HETATM   16  O8  UNL     1     -16.322   9.462   4.031  1.00  0.00    -0.316 OA
BRANCH  16  17
HETATM   17  C20 UNL     1     -17.090   9.250   4.974  1.00  0.00     0.287 C 
BRANCH  17  18
HETATM   18  O9  UNL     1     -17.135  10.219   6.041  1.00  0.00    -0.367 OA
ATOM     19  H9  UNL     1     -17.956  10.332   6.508  1.00  0.00     0.213 HD
ENDBRANCH  17  18
BRANCH  17  20
HETATM   20  C21 UNL     1     -17.162   7.959   5.715  1.00  0.00     0.029 C 
HETATM   21  C22 UNL     1     -17.651   6.843   5.257  1.00  0.00    -0.026 C 
BRANCH  21  22
HETATM   22  C23 UNL     1     -18.210   6.735   3.902  1.00  0.00     0.027 C 
BRANCH  22  23
HETATM   23  C24 UNL     1     -18.201   5.314   3.381  1.00  0.00     0.007 C 
BRANCH  23  24
HETATM   24  C25 UNL     1     -17.609   4.363   4.383  1.00  0.00     0.028 C 
BRANCH  24  25
HETATM   25  C26 UNL     1     -17.105   3.132   3.717  1.00  0.00    -0.019 C 
HETATM   26  C27 UNL     1     -17.683   1.988   3.964  1.00  0.00    -0.058 A 
HETATM   27  C28 UNL     1     -17.146   0.815   3.278  1.00  0.00     0.008 A 
HETATM   28  C37 UNL     1     -18.820   1.915   4.901  1.00  0.00     0.077 A 
HETATM   29  C29 UNL     1     -17.688  -0.353   3.523  1.00  0.00     0.012 A 
HETATM   30  C30 UNL     1     -18.788  -0.549   4.435  1.00  0.00    -0.028 A 
HETATM   31  C31 UNL     1     -19.311  -1.799   4.665  1.00  0.00     0.036 A 
HETATM   32  C36 UNL     1     -19.323   0.541   5.100  1.00  0.00    -0.043 A 
HETATM   33  C32 UNL     1     -20.348  -1.970   5.543  1.00  0.00     0.040 A 
HETATM   34 CL1  UNL     1     -21.030  -3.564   5.851  1.00  0.00    -0.084 Cl
HETATM   35  C33 UNL     1     -20.890  -0.906   6.210  1.00  0.00    -0.040 A 
HETATM   36  C34 UNL     1     -22.015  -1.104   7.166  1.00  0.00     0.050 C 
HETATM   37  C35 UNL     1     -20.368   0.349   5.980  1.00  0.00     0.016 A 
ENDBRANCH  24  25
ENDBRANCH  23  24
ENDBRANCH  22  23
ENDBRANCH  21  22
ENDBRANCH  17  20
ENDBRANCH  16  17
ENDBRANCH  15  16
BRANCH   1  38
HETATM   38  O2  UNL     1     -15.542  12.157   2.274  1.00  0.00    -0.306 OA
BRANCH  38  39
HETATM   39  C6  UNL     1     -16.370  13.053   2.885  1.00  0.00     0.267 C 
HETATM   40  O1  UNL     1     -17.569  12.937   2.520  1.00  0.00    -0.264 OA
BRANCH  39  41
HETATM   41  C3  UNL     1     -15.936  14.072   3.882  1.00  0.00     0.040 C 
HETATM   42  C4  UNL     1     -16.220  13.582   5.296  1.00  0.00     0.025 C 
HETATM   43  C5  UNL     1     -16.807  15.289   3.657  1.00  0.00     0.025 C 
BRANCH  41  44
HETATM   44  C2  UNL     1     -14.474  14.414   3.707  1.00  0.00     0.014 C 
HETATM   45  C1  UNL     1     -13.664  13.903   4.873  1.00  0.00     0.006 C 
ENDBRANCH  41  44
ENDBRANCH  39  41
ENDBRANCH  38  39
ENDBRANCH   1  38
BRANCH  14  46
HETATM   46  O7  UNL     1     -14.396   7.812   2.427  1.00  0.00    -0.355 OA
HETATM   47  C18 UNL     1     -14.683   6.489   2.705  1.00  0.00     0.209 C 
ENDBRANCH  14  46
BRANCH   2  48
HETATM   48  O3  UNL     1     -12.717  10.051   2.660  1.00  0.00    -0.390 OA
ATOM     49  H3  UNL     1     -11.999  10.273   3.240  1.00  0.00     0.210 HD
ENDBRANCH   2  48
TORSDOF 14
ENDMDL
MODEL 5
REMARK VINA RESULT: -9.396409891      2.474      3.603
REMARK  14 active torsions:
REMARK  status: ('A' for Active; 'I' for Inactive)
REMARK    1  A    between atoms: C2_2  and  C3_3 
REMARK    2  A    between atoms: C3_3  and  C6_6 
REMARK    3  A    between atoms: C6_6  and  O2_8 
REMARK    4  A    between atoms: O2_8  and  C7_9 
REMARK    5  A    between atoms: C8_10  and  O3_11 
REMARK    6  A    between atoms: C17_24  and  O7_25 
REMARK    7  A    between atoms: C19_27  and  O8_28 
REMARK    8  A    between atoms: O8_28  and  C20_29 
REMARK    9  A    between atoms: C20_29  and  O9_30 
REMARK   10  A    between atoms: C20_29  and  C21_32 
REMARK   11  A    between atoms: C22_33  and  C23_34 
REMARK   12  A    between atoms: C23_34  and  C24_35 
REMARK   13  A    between atoms: C24_35  and  C25_36 
REMARK   14  A    between atoms: C25_36  and  C26_37 
ROOT
HETATM    1  C7  UNL     1     -14.751   6.629   0.434  1.00  0.00     0.222 C 
HETATM    2  C8  UNL     1     -13.839   6.780  -0.714  1.00  0.00     0.186 C 
HETATM    3  C9  UNL     1     -12.679   5.855  -0.632  1.00  0.00     0.191 A 
HETATM    4  O4  UNL     1     -11.604   6.378  -1.493  1.00  0.00    -0.364 OA
HETATM    5  C10 UNL     1     -11.460   6.166  -0.074  1.00  0.00     0.115 A 
HETATM    6  C11 UNL     1     -10.461   5.012   0.125  1.00  0.00     0.052 C 
HETATM    7  C12 UNL     1     -11.267   7.357   0.806  1.00  0.00     0.197 C 
HETATM    8  O5  UNL     1      -9.974   7.296   1.320  1.00  0.00    -0.344 OA
HETATM    9  C13 UNL     1     -10.014   7.599   2.649  1.00  0.00     0.158 C 
HETATM   10  C14 UNL     1      -9.211   8.859   2.890  1.00  0.00     0.078 C 
HETATM   11  C15 UNL     1      -9.361   6.515   3.514  1.00  0.00     0.078 C 
HETATM   12  O6  UNL     1     -11.319   7.705   3.034  1.00  0.00    -0.341 OA
HETATM   13  C16 UNL     1     -12.135   7.257   2.004  1.00  0.00     0.216 C 
HETATM   14  C17 UNL     1     -13.357   8.186   1.940  1.00  0.00     0.109 C 
HETATM   15  C19 UNL     1     -14.623   7.420   1.669  1.00  0.00     0.114 C 
ENDROOT
BRANCH  15  16
HETATM   16  O8  UNL     1     -15.660   8.010   2.121  1.00  0.00    -0.316 OA
BRANCH  16  17
HETATM   17  C20 UNL     1     -16.530   8.526   2.827  1.00  0.00     0.287 C 
BRANCH  17  18
HETATM   18  O9  UNL     1     -16.589   9.966   2.887  1.00  0.00    -0.367 OA
ATOM     19  H9  UNL     1     -17.169  10.414   2.282  1.00  0.00     0.213 HD
ENDBRANCH  17  18
BRANCH  17  20
HETATM   20  C21 UNL     1     -16.790   8.139   4.243  1.00  0.00     0.029 C 
HETATM   21  C22 UNL     1     -17.585   7.188   4.641  1.00  0.00    -0.026 C 
BRANCH  21  22
HETATM   22  C23 UNL     1     -18.344   6.360   3.693  1.00  0.00     0.027 C 
BRANCH  22  23
HETATM   23  C24 UNL     1     -17.519   5.229   3.117  1.00  0.00     0.007 C 
BRANCH  23  24
HETATM   24  C25 UNL     1     -17.245   4.167   4.145  1.00  0.00     0.028 C 
BRANCH  24  25
HETATM   25  C26 UNL     1     -16.850   2.888   3.497  1.00  0.00    -0.019 C 
HETATM   26  C27 UNL     1     -17.505   1.795   3.786  1.00  0.00    -0.058 A 
HETATM   27  C28 UNL     1     -17.073   0.570   3.117  1.00  0.00     0.008 A 
HETATM   28  C37 UNL     1     -18.620   1.829   4.751  1.00  0.00     0.077 A 
HETATM   29  C29 UNL     1     -17.693  -0.548   3.403  1.00  0.00     0.012 A 
HETATM   30  C30 UNL     1     -18.782  -0.641   4.345  1.00  0.00    -0.028 A 
HETATM   31  C31 UNL     1     -19.389  -1.843   4.618  1.00  0.00     0.036 A 
HETATM   32  C36 UNL     1     -19.218   0.500   4.996  1.00  0.00    -0.043 A 
HETATM   33  C32 UNL     1     -20.413  -1.917   5.523  1.00  0.00     0.040 A 
HETATM   34 CL1  UNL     1     -21.203  -3.448   5.887  1.00  0.00    -0.084 Cl
HETATM   35  C33 UNL     1     -20.858  -0.800   6.176  1.00  0.00    -0.040 A 
HETATM   36  C34 UNL     1     -21.971  -0.892   7.163  1.00  0.00     0.050 C 
HETATM   37  C35 UNL     1     -20.252   0.407   5.904  1.00  0.00     0.016 A 
ENDBRANCH  24  25
ENDBRANCH  23  24
ENDBRANCH  22  23
ENDBRANCH  21  22
ENDBRANCH  17  20
ENDBRANCH  16  17
ENDBRANCH  15  16
BRANCH   1  38
HETATM   38  O2  UNL     1     -14.766   5.211   0.594  1.00  0.00    -0.306 OA
BRANCH  38  39
HETATM   39  C6  UNL     1     -15.687   4.356   0.063  1.00  0.00     0.267 C 
HETATM   40  O1  UNL     1     -16.794   4.910  -0.163  1.00  0.00    -0.264 OA
BRANCH  39  41
HETATM   41  C3  UNL     1     -15.442   2.916  -0.232  1.00  0.00     0.040 C 
HETATM   42  C4  UNL     1     -14.465   2.328   0.779  1.00  0.00     0.025 C 
HETATM   43  C5  UNL     1     -14.759   2.866  -1.581  1.00  0.00     0.025 C 
BRANCH  41  44
HETATM   44  C2  UNL     1     -16.738   2.138  -0.252  1.00  0.00     0.014 C 
HETATM   45  C1  UNL     1     -16.485   0.690  -0.587  1.00  0.00     0.006 C 
ENDBRANCH  41  44
ENDBRANCH  39  41
ENDBRANCH  38  39
ENDBRANCH   1  38
BRANCH  14  46
HETATM   46  O7  UNL     1     -13.099   9.331   1.280  1.00  0.00    -0.355 OA
HETATM   47  C18 UNL     1     -13.188  10.511   1.994  1.00  0.00     0.209 C 
ENDBRANCH  14  46
BRANCH   2  48
HETATM   48  O3  UNL     1     -13.563   8.041  -1.170  1.00  0.00    -0.390 OA
ATOM     49  H3  UNL     1     -13.403   8.164  -2.099  1.00  0.00     0.210 HD
ENDBRANCH   2  48
TORSDOF 14
ENDMDL
