MODEL 1
REMARK VINA RESULT: -7.365155445      0.000      0.000
REMARK  2 active torsions:
REMARK  status: ('A' for Active; 'I' for Inactive)
REMARK    1  A    between atoms: S1_2  and  C2_4 
REMARK    2  A    between atoms: C3_5  and  C4_6 
ROOT
HETATM    1  C2  UNL     1     -21.709  54.845   0.770  1.00  0.00     0.052 A 
HETATM    2  C3  UNL     1     -20.631  54.023   0.573  1.00  0.00     0.007 A 
HETATM    3  S2  UNL     1     -19.507  54.566   1.731  1.00  0.00    -0.095 SA
HETATM    4  C10 UNL     1     -20.417  55.814   2.439  1.00  0.00     0.016 A 
HETATM    5  C11 UNL     1     -21.597  55.777   1.739  1.00  0.00    -0.022 A 
HETATM    6  C12 UNL     1     -22.553  56.864   2.218  1.00  0.00     0.068 C 
HETATM    7  C13 UNL     1     -22.633  56.670   3.715  1.00  0.00     0.237 C 
HETATM    8  N1  UNL     1     -21.388  56.975   4.370  1.00  0.00    -0.070 N 
ATOM      9  H11 UNL     1     -21.291  56.422   5.222  1.00  0.00     0.277 HD
ATOM     10  H12 UNL     1     -21.418  57.912   4.771  1.00  0.00     0.277 HD
HETATM   11  C14 UNL     1     -20.229  56.825   3.547  1.00  0.00     0.279 C 
ENDROOT
BRANCH   2  12
HETATM   12  C4  UNL     1     -20.514  52.885  -0.422  1.00  0.00     0.027 C 
HETATM   13  C5  UNL     1     -19.879  53.402  -1.656  1.00  0.00     0.010 C 
HETATM   14  C6  UNL     1     -18.731  52.558  -2.158  1.00  0.00     0.001 C 
HETATM   15  C7  UNL     1     -17.741  52.551  -0.991  1.00  0.00     0.000 C 
HETATM   16  C8  UNL     1     -18.336  51.648   0.036  1.00  0.00     0.001 C 
HETATM   17  C9  UNL     1     -19.802  51.752   0.242  1.00  0.00     0.010 C 
ENDBRANCH   2  12
BRANCH   1  18
HETATM   18  S1  UNL     1     -23.168  54.674  -0.245  1.00  0.00     0.047 S 
HETATM   19  C1  UNL     1     -23.502  56.238  -1.056  1.00  0.00     0.133 C 
HETATM   20  O1  UNL     1     -24.508  54.255   0.638  1.00  0.00    -0.253 OA
ENDBRANCH   1  18
TORSDOF 2
ENDMDL
MODEL 2
REMARK VINA RESULT: -7.362548858      3.299      5.355
REMARK  2 active torsions:
REMARK  status: ('A' for Active; 'I' for Inactive)
REMARK    1  A    between atoms: S1_2  and  C2_4 
REMARK    2  A    between atoms: C3_5  and  C4_6 
ROOT
HETATM    1  C2  UNL     1     -21.704  54.120  -0.748  1.00  0.00     0.052 A 
HETATM    2  C3  UNL     1     -20.627  54.943  -0.550  1.00  0.00     0.007 A 
HETATM    3  S2  UNL     1     -19.507  54.410  -1.716  1.00  0.00    -0.095 SA
HETATM    4  C10 UNL     1     -20.417  53.165  -2.429  1.00  0.00     0.016 A 
HETATM    5  C11 UNL     1     -21.595  53.194  -1.724  1.00  0.00    -0.022 A 
HETATM    6  C12 UNL     1     -22.549  52.109  -2.207  1.00  0.00     0.068 C 
HETATM    7  C13 UNL     1     -22.637  52.312  -3.701  1.00  0.00     0.237 C 
HETATM    8  N1  UNL     1     -21.393  52.014  -4.364  1.00  0.00    -0.070 N 
ATOM      9  H11 UNL     1     -21.301  52.573  -5.212  1.00  0.00     0.277 HD
ATOM     10  H12 UNL     1     -21.423  51.080  -4.771  1.00  0.00     0.277 HD
HETATM   11  C14 UNL     1     -20.232  52.162  -3.544  1.00  0.00     0.279 C 
ENDROOT
BRANCH   2  12
HETATM   12  C4  UNL     1     -20.508  56.074   0.452  1.00  0.00     0.027 C 
HETATM   13  C5  UNL     1     -19.842  55.557   1.669  1.00  0.00     0.010 C 
HETATM   14  C6  UNL     1     -18.698  56.414   2.156  1.00  0.00     0.001 C 
HETATM   15  C7  UNL     1     -17.731  56.445   0.971  1.00  0.00     0.000 C 
HETATM   16  C8  UNL     1     -18.358  57.347  -0.036  1.00  0.00     0.001 C 
HETATM   17  C9  UNL     1     -19.825  57.223  -0.216  1.00  0.00     0.010 C 
ENDBRANCH   2  12
BRANCH   1  18
HETATM   18  S1  UNL     1     -23.160  54.281   0.274  1.00  0.00     0.047 S 
HETATM   19  C1  UNL     1     -23.507  52.702   1.048  1.00  0.00     0.133 C 
HETATM   20  O1  UNL     1     -24.496  54.734  -0.596  1.00  0.00    -0.253 OA
ENDBRANCH   1  18
TORSDOF 2
ENDMDL
MODEL 3
REMARK VINA RESULT: -7.189054868      2.343      2.728
REMARK  2 active torsions:
REMARK  status: ('A' for Active; 'I' for Inactive)
REMARK    1  A    between atoms: S1_2  and  C2_4 
REMARK    2  A    between atoms: C3_5  and  C4_6 
ROOT
HETATM    1  C2  UNL     1     -21.515  54.354  -0.979  1.00  0.00     0.052 A 
HETATM    2  C3  UNL     1     -20.228  53.928  -1.180  1.00  0.00     0.007 A 
HETATM    3  S2  UNL     1     -19.323  55.369  -1.120  1.00  0.00    -0.095 SA
HETATM    4  C10 UNL     1     -20.581  56.476  -0.840  1.00  0.00     0.016 A 
HETATM    5  C11 UNL     1     -21.698  55.680  -0.803  1.00  0.00    -0.022 A 
HETATM    6  C12 UNL     1     -22.957  56.510  -0.588  1.00  0.00     0.068 C 
HETATM    7  C13 UNL     1     -22.663  57.341   0.640  1.00  0.00     0.237 C 
HETATM    8  N1  UNL     1     -21.629  58.314   0.402  1.00  0.00    -0.070 N 
ATOM      9  H11 UNL     1     -21.124  58.512   1.266  1.00  0.00     0.277 HD
ATOM     10  H12 UNL     1     -22.038  59.231   0.224  1.00  0.00     0.277 HD
HETATM   11  C14 UNL     1     -20.713  57.968  -0.639  1.00  0.00     0.279 C 
ENDROOT
BRANCH   2  12
HETATM   12  C4  UNL     1     -19.753  52.501  -1.370  1.00  0.00     0.027 C 
HETATM   13  C5  UNL     1     -18.781  52.472  -2.487  1.00  0.00     0.010 C 
HETATM   14  C6  UNL     1     -17.499  51.740  -2.168  1.00  0.00     0.001 C 
HETATM   15  C7  UNL     1     -16.932  52.495  -0.964  1.00  0.00     0.000 C 
HETATM   16  C8  UNL     1     -17.784  52.102   0.195  1.00  0.00     0.001 C 
HETATM   17  C9  UNL     1     -19.242  51.998  -0.059  1.00  0.00     0.010 C 
ENDBRANCH   2  12
BRANCH   1  18
HETATM   18  S1  UNL     1     -22.861  53.181  -0.977  1.00  0.00     0.047 S 
HETATM   19  C1  UNL     1     -22.787  52.210   0.528  1.00  0.00     0.133 C 
HETATM   20  O1  UNL     1     -22.794  52.141  -2.266  1.00  0.00    -0.253 OA
ENDBRANCH   1  18
TORSDOF 2
ENDMDL
MODEL 4
REMARK VINA RESULT: -7.181387398      2.906      4.553
REMARK  2 active torsions:
REMARK  status: ('A' for Active; 'I' for Inactive)
REMARK    1  A    between atoms: S1_2  and  C2_4 
REMARK    2  A    between atoms: C3_5  and  C4_6 
ROOT
HETATM    1  C2  UNL     1     -21.534  54.622   0.968  1.00  0.00     0.052 A 
HETATM    2  C3  UNL     1     -20.251  55.050   1.190  1.00  0.00     0.007 A 
HETATM    3  S2  UNL     1     -19.345  53.609   1.159  1.00  0.00    -0.095 SA
HETATM    4  C10 UNL     1     -20.597  52.499   0.866  1.00  0.00     0.016 A 
HETATM    5  C11 UNL     1     -21.714  53.295   0.800  1.00  0.00    -0.022 A 
HETATM    6  C12 UNL     1     -22.968  52.462   0.568  1.00  0.00     0.068 C 
HETATM    7  C13 UNL     1     -22.651  51.621  -0.646  1.00  0.00     0.237 C 
HETATM    8  N1  UNL     1     -21.621  50.650  -0.381  1.00  0.00    -0.070 N 
ATOM      9  H11 UNL     1     -21.100  50.445  -1.233  1.00  0.00     0.277 HD
ATOM     10  H12 UNL     1     -22.034  49.735  -0.202  1.00  0.00     0.277 HD
HETATM   11  C14 UNL     1     -20.726  51.005   0.675  1.00  0.00     0.279 C 
ENDROOT
BRANCH   2  12
HETATM   12  C4  UNL     1     -19.780  56.479   1.377  1.00  0.00     0.027 C 
HETATM   13  C5  UNL     1     -18.800  56.511   2.486  1.00  0.00     0.010 C 
HETATM   14  C6  UNL     1     -17.523  57.248   2.158  1.00  0.00     0.001 C 
HETATM   15  C7  UNL     1     -16.963  56.495   0.950  1.00  0.00     0.000 C 
HETATM   16  C8  UNL     1     -17.825  56.885  -0.202  1.00  0.00     0.001 C 
HETATM   17  C9  UNL     1     -19.281  56.984   0.062  1.00  0.00     0.010 C 
ENDBRANCH   2  12
BRANCH   1  18
HETATM   18  S1  UNL     1     -22.880  55.794   0.931  1.00  0.00     0.047 S 
HETATM   19  C1  UNL     1     -22.822  56.701  -0.615  1.00  0.00     0.133 C 
HETATM   20  O1  UNL     1     -22.800  56.888   2.174  1.00  0.00    -0.253 OA
ENDBRANCH   1  18
TORSDOF 2
ENDMDL
MODEL 5
REMARK VINA RESULT: -7.125215148      4.749      6.595
REMARK  2 active torsions:
REMARK  status: ('A' for Active; 'I' for Inactive)
REMARK    1  A    between atoms: S1_2  and  C2_4 
REMARK    2  A    between atoms: C3_5  and  C4_6 
ROOT
HETATM    1  C2  UNL     1     -21.063  52.397  -3.142  1.00  0.00     0.052 A 
HETATM    2  C3  UNL     1     -19.867  52.731  -2.561  1.00  0.00     0.007 A 
HETATM    3  S2  UNL     1     -18.729  52.390  -3.781  1.00  0.00    -0.095 SA
HETATM    4  C10 UNL     1     -19.780  51.837  -4.996  1.00  0.00     0.016 A 
HETATM    5  C11 UNL     1     -21.017  51.931  -4.408  1.00  0.00    -0.022 A 
HETATM    6  C12 UNL     1     -22.110  51.442  -5.350  1.00  0.00     0.068 C 
HETATM    7  C13 UNL     1     -21.894  52.221  -6.626  1.00  0.00     0.237 C 
HETATM    8  N1  UNL     1     -20.666  51.857  -7.284  1.00  0.00    -0.070 N 
ATOM      9  H11 UNL     1     -20.301  52.647  -7.816  1.00  0.00     0.277 HD
ATOM     10  H12 UNL     1     -20.851  51.203  -8.045  1.00  0.00     0.277 HD
HETATM   11  C14 UNL     1     -19.658  51.334  -6.416  1.00  0.00     0.279 C 
ENDROOT
BRANCH   2  12
HETATM   12  C4  UNL     1     -19.649  53.302  -1.174  1.00  0.00     0.027 C 
HETATM   13  C5  UNL     1     -19.796  52.208  -0.186  1.00  0.00     0.010 C 
HETATM   14  C6  UNL     1     -18.669  52.130   0.817  1.00  0.00     0.001 C 
HETATM   15  C7  UNL     1     -17.421  51.930  -0.045  1.00  0.00     0.000 C 
HETATM   16  C8  UNL     1     -17.153  53.254  -0.677  1.00  0.00     0.001 C 
HETATM   17  C9  UNL     1     -18.334  54.010  -1.159  1.00  0.00     0.010 C 
ENDBRANCH   2  12
BRANCH   1  18
HETATM   18  S1  UNL     1     -22.586  52.565  -2.227  1.00  0.00     0.047 S 
HETATM   19  C1  UNL     1     -22.984  50.992  -1.463  1.00  0.00     0.133 C 
HETATM   20  O1  UNL     1     -23.859  53.005  -3.193  1.00  0.00    -0.253 OA
ENDBRANCH   1  18
TORSDOF 2
ENDMDL
