MODEL 1
REMARK VINA RESULT: -8.243373299      0.000      0.000
REMARK  7 active torsions:
REMARK  status: ('A' for Active; 'I' for Inactive)
REMARK    1  A    between atoms: C2_2  and  C3_3 
REMARK    2  A    between atoms: C3_3  and  C4_4 
REMARK    3  A    between atoms: C7_10  and  C8_11 
REMARK    4  A    between atoms: C14_20  and  O3_21 
REMARK    5  A    between atoms: C15_25  and  C16_26 
REMARK    6  A    between atoms: C16_26  and  C17_27 
REMARK    7  A    between atoms: C20_30  and  O4_31 
ROOT
HETATM    1  C4  UNL     1      45.942  10.362   9.584  1.00  0.00     0.000 C 
HETATM    2  C5  UNL     1      44.556  10.429  10.090  1.00  0.00     0.155 C 
HETATM    3  C6  UNL     1      43.633  11.410   9.569  1.00  0.00     0.223 C 
HETATM    4  O1  UNL     1      43.747  11.884   8.420  1.00  0.00    -0.273 OA
HETATM    5  N1  UNL     1      42.544  11.882  10.344  1.00  0.00    -0.347 N 
ATOM      6  H1  UNL     1      41.625  11.933   9.903  1.00  0.00     0.163 HD
HETATM    7  C7  UNL     1      42.666  12.300  11.744  1.00  0.00     0.180 C 
HETATM    8  C11 UNL     1      43.058  13.711  11.785  1.00  0.00     0.241 C 
HETATM    9  O2  UNL     1      42.750  14.404  10.739  1.00  0.00    -0.271 OA
HETATM   10  N2  UNL     1      43.717  14.425  12.787  1.00  0.00    -0.348 N 
ATOM     11  H2  UNL     1      43.290  15.319  13.027  1.00  0.00     0.163 HD
HETATM   12  C12 UNL     1      44.896  14.105  13.532  1.00  0.00     0.155 C 
HETATM   13  C13 UNL     1      44.887  12.733  14.177  1.00  0.00     0.041 C 
HETATM   14  C14 UNL     1      46.187  14.430  12.872  1.00  0.00     0.135 C 
HETATM   15  N3  UNL     1      46.570  14.489  11.549  1.00  0.00    -0.359 N 
ATOM     16  H3  UNL     1      46.779  15.440  11.245  1.00  0.00     0.162 HD
HETATM   17  C15 UNL     1      46.745  13.521  10.494  1.00  0.00     0.180 C 
HETATM   18  C24 UNL     1      47.147  12.177  10.948  1.00  0.00     0.246 C 
HETATM   19  O5  UNL     1      47.784  12.253  12.068  1.00  0.00    -0.271 OA
HETATM   20  N4  UNL     1      46.977  10.922  10.422  1.00  0.00    -0.328 N 
HETATM   21  C25 UNL     1      48.069   9.944  10.774  1.00  0.00     0.159 C 
ENDROOT
BRANCH  17  22
HETATM   22  C16 UNL     1      47.743  14.023   9.425  1.00  0.00     0.073 C 
BRANCH  22  23
HETATM   23  C17 UNL     1      48.125  15.409   9.545  1.00  0.00    -0.053 A 
HETATM   24  C18 UNL     1      47.205  16.452   9.355  1.00  0.00     0.010 A 
HETATM   25  C19 UNL     1      47.600  17.764   9.489  1.00  0.00     0.040 A 
HETATM   26  C20 UNL     1      48.888  18.099   9.809  1.00  0.00     0.106 A 
HETATM   27  C22 UNL     1      49.801  17.086   9.999  1.00  0.00     0.150 A 
HETATM   28  F1  UNL     1      51.093  17.420  10.320  1.00  0.00    -0.203 F 
HETATM   29  C23 UNL     1      49.406  15.778   9.865  1.00  0.00     0.052 A 
BRANCH  26  30
HETATM   30  O4  UNL     1      49.281  19.428   9.942  1.00  0.00    -0.353 OA
HETATM   31  C21 UNL     1      49.011  20.309   8.890  1.00  0.00     0.210 C 
ENDBRANCH  26  30
ENDBRANCH  22  23
ENDBRANCH  17  22
BRANCH  14  32
HETATM   32  O3  UNL     1      47.116  14.712  13.743  1.00  0.00    -0.348 OA
ATOM     33  H3  UNL     1      47.954  14.870  13.324  1.00  0.00     0.219 HD
ENDBRANCH  14  32
BRANCH   1  34
HETATM   34  C3  UNL     1      46.172  10.595   8.116  1.00  0.00     0.053 C 
BRANCH  34  35
HETATM   35  C2  UNL     1      47.408   9.922   7.573  1.00  0.00     0.001 C 
HETATM   36  C1  UNL     1      48.475  10.958   7.303  1.00  0.00     0.005 C 
ENDBRANCH  34  35
ENDBRANCH   1  34
BRANCH   7  37
HETATM   37  C8  UNL     1      41.326  12.025  12.389  1.00  0.00     0.009 C 
HETATM   38  C9  UNL     1      41.599  11.003  13.502  1.00  0.00     0.012 C 
HETATM   39  C10 UNL     1      40.302  11.487  11.453  1.00  0.00     0.012 C 
ENDBRANCH   7  37
TORSDOF 7
ENDMDL
MODEL 2
REMARK VINA RESULT: -8.173822356      1.598      1.919
REMARK  7 active torsions:
REMARK  status: ('A' for Active; 'I' for Inactive)
REMARK    1  A    between atoms: C2_2  and  C3_3 
REMARK    2  A    between atoms: C3_3  and  C4_4 
REMARK    3  A    between atoms: C7_10  and  C8_11 
REMARK    4  A    between atoms: C14_20  and  O3_21 
REMARK    5  A    between atoms: C15_25  and  C16_26 
REMARK    6  A    between atoms: C16_26  and  C17_27 
REMARK    7  A    between atoms: C20_30  and  O4_31 
ROOT
HETATM    1  C4  UNL     1      46.679  11.703   9.945  1.00  0.00     0.000 C 
HETATM    2  C5  UNL     1      45.427  11.475  10.697  1.00  0.00     0.155 C 
HETATM    3  C6  UNL     1      44.181  12.037  10.232  1.00  0.00     0.223 C 
HETATM    4  O1  UNL     1      43.977  12.295   9.028  1.00  0.00    -0.273 OA
HETATM    5  N1  UNL     1      43.122  12.325  11.130  1.00  0.00    -0.347 N 
ATOM      6  H1  UNL     1      42.180  12.031  10.874  1.00  0.00     0.163 HD
HETATM    7  C7  UNL     1      43.308  13.023  12.407  1.00  0.00     0.180 C 
HETATM    8  C11 UNL     1      43.246  14.467  12.171  1.00  0.00     0.241 C 
HETATM    9  O2  UNL     1      42.591  14.831  11.119  1.00  0.00    -0.271 OA
HETATM   10  N2  UNL     1      43.788  15.517  12.915  1.00  0.00    -0.348 N 
ATOM     11  H2  UNL     1      43.143  16.284  13.105  1.00  0.00     0.163 HD
HETATM   12  C12 UNL     1      45.101  15.690  13.454  1.00  0.00     0.155 C 
HETATM   13  C13 UNL     1      45.611  14.522  14.276  1.00  0.00     0.041 C 
HETATM   14  C14 UNL     1      46.120  16.231  12.517  1.00  0.00     0.135 C 
HETATM   15  N3  UNL     1      46.272  16.139  11.149  1.00  0.00    -0.359 N 
ATOM     16  H3  UNL     1      46.130  17.033  10.680  1.00  0.00     0.162 HD
HETATM   17  C15 UNL     1      46.585  15.074  10.228  1.00  0.00     0.180 C 
HETATM   18  C24 UNL     1      47.444  14.011  10.779  1.00  0.00     0.246 C 
HETATM   19  O5  UNL     1      48.180  14.477  11.732  1.00  0.00    -0.271 OA
HETATM   20  N4  UNL     1      47.598  12.682  10.479  1.00  0.00    -0.328 N 
HETATM   21  C25 UNL     1      48.978  12.136  10.747  1.00  0.00     0.159 C 
ENDROOT
BRANCH  17  22
HETATM   22  C16 UNL     1      47.214  15.620   8.925  1.00  0.00     0.073 C 
BRANCH  22  23
HETATM   23  C17 UNL     1      47.805  16.932   9.033  1.00  0.00    -0.053 A 
HETATM   24  C18 UNL     1      48.759  17.237  10.016  1.00  0.00     0.010 A 
HETATM   25  C19 UNL     1      49.313  18.496  10.083  1.00  0.00     0.040 A 
HETATM   26  C20 UNL     1      48.959  19.486   9.207  1.00  0.00     0.106 A 
HETATM   27  C22 UNL     1      48.024  19.201   8.238  1.00  0.00     0.150 A 
HETATM   28  F1  UNL     1      47.668  20.192   7.359  1.00  0.00    -0.203 F 
HETATM   29  C23 UNL     1      47.474  17.945   8.171  1.00  0.00     0.052 A 
BRANCH  26  30
HETATM   30  O4  UNL     1      49.522  20.758   9.282  1.00  0.00    -0.353 OA
HETATM   31  C21 UNL     1      48.787  21.774   9.902  1.00  0.00     0.210 C 
ENDBRANCH  26  30
ENDBRANCH  22  23
ENDBRANCH  17  22
BRANCH  14  32
HETATM   32  O3  UNL     1      47.031  16.924  13.142  1.00  0.00    -0.348 OA
ATOM     33  H3  UNL     1      47.896  16.549  13.030  1.00  0.00     0.219 HD
ENDBRANCH  14  32
BRANCH   1  34
HETATM   34  C3  UNL     1      46.612  11.704   8.443  1.00  0.00     0.053 C 
BRANCH  34  35
HETATM   35  C2  UNL     1      47.107  10.430   7.806  1.00  0.00     0.001 C 
HETATM   36  C1  UNL     1      48.549  10.597   7.386  1.00  0.00     0.005 C 
ENDBRANCH  34  35
ENDBRANCH   1  34
BRANCH   7  37
HETATM   37  C8  UNL     1      42.226  12.513  13.332  1.00  0.00     0.009 C 
HETATM   38  C9  UNL     1      42.871  11.382  14.147  1.00  0.00     0.012 C 
HETATM   39  C10 UNL     1      41.020  12.000  12.628  1.00  0.00     0.012 C 
ENDBRANCH   7  37
TORSDOF 7
ENDMDL
MODEL 3
REMARK VINA RESULT: -8.038825171      1.088      1.330
REMARK  7 active torsions:
REMARK  status: ('A' for Active; 'I' for Inactive)
REMARK    1  A    between atoms: C2_2  and  C3_3 
REMARK    2  A    between atoms: C3_3  and  C4_4 
REMARK    3  A    between atoms: C7_10  and  C8_11 
REMARK    4  A    between atoms: C14_20  and  O3_21 
REMARK    5  A    between atoms: C15_25  and  C16_26 
REMARK    6  A    between atoms: C16_26  and  C17_27 
REMARK    7  A    between atoms: C20_30  and  O4_31 
ROOT
HETATM    1  C4  UNL     1      46.326  10.727   9.531  1.00  0.00     0.000 C 
HETATM    2  C5  UNL     1      44.981  10.569  10.121  1.00  0.00     0.155 C 
HETATM    3  C6  UNL     1      43.855  11.299   9.587  1.00  0.00     0.223 C 
HETATM    4  O1  UNL     1      43.815  11.681   8.400  1.00  0.00    -0.273 OA
HETATM    5  N1  UNL     1      42.734  11.617  10.394  1.00  0.00    -0.347 N 
ATOM      6  H1  UNL     1      41.803  11.448  10.013  1.00  0.00     0.163 HD
HETATM    7  C7  UNL     1      42.839  12.176  11.746  1.00  0.00     0.180 C 
HETATM    8  C11 UNL     1      42.943  13.634  11.649  1.00  0.00     0.241 C 
HETATM    9  O2  UNL     1      42.451  14.157  10.576  1.00  0.00    -0.271 OA
HETATM   10  N2  UNL     1      43.495  14.551  12.546  1.00  0.00    -0.348 N 
ATOM     11  H2  UNL     1      42.910  15.362  12.743  1.00  0.00     0.163 HD
HETATM   12  C12 UNL     1      44.750  14.535  13.234  1.00  0.00     0.155 C 
HETATM   13  C13 UNL     1      45.048  13.252  13.984  1.00  0.00     0.041 C 
HETATM   14  C14 UNL     1      45.915  15.045  12.466  1.00  0.00     0.135 C 
HETATM   15  N3  UNL     1      46.212  15.058  11.119  1.00  0.00    -0.359 N 
ATOM     16  H3  UNL     1      46.211  16.000  10.729  1.00  0.00     0.162 HD
HETATM   17  C15 UNL     1      46.524  14.052  10.134  1.00  0.00     0.180 C 
HETATM   18  C24 UNL     1      47.209  12.858  10.664  1.00  0.00     0.246 C 
HETATM   19  O5  UNL     1      47.873  13.158  11.730  1.00  0.00    -0.271 OA
HETATM   20  N4  UNL     1      47.268  11.553  10.251  1.00  0.00    -0.328 N 
HETATM   21  C25 UNL     1      48.550  10.842  10.606  1.00  0.00     0.159 C 
ENDROOT
BRANCH  17  22
HETATM   22  C16 UNL     1      47.347  14.640   8.965  1.00  0.00     0.073 C 
BRANCH  22  23
HETATM   23  C17 UNL     1      47.850  15.976   9.180  1.00  0.00    -0.053 A 
HETATM   24  C18 UNL     1      48.749  16.272  10.216  1.00  0.00     0.010 A 
HETATM   25  C19 UNL     1      49.218  17.555  10.385  1.00  0.00     0.040 A 
HETATM   26  C20 UNL     1      48.832  18.578   9.563  1.00  0.00     0.106 A 
HETATM   27  C22 UNL     1      47.950  18.302   8.543  1.00  0.00     0.150 A 
HETATM   28  F1  UNL     1      47.561  19.326   7.717  1.00  0.00    -0.203 F 
HETATM   29  C23 UNL     1      47.483  17.022   8.374  1.00  0.00     0.052 A 
BRANCH  26  30
HETATM   30  O4  UNL     1      49.310  19.874   9.742  1.00  0.00    -0.353 OA
HETATM   31  C21 UNL     1      48.383  20.901   9.949  1.00  0.00     0.210 C 
ENDBRANCH  26  30
ENDBRANCH  22  23
ENDBRANCH  17  22
BRANCH  14  32
HETATM   32  O3  UNL     1      46.812  15.580  13.247  1.00  0.00    -0.348 OA
ATOM     33  H3  UNL     1      47.400  14.927  13.608  1.00  0.00     0.219 HD
ENDBRANCH  14  32
BRANCH   1  34
HETATM   34  C3  UNL     1      46.431  10.868   8.037  1.00  0.00     0.053 C 
BRANCH  34  35
HETATM   35  C2  UNL     1      47.727  10.352   7.462  1.00  0.00     0.001 C 
HETATM   36  C1  UNL     1      47.857   8.874   7.748  1.00  0.00     0.005 C 
ENDBRANCH  34  35
ENDBRANCH   1  34
BRANCH   7  37
HETATM   37  C8  UNL     1      41.615  11.704  12.499  1.00  0.00     0.009 C 
HETATM   38  C9  UNL     1      42.143  10.991  13.751  1.00  0.00     0.012 C 
HETATM   39  C10 UNL     1      40.747  10.779  11.722  1.00  0.00     0.012 C 
ENDBRANCH   7  37
TORSDOF 7
ENDMDL
MODEL 4
REMARK VINA RESULT: -7.802111563      1.887      2.292
REMARK  7 active torsions:
REMARK  status: ('A' for Active; 'I' for Inactive)
REMARK    1  A    between atoms: C2_2  and  C3_3 
REMARK    2  A    between atoms: C3_3  and  C4_4 
REMARK    3  A    between atoms: C7_10  and  C8_11 
REMARK    4  A    between atoms: C14_20  and  O3_21 
REMARK    5  A    between atoms: C15_25  and  C16_26 
REMARK    6  A    between atoms: C16_26  and  C17_27 
REMARK    7  A    between atoms: C20_30  and  O4_31 
ROOT
HETATM    1  C4  UNL     1      44.973  11.638  11.237  1.00  0.00     0.000 C 
HETATM    2  C5  UNL     1      43.667  11.920  11.867  1.00  0.00     0.155 C 
HETATM    3  C6  UNL     1      42.698  12.758  11.202  1.00  0.00     0.223 C 
HETATM    4  O1  UNL     1      42.666  12.878   9.960  1.00  0.00    -0.273 OA
HETATM    5  N1  UNL     1      41.728  13.488  11.934  1.00  0.00    -0.347 N 
ATOM      6  H1  UNL     1      40.760  13.459  11.614  1.00  0.00     0.163 HD
HETATM    7  C7  UNL     1      42.040  14.282  13.126  1.00  0.00     0.180 C 
HETATM    8  C11 UNL     1      42.456  15.623  12.708  1.00  0.00     0.241 C 
HETATM    9  O2  UNL     1      42.022  16.004  11.553  1.00  0.00    -0.271 OA
HETATM   10  N2  UNL     1      43.252  16.558  13.371  1.00  0.00    -0.348 N 
ATOM     11  H2  UNL     1      42.873  17.505  13.392  1.00  0.00     0.163 HD
HETATM   12  C12 UNL     1      44.514  16.403  14.027  1.00  0.00     0.155 C 
HETATM   13  C13 UNL     1      44.571  15.274  15.039  1.00  0.00     0.041 C 
HETATM   14  C14 UNL     1      45.711  16.458  13.149  1.00  0.00     0.135 C 
HETATM   15  N3  UNL     1      45.917  16.116  11.828  1.00  0.00    -0.359 N 
ATOM     16  H3  UNL     1      46.098  16.929  11.239  1.00  0.00     0.162 HD
HETATM   17  C15 UNL     1      45.936  14.879  11.086  1.00  0.00     0.180 C 
HETATM   18  C24 UNL     1      46.375  13.702  11.857  1.00  0.00     0.246 C 
HETATM   19  O5  UNL     1      47.156  14.061  12.821  1.00  0.00    -0.271 OA
HETATM   20  N4  UNL     1      46.118  12.360  11.743  1.00  0.00    -0.328 N 
HETATM   21  C25 UNL     1      47.233  11.467  12.228  1.00  0.00     0.159 C 
ENDROOT
BRANCH  17  22
HETATM   22  C16 UNL     1      46.791  15.002   9.804  1.00  0.00     0.073 C 
BRANCH  22  23
HETATM   23  C17 UNL     1      47.530  16.235   9.675  1.00  0.00    -0.053 A 
HETATM   24  C18 UNL     1      48.596  16.552  10.531  1.00  0.00     0.010 A 
HETATM   25  C19 UNL     1      49.289  17.731  10.373  1.00  0.00     0.040 A 
HETATM   26  C20 UNL     1      48.970  18.629   9.391  1.00  0.00     0.106 A 
HETATM   27  C22 UNL     1      47.926  18.330   8.545  1.00  0.00     0.150 A 
HETATM   28  F1  UNL     1      47.604  19.229   7.559  1.00  0.00    -0.203 F 
HETATM   29  C23 UNL     1      47.236  17.154   8.702  1.00  0.00     0.052 A 
BRANCH  26  30
HETATM   30  O4  UNL     1      49.674  19.821   9.238  1.00  0.00    -0.353 OA
HETATM   31  C21 UNL     1      49.061  21.011   9.644  1.00  0.00     0.210 C 
ENDBRANCH  26  30
ENDBRANCH  22  23
ENDBRANCH  17  22
BRANCH  14  32
HETATM   32  O3  UNL     1      46.752  16.927  13.779  1.00  0.00    -0.348 OA
ATOM     33  H3  UNL     1      47.128  16.283  14.367  1.00  0.00     0.219 HD
ENDBRANCH  14  32
BRANCH   1  34
HETATM   34  C3  UNL     1      45.010  11.430   9.748  1.00  0.00     0.053 C 
BRANCH  34  35
HETATM   35  C2  UNL     1      46.176  10.599   9.273  1.00  0.00     0.001 C 
HETATM   36  C1  UNL     1      47.069  11.436   8.386  1.00  0.00     0.005 C 
ENDBRANCH  34  35
ENDBRANCH   1  34
BRANCH   7  37
HETATM   37  C8  UNL     1      40.794  14.273  13.983  1.00  0.00     0.009 C 
HETATM   38  C9  UNL     1      41.238  13.769  15.363  1.00  0.00     0.012 C 
HETATM   39  C10 UNL     1      39.705  13.406  13.457  1.00  0.00     0.012 C 
ENDBRANCH   7  37
TORSDOF 7
ENDMDL
MODEL 5
REMARK VINA RESULT: -7.687559195      2.729      7.042
REMARK  7 active torsions:
REMARK  status: ('A' for Active; 'I' for Inactive)
REMARK    1  A    between atoms: C2_2  and  C3_3 
REMARK    2  A    between atoms: C3_3  and  C4_4 
REMARK    3  A    between atoms: C7_10  and  C8_11 
REMARK    4  A    between atoms: C14_20  and  O3_21 
REMARK    5  A    between atoms: C15_25  and  C16_26 
REMARK    6  A    between atoms: C16_26  and  C17_27 
REMARK    7  A    between atoms: C20_30  and  O4_31 
ROOT
HETATM    1  C4  UNL     1      47.807  14.511  10.676  1.00  0.00     0.000 C 
HETATM    2  C5  UNL     1      48.796  13.691   9.946  1.00  0.00     0.155 C 
HETATM    3  C6  UNL     1      48.550  13.289   8.581  1.00  0.00     0.223 C 
HETATM    4  O1  UNL     1      47.816  13.948   7.817  1.00  0.00    -0.273 OA
HETATM    5  N1  UNL     1      49.135  12.115   8.042  1.00  0.00    -0.347 N 
ATOM      6  H1  UNL     1      49.569  12.173   7.120  1.00  0.00     0.163 HD
HETATM    7  C7  UNL     1      49.152  10.824   8.736  1.00  0.00     0.180 C 
HETATM    8  C11 UNL     1      47.908  10.110   8.439  1.00  0.00     0.241 C 
HETATM    9  O2  UNL     1      47.322  10.448   7.339  1.00  0.00    -0.271 OA
HETATM   10  N2  UNL     1      47.256   9.112   9.167  1.00  0.00    -0.348 N 
ATOM     11  H2  UNL     1      46.965   8.304   8.618  1.00  0.00     0.163 HD
HETATM   12  C12 UNL     1      46.931   9.041  10.559  1.00  0.00     0.155 C 
HETATM   13  C13 UNL     1      48.093   9.307  11.497  1.00  0.00     0.041 C 
HETATM   14  C14 UNL     1      45.682   9.733  10.968  1.00  0.00     0.135 C 
HETATM   15  N3  UNL     1      45.021  10.837  10.473  1.00  0.00    -0.359 N 
ATOM     16  H3  UNL     1      44.126  10.598  10.047  1.00  0.00     0.162 HD
HETATM   17  C15 UNL     1      45.300  12.252  10.416  1.00  0.00     0.180 C 
HETATM   18  C24 UNL     1      46.122  12.766  11.527  1.00  0.00     0.246 C 
HETATM   19  O5  UNL     1      45.971  12.028  12.576  1.00  0.00    -0.271 OA
HETATM   20  N4  UNL     1      46.975  13.832  11.644  1.00  0.00    -0.328 N 
HETATM   21  C25 UNL     1      47.064  14.412  13.033  1.00  0.00     0.159 C 
ENDROOT
BRANCH  17  22
HETATM   22  C16 UNL     1      43.999  13.081  10.312  1.00  0.00     0.073 C 
BRANCH  22  23
HETATM   23  C17 UNL     1      43.332  13.335  11.566  1.00  0.00    -0.053 A 
HETATM   24  C18 UNL     1      42.568  12.351  12.212  1.00  0.00     0.010 A 
HETATM   25  C19 UNL     1      41.954  12.623  13.414  1.00  0.00     0.040 A 
HETATM   26  C20 UNL     1      42.063  13.846  14.018  1.00  0.00     0.106 A 
HETATM   27  C22 UNL     1      42.810  14.821  13.396  1.00  0.00     0.150 A 
HETATM   28  F1  UNL     1      42.921  16.048  14.000  1.00  0.00    -0.203 F 
HETATM   29  C23 UNL     1      43.422  14.548  12.197  1.00  0.00     0.052 A 
BRANCH  26  30
HETATM   30  O4  UNL     1      41.438  14.114  15.234  1.00  0.00    -0.353 OA
HETATM   31  C21 UNL     1      42.120  13.799  16.414  1.00  0.00     0.210 C 
ENDBRANCH  26  30
ENDBRANCH  22  23
ENDBRANCH  17  22
BRANCH  14  32
HETATM   32  O3  UNL     1      45.126   9.156  11.997  1.00  0.00    -0.348 OA
ATOM     33  H3  UNL     1      45.338   8.231  12.040  1.00  0.00     0.219 HD
ENDBRANCH  14  32
BRANCH   1  34
HETATM   34  C3  UNL     1      47.081  15.587   9.917  1.00  0.00     0.053 C 
BRANCH  34  35
HETATM   35  C2  UNL     1      47.570  16.983  10.211  1.00  0.00     0.001 C 
HETATM   36  C1  UNL     1      47.786  17.730   8.915  1.00  0.00     0.005 C 
ENDBRANCH  34  35
ENDBRANCH   1  34
BRANCH   7  37
HETATM   37  C8  UNL     1      50.393  10.102   8.263  1.00  0.00     0.009 C 
HETATM   38  C9  UNL     1      51.222  11.147   7.502  1.00  0.00     0.012 C 
HETATM   39  C10 UNL     1      50.116   8.939   7.377  1.00  0.00     0.012 C 
ENDBRANCH   7  37
TORSDOF 7
ENDMDL
