MODEL 1
REMARK VINA RESULT: -7.461853131      0.000      0.000
REMARK  5 active torsions:
REMARK  status: ('A' for Active; 'I' for Inactive)
REMARK    1  A    between atoms: N1_1  and  C1_4 
REMARK    2  A    between atoms: C2_7  and  N3_8 
REMARK    3  A    between atoms: C7_16  and  N5_17 
REMARK       I    between atoms: N5_17  and  C8_19 
REMARK    4  A    between atoms: C8_19  and  O3_21 
REMARK    5  A    between atoms: O3_21  and  N6_22 
ROOT
HETATM    1  C1  UNL     1     -17.188  55.947 -35.129  1.00  0.00     0.705 A 
HETATM    2  N2  UNL     1     -16.470  57.082 -35.177  1.00  0.00    -0.022 N 
ATOM      3  H2  UNL     1     -15.468  57.035 -35.363  1.00  0.00     0.203 HD
HETATM    4  C2  UNL     1     -17.064  58.295 -34.979  1.00  0.00     0.709 A 
HETATM    5  N4  UNL     1     -18.385  58.261 -34.740  1.00  0.00    -0.021 N 
ATOM      6  H4  UNL     1     -18.861  59.150 -34.587  1.00  0.00     0.203 HD
HETATM    7  C7  UNL     1     -19.125  57.140 -34.686  1.00  0.00     0.715 A 
HETATM    8  N7  UNL     1     -18.511  55.965 -34.885  1.00  0.00    -0.021 N 
ATOM      9  H7  UNL     1     -19.041  55.094 -34.851  1.00  0.00     0.203 HD
ENDROOT
BRANCH   7  10
HETATM   10  N5  UNL     1     -20.395  57.187 -34.450  1.00  0.00    -0.132 N 
HETATM   11  C8  UNL     1     -21.300  57.982 -35.160  1.00  0.00     0.400 C 
HETATM   12  O2  UNL     1     -21.588  59.174 -34.881  1.00  0.00    -0.236 OA
ATOM     13  H5  UNL     1     -20.761  56.605 -33.696  1.00  0.00     0.190 HD
BRANCH  11  14
HETATM   14  O3  UNL     1     -21.944  57.413 -36.274  1.00  0.00    -0.188 OA
BRANCH  14  15
HETATM   15  N6  UNL     1     -21.278  57.189 -37.451  1.00  0.00    -0.301 N 
ATOM     16  H62 UNL     1     -20.845  56.277 -37.594  1.00  0.00     0.184 HD
ATOM     17  H61 UNL     1     -21.211  57.908 -38.172  1.00  0.00     0.184 HD
ENDBRANCH  14  15
ENDBRANCH  11  14
ENDBRANCH   7  10
BRANCH   4  18
HETATM   18  N3  UNL     1     -16.314  59.494 -35.029  1.00  0.00    -0.213 N 
HETATM   19  C3  UNL     1     -16.934  60.735 -35.410  1.00  0.00     0.167 C 
HETATM   20  C4  UNL     1     -15.998  61.501 -36.287  1.00  0.00     0.188 C 
HETATM   21  O1  UNL     1     -14.697  61.518 -35.868  1.00  0.00    -0.388 OA
HETATM   22  C5  UNL     1     -14.511  60.980 -34.601  1.00  0.00     0.188 C 
HETATM   23  C6  UNL     1     -14.914  59.503 -34.699  1.00  0.00     0.167 C 
ENDBRANCH   4  18
BRANCH   1  24
HETATM   24  N1  UNL     1     -16.611  54.791 -35.319  1.00  0.00    -0.234 N 
ATOM     25  H12 UNL     1     -16.169  54.335 -34.521  1.00  0.00     0.174 HD
ATOM     26  H11 UNL     1     -16.607  54.362 -36.245  1.00  0.00     0.174 HD
ENDBRANCH   1  24
TORSDOF 5
ENDMDL
MODEL 2
REMARK VINA RESULT: -6.720959974      2.427      6.298
REMARK  5 active torsions:
REMARK  status: ('A' for Active; 'I' for Inactive)
REMARK    1  A    between atoms: N1_1  and  C1_4 
REMARK    2  A    between atoms: C2_7  and  N3_8 
REMARK    3  A    between atoms: C7_16  and  N5_17 
REMARK       I    between atoms: N5_17  and  C8_19 
REMARK    4  A    between atoms: C8_19  and  O3_21 
REMARK    5  A    between atoms: O3_21  and  N6_22 
ROOT
HETATM    1  C1  UNL     1     -18.792  60.914 -36.022  1.00  0.00     0.705 A 
HETATM    2  N2  UNL     1     -19.484  59.802 -35.725  1.00  0.00    -0.022 N 
ATOM      3  H2  UNL     1     -20.358  59.608 -36.214  1.00  0.00     0.203 HD
HETATM    4  C2  UNL     1     -19.033  58.929 -34.777  1.00  0.00     0.709 A 
HETATM    5  N4  UNL     1     -17.876  59.265 -34.184  1.00  0.00    -0.021 N 
ATOM      6  H4  UNL     1     -17.509  58.634 -33.470  1.00  0.00     0.203 HD
HETATM    7  C7  UNL     1     -17.165  60.372 -34.463  1.00  0.00     0.715 A 
HETATM    8  N7  UNL     1     -17.636  61.208 -35.399  1.00  0.00    -0.021 N 
ATOM      9  H7  UNL     1     -17.123  62.057 -35.636  1.00  0.00     0.203 HD
ENDROOT
BRANCH   7  10
HETATM   10  N5  UNL     1     -16.057  60.628 -33.849  1.00  0.00    -0.132 N 
HETATM   11  C8  UNL     1     -14.786  60.447 -34.406  1.00  0.00     0.400 C 
HETATM   12  O2  UNL     1     -14.124  59.380 -34.362  1.00  0.00    -0.236 OA
ATOM     13  H5  UNL     1     -16.113  60.986 -32.896  1.00  0.00     0.190 HD
BRANCH  11  14
HETATM   14  O3  UNL     1     -14.196  61.539 -35.068  1.00  0.00    -0.188 OA
BRANCH  14  15
HETATM   15  N6  UNL     1     -14.308  61.701 -36.425  1.00  0.00    -0.301 N 
ATOM     16  H62 UNL     1     -13.712  61.135 -37.029  1.00  0.00     0.184 HD
ATOM     17  H61 UNL     1     -14.966  62.367 -36.831  1.00  0.00     0.184 HD
ENDBRANCH  14  15
ENDBRANCH  11  14
ENDBRANCH   7  10
BRANCH   4  18
HETATM   18  N3  UNL     1     -19.756  57.755 -34.459  1.00  0.00    -0.213 N 
HETATM   19  C3  UNL     1     -20.656  57.726 -33.336  1.00  0.00     0.167 C 
HETATM   20  C4  UNL     1     -20.520  56.415 -32.633  1.00  0.00     0.188 C 
HETATM   21  O1  UNL     1     -20.458  55.323 -33.453  1.00  0.00    -0.388 OA
HETATM   22  C5  UNL     1     -20.724  55.610 -34.786  1.00  0.00     0.188 C 
HETATM   23  C6  UNL     1     -19.613  56.562 -35.250  1.00  0.00     0.167 C 
ENDBRANCH   4  18
BRANCH   1  24
HETATM   24  N1  UNL     1     -19.231  61.744 -36.930  1.00  0.00    -0.234 N 
ATOM     25  H12 UNL     1     -19.677  61.357 -37.761  1.00  0.00     0.174 HD
ATOM     26  H11 UNL     1     -19.126  62.751 -36.804  1.00  0.00     0.174 HD
ENDBRANCH   1  24
TORSDOF 5
ENDMDL
MODEL 3
REMARK VINA RESULT: -6.590928504      2.410      3.701
REMARK  5 active torsions:
REMARK  status: ('A' for Active; 'I' for Inactive)
REMARK    1  A    between atoms: N1_1  and  C1_4 
REMARK    2  A    between atoms: C2_7  and  N3_8 
REMARK    3  A    between atoms: C7_16  and  N5_17 
REMARK       I    between atoms: N5_17  and  C8_19 
REMARK    4  A    between atoms: C8_19  and  O3_21 
REMARK    5  A    between atoms: O3_21  and  N6_22 
ROOT
HETATM    1  C1  UNL     1     -21.170  59.290 -34.346  1.00  0.00     0.705 A 
HETATM    2  N2  UNL     1     -20.176  60.104 -34.740  1.00  0.00    -0.022 N 
ATOM      3  H2  UNL     1     -20.261  61.109 -34.592  1.00  0.00     0.203 HD
HETATM    4  C2  UNL     1     -19.054  59.602 -35.336  1.00  0.00     0.709 A 
HETATM    5  N4  UNL     1     -19.028  58.269 -35.491  1.00  0.00    -0.021 N 
ATOM      6  H4  UNL     1     -18.205  57.859 -35.933  1.00  0.00     0.203 HD
HETATM    7  C7  UNL     1     -20.009  57.434 -35.106  1.00  0.00     0.715 A 
HETATM    8  N7  UNL     1     -21.097  57.958 -34.525  1.00  0.00    -0.021 N 
ATOM      9  H7  UNL     1     -21.861  57.355 -34.220  1.00  0.00     0.203 HD
ENDROOT
BRANCH   7  10
HETATM   10  N5  UNL     1     -19.912  56.158 -35.290  1.00  0.00    -0.132 N 
HETATM   11  C8  UNL     1     -19.287  55.278 -34.399  1.00  0.00     0.400 C 
HETATM   12  O2  UNL     1     -18.063  54.991 -34.409  1.00  0.00    -0.236 OA
ATOM     13  H5  UNL     1     -20.319  55.766 -36.139  1.00  0.00     0.190 HD
BRANCH  11  14
HETATM   14  O3  UNL     1     -20.080  54.663 -33.414  1.00  0.00    -0.188 OA
BRANCH  14  15
HETATM   15  N6  UNL     1     -20.238  55.217 -32.170  1.00  0.00    -0.301 N 
ATOM     16  H62 UNL     1     -20.283  54.592 -31.366  1.00  0.00     0.184 HD
ATOM     17  H61 UNL     1     -20.311  56.227 -32.041  1.00  0.00     0.184 HD
ENDBRANCH  14  15
ENDBRANCH  11  14
ENDBRANCH   7  10
BRANCH   4  18
HETATM   18  N3  UNL     1     -18.004  60.453 -35.753  1.00  0.00    -0.213 N 
HETATM   19  C3  UNL     1     -18.283  61.675 -36.460  1.00  0.00     0.167 C 
HETATM   20  C4  UNL     1     -17.276  61.854 -37.548  1.00  0.00     0.188 C 
HETATM   21  O1  UNL     1     -15.985  61.582 -37.191  1.00  0.00    -0.388 OA
HETATM   22  C5  UNL     1     -15.815  61.373 -35.828  1.00  0.00     0.188 C 
HETATM   23  C6  UNL     1     -16.631  60.121 -35.481  1.00  0.00     0.167 C 
ENDBRANCH   4  18
BRANCH   1  24
HETATM   24  N1  UNL     1     -22.239  59.779 -33.778  1.00  0.00    -0.234 N 
ATOM     25  H12 UNL     1     -22.934  59.126 -33.416  1.00  0.00     0.174 HD
ATOM     26  H11 UNL     1     -22.368  60.788 -33.702  1.00  0.00     0.174 HD
ENDBRANCH   1  24
TORSDOF 5
ENDMDL
MODEL 4
REMARK VINA RESULT: -6.567012403      1.601      2.138
REMARK  5 active torsions:
REMARK  status: ('A' for Active; 'I' for Inactive)
REMARK    1  A    between atoms: N1_1  and  C1_4 
REMARK    2  A    between atoms: C2_7  and  N3_8 
REMARK    3  A    between atoms: C7_16  and  N5_17 
REMARK       I    between atoms: N5_17  and  C8_19 
REMARK    4  A    between atoms: C8_19  and  O3_21 
REMARK    5  A    between atoms: O3_21  and  N6_22 
ROOT
HETATM    1  C1  UNL     1     -17.023  57.524 -35.238  1.00  0.00     0.705 A 
HETATM    2  N2  UNL     1     -16.068  58.430 -35.510  1.00  0.00    -0.022 N 
ATOM      3  H2  UNL     1     -15.129  58.114 -35.749  1.00  0.00     0.203 HD
HETATM    4  C2  UNL     1     -16.341  59.768 -35.471  1.00  0.00     0.709 A 
HETATM    5  N4  UNL     1     -17.603  60.092 -35.147  1.00  0.00    -0.021 N 
ATOM      6  H4  UNL     1     -17.841  61.084 -35.109  1.00  0.00     0.203 HD
HETATM    7  C7  UNL     1     -18.575  59.206 -34.870  1.00  0.00     0.715 A 
HETATM    8  N7  UNL     1     -18.275  57.901 -34.917  1.00  0.00    -0.021 N 
ATOM      9  H7  UNL     1     -18.987  57.200 -34.713  1.00  0.00     0.203 HD
ENDROOT
BRANCH   7  10
HETATM   10  N5  UNL     1     -19.769  59.595 -34.565  1.00  0.00    -0.132 N 
HETATM   11  C8  UNL     1     -20.879  58.747 -34.487  1.00  0.00     0.400 C 
HETATM   12  O2  UNL     1     -21.630  58.449 -35.450  1.00  0.00    -0.236 OA
ATOM     13  H5  UNL     1     -19.911  60.586 -34.369  1.00  0.00     0.190 HD
BRANCH  11  14
HETATM   14  O3  UNL     1     -21.187  58.180 -33.237  1.00  0.00    -0.188 OA
BRANCH  14  15
HETATM   15  N6  UNL     1     -20.857  56.884 -32.936  1.00  0.00    -0.301 N 
ATOM     16  H62 UNL     1     -21.117  56.154 -33.599  1.00  0.00     0.184 HD
ATOM     17  H61 UNL     1     -20.364  56.644 -32.076  1.00  0.00     0.184 HD
ENDBRANCH  14  15
ENDBRANCH  11  14
ENDBRANCH   7  10
BRANCH   4  18
HETATM   18  N3  UNL     1     -15.341  60.726 -35.757  1.00  0.00    -0.213 N 
HETATM   19  C3  UNL     1     -15.598  61.809 -36.669  1.00  0.00     0.167 C 
HETATM   20  C4  UNL     1     -14.390  62.031 -37.521  1.00  0.00     0.188 C 
HETATM   21  O1  UNL     1     -13.199  62.005 -36.851  1.00  0.00    -0.388 OA
HETATM   22  C5  UNL     1     -13.335  61.967 -35.469  1.00  0.00     0.188 C 
HETATM   23  C6  UNL     1     -14.042  60.645 -35.143  1.00  0.00     0.167 C 
ENDBRANCH   4  18
BRANCH   1  24
HETATM   24  N1  UNL     1     -16.754  56.248 -35.277  1.00  0.00    -0.234 N 
ATOM     25  H12 UNL     1     -16.930  55.744 -36.147  1.00  0.00     0.174 HD
ATOM     26  H11 UNL     1     -16.378  55.773 -34.456  1.00  0.00     0.174 HD
ENDBRANCH   1  24
TORSDOF 5
ENDMDL
MODEL 5
REMARK VINA RESULT: -6.562279264      1.977      2.532
REMARK  5 active torsions:
REMARK  status: ('A' for Active; 'I' for Inactive)
REMARK    1  A    between atoms: N1_1  and  C1_4 
REMARK    2  A    between atoms: C2_7  and  N3_8 
REMARK    3  A    between atoms: C7_16  and  N5_17 
REMARK       I    between atoms: N5_17  and  C8_19 
REMARK    4  A    between atoms: C8_19  and  O3_21 
REMARK    5  A    between atoms: O3_21  and  N6_22 
ROOT
HETATM    1  C1  UNL     1     -17.006  55.761 -35.223  1.00  0.00     0.705 A 
HETATM    2  N2  UNL     1     -16.398  56.955 -35.321  1.00  0.00    -0.022 N 
ATOM      3  H2  UNL     1     -15.457  57.009 -35.711  1.00  0.00     0.203 HD
HETATM    4  C2  UNL     1     -17.024  58.096 -34.907  1.00  0.00     0.709 A 
HETATM    5  N4  UNL     1     -18.259  57.930 -34.407  1.00  0.00    -0.021 N 
ATOM      6  H4  UNL     1     -18.756  58.762 -34.087  1.00  0.00     0.203 HD
HETATM    7  C7  UNL     1     -18.888  56.746 -34.297  1.00  0.00     0.715 A 
HETATM    8  N7  UNL     1     -18.246  55.646 -34.713  1.00  0.00    -0.021 N 
ATOM      9  H7  UNL     1     -18.693  54.731 -34.644  1.00  0.00     0.203 HD
ENDROOT
BRANCH   7  10
HETATM   10  N5  UNL     1     -20.080  56.666 -33.803  1.00  0.00    -0.132 N 
HETATM   11  C8  UNL     1     -20.536  55.605 -33.013  1.00  0.00     0.400 C 
HETATM   12  O2  UNL     1     -21.056  54.548 -33.453  1.00  0.00    -0.236 OA
ATOM     13  H5  UNL     1     -20.731  57.425 -34.003  1.00  0.00     0.190 HD
BRANCH  11  14
HETATM   14  O3  UNL     1     -20.409  55.722 -31.617  1.00  0.00    -0.188 OA
BRANCH  14  15
HETATM   15  N6  UNL     1     -20.437  54.622 -30.799  1.00  0.00    -0.301 N 
ATOM     16  H62 UNL     1     -19.866  54.634 -29.954  1.00  0.00     0.184 HD
ATOM     17  H61 UNL     1     -21.011  53.807 -31.020  1.00  0.00     0.184 HD
ENDBRANCH  14  15
ENDBRANCH  11  14
ENDBRANCH   7  10
BRANCH   4  18
HETATM   18  N3  UNL     1     -16.390  59.356 -35.008  1.00  0.00    -0.213 N 
HETATM   19  C3  UNL     1     -17.146  60.537 -35.330  1.00  0.00     0.167 C 
HETATM   20  C4  UNL     1     -16.357  61.384 -36.274  1.00  0.00     0.188 C 
HETATM   21  O1  UNL     1     -15.032  61.517 -35.962  1.00  0.00    -0.388 OA
HETATM   22  C5  UNL     1     -14.697  60.998 -34.717  1.00  0.00     0.188 C 
HETATM   23  C6  UNL     1     -14.974  59.490 -34.792  1.00  0.00     0.167 C 
ENDBRANCH   4  18
BRANCH   1  24
HETATM   24  N1  UNL     1     -16.400  54.675 -35.621  1.00  0.00    -0.234 N 
ATOM     25  H12 UNL     1     -15.405  54.730 -35.837  1.00  0.00     0.174 HD
ATOM     26  H11 UNL     1     -16.916  53.800 -35.713  1.00  0.00     0.174 HD
ENDBRANCH   1  24
TORSDOF 5
ENDMDL
