MODEL 1
REMARK VINA RESULT: -6.453337793      0.000      0.000
REMARK  6 active torsions:
REMARK  status: ('A' for Active; 'I' for Inactive)
REMARK    1  A    between atoms: C2_5  and  C3_6 
REMARK    2  A    between atoms: C3_6  and  N3_7 
REMARK    3  A    between atoms: C3_6  and  C4_11 
REMARK       I    between atoms: C4_11  and  N4_13 
REMARK    4  A    between atoms: N4_13  and  N5_15 
REMARK    5  A    between atoms: N5_15  and  C5_17 
REMARK    6  A    between atoms: N7_21  and  O2_22 
ROOT
HETATM    1  C3  UNL     1     -19.287  58.897 -34.760  1.00  0.00     0.328 C 
ENDROOT
BRANCH   1   2
HETATM    2  C2  UNL     1     -19.719  57.579 -34.232  1.00  0.00     0.086 A 
HETATM    3  N2  UNL     1     -19.708  57.205 -32.918  1.00  0.00    -0.283 N 
HETATM    4  N1  UNL     1     -20.158  55.984 -32.777  1.00  0.00    -0.212 N 
ATOM      5  H2  UNL     1     -19.391  57.798 -32.150  1.00  0.00     0.188 HD
HETATM    6  C1  UNL     1     -20.287  55.224 -31.520  1.00  0.00     0.202 C 
HETATM    7  N7  UNL     1     -20.479  55.511 -33.958  1.00  0.00    -0.157 N 
HETATM    8  C6  UNL     1     -20.218  56.474 -34.880  1.00  0.00     0.174 A 
BRANCH   7   9
HETATM    9  O2  UNL     1     -20.997  54.270 -34.246  1.00  0.00    -0.267 OA
ATOM     10  H2  UNL     1     -20.687  53.429 -33.932  1.00  0.00     0.247 HD
ENDBRANCH   7   9
ENDBRANCH   1   2
BRANCH   1  11
HETATM   11  N3  UNL     1     -19.728  59.027 -36.124  1.00  0.00    -0.061 N 
ATOM     12  H33 UNL     1     -19.744  58.132 -36.614  1.00  0.00     0.275 HD
ATOM     13  H32 UNL     1     -20.722  59.245 -36.191  1.00  0.00     0.275 HD
ATOM     14  H31 UNL     1     -19.147  59.718 -36.599  1.00  0.00     0.275 HD
ENDBRANCH   1  11
BRANCH   1  15
HETATM   15  C4  UNL     1     -17.893  59.211 -34.517  1.00  0.00     0.273 C 
HETATM   16  O1  UNL     1     -17.534  60.028 -33.625  1.00  0.00    -0.269 OA
HETATM   17  N4  UNL     1     -16.849  58.599 -35.273  1.00  0.00    -0.266 N 
ATOM     18  H4  UNL     1     -17.117  57.947 -36.010  1.00  0.00     0.190 HD
BRANCH  17  19
HETATM   19  N5  UNL     1     -15.497  58.828 -35.078  1.00  0.00    -0.276 N 
ATOM     20  H5  UNL     1     -14.882  58.027 -34.936  1.00  0.00     0.189 HD
BRANCH  19  21
HETATM   21  C5  UNL     1     -14.939  60.104 -35.066  1.00  0.00     0.199 C 
HETATM   22  N6  UNL     1     -14.102  60.540 -34.025  1.00  0.00    -0.068 NA
HETATM   23  S1  UNL     1     -15.273  61.139 -36.287  1.00  0.00    -0.043 SA
ENDBRANCH  19  21
ENDBRANCH  17  19
ENDBRANCH   1  15
TORSDOF 6
ENDMDL
MODEL 2
REMARK VINA RESULT: -6.304654220      1.505      1.584
REMARK  6 active torsions:
REMARK  status: ('A' for Active; 'I' for Inactive)
REMARK    1  A    between atoms: C2_5  and  C3_6 
REMARK    2  A    between atoms: C3_6  and  N3_7 
REMARK    3  A    between atoms: C3_6  and  C4_11 
REMARK       I    between atoms: C4_11  and  N4_13 
REMARK    4  A    between atoms: N4_13  and  N5_15 
REMARK    5  A    between atoms: N5_15  and  C5_17 
REMARK    6  A    between atoms: N7_21  and  O2_22 
ROOT
HETATM    1  C3  UNL     1     -19.481  59.740 -34.576  1.00  0.00     0.328 C 
ENDROOT
BRANCH   1   2
HETATM    2  C2  UNL     1     -19.356  58.286 -34.306  1.00  0.00     0.086 A 
HETATM    3  N2  UNL     1     -20.025  57.597 -33.333  1.00  0.00    -0.283 N 
HETATM    4  N1  UNL     1     -19.704  56.328 -33.357  1.00  0.00    -0.212 N 
ATOM      5  H2  UNL     1     -20.686  58.015 -32.677  1.00  0.00     0.188 HD
HETATM    6  C1  UNL     1     -20.204  55.269 -32.461  1.00  0.00     0.202 C 
HETATM    7  N7  UNL     1     -18.836  56.128 -34.319  1.00  0.00    -0.157 N 
HETATM    8  C6  UNL     1     -18.599  57.321 -34.925  1.00  0.00     0.174 A 
BRANCH   7   9
HETATM    9  O2  UNL     1     -18.255  54.936 -34.683  1.00  0.00    -0.267 OA
ATOM     10  H2  UNL     1     -18.551  54.331 -35.353  1.00  0.00     0.247 HD
ENDBRANCH   7   9
ENDBRANCH   1   2
BRANCH   1  11
HETATM   11  N3  UNL     1     -20.380  59.938 -35.684  1.00  0.00    -0.061 N 
ATOM     12  H33 UNL     1     -20.029  59.521 -36.547  1.00  0.00     0.275 HD
ATOM     13  H32 UNL     1     -21.233  59.387 -35.595  1.00  0.00     0.275 HD
ATOM     14  H31 UNL     1     -20.571  60.935 -35.785  1.00  0.00     0.275 HD
ENDBRANCH   1  11
BRANCH   1  15
HETATM   15  C4  UNL     1     -18.218  60.444 -34.658  1.00  0.00     0.273 C 
HETATM   16  O1  UNL     1     -18.012  61.358 -35.504  1.00  0.00    -0.269 OA
HETATM   17  N4  UNL     1     -17.138  60.144 -33.775  1.00  0.00    -0.266 N 
ATOM     18  H4  UNL     1     -17.277  59.397 -33.094  1.00  0.00     0.190 HD
BRANCH  17  19
HETATM   19  N5  UNL     1     -15.915  60.794 -33.776  1.00  0.00    -0.276 N 
ATOM     20  H5  UNL     1     -15.768  61.558 -33.116  1.00  0.00     0.189 HD
BRANCH  19  21
HETATM   21  C5  UNL     1     -14.877  60.452 -34.638  1.00  0.00     0.199 C 
HETATM   22  N6  UNL     1     -14.128  59.274 -34.469  1.00  0.00    -0.068 NA
HETATM   23  S1  UNL     1     -14.498  61.448 -35.878  1.00  0.00    -0.043 SA
ENDBRANCH  19  21
ENDBRANCH  17  19
ENDBRANCH   1  15
TORSDOF 6
ENDMDL
MODEL 3
REMARK VINA RESULT: -6.290239500      2.989      5.913
REMARK  6 active torsions:
REMARK  status: ('A' for Active; 'I' for Inactive)
REMARK    1  A    between atoms: C2_5  and  C3_6 
REMARK    2  A    between atoms: C3_6  and  N3_7 
REMARK    3  A    between atoms: C3_6  and  C4_11 
REMARK       I    between atoms: C4_11  and  N4_13 
REMARK    4  A    between atoms: N4_13  and  N5_15 
REMARK    5  A    between atoms: N5_15  and  C5_17 
REMARK    6  A    between atoms: N7_21  and  O2_22 
ROOT
HETATM    1  C3  UNL     1     -18.810  60.087 -35.809  1.00  0.00     0.328 C 
ENDROOT
BRANCH   1   2
HETATM    2  C2  UNL     1     -17.344  60.166 -35.592  1.00  0.00     0.086 A 
HETATM    3  N2  UNL     1     -16.523  61.154 -36.058  1.00  0.00    -0.283 N 
HETATM    4  N1  UNL     1     -15.284  60.942 -35.691  1.00  0.00    -0.212 N 
ATOM      5  H2  UNL     1     -16.833  61.950 -36.616  1.00  0.00     0.188 HD
HETATM    6  C1  UNL     1     -14.109  61.775 -36.007  1.00  0.00     0.202 C 
HETATM    7  N7  UNL     1     -15.234  59.837 -34.985  1.00  0.00    -0.157 N 
HETATM    8  C6  UNL     1     -16.493  59.333 -34.907  1.00  0.00     0.174 A 
BRANCH   7   9
HETATM    9  O2  UNL     1     -14.124  59.268 -34.406  1.00  0.00    -0.267 OA
ATOM     10  H2  UNL     1     -13.384  59.716 -34.016  1.00  0.00     0.247 HD
ENDBRANCH   7   9
ENDBRANCH   1   2
BRANCH   1  11
HETATM   11  N3  UNL     1     -19.395  61.378 -35.554  1.00  0.00    -0.061 N 
ATOM     12  H33 UNL     1     -19.606  61.519 -34.566  1.00  0.00     0.275 HD
ATOM     13  H32 UNL     1     -18.724  62.137 -35.667  1.00  0.00     0.275 HD
ATOM     14  H31 UNL     1     -20.216  61.495 -36.147  1.00  0.00     0.275 HD
ENDBRANCH   1  11
BRANCH   1  15
HETATM   15  C4  UNL     1     -19.452  58.965 -35.153  1.00  0.00     0.273 C 
HETATM   16  O1  UNL     1     -20.000  59.073 -34.022  1.00  0.00    -0.269 OA
HETATM   17  N4  UNL     1     -19.505  57.676 -35.763  1.00  0.00    -0.266 N 
ATOM     18  H4  UNL     1     -19.054  57.562 -36.670  1.00  0.00     0.190 HD
BRANCH  17  19
HETATM   19  N5  UNL     1     -20.126  56.568 -35.210  1.00  0.00    -0.276 N 
ATOM     20  H5  UNL     1     -21.087  56.360 -35.482  1.00  0.00     0.189 HD
BRANCH  19  21
HETATM   21  C5  UNL     1     -19.497  55.725 -34.298  1.00  0.00     0.199 C 
HETATM   22  N6  UNL     1     -18.276  55.093 -34.590  1.00  0.00    -0.068 NA
HETATM   23  S1  UNL     1     -20.196  55.443 -32.847  1.00  0.00    -0.043 SA
ENDBRANCH  19  21
ENDBRANCH  17  19
ENDBRANCH   1  15
TORSDOF 6
ENDMDL
MODEL 4
REMARK VINA RESULT: -6.274165093      1.087      1.099
REMARK  6 active torsions:
REMARK  status: ('A' for Active; 'I' for Inactive)
REMARK    1  A    between atoms: C2_5  and  C3_6 
REMARK    2  A    between atoms: C3_6  and  N3_7 
REMARK    3  A    between atoms: C3_6  and  C4_11 
REMARK       I    between atoms: C4_11  and  N4_13 
REMARK    4  A    between atoms: N4_13  and  N5_15 
REMARK    5  A    between atoms: N5_15  and  C5_17 
REMARK    6  A    between atoms: N7_21  and  O2_22 
ROOT
HETATM    1  C3  UNL     1     -19.961  59.199 -34.246  1.00  0.00     0.328 C 
ENDROOT
BRANCH   1   2
HETATM    2  C2  UNL     1     -20.158  57.778 -33.866  1.00  0.00     0.086 A 
HETATM    3  N2  UNL     1     -20.029  57.267 -32.606  1.00  0.00    -0.283 N 
HETATM    4  N1  UNL     1     -20.277  55.981 -32.597  1.00  0.00    -0.212 N 
ATOM      5  H2  UNL     1     -19.775  57.813 -31.782  1.00  0.00     0.188 HD
HETATM    6  C1  UNL     1     -20.229  55.075 -31.435  1.00  0.00     0.202 C 
HETATM    7  N7  UNL     1     -20.572  55.598 -33.816  1.00  0.00    -0.157 N 
HETATM    8  C6  UNL     1     -20.507  56.687 -34.625  1.00  0.00     0.174 A 
BRANCH   7   9
HETATM    9  O2  UNL     1     -20.903  54.330 -34.234  1.00  0.00    -0.267 OA
ATOM     10  H2  UNL     1     -21.680  54.065 -34.712  1.00  0.00     0.247 HD
ENDBRANCH   7   9
ENDBRANCH   1   2
BRANCH   1  11
HETATM   11  N3  UNL     1     -21.215  59.745 -34.699  1.00  0.00    -0.061 N 
ATOM     12  H33 UNL     1     -21.129  60.218 -35.599  1.00  0.00     0.275 HD
ATOM     13  H32 UNL     1     -21.874  59.019 -34.982  1.00  0.00     0.275 HD
ATOM     14  H31 UNL     1     -21.596  60.353 -33.975  1.00  0.00     0.275 HD
ENDBRANCH   1  11
BRANCH   1  15
HETATM   15  C4  UNL     1     -18.824  59.435 -35.113  1.00  0.00     0.273 C 
HETATM   16  O1  UNL     1     -18.864  60.266 -36.061  1.00  0.00    -0.269 OA
HETATM   17  N4  UNL     1     -17.591  58.741 -34.930  1.00  0.00    -0.266 N 
ATOM     18  H4  UNL     1     -17.542  58.052 -34.179  1.00  0.00     0.190 HD
BRANCH  17  19
HETATM   19  N5  UNL     1     -16.455  58.935 -35.699  1.00  0.00    -0.276 N 
ATOM     20  H5  UNL     1     -16.347  58.391 -36.555  1.00  0.00     0.189 HD
BRANCH  19  21
HETATM   21  C5  UNL     1     -15.456  59.842 -35.357  1.00  0.00     0.199 C 
HETATM   22  N6  UNL     1     -14.468  59.535 -34.404  1.00  0.00    -0.068 NA
HETATM   23  S1  UNL     1     -15.428  61.315 -36.064  1.00  0.00    -0.043 SA
ENDBRANCH  19  21
ENDBRANCH  17  19
ENDBRANCH   1  15
TORSDOF 6
ENDMDL
MODEL 5
REMARK VINA RESULT: -6.269898146      1.603      1.812
REMARK  6 active torsions:
REMARK  status: ('A' for Active; 'I' for Inactive)
REMARK    1  A    between atoms: C2_5  and  C3_6 
REMARK    2  A    between atoms: C3_6  and  N3_7 
REMARK    3  A    between atoms: C3_6  and  C4_11 
REMARK       I    between atoms: C4_11  and  N4_13 
REMARK    4  A    between atoms: N4_13  and  N5_15 
REMARK    5  A    between atoms: N5_15  and  C5_17 
REMARK    6  A    between atoms: N7_21  and  O2_22 
ROOT
HETATM    1  C3  UNL     1     -18.216  59.945 -34.808  1.00  0.00     0.328 C 
ENDROOT
BRANCH   1   2
HETATM    2  C2  UNL     1     -18.600  58.550 -34.481  1.00  0.00     0.086 A 
HETATM    3  N2  UNL     1     -19.557  58.179 -33.579  1.00  0.00    -0.283 N 
HETATM    4  N1  UNL     1     -19.666  56.875 -33.525  1.00  0.00    -0.212 N 
ATOM      5  H2  UNL     1     -20.111  58.829 -33.022  1.00  0.00     0.188 HD
HETATM    6  C1  UNL     1     -20.575  56.094 -32.667  1.00  0.00     0.202 C 
HETATM    7  N7  UNL     1     -18.812  56.343 -34.367  1.00  0.00    -0.157 N 
HETATM    8  C6  UNL     1     -18.137  57.354 -34.974  1.00  0.00     0.174 A 
BRANCH   7   9
HETATM    9  O2  UNL     1     -18.615  55.006 -34.622  1.00  0.00    -0.267 OA
ATOM     10  H2  UNL     1     -18.448  54.317 -33.989  1.00  0.00     0.247 HD
ENDBRANCH   7   9
ENDBRANCH   1   2
BRANCH   1  11
HETATM   11  N3  UNL     1     -18.507  60.203 -36.194  1.00  0.00    -0.061 N 
ATOM     12  H33 UNL     1     -19.416  60.648 -36.323  1.00  0.00     0.275 HD
ATOM     13  H32 UNL     1     -17.927  60.948 -36.580  1.00  0.00     0.275 HD
ATOM     14  H31 UNL     1     -18.422  59.334 -36.721  1.00  0.00     0.275 HD
ENDBRANCH   1  11
BRANCH   1  15
HETATM   15  C4  UNL     1     -16.887  60.319 -34.365  1.00  0.00     0.273 C 
HETATM   16  O1  UNL     1     -16.649  60.662 -33.174  1.00  0.00    -0.269 OA
HETATM   17  N4  UNL     1     -15.773  60.309 -35.256  1.00  0.00    -0.266 N 
ATOM     18  H4  UNL     1     -15.947  60.050 -36.228  1.00  0.00     0.190 HD
BRANCH  17  19
HETATM   19  N5  UNL     1     -14.474  60.625 -34.897  1.00  0.00    -0.276 N 
ATOM     20  H5  UNL     1     -14.092  60.219 -34.043  1.00  0.00     0.189 HD
BRANCH  19  21
HETATM   21  C5  UNL     1     -13.665  61.471 -35.651  1.00  0.00     0.199 C 
HETATM   22  N6  UNL     1     -12.289  61.604 -35.398  1.00  0.00    -0.068 NA
HETATM   23  S1  UNL     1     -14.327  62.353 -36.858  1.00  0.00    -0.043 SA
ENDBRANCH  19  21
ENDBRANCH  17  19
ENDBRANCH   1  15
TORSDOF 6
ENDMDL
