MODEL 1
REMARK VINA RESULT: -7.502453456      0.000      0.000
REMARK  4 active torsions:
REMARK  status: ('A' for Active; 'I' for Inactive)
REMARK    1  A    between atoms: C2_7  and  C3_8 
REMARK    2  A    between atoms: C4_9  and  C5_10 
REMARK    3  A    between atoms: N3_11  and  O1_12 
REMARK    4  A    between atoms: N5_16  and  O3_17 
ROOT
HETATM    1  N1  UNL     1     -21.771  59.536 -33.750  1.00  0.00    -0.234 N 
ATOM      2  H11 UNL     1     -22.706  59.244 -33.466  1.00  0.00     0.174 HD
ATOM      3  H12 UNL     1     -21.519  60.521 -33.832  1.00  0.00     0.174 HD
HETATM    4  C1  UNL     1     -20.852  58.667 -34.022  1.00  0.00     0.678 A 
HETATM    5  N2  UNL     1     -19.550  59.073 -34.417  1.00  0.00    -0.190 N 
ATOM      6  H2  UNL     1     -19.356  60.072 -34.482  1.00  0.00     0.184 HD
HETATM    7  C2  UNL     1     -18.593  58.242 -34.702  1.00  0.00     0.079 A 
HETATM    8  C6  UNL     1     -18.881  56.824 -34.605  1.00  0.00     0.098 A 
HETATM    9  N6  UNL     1     -17.972  55.958 -34.873  1.00  0.00    -0.394 N 
ATOM     10  H61 UNL     1     -18.174  54.961 -34.805  1.00  0.00     0.156 HD
ATOM     11  H62 UNL     1     -17.053  56.300 -35.154  1.00  0.00     0.156 HD
HETATM   12  C7  UNL     1     -20.209  56.330 -34.200  1.00  0.00     0.143 A 
HETATM   13  N7  UNL     1     -20.484  55.076 -34.109  1.00  0.00    -0.383 N 
ATOM     14  H71 UNL     1     -21.403  54.734 -33.828  1.00  0.00     0.157 HD
ATOM     15  H72 UNL     1     -19.768  54.382 -34.320  1.00  0.00     0.157 HD
HETATM   16  N8  UNL     1     -21.203  57.292 -33.907  1.00  0.00    -0.175 N 
ATOM     17  H8  UNL     1     -22.141  57.010 -33.623  1.00  0.00     0.186 HD
ENDROOT
BRANCH   7  18
HETATM   18  C3  UNL     1     -17.269  58.770 -35.105  1.00  0.00     0.036 C 
HETATM   19  C4  UNL     1     -17.013  60.049 -35.052  1.00  0.00     0.059 C 
BRANCH  19  20
HETATM   20  C5  UNL     1     -15.792  60.713 -35.404  1.00  0.00     0.204 A 
HETATM   21  N3  UNL     1     -14.536  60.411 -35.046  1.00  0.00    -0.118 N 
HETATM   22  N4  UNL     1     -13.762  61.328 -35.632  1.00  0.00     0.080 NA
HETATM   23  O2  UNL     1     -14.510  62.132 -36.303  1.00  0.00    -0.110 OA
HETATM   24  N5  UNL     1     -15.750  61.820 -36.210  1.00  0.00    -0.084 N 
BRANCH  21  25
HETATM   25  O1  UNL     1     -14.099  59.394 -34.253  1.00  0.00    -0.267 OA
ATOM     26  H1  UNL     1     -13.842  59.424 -33.339  1.00  0.00     0.246 HD
ENDBRANCH  21  25
BRANCH  24  27
HETATM   27  O3  UNL     1     -16.817  62.473 -36.805  1.00  0.00    -0.260 OA
ATOM     28  H3  UNL     1     -16.965  62.616 -37.732  1.00  0.00     0.247 HD
ENDBRANCH  24  27
ENDBRANCH  19  20
ENDBRANCH   7  18
TORSDOF 4
ENDMDL
MODEL 2
REMARK VINA RESULT: -7.406526903      0.450      1.823
REMARK  4 active torsions:
REMARK  status: ('A' for Active; 'I' for Inactive)
REMARK    1  A    between atoms: C2_7  and  C3_8 
REMARK    2  A    between atoms: C4_9  and  C5_10 
REMARK    3  A    between atoms: N3_11  and  O1_12 
REMARK    4  A    between atoms: N5_16  and  O3_17 
ROOT
HETATM    1  N1  UNL     1     -21.672  59.546 -33.684  1.00  0.00    -0.234 N 
ATOM      2  H11 UNL     1     -22.597  59.246 -33.375  1.00  0.00     0.174 HD
ATOM      3  H12 UNL     1     -21.430  60.533 -33.764  1.00  0.00     0.174 HD
HETATM    4  C1  UNL     1     -20.756  58.685 -33.988  1.00  0.00     0.678 A 
HETATM    5  N2  UNL     1     -19.469  59.104 -34.417  1.00  0.00    -0.190 N 
ATOM      6  H2  UNL     1     -19.283  60.104 -34.479  1.00  0.00     0.184 HD
HETATM    7  C2  UNL     1     -18.515  58.281 -34.736  1.00  0.00     0.079 A 
HETATM    8  C6  UNL     1     -18.790  56.861 -34.643  1.00  0.00     0.098 A 
HETATM    9  N6  UNL     1     -17.883  56.003 -34.944  1.00  0.00    -0.394 N 
ATOM     10  H61 UNL     1     -18.077  55.004 -34.879  1.00  0.00     0.156 HD
ATOM     11  H62 UNL     1     -16.975  56.354 -35.248  1.00  0.00     0.156 HD
HETATM   12  C7  UNL     1     -20.103  56.354 -34.204  1.00  0.00     0.143 A 
HETATM   13  N7  UNL     1     -20.367  55.099 -34.116  1.00  0.00    -0.383 N 
ATOM     14  H71 UNL     1     -21.275  54.748 -33.812  1.00  0.00     0.157 HD
ATOM     15  H72 UNL     1     -19.652  54.411 -34.353  1.00  0.00     0.157 HD
HETATM   16  N8  UNL     1     -21.094  57.307 -33.875  1.00  0.00    -0.175 N 
ATOM     17  H8  UNL     1     -22.021  57.016 -33.566  1.00  0.00     0.186 HD
ENDROOT
BRANCH   7  18
HETATM   18  C3  UNL     1     -17.206  58.822 -35.173  1.00  0.00     0.036 C 
HETATM   19  C4  UNL     1     -16.950  60.100 -35.097  1.00  0.00     0.059 C 
BRANCH  19  20
HETATM   20  C5  UNL     1     -15.743  60.775 -35.476  1.00  0.00     0.204 A 
HETATM   21  N3  UNL     1     -15.589  61.842 -36.273  1.00  0.00    -0.118 N 
HETATM   22  N4  UNL     1     -14.276  62.082 -36.309  1.00  0.00     0.080 NA
HETATM   23  O2  UNL     1     -13.678  61.210 -35.574  1.00  0.00    -0.110 OA
HETATM   24  N5  UNL     1     -14.502  60.388 -35.040  1.00  0.00    -0.084 N 
BRANCH  21  25
HETATM   25  O1  UNL     1     -16.544  62.558 -36.928  1.00  0.00    -0.267 OA
ATOM     26  H1  UNL     1     -16.988  63.350 -36.648  1.00  0.00     0.246 HD
ENDBRANCH  21  25
BRANCH  24  27
HETATM   27  O3  UNL     1     -14.195  59.331 -34.199  1.00  0.00    -0.260 OA
ATOM     28  H3  UNL     1     -14.700  58.540 -34.055  1.00  0.00     0.247 HD
ENDBRANCH  24  27
ENDBRANCH  19  20
ENDBRANCH   7  18
TORSDOF 4
ENDMDL
MODEL 3
REMARK VINA RESULT: -7.402913991      3.073      6.271
REMARK  4 active torsions:
REMARK  status: ('A' for Active; 'I' for Inactive)
REMARK    1  A    between atoms: C2_7  and  C3_8 
REMARK    2  A    between atoms: C4_9  and  C5_10 
REMARK    3  A    between atoms: N3_11  and  O1_12 
REMARK    4  A    between atoms: N5_16  and  O3_17 
ROOT
HETATM    1  N1  UNL     1     -18.000  62.364 -37.374  1.00  0.00    -0.234 N 
ATOM      2  H11 UNL     1     -17.676  63.180 -37.894  1.00  0.00     0.174 HD
ATOM      3  H12 UNL     1     -18.980  62.081 -37.378  1.00  0.00     0.174 HD
HETATM    4  C1  UNL     1     -17.179  61.642 -36.681  1.00  0.00     0.678 A 
HETATM    5  N2  UNL     1     -17.630  60.507 -35.958  1.00  0.00    -0.190 N 
ATOM      6  H2  UNL     1     -18.622  60.272 -35.999  1.00  0.00     0.184 HD
HETATM    7  C2  UNL     1     -16.849  59.751 -35.246  1.00  0.00     0.079 A 
HETATM    8  C6  UNL     1     -15.441  60.094 -35.196  1.00  0.00     0.098 A 
HETATM    9  N6  UNL     1     -14.624  59.381 -34.510  1.00  0.00    -0.394 N 
ATOM     10  H61 UNL     1     -13.634  59.622 -34.475  1.00  0.00     0.156 HD
ATOM     11  H62 UNL     1     -14.997  58.575 -34.008  1.00  0.00     0.156 HD
HETATM   12  C7  UNL     1     -14.903  61.258 -35.922  1.00  0.00     0.143 A 
HETATM   13  N7  UNL     1     -13.657  61.579 -35.891  1.00  0.00    -0.383 N 
ATOM     14  H71 UNL     1     -13.284  62.384 -36.393  1.00  0.00     0.157 HD
ATOM     15  H72 UNL     1     -13.001  61.017 -35.348  1.00  0.00     0.157 HD
HETATM   16  N8  UNL     1     -15.811  62.036 -36.675  1.00  0.00    -0.175 N 
ATOM     17  H8  UNL     1     -15.497  62.854 -37.197  1.00  0.00     0.186 HD
ENDROOT
BRANCH   7  18
HETATM   18  C3  UNL     1     -17.421  58.587 -34.529  1.00  0.00     0.036 C 
HETATM   19  C4  UNL     1     -18.579  58.091 -34.874  1.00  0.00     0.059 C 
BRANCH  19  20
HETATM   20  C5  UNL     1     -19.264  56.977 -34.285  1.00  0.00     0.204 A 
HETATM   21  N3  UNL     1     -18.929  55.679 -34.298  1.00  0.00    -0.118 N 
HETATM   22  N4  UNL     1     -19.886  55.050 -33.613  1.00  0.00     0.080 NA
HETATM   23  O2  UNL     1     -20.745  55.920 -33.211  1.00  0.00    -0.110 OA
HETATM   24  N5  UNL     1     -20.433  57.106 -33.581  1.00  0.00    -0.084 N 
BRANCH  21  25
HETATM   25  O1  UNL     1     -17.848  55.086 -34.878  1.00  0.00    -0.267 OA
ATOM     26  H1  UNL     1     -17.773  54.207 -35.231  1.00  0.00     0.246 HD
ENDBRANCH  21  25
BRANCH  24  27
HETATM   27  O3  UNL     1     -21.136  58.271 -33.319  1.00  0.00    -0.260 OA
ATOM     28  H3  UNL     1     -22.042  58.351 -33.046  1.00  0.00     0.247 HD
ENDBRANCH  24  27
ENDBRANCH  19  20
ENDBRANCH   7  18
TORSDOF 4
ENDMDL
MODEL 4
REMARK VINA RESULT: -7.302686212      1.409      2.803
REMARK  4 active torsions:
REMARK  status: ('A' for Active; 'I' for Inactive)
REMARK    1  A    between atoms: C2_7  and  C3_8 
REMARK    2  A    between atoms: C4_9  and  C5_10 
REMARK    3  A    between atoms: N3_11  and  O1_12 
REMARK    4  A    between atoms: N5_16  and  O3_17 
ROOT
HETATM    1  N1  UNL     1     -16.699  55.301 -35.364  1.00  0.00    -0.234 N 
ATOM      2  H11 UNL     1     -17.198  54.411 -35.361  1.00  0.00     0.174 HD
ATOM      3  H12 UNL     1     -15.691  55.348 -35.510  1.00  0.00     0.174 HD
HETATM    4  C1  UNL     1     -17.323  56.419 -35.184  1.00  0.00     0.678 A 
HETATM    5  N2  UNL     1     -16.629  57.657 -35.189  1.00  0.00    -0.190 N 
ATOM      6  H2  UNL     1     -15.621  57.644 -35.340  1.00  0.00     0.184 HD
HETATM    7  C2  UNL     1     -17.207  58.807 -35.011  1.00  0.00     0.079 A 
HETATM    8  C6  UNL     1     -18.641  58.814 -34.798  1.00  0.00     0.098 A 
HETATM    9  N6  UNL     1     -19.265  59.922 -34.619  1.00  0.00    -0.394 N 
ATOM     10  H61 UNL     1     -20.274  59.927 -34.469  1.00  0.00     0.156 HD
ATOM     11  H62 UNL     1     -18.721  60.784 -34.631  1.00  0.00     0.156 HD
HETATM   12  C7  UNL     1     -19.427  57.567 -34.781  1.00  0.00     0.143 A 
HETATM   13  N7  UNL     1     -20.700  57.552 -34.594  1.00  0.00    -0.383 N 
ATOM     14  H71 UNL     1     -21.244  56.690 -34.582  1.00  0.00     0.157 HD
ATOM     15  H72 UNL     1     -21.203  58.428 -34.451  1.00  0.00     0.157 HD
HETATM   16  N8  UNL     1     -18.731  56.353 -34.980  1.00  0.00    -0.175 N 
ATOM     17  H8  UNL     1     -19.221  55.459 -34.977  1.00  0.00     0.186 HD
ENDROOT
BRANCH   7  18
HETATM   18  C3  UNL     1     -16.390  60.043 -35.034  1.00  0.00     0.036 C 
HETATM   19  C4  UNL     1     -15.833  60.456 -36.141  1.00  0.00     0.059 C 
BRANCH  19  20
HETATM   20  C5  UNL     1     -15.019  61.622 -36.328  1.00  0.00     0.204 A 
HETATM   21  N3  UNL     1     -13.761  61.845 -35.921  1.00  0.00    -0.118 N 
HETATM   22  N4  UNL     1     -13.457  63.075 -36.341  1.00  0.00     0.080 NA
HETATM   23  O2  UNL     1     -14.473  63.561 -36.964  1.00  0.00    -0.110 OA
HETATM   24  N5  UNL     1     -15.454  62.738 -36.994  1.00  0.00    -0.084 N 
BRANCH  21  25
HETATM   25  O1  UNL     1     -12.933  61.018 -35.225  1.00  0.00    -0.267 OA
ATOM     26  H1  UNL     1     -12.240  60.458 -35.554  1.00  0.00     0.246 HD
ENDBRANCH  21  25
BRANCH  24  27
HETATM   27  O3  UNL     1     -16.692  62.942 -37.580  1.00  0.00    -0.260 OA
ATOM     28  H3  UNL     1     -17.513  62.517 -37.362  1.00  0.00     0.247 HD
ENDBRANCH  24  27
ENDBRANCH  19  20
ENDBRANCH   7  18
TORSDOF 4
ENDMDL
MODEL 5
REMARK VINA RESULT: -7.283938715      1.328      3.273
REMARK  4 active torsions:
REMARK  status: ('A' for Active; 'I' for Inactive)
REMARK    1  A    between atoms: C2_7  and  C3_8 
REMARK    2  A    between atoms: C4_9  and  C5_10 
REMARK    3  A    between atoms: N3_11  and  O1_12 
REMARK    4  A    between atoms: N5_16  and  O3_17 
ROOT
HETATM    1  N1  UNL     1     -16.677  55.296 -35.353  1.00  0.00    -0.234 N 
ATOM      2  H11 UNL     1     -17.132  54.383 -35.325  1.00  0.00     0.174 HD
ATOM      3  H12 UNL     1     -15.678  55.391 -35.534  1.00  0.00     0.174 HD
HETATM    4  C1  UNL     1     -17.350  56.384 -35.163  1.00  0.00     0.678 A 
HETATM    5  N2  UNL     1     -16.718  57.655 -35.204  1.00  0.00    -0.190 N 
ATOM      6  H2  UNL     1     -15.716  57.689 -35.388  1.00  0.00     0.184 HD
HETATM    7  C2  UNL     1     -17.346  58.777 -35.018  1.00  0.00     0.079 A 
HETATM    8  C6  UNL     1     -18.771  58.716 -34.758  1.00  0.00     0.098 A 
HETATM    9  N6  UNL     1     -19.443  59.793 -34.568  1.00  0.00    -0.394 N 
ATOM     10  H61 UNL     1     -20.445  59.751 -34.385  1.00  0.00     0.156 HD
ATOM     11  H62 UNL     1     -18.943  60.681 -34.607  1.00  0.00     0.156 HD
HETATM   12  C7  UNL     1     -19.494  57.432 -34.702  1.00  0.00     0.143 A 
HETATM   13  N7  UNL     1     -20.757  57.357 -34.472  1.00  0.00    -0.383 N 
ATOM     14  H71 UNL     1     -21.257  56.469 -34.434  1.00  0.00     0.157 HD
ATOM     15  H72 UNL     1     -21.298  58.209 -34.321  1.00  0.00     0.157 HD
HETATM   16  N8  UNL     1     -18.745  56.252 -34.912  1.00  0.00    -0.175 N 
ATOM     17  H8  UNL     1     -19.190  55.334 -34.884  1.00  0.00     0.186 HD
ENDROOT
BRANCH   7  18
HETATM   18  C3  UNL     1     -16.592  60.051 -35.081  1.00  0.00     0.036 C 
HETATM   19  C4  UNL     1     -15.931  60.385 -36.157  1.00  0.00     0.059 C 
BRANCH  19  20
HETATM   20  C5  UNL     1     -15.158  61.573 -36.375  1.00  0.00     0.204 A 
HETATM   21  N3  UNL     1     -15.488  62.679 -37.056  1.00  0.00    -0.118 N 
HETATM   22  N4  UNL     1     -14.431  63.490 -36.964  1.00  0.00     0.080 NA
HETATM   23  O2  UNL     1     -13.521  62.904 -36.267  1.00  0.00    -0.110 OA
HETATM   24  N5  UNL     1     -13.892  61.742 -35.878  1.00  0.00    -0.084 N 
BRANCH  21  25
HETATM   25  O1  UNL     1     -16.645  62.956 -37.718  1.00  0.00    -0.267 OA
ATOM     26  H1  UNL     1     -17.160  62.386 -38.276  1.00  0.00     0.246 HD
ENDBRANCH  21  25
BRANCH  24  27
HETATM   27  O3  UNL     1     -13.159  60.848 -35.114  1.00  0.00    -0.260 OA
ATOM     28  H3  UNL     1     -13.488  60.124 -34.595  1.00  0.00     0.247 HD
ENDBRANCH  24  27
ENDBRANCH  19  20
ENDBRANCH   7  18
TORSDOF 4
ENDMDL
