MODEL 1
REMARK VINA RESULT: -6.913946952      0.000      0.000
REMARK  10 active torsions:
REMARK  status: ('A' for Active; 'I' for Inactive)
REMARK       I    between atoms: C2_2  and  N1_4 
REMARK    1  A    between atoms: N1_4  and  C3_6 
REMARK    2  A    between atoms: C4_7  and  O2_8 
REMARK    3  A    between atoms: C5_10  and  N2_11 
REMARK    4  A    between atoms: C8_17  and  C9_18 
REMARK    5  A    between atoms: C9_18  and  N4_19 
REMARK    6  A    between atoms: C12_25  and  O5_26 
REMARK    7  A    between atoms: N6_30  and  C14_31 
REMARK    8  A    between atoms: C14_31  and  O7_32 
REMARK    9  A    between atoms: C15_34  and  N7_35 
REMARK   10  A    between atoms: N8_38  and  O8_39 
ROOT
HETATM    1  C3  UNL     1      -5.520  -0.954   4.813  1.00  0.00     0.105 A 
HETATM    2  C4  UNL     1      -5.437  -0.443   3.573  1.00  0.00     0.126 A 
HETATM    3  C5  UNL     1      -6.155  -0.993   2.519  1.00  0.00     0.113 A 
HETATM    4  C10 UNL     1      -6.987  -2.095   2.710  1.00  0.00     0.130 A 
HETATM    5  C11 UNL     1      -7.055  -2.612   4.028  1.00  0.00     0.100 A 
HETATM    6  C12 UNL     1      -6.339  -2.060   5.070  1.00  0.00     0.113 A 
HETATM    7  C13 UNL     1      -7.871  -3.710   4.235  1.00  0.00     0.279 A 
HETATM    8  O6  UNL     1      -7.973  -4.212   5.386  1.00  0.00    -0.266 OA
HETATM    9  N6  UNL     1      -8.547  -4.226   3.198  1.00  0.00    -0.123 N 
HETATM   10  C15 UNL     1      -8.466  -3.725   1.969  1.00  0.00     0.709 A 
HETATM   11  N8  UNL     1      -7.683  -2.654   1.719  1.00  0.00    -0.049 N 
ENDROOT
BRANCH   3  12
HETATM   12  N2  UNL     1      -6.015  -0.419   1.227  1.00  0.00    -0.287 N 
HETATM   13  C6  UNL     1      -6.866   0.682   0.864  1.00  0.00     0.172 C 
HETATM   14  C7  UNL     1      -6.560   1.097  -0.566  1.00  0.00     0.255 C 
HETATM   15  N3  UNL     1      -5.158   1.345  -0.654  1.00  0.00    -0.052 N 
HETATM   16  C8  UNL     1      -4.400   0.146  -0.388  1.00  0.00     0.322 C 
ATOM     17  H32 UNL     1      -4.905   1.758  -1.552  1.00  0.00     0.279 HD
ATOM     18  H31 UNL     1      -4.875   2.112  -0.045  1.00  0.00     0.279 HD
HETATM   19  N5  UNL     1      -5.084  -0.875   0.334  1.00  0.00    -0.103 NA
BRANCH  16  20
HETATM   20  C9  UNL     1      -3.894  -0.328  -1.740  1.00  0.00     0.253 C 
BRANCH  20  21
HETATM   21  N4  UNL     1      -3.831   0.831  -2.598  1.00  0.00    -0.152 N 
HETATM   22  O3  UNL     1      -2.921   1.677  -2.451  1.00  0.00    -0.536 OA
HETATM   23  O4  UNL     1      -4.776   1.006  -3.585  1.00  0.00    -0.536 OA
ENDBRANCH  20  21
ENDBRANCH  16  20
ENDBRANCH   3  12
BRANCH   2  24
HETATM   24  O2  UNL     1      -4.640   0.637   3.327  1.00  0.00    -0.356 OA
ATOM     25  H2  UNL     1      -5.003   1.514   3.346  1.00  0.00     0.218 HD
ENDBRANCH   2  24
BRANCH   1  26
HETATM   26  N1  UNL     1      -4.773  -0.379   5.908  1.00  0.00    -0.323 N 
HETATM   27  C2  UNL     1      -3.452  -0.762   6.188  1.00  0.00     0.218 C 
HETATM   28  C1  UNL     1      -2.722  -0.155   7.311  1.00  0.00     0.117 C 
HETATM   29  O1  UNL     1      -2.886  -1.621   5.486  1.00  0.00    -0.274 OA
ATOM     30  H1  UNL     1      -5.219   0.326   6.494  1.00  0.00     0.169 HD
ENDBRANCH   1  26
BRANCH  11  31
HETATM   31  O8  UNL     1      -7.599  -2.164   0.443  1.00  0.00    -0.269 OA
ATOM     32  H8  UNL     1      -7.026  -2.570  -0.197  1.00  0.00     0.245 HD
ENDBRANCH  11  31
BRANCH   6  33
HETATM   33  O5  UNL     1      -6.387  -2.527   6.315  1.00  0.00    -0.357 OA
ATOM     34  H5  UNL     1      -6.514  -1.905   7.021  1.00  0.00     0.217 HD
ENDBRANCH   6  33
BRANCH  10  35
HETATM   35  N7  UNL     1      -9.108  -4.201   0.975  1.00  0.00    -0.232 N 
ATOM     36  H72 UNL     1      -9.643  -5.052   1.149  1.00  0.00     0.174 HD
ATOM     37  H71 UNL     1      -9.097  -3.778   0.048  1.00  0.00     0.174 HD
ENDBRANCH  10  35
BRANCH   9  38
HETATM   38  C14 UNL     1      -9.390  -5.385   3.495  1.00  0.00     0.317 C 
BRANCH  38  39
HETATM   39  O7  UNL     1      -8.559  -6.480   3.760  1.00  0.00    -0.381 OA
ATOM     40  H7  UNL     1      -8.881  -7.227   3.269  1.00  0.00     0.211 HD
ENDBRANCH  38  39
ENDBRANCH   9  38
TORSDOF 10
ENDMDL
MODEL 2
REMARK VINA RESULT: -6.771464083      6.475      9.140
REMARK  10 active torsions:
REMARK  status: ('A' for Active; 'I' for Inactive)
REMARK       I    between atoms: C2_2  and  N1_4 
REMARK    1  A    between atoms: N1_4  and  C3_6 
REMARK    2  A    between atoms: C4_7  and  O2_8 
REMARK    3  A    between atoms: C5_10  and  N2_11 
REMARK    4  A    between atoms: C8_17  and  C9_18 
REMARK    5  A    between atoms: C9_18  and  N4_19 
REMARK    6  A    between atoms: C12_25  and  O5_26 
REMARK    7  A    between atoms: N6_30  and  C14_31 
REMARK    8  A    between atoms: C14_31  and  O7_32 
REMARK    9  A    between atoms: C15_34  and  N7_35 
REMARK   10  A    between atoms: N8_38  and  O8_39 
ROOT
HETATM    1  C3  UNL     1     -11.264  -3.726   4.089  1.00  0.00     0.105 A 
HETATM    2  C4  UNL     1     -12.111  -2.749   4.454  1.00  0.00     0.126 A 
HETATM    3  C5  UNL     1     -13.452  -3.015   4.703  1.00  0.00     0.113 A 
HETATM    4  C10 UNL     1     -13.966  -4.305   4.581  1.00  0.00     0.130 A 
HETATM    5  C11 UNL     1     -13.049  -5.315   4.196  1.00  0.00     0.100 A 
HETATM    6  C12 UNL     1     -11.720  -5.043   3.950  1.00  0.00     0.113 A 
HETATM    7  C13 UNL     1     -13.543  -6.600   4.064  1.00  0.00     0.279 A 
HETATM    8  O6  UNL     1     -12.776  -7.540   3.725  1.00  0.00    -0.266 OA
HETATM    9  N6  UNL     1     -14.843  -6.828   4.303  1.00  0.00    -0.123 N 
HETATM   10  C15 UNL     1     -15.686  -5.864   4.662  1.00  0.00     0.709 A 
HETATM   11  N8  UNL     1     -15.249  -4.593   4.803  1.00  0.00    -0.049 N 
ENDROOT
BRANCH   3  12
HETATM   12  N2  UNL     1     -14.303  -1.938   5.071  1.00  0.00    -0.287 N 
HETATM   13  C6  UNL     1     -14.449  -1.619   6.466  1.00  0.00     0.172 C 
HETATM   14  C7  UNL     1     -15.431  -0.468   6.612  1.00  0.00     0.255 C 
HETATM   15  N3  UNL     1     -14.975   0.597   5.780  1.00  0.00    -0.052 N 
HETATM   16  C8  UNL     1     -14.980   0.210   4.389  1.00  0.00     0.322 C 
ATOM     17  H32 UNL     1     -15.512   1.450   5.933  1.00  0.00     0.279 HD
ATOM     18  H31 UNL     1     -14.059   0.936   6.072  1.00  0.00     0.279 HD
HETATM   19  N5  UNL     1     -14.966  -1.193   4.135  1.00  0.00    -0.103 NA
BRANCH  16  20
HETATM   20  C9  UNL     1     -16.180   0.907   3.773  1.00  0.00     0.253 C 
BRANCH  20  21
HETATM   21  N4  UNL     1     -16.103   2.297   4.154  1.00  0.00    -0.152 N 
HETATM   22  O3  UNL     1     -15.355   3.083   3.529  1.00  0.00    -0.536 OA
HETATM   23  O4  UNL     1     -16.857   2.762   5.209  1.00  0.00    -0.536 OA
ENDBRANCH  20  21
ENDBRANCH  16  20
ENDBRANCH   3  12
BRANCH   2  24
HETATM   24  O2  UNL     1     -11.664  -1.467   4.590  1.00  0.00    -0.356 OA
ATOM     25  H2  UNL     1     -12.053  -0.891   5.238  1.00  0.00     0.218 HD
ENDBRANCH   2  24
BRANCH   1  26
HETATM   26  N1  UNL     1      -9.871  -3.447   3.831  1.00  0.00    -0.323 N 
HETATM   27  C2  UNL     1      -8.898  -3.523   4.839  1.00  0.00     0.218 C 
HETATM   28  C1  UNL     1      -7.488  -3.233   4.539  1.00  0.00     0.117 C 
HETATM   29  O1  UNL     1      -9.222  -3.839   6.000  1.00  0.00    -0.274 OA
ATOM     30  H1  UNL     1      -9.585  -3.186   2.887  1.00  0.00     0.169 HD
ENDBRANCH   1  26
BRANCH  11  31
HETATM   31  O8  UNL     1     -16.136  -3.612   5.157  1.00  0.00    -0.269 OA
ATOM     32  H8  UNL     1     -16.884  -3.809   5.708  1.00  0.00     0.245 HD
ENDBRANCH  11  31
BRANCH   6  33
HETATM   33  O5  UNL     1     -10.840  -5.974   3.587  1.00  0.00    -0.357 OA
ATOM     34  H5  UNL     1     -10.997  -6.869   3.864  1.00  0.00     0.217 HD
ENDBRANCH   6  33
BRANCH  10  35
HETATM   35  N7  UNL     1     -16.922  -6.066   4.898  1.00  0.00    -0.232 N 
ATOM     36  H72 UNL     1     -17.309  -6.947   4.559  1.00  0.00     0.174 HD
ATOM     37  H71 UNL     1     -17.514  -5.399   5.391  1.00  0.00     0.174 HD
ENDBRANCH  10  35
BRANCH   9  38
HETATM   38  C14 UNL     1     -15.291  -8.212   4.144  1.00  0.00     0.317 C 
BRANCH  38  39
HETATM   39  O7  UNL     1     -15.813  -8.651   5.367  1.00  0.00    -0.381 OA
ATOM     40  H7  UNL     1     -16.555  -9.219   5.191  1.00  0.00     0.211 HD
ENDBRANCH  38  39
ENDBRANCH   9  38
TORSDOF 10
ENDMDL
MODEL 3
REMARK VINA RESULT: -6.756771603      5.061      8.308
REMARK  10 active torsions:
REMARK  status: ('A' for Active; 'I' for Inactive)
REMARK       I    between atoms: C2_2  and  N1_4 
REMARK    1  A    between atoms: N1_4  and  C3_6 
REMARK    2  A    between atoms: C4_7  and  O2_8 
REMARK    3  A    between atoms: C5_10  and  N2_11 
REMARK    4  A    between atoms: C8_17  and  C9_18 
REMARK    5  A    between atoms: C9_18  and  N4_19 
REMARK    6  A    between atoms: C12_25  and  O5_26 
REMARK    7  A    between atoms: N6_30  and  C14_31 
REMARK    8  A    between atoms: C14_31  and  O7_32 
REMARK    9  A    between atoms: C15_34  and  N7_35 
REMARK   10  A    between atoms: N8_38  and  O8_39 
ROOT
HETATM    1  C3  UNL     1     -14.216  -2.620   5.032  1.00  0.00     0.105 A 
HETATM    2  C4  UNL     1     -12.925  -2.482   4.689  1.00  0.00     0.126 A 
HETATM    3  C5  UNL     1     -12.145  -3.585   4.362  1.00  0.00     0.113 A 
HETATM    4  C10 UNL     1     -12.676  -4.873   4.379  1.00  0.00     0.130 A 
HETATM    5  C11 UNL     1     -14.041  -4.988   4.743  1.00  0.00     0.100 A 
HETATM    6  C12 UNL     1     -14.808  -3.889   5.067  1.00  0.00     0.113 A 
HETATM    7  C13 UNL     1     -14.583  -6.261   4.771  1.00  0.00     0.279 A 
HETATM    8  O6  UNL     1     -15.791  -6.425   5.087  1.00  0.00    -0.266 OA
HETATM    9  N6  UNL     1     -13.806  -7.309   4.459  1.00  0.00    -0.123 N 
HETATM   10  C15 UNL     1     -12.527  -7.177   4.121  1.00  0.00     0.709 A 
HETATM   11  N8  UNL     1     -11.954  -5.954   4.080  1.00  0.00    -0.049 N 
ENDROOT
BRANCH   3  12
HETATM   12  N2  UNL     1     -10.781  -3.378   4.022  1.00  0.00    -0.287 N 
HETATM   13  C6  UNL     1     -10.445  -3.103   2.652  1.00  0.00     0.172 C 
HETATM   14  C7  UNL     1      -8.936  -2.958   2.529  1.00  0.00     0.255 C 
HETATM   15  N3  UNL     1      -8.518  -1.977   3.476  1.00  0.00    -0.052 N 
HETATM   16  C8  UNL     1      -8.795  -2.405   4.826  1.00  0.00     0.322 C 
ATOM     17  H32 UNL     1      -7.535  -1.733   3.354  1.00  0.00     0.279 HD
ATOM     18  H31 UNL     1      -8.930  -1.066   3.279  1.00  0.00     0.279 HD
HETATM   19  N5  UNL     1      -9.791  -3.416   4.966  1.00  0.00    -0.103 NA
BRANCH  16  20
HETATM   20  C9  UNL     1      -7.455  -2.817   5.410  1.00  0.00     0.253 C 
BRANCH  20  21
HETATM   21  N4  UNL     1      -7.529  -4.233   5.681  1.00  0.00    -0.152 N 
HETATM   22  O3  UNL     1      -7.507  -4.653   6.860  1.00  0.00    -0.536 OA
HETATM   23  O4  UNL     1      -7.626  -5.128   4.637  1.00  0.00    -0.536 OA
ENDBRANCH  20  21
ENDBRANCH  16  20
ENDBRANCH   3  12
BRANCH   2  24
HETATM   24  O2  UNL     1     -12.351  -1.244   4.655  1.00  0.00    -0.356 OA
ATOM     25  H2  UNL     1     -11.841  -0.974   3.900  1.00  0.00     0.218 HD
ENDBRANCH   2  24
BRANCH   1  26
HETATM   26  N1  UNL     1     -15.024  -1.472   5.372  1.00  0.00    -0.323 N 
HETATM   27  C2  UNL     1     -15.175  -1.034   6.695  1.00  0.00     0.218 C 
HETATM   28  C1  UNL     1     -16.005   0.140   7.003  1.00  0.00     0.117 C 
HETATM   29  O1  UNL     1     -14.604  -1.637   7.624  1.00  0.00    -0.274 OA
ATOM     30  H1  UNL     1     -15.500  -0.964   4.625  1.00  0.00     0.169 HD
ENDBRANCH   1  26
BRANCH  11  31
HETATM   31  O8  UNL     1     -10.630  -5.841   3.747  1.00  0.00    -0.269 OA
ATOM     32  H8  UNL     1     -10.275  -6.314   3.003  1.00  0.00     0.245 HD
ENDBRANCH  11  31
BRANCH   6  33
HETATM   33  O5  UNL     1     -16.091  -3.972   5.412  1.00  0.00    -0.357 OA
ATOM     34  H5  UNL     1     -16.382  -4.754   5.865  1.00  0.00     0.217 HD
ENDBRANCH   6  33
BRANCH  10  35
HETATM   35  N7  UNL     1     -11.778  -8.163   3.815  1.00  0.00    -0.232 N 
ATOM     36  H72 UNL     1     -12.047  -9.070   4.196  1.00  0.00     0.174 HD
ATOM     37  H71 UNL     1     -10.948  -8.075   3.230  1.00  0.00     0.174 HD
ENDBRANCH  10  35
BRANCH   9  38
HETATM   38  C14 UNL     1     -14.450  -8.622   4.509  1.00  0.00     0.317 C 
BRANCH  38  39
HETATM   39  O7  UNL     1     -14.961  -8.913   3.239  1.00  0.00    -0.381 OA
ATOM     40  H7  UNL     1     -14.530  -9.695   2.914  1.00  0.00     0.211 HD
ENDBRANCH  38  39
ENDBRANCH   9  38
TORSDOF 10
ENDMDL
MODEL 4
REMARK VINA RESULT: -6.753701928      5.183      8.320
REMARK  10 active torsions:
REMARK  status: ('A' for Active; 'I' for Inactive)
REMARK       I    between atoms: C2_2  and  N1_4 
REMARK    1  A    between atoms: N1_4  and  C3_6 
REMARK    2  A    between atoms: C4_7  and  O2_8 
REMARK    3  A    between atoms: C5_10  and  N2_11 
REMARK    4  A    between atoms: C8_17  and  C9_18 
REMARK    5  A    between atoms: C9_18  and  N4_19 
REMARK    6  A    between atoms: C12_25  and  O5_26 
REMARK    7  A    between atoms: N6_30  and  C14_31 
REMARK    8  A    between atoms: C14_31  and  O7_32 
REMARK    9  A    between atoms: C15_34  and  N7_35 
REMARK   10  A    between atoms: N8_38  and  O8_39 
ROOT
HETATM    1  C3  UNL     1     -14.076  -2.695   5.150  1.00  0.00     0.105 A 
HETATM    2  C4  UNL     1     -12.759  -2.742   4.887  1.00  0.00     0.126 A 
HETATM    3  C5  UNL     1     -12.140  -3.932   4.525  1.00  0.00     0.113 A 
HETATM    4  C10 UNL     1     -12.862  -5.119   4.422  1.00  0.00     0.130 A 
HETATM    5  C11 UNL     1     -14.249  -5.039   4.704  1.00  0.00     0.100 A 
HETATM    6  C12 UNL     1     -14.857  -3.854   5.064  1.00  0.00     0.113 A 
HETATM    7  C13 UNL     1     -14.981  -6.209   4.613  1.00  0.00     0.279 A 
HETATM    8  O6  UNL     1     -16.218  -6.200   4.851  1.00  0.00    -0.266 OA
HETATM    9  N6  UNL     1     -14.357  -7.345   4.269  1.00  0.00    -0.123 N 
HETATM   10  C15 UNL     1     -13.054  -7.397   4.010  1.00  0.00     0.709 A 
HETATM   11  N8  UNL     1     -12.298  -6.280   4.086  1.00  0.00    -0.049 N 
ENDROOT
BRANCH   3  12
HETATM   12  N2  UNL     1     -10.741  -3.922   4.274  1.00  0.00    -0.287 N 
HETATM   13  C6  UNL     1     -10.279  -3.612   2.948  1.00  0.00     0.172 C 
HETATM   14  C7  UNL     1      -8.762  -3.702   2.916  1.00  0.00     0.255 C 
HETATM   15  N3  UNL     1      -8.258  -2.866   3.956  1.00  0.00    -0.052 N 
HETATM   16  C8  UNL     1      -8.683  -3.336   5.253  1.00  0.00     0.322 C 
ATOM     17  H32 UNL     1      -7.243  -2.774   3.905  1.00  0.00     0.279 HD
ATOM     18  H31 UNL     1      -8.510  -1.890   3.809  1.00  0.00     0.279 HD
HETATM   19  N5  UNL     1      -9.831  -4.182   5.263  1.00  0.00    -0.103 NA
BRANCH  16  20
HETATM   20  C9  UNL     1      -7.463  -3.995   5.872  1.00  0.00     0.253 C 
BRANCH  20  21
HETATM   21  N4  UNL     1      -6.328  -3.158   5.563  1.00  0.00    -0.152 N 
HETATM   22  O3  UNL     1      -6.182  -2.055   6.134  1.00  0.00    -0.536 OA
HETATM   23  O4  UNL     1      -5.400  -3.578   4.635  1.00  0.00    -0.536 OA
ENDBRANCH  20  21
ENDBRANCH  16  20
ENDBRANCH   3  12
BRANCH   2  24
HETATM   24  O2  UNL     1     -12.001  -1.610   4.971  1.00  0.00    -0.356 OA
ATOM     25  H2  UNL     1     -11.053  -1.669   4.974  1.00  0.00     0.218 HD
ENDBRANCH   2  24
BRANCH   1  26
HETATM   26  N1  UNL     1     -14.717  -1.457   5.526  1.00  0.00    -0.323 N 
HETATM   27  C2  UNL     1     -14.927  -1.105   6.868  1.00  0.00     0.218 C 
HETATM   28  C1  UNL     1     -15.582   0.165   7.213  1.00  0.00     0.117 C 
HETATM   29  O1  UNL     1     -14.556  -1.868   7.781  1.00  0.00    -0.274 OA
ATOM     30  H1  UNL     1     -15.028  -0.818   4.793  1.00  0.00     0.169 HD
ENDBRANCH   1  26
BRANCH  11  31
HETATM   31  O8  UNL     1     -10.954  -6.357   3.833  1.00  0.00    -0.269 OA
ATOM     32  H8  UNL     1     -10.614  -6.983   3.205  1.00  0.00     0.245 HD
ENDBRANCH  11  31
BRANCH   6  33
HETATM   33  O5  UNL     1     -16.157  -3.754   5.333  1.00  0.00    -0.357 OA
ATOM     34  H5  UNL     1     -16.696  -4.529   5.228  1.00  0.00     0.217 HD
ENDBRANCH   6  33
BRANCH  10  35
HETATM   35  N7  UNL     1     -12.448  -8.468   3.676  1.00  0.00    -0.232 N 
ATOM     36  H72 UNL     1     -12.696  -9.308   4.197  1.00  0.00     0.174 HD
ATOM     37  H71 UNL     1     -11.747  -8.507   2.937  1.00  0.00     0.174 HD
ENDBRANCH  10  35
BRANCH   9  38
HETATM   38  C14 UNL     1     -15.197  -8.540   4.192  1.00  0.00     0.317 C 
BRANCH  38  39
HETATM   39  O7  UNL     1     -15.734  -8.787   5.461  1.00  0.00    -0.381 OA
ATOM     40  H7  UNL     1     -15.946  -9.711   5.523  1.00  0.00     0.211 HD
ENDBRANCH  38  39
ENDBRANCH   9  38
TORSDOF 10
ENDMDL
MODEL 5
REMARK VINA RESULT: -6.712558721      6.404     10.154
REMARK  10 active torsions:
REMARK  status: ('A' for Active; 'I' for Inactive)
REMARK       I    between atoms: C2_2  and  N1_4 
REMARK    1  A    between atoms: N1_4  and  C3_6 
REMARK    2  A    between atoms: C4_7  and  O2_8 
REMARK    3  A    between atoms: C5_10  and  N2_11 
REMARK    4  A    between atoms: C8_17  and  C9_18 
REMARK    5  A    between atoms: C9_18  and  N4_19 
REMARK    6  A    between atoms: C12_25  and  O5_26 
REMARK    7  A    between atoms: N6_30  and  C14_31 
REMARK    8  A    between atoms: C14_31  and  O7_32 
REMARK    9  A    between atoms: C15_34  and  N7_35 
REMARK   10  A    between atoms: N8_38  and  O8_39 
ROOT
HETATM    1  C3  UNL     1     -14.540  -5.970   4.583  1.00  0.00     0.105 A 
HETATM    2  C4  UNL     1     -15.024  -4.756   4.894  1.00  0.00     0.126 A 
HETATM    3  C5  UNL     1     -14.205  -3.634   4.893  1.00  0.00     0.113 A 
HETATM    4  C10 UNL     1     -12.853  -3.727   4.570  1.00  0.00     0.130 A 
HETATM    5  C11 UNL     1     -12.372  -5.020   4.245  1.00  0.00     0.100 A 
HETATM    6  C12 UNL     1     -13.190  -6.130   4.248  1.00  0.00     0.113 A 
HETATM    7  C13 UNL     1     -11.029  -5.133   3.927  1.00  0.00     0.279 A 
HETATM    8  O6  UNL     1     -10.544  -6.256   3.629  1.00  0.00    -0.266 OA
HETATM    9  N6  UNL     1     -10.260  -4.034   3.941  1.00  0.00    -0.123 N 
HETATM   10  C15 UNL     1     -10.734  -2.831   4.251  1.00  0.00     0.709 A 
HETATM   11  N8  UNL     1     -12.038  -2.672   4.568  1.00  0.00    -0.049 N 
ENDROOT
BRANCH   3  12
HETATM   12  N2  UNL     1     -14.771  -2.378   5.246  1.00  0.00    -0.287 N 
HETATM   13  C6  UNL     1     -14.620  -1.906   6.595  1.00  0.00     0.172 C 
HETATM   14  C7  UNL     1     -15.336  -0.573   6.740  1.00  0.00     0.255 C 
HETATM   15  N3  UNL     1     -14.840   0.296   5.723  1.00  0.00    -0.052 N 
HETATM   16  C8  UNL     1     -15.150  -0.212   4.408  1.00  0.00     0.322 C 
ATOM     17  H32 UNL     1     -15.180   1.249   5.846  1.00  0.00     0.279 HD
ATOM     18  H31 UNL     1     -13.842   0.470   5.833  1.00  0.00     0.279 HD
HETATM   19  N5  UNL     1     -15.436  -1.607   4.331  1.00  0.00    -0.103 NA
BRANCH  16  20
HETATM   20  C9  UNL     1     -16.289   0.650   3.892  1.00  0.00     0.253 C 
BRANCH  20  21
HETATM   21  N4  UNL     1     -15.887   2.026   4.060  1.00  0.00    -0.152 N 
HETATM   22  O3  UNL     1     -14.936   2.493   3.394  1.00  0.00    -0.536 OA
HETATM   23  O4  UNL     1     -16.555   2.831   4.957  1.00  0.00    -0.536 OA
ENDBRANCH  20  21
ENDBRANCH  16  20
ENDBRANCH   3  12
BRANCH   2  24
HETATM   24  O2  UNL     1     -16.341  -4.604   5.218  1.00  0.00    -0.356 OA
ATOM     25  H2  UNL     1     -16.928  -4.141   4.631  1.00  0.00     0.218 HD
ENDBRANCH   2  24
BRANCH   1  26
HETATM   26  N1  UNL     1     -15.394  -7.136   4.584  1.00  0.00    -0.323 N 
HETATM   27  C2  UNL     1     -16.384  -7.334   3.610  1.00  0.00     0.218 C 
HETATM   28  C1  UNL     1     -17.233  -8.534   3.643  1.00  0.00     0.117 C 
HETATM   29  O1  UNL     1     -16.551  -6.493   2.706  1.00  0.00    -0.274 OA
ATOM     30  H1  UNL     1     -15.272  -7.836   5.316  1.00  0.00     0.169 HD
ENDBRANCH   1  26
BRANCH  11  31
HETATM   31  O8  UNL     1     -12.503  -1.428   4.901  1.00  0.00    -0.269 OA
ATOM     32  H8  UNL     1     -12.175  -0.977   5.670  1.00  0.00     0.245 HD
ENDBRANCH  11  31
BRANCH   6  33
HETATM   33  O5  UNL     1     -12.761  -7.353   3.946  1.00  0.00    -0.357 OA
ATOM     34  H5  UNL     1     -12.925  -8.050   4.570  1.00  0.00     0.217 HD
ENDBRANCH   6  33
BRANCH  10  35
HETATM   35  N7  UNL     1     -10.017  -1.777   4.263  1.00  0.00    -0.232 N 
ATOM     36  H72 UNL     1     -10.074  -1.182   3.437  1.00  0.00     0.174 HD
ATOM     37  H71 UNL     1      -9.406  -1.525   5.040  1.00  0.00     0.174 HD
ENDBRANCH  10  35
BRANCH   9  38
HETATM   38  C14 UNL     1      -8.853  -4.232   3.593  1.00  0.00     0.317 C 
BRANCH  38  39
HETATM   39  O7  UNL     1      -8.232  -4.926   4.639  1.00  0.00    -0.381 OA
ATOM     40  H7  UNL     1      -7.506  -5.423   4.279  1.00  0.00     0.211 HD
ENDBRANCH  38  39
ENDBRANCH   9  38
TORSDOF 10
ENDMDL
