MODEL 1
REMARK VINA RESULT: -7.312679513      0.000      0.000
REMARK  14 active torsions:
REMARK  status: ('A' for Active; 'I' for Inactive)
REMARK    1  A    between atoms: C4_4  and  C5_5 
REMARK    2  A    between atoms: C5_5  and  O1_6 
REMARK    3  A    between atoms: O1_6  and  C6_7 
REMARK       I    between atoms: C6_7  and  N1_9 
REMARK    4  A    between atoms: N1_9  and  N2_10 
REMARK    5  A    between atoms: N2_10  and  C7_12 
REMARK    6  A    between atoms: C8_13  and  N3_14 
REMARK    7  A    between atoms: N3_14  and  O3_16 
REMARK    8  A    between atoms: C9_20  and  N5_21 
REMARK    9  A    between atoms: N5_21  and  N6_23 
REMARK   10  A    between atoms: C10_28  and  N9_29 
REMARK   11  A    between atoms: N9_29  and  N10_31 
REMARK   12  A    between atoms: C11_34  and  O4_35 
REMARK   13  A    between atoms: N11_37  and  C12_38 
REMARK   14  A    between atoms: C12_38  and  O5_42 
ROOT
HETATM    1  C1  UNL     1      -5.730   0.372   5.376  1.00  0.00     0.017 C 
HETATM    2  C2  UNL     1      -6.110  -0.780   5.506  1.00  0.00    -0.090 C 
HETATM    3  C3  UNL     1      -6.479  -2.166   5.645  1.00  0.00     0.061 C 
HETATM    4  C4  UNL     1      -5.895  -3.170   5.008  1.00  0.00     0.009 C 
ENDROOT
BRANCH   4   5
HETATM    5  C5  UNL     1      -6.098  -4.532   5.006  1.00  0.00     0.210 C 
BRANCH   5   6
HETATM    6  O1  UNL     1      -7.527  -4.693   5.389  1.00  0.00    -0.288 OA
BRANCH   6   7
HETATM    7  C6  UNL     1      -8.475  -4.971   4.244  1.00  0.00     0.458 C 
HETATM    8  O2  UNL     1      -8.203  -6.065   3.844  1.00  0.00    -0.219 OA
HETATM    9  N1  UNL     1      -9.277  -3.911   4.097  1.00  0.00    -0.258 NA
BRANCH   9  10
HETATM   10  N2  UNL     1     -10.072  -2.866   3.949  1.00  0.00    -0.221 N 
ATOM     11  H2  UNL     1      -9.603  -2.145   3.400  1.00  0.00     0.202 HD
BRANCH  10  12
HETATM   12  C7  UNL     1     -11.356  -2.436   4.308  1.00  0.00     0.176 A 
HETATM   13  C8  UNL     1     -11.888  -2.839   5.577  1.00  0.00     0.175 A 
HETATM   14  N4  UNL     1     -13.019  -2.242   5.873  1.00  0.00    -0.170 N 
HETATM   15  C9  UNL     1     -13.734  -1.334   5.188  1.00  0.00     0.713 A 
ATOM     16  H4  UNL     1     -13.420  -2.511   6.771  1.00  0.00     0.186 HD
HETATM   17  N11 UNL     1     -13.230  -0.984   3.999  1.00  0.00    -0.070 N 
HETATM   18  C13 UNL     1     -12.058  -1.538   3.589  1.00  0.00     0.302 A 
HETATM   19  O6  UNL     1     -11.580  -1.210   2.442  1.00  0.00    -0.264 OA
BRANCH  13  20
HETATM   20  N3  UNL     1     -11.262  -3.872   6.293  1.00  0.00    -0.250 N 
ATOM     21  H3  UNL     1     -11.655  -4.811   6.357  1.00  0.00     0.196 HD
BRANCH  20  22
HETATM   22  O3  UNL     1     -10.109  -3.528   6.884  1.00  0.00    -0.288 OA
ATOM     23  H3  UNL     1      -9.388  -4.129   6.731  1.00  0.00     0.244 HD
ENDBRANCH  20  22
ENDBRANCH  13  20
BRANCH  15  24
HETATM   24  N5  UNL     1     -14.681  -0.929   5.743  1.00  0.00    -0.106 N 
ATOM     25  H5  UNL     1     -15.413  -1.282   5.127  1.00  0.00     0.208 HD
BRANCH  24  26
HETATM   26  N6  UNL     1     -15.429  -0.303   6.660  1.00  0.00    -0.140 N 
HETATM   27  N7  UNL     1     -15.365  -0.242   7.937  1.00  0.00    -0.217 N 
HETATM   28  N8  UNL     1     -16.279   0.567   8.422  1.00  0.00    -0.265 N 
ATOM     29  H7  UNL     1     -14.691  -0.756   8.504  1.00  0.00     0.210 HD
HETATM   30  C10 UNL     1     -17.028   1.110   7.382  1.00  0.00     0.191 A 
ATOM     31  H8  UNL     1     -16.418   0.768   9.413  1.00  0.00     0.190 HD
HETATM   32  C11 UNL     1     -16.476   0.538   6.267  1.00  0.00     0.228 A 
BRANCH  30  33
HETATM   33  N9  UNL     1     -18.128   1.966   7.592  1.00  0.00    -0.287 N 
ATOM     34  H9  UNL     1     -18.052   2.972   7.445  1.00  0.00     0.188 HD
BRANCH  33  35
HETATM   35  N10 UNL     1     -19.358   1.368   8.019  1.00  0.00    -0.343 N 
ATOM     36 2H10 UNL     1     -19.422   0.922   8.934  1.00  0.00     0.176 HD
ATOM     37 1H10 UNL     1     -20.149   1.410   7.377  1.00  0.00     0.176 HD
ENDBRANCH  33  35
ENDBRANCH  30  33
BRANCH  32  38
HETATM   38  O4  UNL     1     -16.902   0.764   5.018  1.00  0.00    -0.341 OA
ATOM     39  H4  UNL     1     -17.647   0.364   4.587  1.00  0.00     0.219 HD
ENDBRANCH  32  38
ENDBRANCH  24  26
ENDBRANCH  15  24
BRANCH  17  40
HETATM   40  C12 UNL     1     -13.831  -0.035   3.189  1.00  0.00     0.240 C 
HETATM   41  N12 UNL     1     -14.412   0.304   2.036  1.00  0.00    -0.364 N 
ATOM     42 2H12 UNL     1     -14.395  -0.553   1.484  1.00  0.00     0.159 HD
ATOM     43 1H12 UNL     1     -14.855   1.003   1.440  1.00  0.00     0.159 HD
BRANCH  40  44
HETATM   44  O5  UNL     1     -13.854   1.183   3.973  1.00  0.00    -0.332 OA
ATOM     45  H5  UNL     1     -13.052   1.173   4.481  1.00  0.00     0.221 HD
ENDBRANCH  40  44
ENDBRANCH  17  40
ENDBRANCH  10  12
ENDBRANCH   9  10
ENDBRANCH   6   7
ENDBRANCH   5   6
ENDBRANCH   4   5
TORSDOF 14
ENDMDL
MODEL 2
REMARK VINA RESULT: -7.167400590      2.024      2.894
REMARK  14 active torsions:
REMARK  status: ('A' for Active; 'I' for Inactive)
REMARK    1  A    between atoms: C4_4  and  C5_5 
REMARK    2  A    between atoms: C5_5  and  O1_6 
REMARK    3  A    between atoms: O1_6  and  C6_7 
REMARK       I    between atoms: C6_7  and  N1_9 
REMARK    4  A    between atoms: N1_9  and  N2_10 
REMARK    5  A    between atoms: N2_10  and  C7_12 
REMARK    6  A    between atoms: C8_13  and  N3_14 
REMARK    7  A    between atoms: N3_14  and  O3_16 
REMARK    8  A    between atoms: C9_20  and  N5_21 
REMARK    9  A    between atoms: N5_21  and  N6_23 
REMARK   10  A    between atoms: C10_28  and  N9_29 
REMARK   11  A    between atoms: N9_29  and  N10_31 
REMARK   12  A    between atoms: C11_34  and  O4_35 
REMARK   13  A    between atoms: N11_37  and  C12_38 
REMARK   14  A    between atoms: C12_38  and  O5_42 
ROOT
HETATM    1  C1  UNL     1      -3.751   1.009   6.531  1.00  0.00     0.017 C 
HETATM    2  C2  UNL     1      -4.319  -0.008   6.170  1.00  0.00    -0.090 C 
HETATM    3  C3  UNL     1      -4.917  -1.237   5.711  1.00  0.00     0.061 C 
HETATM    4  C4  UNL     1      -4.519  -1.918   4.647  1.00  0.00     0.009 C 
ENDROOT
BRANCH   4   5
HETATM    5  C5  UNL     1      -4.952  -3.085   4.058  1.00  0.00     0.210 C 
BRANCH   5   6
HETATM    6  O1  UNL     1      -6.412  -3.121   4.337  1.00  0.00    -0.288 OA
BRANCH   6   7
HETATM    7  C6  UNL     1      -6.925  -4.411   4.935  1.00  0.00     0.458 C 
HETATM    8  O2  UNL     1      -5.964  -4.994   5.345  1.00  0.00    -0.219 OA
HETATM    9  N1  UNL     1      -8.256  -4.435   4.804  1.00  0.00    -0.258 NA
BRANCH   9  10
HETATM   10  N2  UNL     1      -9.570  -4.462   4.677  1.00  0.00    -0.221 N 
ATOM     11  H2  UNL     1      -9.876  -5.395   4.398  1.00  0.00     0.202 HD
BRANCH  10  12
HETATM   12  C7  UNL     1     -10.677  -3.613   4.804  1.00  0.00     0.176 A 
HETATM   13  C8  UNL     1     -10.538  -2.237   4.425  1.00  0.00     0.175 A 
HETATM   14  N4  UNL     1     -11.677  -1.585   4.429  1.00  0.00    -0.170 N 
HETATM   15  C9  UNL     1     -12.921  -1.999   4.723  1.00  0.00     0.713 A 
ATOM     16  H4  UNL     1     -11.607  -0.603   4.164  1.00  0.00     0.186 HD
HETATM   17  N11 UNL     1     -13.027  -3.281   5.091  1.00  0.00    -0.070 N 
HETATM   18  C13 UNL     1     -11.911  -4.055   5.121  1.00  0.00     0.302 A 
HETATM   19  O6  UNL     1     -12.012  -5.284   5.485  1.00  0.00    -0.264 OA
BRANCH  13  20
HETATM   20  N3  UNL     1      -9.256  -1.702   4.224  1.00  0.00    -0.250 N 
ATOM     21  H3  UNL     1      -8.899  -1.462   3.299  1.00  0.00     0.196 HD
BRANCH  20  22
HETATM   22  O3  UNL     1      -8.536  -1.531   5.342  1.00  0.00    -0.288 OA
ATOM     23  H3  UNL     1      -7.649  -1.870   5.301  1.00  0.00     0.244 HD
ENDBRANCH  20  22
ENDBRANCH  13  20
BRANCH  15  24
HETATM   24  N5  UNL     1     -13.759  -1.197   4.572  1.00  0.00    -0.106 N 
ATOM     25  H5  UNL     1     -13.998  -1.370   3.596  1.00  0.00     0.208 HD
BRANCH  24  26
HETATM   26  N6  UNL     1     -14.608  -0.199   4.847  1.00  0.00    -0.140 N 
HETATM   27  N7  UNL     1     -14.830   0.930   4.286  1.00  0.00    -0.217 N 
HETATM   28  N8  UNL     1     -15.826   1.562   4.864  1.00  0.00    -0.265 N 
ATOM     29  H7  UNL     1     -14.301   1.293   3.494  1.00  0.00     0.210 HD
HETATM   30  C10 UNL     1     -16.332   0.791   5.907  1.00  0.00     0.191 A 
ATOM     31  H8  UNL     1     -16.177   2.480   4.589  1.00  0.00     0.190 HD
HETATM   32  C11 UNL     1     -15.537  -0.324   5.885  1.00  0.00     0.228 A 
BRANCH  30  33
HETATM   33  N9  UNL     1     -17.364   1.232   6.759  1.00  0.00    -0.287 N 
ATOM     34  H9  UNL     1     -18.219   1.645   6.386  1.00  0.00     0.188 HD
BRANCH  33  35
HETATM   35  N10 UNL     1     -17.169   1.077   8.170  1.00  0.00    -0.343 N 
ATOM     36 2H10 UNL     1     -16.537   0.359   8.526  1.00  0.00     0.176 HD
ATOM     37 1H10 UNL     1     -17.680   1.707   8.788  1.00  0.00     0.176 HD
ENDBRANCH  33  35
ENDBRANCH  30  33
BRANCH  32  38
HETATM   38  O4  UNL     1     -15.656  -1.347   6.741  1.00  0.00    -0.341 OA
ATOM     39  H4  UNL     1     -16.428  -1.878   6.893  1.00  0.00     0.219 HD
ENDBRANCH  32  38
ENDBRANCH  24  26
ENDBRANCH  15  24
BRANCH  17  40
HETATM   40  C12 UNL     1     -14.245  -3.867   5.393  1.00  0.00     0.240 C 
HETATM   41  N12 UNL     1     -15.077  -4.423   6.277  1.00  0.00    -0.364 N 
ATOM     42 2H12 UNL     1     -14.552  -4.420   7.152  1.00  0.00     0.159 HD
ATOM     43 1H12 UNL     1     -15.974  -4.855   6.499  1.00  0.00     0.159 HD
BRANCH  40  44
HETATM   44  O5  UNL     1     -14.990  -3.872   4.150  1.00  0.00    -0.332 OA
ATOM     45  H5  UNL     1     -15.898  -3.749   4.399  1.00  0.00     0.221 HD
ENDBRANCH  40  44
ENDBRANCH  17  40
ENDBRANCH  10  12
ENDBRANCH   9  10
ENDBRANCH   6   7
ENDBRANCH   5   6
ENDBRANCH   4   5
TORSDOF 14
ENDMDL
MODEL 3
REMARK VINA RESULT: -7.089235775      1.897      2.867
REMARK  14 active torsions:
REMARK  status: ('A' for Active; 'I' for Inactive)
REMARK    1  A    between atoms: C4_4  and  C5_5 
REMARK    2  A    between atoms: C5_5  and  O1_6 
REMARK    3  A    between atoms: O1_6  and  C6_7 
REMARK       I    between atoms: C6_7  and  N1_9 
REMARK    4  A    between atoms: N1_9  and  N2_10 
REMARK    5  A    between atoms: N2_10  and  C7_12 
REMARK    6  A    between atoms: C8_13  and  N3_14 
REMARK    7  A    between atoms: N3_14  and  O3_16 
REMARK    8  A    between atoms: C9_20  and  N5_21 
REMARK    9  A    between atoms: N5_21  and  N6_23 
REMARK   10  A    between atoms: C10_28  and  N9_29 
REMARK   11  A    between atoms: N9_29  and  N10_31 
REMARK   12  A    between atoms: C11_34  and  O4_35 
REMARK   13  A    between atoms: N11_37  and  C12_38 
REMARK   14  A    between atoms: C12_38  and  O5_42 
ROOT
HETATM    1  C1  UNL     1      -5.136   2.274   4.554  1.00  0.00     0.017 C 
HETATM    2  C2  UNL     1      -5.513   1.289   5.168  1.00  0.00    -0.090 C 
HETATM    3  C3  UNL     1      -5.905   0.079   5.845  1.00  0.00     0.061 C 
HETATM    4  C4  UNL     1      -5.936  -1.122   5.287  1.00  0.00     0.009 C 
ENDROOT
BRANCH   4   5
HETATM    5  C5  UNL     1      -6.275  -2.371   5.755  1.00  0.00     0.210 C 
BRANCH   5   6
HETATM    6  O1  UNL     1      -6.647  -3.135   4.534  1.00  0.00    -0.288 OA
BRANCH   6   7
HETATM    7  C6  UNL     1      -7.189  -4.525   4.781  1.00  0.00     0.458 C 
HETATM    8  O2  UNL     1      -6.240  -5.220   4.998  1.00  0.00    -0.219 OA
HETATM    9  N1  UNL     1      -8.522  -4.480   4.681  1.00  0.00    -0.258 NA
BRANCH   9  10
HETATM   10  N2  UNL     1      -9.839  -4.438   4.583  1.00  0.00    -0.221 N 
ATOM     11  H2  UNL     1     -10.186  -5.305   4.173  1.00  0.00     0.202 HD
BRANCH  10  12
HETATM   12  C7  UNL     1     -10.908  -3.579   4.866  1.00  0.00     0.176 A 
HETATM   13  C8  UNL     1     -10.764  -2.181   4.579  1.00  0.00     0.175 A 
HETATM   14  N4  UNL     1     -11.882  -1.509   4.727  1.00  0.00    -0.170 N 
HETATM   15  C9  UNL     1     -13.107  -1.918   5.095  1.00  0.00     0.713 A 
ATOM     16  H4  UNL     1     -11.807  -0.511   4.530  1.00  0.00     0.186 HD
HETATM   17  N11 UNL     1     -13.216  -3.222   5.375  1.00  0.00    -0.070 N 
HETATM   18  C13 UNL     1     -12.122  -4.018   5.254  1.00  0.00     0.302 A 
HETATM   19  O6  UNL     1     -12.225  -5.269   5.534  1.00  0.00    -0.264 OA
BRANCH  13  20
HETATM   20  N3  UNL     1      -9.489  -1.659   4.309  1.00  0.00    -0.250 N 
ATOM     21  H3  UNL     1      -8.980  -1.080   4.976  1.00  0.00     0.196 HD
BRANCH  20  22
HETATM   22  O3  UNL     1      -8.994  -1.979   3.105  1.00  0.00    -0.288 OA
ATOM     23  H3  UNL     1      -8.598  -2.842   3.054  1.00  0.00     0.244 HD
ENDBRANCH  20  22
ENDBRANCH  13  20
BRANCH  15  24
HETATM   24  N5  UNL     1     -13.933  -1.090   5.074  1.00  0.00    -0.106 N 
ATOM     25  H5  UNL     1     -14.018  -0.947   4.069  1.00  0.00     0.208 HD
BRANCH  24  26
HETATM   26  N6  UNL     1     -14.839  -0.208   5.512  1.00  0.00    -0.140 N 
HETATM   27  N7  UNL     1     -15.407   0.799   4.961  1.00  0.00    -0.217 N 
HETATM   28  N8  UNL     1     -16.303   1.336   5.758  1.00  0.00    -0.265 N 
ATOM     29  H7  UNL     1     -15.192   1.139   4.025  1.00  0.00     0.210 HD
HETATM   30  C10 UNL     1     -16.353   0.629   6.956  1.00  0.00     0.191 A 
ATOM     31  H8  UNL     1     -16.876   2.150   5.532  1.00  0.00     0.190 HD
HETATM   32  C11 UNL     1     -15.408  -0.347   6.783  1.00  0.00     0.228 A 
BRANCH  30  33
HETATM   33  N9  UNL     1     -17.172   1.007   8.039  1.00  0.00    -0.287 N 
ATOM     34  H9  UNL     1     -16.808   1.042   8.991  1.00  0.00     0.188 HD
BRANCH  33  35
HETATM   35  N10 UNL     1     -18.535   1.340   7.752  1.00  0.00    -0.343 N 
ATOM     36 2H10 UNL     1     -18.764   2.221   7.291  1.00  0.00     0.176 HD
ATOM     37 1H10 UNL     1     -19.252   0.667   8.024  1.00  0.00     0.176 HD
ENDBRANCH  33  35
ENDBRANCH  30  33
BRANCH  32  38
HETATM   38  O4  UNL     1     -15.099  -1.264   7.708  1.00  0.00    -0.341 OA
ATOM     39  H4  UNL     1     -15.552  -1.426   8.527  1.00  0.00     0.219 HD
ENDBRANCH  32  38
ENDBRANCH  24  26
ENDBRANCH  15  24
BRANCH  17  40
HETATM   40  C12 UNL     1     -14.420  -3.804   5.735  1.00  0.00     0.240 C 
HETATM   41  N12 UNL     1     -15.647  -4.221   5.416  1.00  0.00    -0.364 N 
ATOM     42 2H12 UNL     1     -15.744  -3.987   4.428  1.00  0.00     0.159 HD
ATOM     43 1H12 UNL     1     -16.535  -4.650   5.681  1.00  0.00     0.159 HD
BRANCH  40  44
HETATM   44  O5  UNL     1     -14.284  -4.137   7.139  1.00  0.00    -0.332 OA
ATOM     45  H5  UNL     1     -14.245  -5.085   7.172  1.00  0.00     0.221 HD
ENDBRANCH  40  44
ENDBRANCH  17  40
ENDBRANCH  10  12
ENDBRANCH   9  10
ENDBRANCH   6   7
ENDBRANCH   5   6
ENDBRANCH   4   5
TORSDOF 14
ENDMDL
MODEL 4
REMARK VINA RESULT: -7.040683799      3.867      8.963
REMARK  14 active torsions:
REMARK  status: ('A' for Active; 'I' for Inactive)
REMARK    1  A    between atoms: C4_4  and  C5_5 
REMARK    2  A    between atoms: C5_5  and  O1_6 
REMARK    3  A    between atoms: O1_6  and  C6_7 
REMARK       I    between atoms: C6_7  and  N1_9 
REMARK    4  A    between atoms: N1_9  and  N2_10 
REMARK    5  A    between atoms: N2_10  and  C7_12 
REMARK    6  A    between atoms: C8_13  and  N3_14 
REMARK    7  A    between atoms: N3_14  and  O3_16 
REMARK    8  A    between atoms: C9_20  and  N5_21 
REMARK    9  A    between atoms: N5_21  and  N6_23 
REMARK   10  A    between atoms: C10_28  and  N9_29 
REMARK   11  A    between atoms: N9_29  and  N10_31 
REMARK   12  A    between atoms: C11_34  and  O4_35 
REMARK   13  A    between atoms: N11_37  and  C12_38 
REMARK   14  A    between atoms: C12_38  and  O5_42 
ROOT
HETATM    1  C1  UNL     1     -16.550   0.817   6.681  1.00  0.00     0.017 C 
HETATM    2  C2  UNL     1     -15.786  -0.085   6.983  1.00  0.00    -0.090 C 
HETATM    3  C3  UNL     1     -14.883  -1.174   7.258  1.00  0.00     0.061 C 
HETATM    4  C4  UNL     1     -14.856  -2.318   6.592  1.00  0.00     0.009 C 
ENDROOT
BRANCH   4   5
HETATM    5  C5  UNL     1     -14.088  -3.455   6.701  1.00  0.00     0.210 C 
BRANCH   5   6
HETATM    6  O1  UNL     1     -13.367  -3.540   5.402  1.00  0.00    -0.288 OA
BRANCH   6   7
HETATM    7  C6  UNL     1     -12.900  -4.923   5.011  1.00  0.00     0.458 C 
HETATM    8  O2  UNL     1     -13.855  -5.637   5.106  1.00  0.00    -0.219 OA
HETATM    9  N1  UNL     1     -11.603  -4.854   4.691  1.00  0.00    -0.258 NA
BRANCH   9  10
HETATM   10  N2  UNL     1     -10.322  -4.789   4.373  1.00  0.00    -0.221 N 
ATOM     11  H2  UNL     1     -10.005  -5.690   4.015  1.00  0.00     0.202 HD
BRANCH  10  12
HETATM   12  C7  UNL     1      -9.263  -3.872   4.373  1.00  0.00     0.176 A 
HETATM   13  C8  UNL     1      -9.543  -2.495   4.657  1.00  0.00     0.175 A 
HETATM   14  N4  UNL     1      -8.459  -1.768   4.795  1.00  0.00    -0.170 N 
HETATM   15  C9  UNL     1      -7.161  -2.107   4.714  1.00  0.00     0.713 A 
ATOM     16  H4  UNL     1      -8.630  -0.783   4.996  1.00  0.00     0.186 HD
HETATM   17  N11 UNL     1      -6.922  -3.393   4.431  1.00  0.00    -0.070 N 
HETATM   18  C13 UNL     1      -7.970  -4.242   4.270  1.00  0.00     0.302 A 
HETATM   19  O6  UNL     1      -7.740  -5.475   3.988  1.00  0.00    -0.264 OA
BRANCH  13  20
HETATM   20  N3  UNL     1     -10.872  -2.041   4.634  1.00  0.00    -0.250 N 
ATOM     21  H3  UNL     1     -11.344  -1.682   5.464  1.00  0.00     0.196 HD
BRANCH  20  22
HETATM   22  O3  UNL     1     -11.470  -2.116   3.437  1.00  0.00    -0.288 OA
ATOM     23  H3  UNL     1     -12.233  -1.557   3.337  1.00  0.00     0.244 HD
ENDBRANCH  20  22
ENDBRANCH  13  20
BRANCH  15  24
HETATM   24  N5  UNL     1      -6.408  -1.245   4.950  1.00  0.00    -0.106 N 
ATOM     25  H5  UNL     1      -6.124  -0.992   4.005  1.00  0.00     0.208 HD
BRANCH  24  26
HETATM   26  N6  UNL     1      -5.677  -0.373   5.655  1.00  0.00    -0.140 N 
HETATM   27  N7  UNL     1      -5.881   0.235   6.763  1.00  0.00    -0.217 N 
HETATM   28  N8  UNL     1      -4.835   0.948   7.115  1.00  0.00    -0.265 N 
ATOM     29  H7  UNL     1      -6.744   0.174   7.302  1.00  0.00     0.210 HD
HETATM   30  C10 UNL     1      -3.827   0.808   6.165  1.00  0.00     0.191 A 
ATOM     31  H8  UNL     1      -4.771   1.519   7.959  1.00  0.00     0.190 HD
HETATM   32  C11 UNL     1      -4.385  -0.032   5.239  1.00  0.00     0.228 A 
BRANCH  30  33
HETATM   33  N9  UNL     1      -2.604   1.506   6.232  1.00  0.00    -0.287 N 
ATOM     34  H9  UNL     1      -2.020   1.472   7.068  1.00  0.00     0.188 HD
BRANCH  33  35
HETATM   35  N10 UNL     1      -2.213   2.266   5.083  1.00  0.00    -0.343 N 
ATOM     36 2H10 UNL     1      -1.769   3.178   5.195  1.00  0.00     0.176 HD
ATOM     37 1H10 UNL     1      -2.397   1.860   4.166  1.00  0.00     0.176 HD
ENDBRANCH  33  35
ENDBRANCH  30  33
BRANCH  32  38
HETATM   38  O4  UNL     1      -3.766  -0.434   4.122  1.00  0.00    -0.341 OA
ATOM     39  H4  UNL     1      -3.885  -1.261   3.669  1.00  0.00     0.219 HD
ENDBRANCH  32  38
ENDBRANCH  24  26
ENDBRANCH  15  24
BRANCH  17  40
HETATM   40  C12 UNL     1      -5.638  -3.907   4.348  1.00  0.00     0.240 C 
HETATM   41  N12 UNL     1      -4.718  -4.795   4.731  1.00  0.00    -0.364 N 
ATOM     42 2H12 UNL     1      -5.193  -5.363   5.432  1.00  0.00     0.159 HD
ATOM     43 1H12 UNL     1      -3.772  -5.173   4.671  1.00  0.00     0.159 HD
BRANCH  40  44
HETATM   44  O5  UNL     1      -4.963  -3.099   3.353  1.00  0.00    -0.332 OA
ATOM     45  H5  UNL     1      -4.158  -3.563   3.155  1.00  0.00     0.221 HD
ENDBRANCH  40  44
ENDBRANCH  17  40
ENDBRANCH  10  12
ENDBRANCH   9  10
ENDBRANCH   6   7
ENDBRANCH   5   6
ENDBRANCH   4   5
TORSDOF 14
ENDMDL
MODEL 5
REMARK VINA RESULT: -7.004185216      3.589      8.629
REMARK  14 active torsions:
REMARK  status: ('A' for Active; 'I' for Inactive)
REMARK    1  A    between atoms: C4_4  and  C5_5 
REMARK    2  A    between atoms: C5_5  and  O1_6 
REMARK    3  A    between atoms: O1_6  and  C6_7 
REMARK       I    between atoms: C6_7  and  N1_9 
REMARK    4  A    between atoms: N1_9  and  N2_10 
REMARK    5  A    between atoms: N2_10  and  C7_12 
REMARK    6  A    between atoms: C8_13  and  N3_14 
REMARK    7  A    between atoms: N3_14  and  O3_16 
REMARK    8  A    between atoms: C9_20  and  N5_21 
REMARK    9  A    between atoms: N5_21  and  N6_23 
REMARK   10  A    between atoms: C10_28  and  N9_29 
REMARK   11  A    between atoms: N9_29  and  N10_31 
REMARK   12  A    between atoms: C11_34  and  O4_35 
REMARK   13  A    between atoms: N11_37  and  C12_38 
REMARK   14  A    between atoms: C12_38  and  O5_42 
ROOT
HETATM    1  C1  UNL     1     -17.560   1.855   7.665  1.00  0.00     0.017 C 
HETATM    2  C2  UNL     1     -16.683   1.027   7.482  1.00  0.00    -0.090 C 
HETATM    3  C3  UNL     1     -15.662   0.056   7.181  1.00  0.00     0.061 C 
HETATM    4  C4  UNL     1     -15.685  -0.767   6.143  1.00  0.00     0.009 C 
ENDROOT
BRANCH   4   5
HETATM    5  C5  UNL     1     -14.824  -1.744   5.695  1.00  0.00     0.210 C 
BRANCH   5   6
HETATM    6  O1  UNL     1     -15.709  -2.740   5.033  1.00  0.00    -0.288 OA
BRANCH   6   7
HETATM    7  C6  UNL     1     -15.270  -4.181   5.161  1.00  0.00     0.458 C 
HETATM    8  O2  UNL     1     -16.195  -4.770   5.638  1.00  0.00    -0.219 OA
HETATM    9  N1  UNL     1     -14.022  -4.283   4.690  1.00  0.00    -0.258 NA
BRANCH   9  10
HETATM   10  N2  UNL     1     -12.790  -4.387   4.225  1.00  0.00    -0.221 N 
ATOM     11  H2  UNL     1     -12.741  -5.131   3.529  1.00  0.00     0.202 HD
BRANCH  10  12
HETATM   12  C7  UNL     1     -11.530  -3.798   4.388  1.00  0.00     0.176 A 
HETATM   13  C8  UNL     1     -11.018  -3.618   5.715  1.00  0.00     0.175 A 
HETATM   14  N4  UNL     1      -9.769  -3.215   5.733  1.00  0.00    -0.170 N 
HETATM   15  C9  UNL     1      -8.919  -2.953   4.726  1.00  0.00     0.713 A 
ATOM     16  H4  UNL     1      -9.380  -3.078   6.666  1.00  0.00     0.186 HD
HETATM   17  N11 UNL     1      -9.421  -3.110   3.496  1.00  0.00    -0.070 N 
HETATM   18  C13 UNL     1     -10.706  -3.528   3.355  1.00  0.00     0.302 A 
HETATM   19  O6  UNL     1     -11.192  -3.668   2.172  1.00  0.00    -0.264 OA
BRANCH  13  20
HETATM   20  N3  UNL     1     -11.882  -3.753   6.813  1.00  0.00    -0.250 N 
ATOM     21  H3  UNL     1     -12.149  -2.964   7.402  1.00  0.00     0.196 HD
BRANCH  20  22
HETATM   22  O3  UNL     1     -12.329  -4.998   7.027  1.00  0.00    -0.288 OA
ATOM     23  H3  UNL     1     -13.275  -5.090   7.011  1.00  0.00     0.244 HD
ENDBRANCH  20  22
ENDBRANCH  13  20
BRANCH  15  24
HETATM   24  N5  UNL     1      -7.833  -2.670   5.056  1.00  0.00    -0.106 N 
ATOM     25  H5  UNL     1      -7.434  -3.600   5.174  1.00  0.00     0.208 HD
BRANCH  24  26
HETATM   26  N6  UNL     1      -6.773  -1.919   5.380  1.00  0.00    -0.140 N 
HETATM   27  N7  UNL     1      -6.634  -0.894   6.135  1.00  0.00    -0.217 N 
HETATM   28  N8  UNL     1      -5.375  -0.529   6.216  1.00  0.00    -0.265 N 
ATOM     29  H7  UNL     1      -7.402  -0.422   6.611  1.00  0.00     0.210 HD
HETATM   30  C10 UNL     1      -4.586  -1.385   5.452  1.00  0.00     0.191 A 
ATOM     31  H8  UNL     1      -5.028   0.263   6.757  1.00  0.00     0.190 HD
HETATM   32  C11 UNL     1      -5.496  -2.259   4.922  1.00  0.00     0.228 A 
BRANCH  30  33
HETATM   33  N9  UNL     1      -3.197  -1.208   5.287  1.00  0.00    -0.287 N 
ATOM     34  H9  UNL     1      -2.761  -0.295   5.413  1.00  0.00     0.188 HD
BRANCH  33  35
HETATM   35  N10 UNL     1      -2.421  -2.360   4.936  1.00  0.00    -0.343 N 
ATOM     36 2H10 UNL     1      -1.419  -2.383   5.125  1.00  0.00     0.176 HD
ATOM     37 1H10 UNL     1      -2.910  -3.141   4.497  1.00  0.00     0.176 HD
ENDBRANCH  33  35
ENDBRANCH  30  33
BRANCH  32  38
HETATM   38  O4  UNL     1      -5.179  -3.263   4.094  1.00  0.00    -0.341 OA
ATOM     39  H4  UNL     1      -4.609  -3.219   3.335  1.00  0.00     0.219 HD
ENDBRANCH  32  38
ENDBRANCH  24  26
ENDBRANCH  15  24
BRANCH  17  40
HETATM   40  C12 UNL     1      -8.661  -2.913   2.355  1.00  0.00     0.240 C 
HETATM   41  N12 UNL     1      -8.122  -3.380   1.227  1.00  0.00    -0.364 N 
ATOM     42 2H12 UNL     1      -8.400  -4.361   1.202  1.00  0.00     0.159 HD
ATOM     43 1H12 UNL     1      -7.562  -3.235   0.386  1.00  0.00     0.159 HD
BRANCH  40  44
HETATM   44  O5  UNL     1      -8.266  -1.520   2.391  1.00  0.00    -0.332 OA
ATOM     45  H5  UNL     1      -7.966  -1.319   1.512  1.00  0.00     0.221 HD
ENDBRANCH  40  44
ENDBRANCH  17  40
ENDBRANCH  10  12
ENDBRANCH   9  10
ENDBRANCH   6   7
ENDBRANCH   5   6
ENDBRANCH   4   5
TORSDOF 14
ENDMDL
