MODEL 1
REMARK VINA RESULT: -6.107597457      0.000      0.000
REMARK  12 active torsions:
REMARK  status: ('A' for Active; 'I' for Inactive)
REMARK    1  A    between atoms: C2_2  and  C5_5 
REMARK    2  A    between atoms: C6_6  and  O1_7 
REMARK    3  A    between atoms: O1_7  and  C7_8 
REMARK    4  A    between atoms: C8_9  and  C9_10 
REMARK    5  A    between atoms: C9_10  and  N1_11 
REMARK    6  A    between atoms: C12_14  and  C13_15 
REMARK    7  A    between atoms: C13_15  and  C14_16 
REMARK    8  A    between atoms: C14_16  and  N2_17 
REMARK    9  A    between atoms: C15_18  and  O2_19 
REMARK   10  A    between atoms: C20_27  and  C21_28 
REMARK   11  A    between atoms: C22_29  and  C23_30 
REMARK   12  A    between atoms: C31_41  and  O4_42 
ROOT
HETATM    1  C5  UNL     1      -0.319  13.680   1.794  1.00  0.00    -0.003 A 
HETATM    2  C6  UNL     1       0.861  12.909   1.786  1.00  0.00     0.101 A 
HETATM    3  C20 UNL     1       0.910  11.590   2.145  1.00  0.00     0.054 A 
HETATM    4  C29 UNL     1      -0.288  10.981   2.525  1.00  0.00     0.054 A 
HETATM    5  C30 UNL     1      -1.460  11.690   2.533  1.00  0.00     0.046 A 
HETATM    6  N3  UNL     1      -2.705  11.278   2.829  1.00  0.00    -0.336 N 
ATOM      7  H3  UNL     1      -2.960  10.335   3.125  1.00  0.00     0.168 HD
HETATM    8  C31 UNL     1      -3.549  12.285   2.675  1.00  0.00     0.141 A 
HETATM    9  C32 UNL     1      -2.828  13.414   2.260  1.00  0.00     0.070 A 
HETATM   10  C33 UNL     1      -1.510  13.045   2.170  1.00  0.00     0.005 A 
ENDROOT
BRANCH   2  11
HETATM   11  O1  UNL     1       2.015  13.499   1.365  1.00  0.00    -0.321 OA
BRANCH  11  12
HETATM   12  C7  UNL     1       2.649  13.284   0.179  1.00  0.00     0.140 C 
HETATM   13  C8  UNL     1       2.143  12.812  -1.090  1.00  0.00     0.017 C 
BRANCH  13  14
HETATM   14  C9  UNL     1       1.106  13.494  -1.880  1.00  0.00     0.151 C 
BRANCH  14  15
HETATM   15  N1  UNL     1      -0.120  12.759  -1.999  1.00  0.00    -0.390 N 
HETATM   16  C10 UNL     1      -0.151  11.423  -1.602  1.00  0.00     0.058 C 
HETATM   17  C11 UNL     1      -1.455  10.939  -1.036  1.00  0.00     0.049 C 
HETATM   18  C12 UNL     1      -2.657  11.699  -1.534  1.00  0.00    -0.007 C 
HETATM   19  C18 UNL     1      -2.418  13.172  -1.572  1.00  0.00     0.025 C 
HETATM   20  C19 UNL     1      -1.241  13.399  -2.527  1.00  0.00     0.122 C 
BRANCH  18  21
HETATM   21  C13 UNL     1      -3.887  11.303  -0.777  1.00  0.00     0.025 C 
BRANCH  21  22
HETATM   22  C14 UNL     1      -5.097  12.099  -1.158  1.00  0.00     0.135 C 
BRANCH  22  23
HETATM   23  N2  UNL     1      -5.812  11.448  -2.288  1.00  0.00    -0.288 N 
HETATM   24  C15 UNL     1      -5.766  11.909  -3.510  1.00  0.00     0.152 A 
HETATM   25  C16 UNL     1      -6.458  11.232  -4.477  1.00  0.00     0.111 A 
HETATM   26  S1  UNL     1      -7.154   9.953  -3.591  1.00  0.00    -0.036 SA
HETATM   27  C17 UNL     1      -6.531  10.345  -2.055  1.00  0.00     0.292 A 
HETATM   28  O3  UNL     1      -6.694   9.747  -0.927  1.00  0.00    -0.259 OA
BRANCH  24  29
HETATM   29  O2  UNL     1      -5.033  13.077  -3.884  1.00  0.00    -0.345 OA
ATOM     30  H2  UNL     1      -4.280  13.059  -4.464  1.00  0.00     0.219 HD
ENDBRANCH  24  29
ENDBRANCH  22  23
ENDBRANCH  21  22
ENDBRANCH  18  21
ENDBRANCH  14  15
ENDBRANCH  13  14
ENDBRANCH  11  12
ENDBRANCH   2  11
BRANCH   1  31
HETATM   31  C2  UNL     1      -0.209  15.115   1.684  1.00  0.00    -0.020 C 
HETATM   32  C1  UNL     1      -1.413  15.670   2.587  1.00  0.00     0.019 C 
HETATM   33  C3  UNL     1       0.941  15.891   2.143  1.00  0.00     0.019 C 
HETATM   34  C4  UNL     1      -0.613  15.737   0.334  1.00  0.00     0.019 C 
ENDBRANCH   1  31
BRANCH   3  35
HETATM   35  C21 UNL     1       2.115  10.803   2.214  1.00  0.00    -0.059 C 
HETATM   36  C22 UNL     1       3.154  10.184   2.275  1.00  0.00    -0.061 C 
BRANCH  36  37
HETATM   37  C23 UNL     1       4.390   9.454   2.321  1.00  0.00     0.021 A 
HETATM   38  C24 UNL     1       5.230   9.546   3.414  1.00  0.00     0.021 A 
HETATM   39  C25 UNL     1       6.424   8.852   3.484  1.00  0.00     0.004 A 
HETATM   40  C26 UNL     1       6.829   8.031   2.454  1.00  0.00     0.042 A 
HETATM   41  C27 UNL     1       6.001   7.930   1.356  1.00  0.00     0.117 A 
HETATM   42  F1  UNL     1       6.398   7.124   0.347  1.00  0.00    -0.206 F 
HETATM   43  C28 UNL     1       4.811   8.627   1.298  1.00  0.00     0.062 A 
ENDBRANCH  36  37
ENDBRANCH   3  35
BRANCH   8  44
HETATM   44  O4  UNL     1      -4.929  12.297   2.873  1.00  0.00    -0.346 OA
ATOM     45  H4  UNL     1      -5.465  12.982   3.255  1.00  0.00     0.219 HD
ENDBRANCH   8  44
TORSDOF 12
ENDMDL
MODEL 2
REMARK VINA RESULT: -6.106044157      0.342      1.209
REMARK  12 active torsions:
REMARK  status: ('A' for Active; 'I' for Inactive)
REMARK    1  A    between atoms: C2_2  and  C5_5 
REMARK    2  A    between atoms: C6_6  and  O1_7 
REMARK    3  A    between atoms: O1_7  and  C7_8 
REMARK    4  A    between atoms: C8_9  and  C9_10 
REMARK    5  A    between atoms: C9_10  and  N1_11 
REMARK    6  A    between atoms: C12_14  and  C13_15 
REMARK    7  A    between atoms: C13_15  and  C14_16 
REMARK    8  A    between atoms: C14_16  and  N2_17 
REMARK    9  A    between atoms: C15_18  and  O2_19 
REMARK   10  A    between atoms: C20_27  and  C21_28 
REMARK   11  A    between atoms: C22_29  and  C23_30 
REMARK   12  A    between atoms: C31_41  and  O4_42 
ROOT
HETATM    1  C5  UNL     1      -0.328  13.728   1.824  1.00  0.00    -0.003 A 
HETATM    2  C6  UNL     1       0.853  12.959   1.827  1.00  0.00     0.101 A 
HETATM    3  C20 UNL     1       0.900  11.639   2.182  1.00  0.00     0.054 A 
HETATM    4  C29 UNL     1      -0.302  11.025   2.543  1.00  0.00     0.054 A 
HETATM    5  C30 UNL     1      -1.475  11.732   2.538  1.00  0.00     0.046 A 
HETATM    6  N3  UNL     1      -2.723  11.316   2.815  1.00  0.00    -0.336 N 
ATOM      7  H3  UNL     1      -2.980  10.371   3.104  1.00  0.00     0.168 HD
HETATM    8  C31 UNL     1      -3.567  12.322   2.655  1.00  0.00     0.141 A 
HETATM    9  C32 UNL     1      -2.843  13.455   2.254  1.00  0.00     0.070 A 
HETATM   10  C33 UNL     1      -1.523  13.089   2.181  1.00  0.00     0.005 A 
ENDROOT
BRANCH   2  11
HETATM   11  O1  UNL     1       2.012  13.553   1.425  1.00  0.00    -0.321 OA
BRANCH  11  12
HETATM   12  C7  UNL     1       2.663  13.344   0.247  1.00  0.00     0.140 C 
HETATM   13  C8  UNL     1       2.178  12.866  -1.028  1.00  0.00     0.017 C 
BRANCH  13  14
HETATM   14  C9  UNL     1       1.144  13.536  -1.832  1.00  0.00     0.151 C 
BRANCH  14  15
HETATM   15  N1  UNL     1      -0.080  12.798  -1.948  1.00  0.00    -0.390 N 
HETATM   16  C10 UNL     1      -0.109  11.465  -1.542  1.00  0.00     0.058 C 
HETATM   17  C11 UNL     1      -1.414  10.982  -0.976  1.00  0.00     0.049 C 
HETATM   18  C12 UNL     1      -2.616  11.736  -1.483  1.00  0.00    -0.007 C 
HETATM   19  C18 UNL     1      -2.380  13.208  -1.530  1.00  0.00     0.025 C 
HETATM   20  C19 UNL     1      -1.201  13.431  -2.484  1.00  0.00     0.122 C 
BRANCH  18  21
HETATM   21  C13 UNL     1      -3.847  11.342  -0.726  1.00  0.00     0.025 C 
BRANCH  21  22
HETATM   22  C14 UNL     1      -5.053  12.146  -1.101  1.00  0.00     0.135 C 
BRANCH  22  23
HETATM   23  N2  UNL     1      -5.758  11.518  -2.251  1.00  0.00    -0.288 N 
HETATM   24  C15 UNL     1      -6.438  10.409  -2.140  1.00  0.00     0.152 A 
HETATM   25  C16 UNL     1      -7.051   9.917  -3.260  1.00  0.00     0.111 A 
HETATM   26  S1  UNL     1      -6.625  11.072  -4.438  1.00  0.00    -0.036 SA
HETATM   27  C17 UNL     1      -5.700  12.107  -3.450  1.00  0.00     0.292 A 
HETATM   28  O3  UNL     1      -5.084  13.195  -3.753  1.00  0.00    -0.259 OA
BRANCH  24  29
HETATM   29  O2  UNL     1      -6.574   9.687  -0.914  1.00  0.00    -0.345 OA
ATOM     30  H2  UNL     1      -5.961   9.020  -0.628  1.00  0.00     0.219 HD
ENDBRANCH  24  29
ENDBRANCH  22  23
ENDBRANCH  21  22
ENDBRANCH  18  21
ENDBRANCH  14  15
ENDBRANCH  13  14
ENDBRANCH  11  12
ENDBRANCH   2  11
BRANCH   1  31
HETATM   31  C2  UNL     1      -0.220  15.163   1.721  1.00  0.00    -0.020 C 
HETATM   32  C1  UNL     1      -1.425  15.712   2.626  1.00  0.00     0.019 C 
HETATM   33  C3  UNL     1       0.929  15.938   2.184  1.00  0.00     0.019 C 
HETATM   34  C4  UNL     1      -0.624  15.792   0.374  1.00  0.00     0.019 C 
ENDBRANCH   1  31
BRANCH   3  35
HETATM   35  C21 UNL     1       2.106  10.854   2.263  1.00  0.00    -0.059 C 
HETATM   36  C22 UNL     1       3.144  10.231   2.308  1.00  0.00    -0.061 C 
BRANCH  36  37
HETATM   37  C23 UNL     1       4.370   9.483   2.335  1.00  0.00     0.021 A 
HETATM   38  C24 UNL     1       5.223   9.557   3.419  1.00  0.00     0.021 A 
HETATM   39  C25 UNL     1       6.408   8.846   3.471  1.00  0.00     0.004 A 
HETATM   40  C26 UNL     1       6.790   8.025   2.432  1.00  0.00     0.042 A 
HETATM   41  C27 UNL     1       5.948   7.942   1.343  1.00  0.00     0.117 A 
HETATM   42  F1  UNL     1       6.322   7.137   0.324  1.00  0.00    -0.206 F 
HETATM   43  C28 UNL     1       4.767   8.657   1.302  1.00  0.00     0.062 A 
ENDBRANCH  36  37
ENDBRANCH   3  35
BRANCH   8  44
HETATM   44  O4  UNL     1      -4.949  12.331   2.834  1.00  0.00    -0.346 OA
ATOM     45  H4  UNL     1      -5.619  11.944   2.283  1.00  0.00     0.219 HD
ENDBRANCH   8  44
TORSDOF 12
ENDMDL
MODEL 3
REMARK VINA RESULT: -6.068733588      0.834      1.599
REMARK  12 active torsions:
REMARK  status: ('A' for Active; 'I' for Inactive)
REMARK    1  A    between atoms: C2_2  and  C5_5 
REMARK    2  A    between atoms: C6_6  and  O1_7 
REMARK    3  A    between atoms: O1_7  and  C7_8 
REMARK    4  A    between atoms: C8_9  and  C9_10 
REMARK    5  A    between atoms: C9_10  and  N1_11 
REMARK    6  A    between atoms: C12_14  and  C13_15 
REMARK    7  A    between atoms: C13_15  and  C14_16 
REMARK    8  A    between atoms: C14_16  and  N2_17 
REMARK    9  A    between atoms: C15_18  and  O2_19 
REMARK   10  A    between atoms: C20_27  and  C21_28 
REMARK   11  A    between atoms: C22_29  and  C23_30 
REMARK   12  A    between atoms: C31_41  and  O4_42 
ROOT
HETATM    1  C5  UNL     1      -0.746  13.636   1.883  1.00  0.00    -0.003 A 
HETATM    2  C6  UNL     1       0.464  12.914   1.846  1.00  0.00     0.101 A 
HETATM    3  C20 UNL     1       0.564  11.583   2.145  1.00  0.00     0.054 A 
HETATM    4  C29 UNL     1      -0.609  10.909   2.489  1.00  0.00     0.054 A 
HETATM    5  C30 UNL     1      -1.809  11.570   2.522  1.00  0.00     0.046 A 
HETATM    6  N3  UNL     1      -3.038  11.094   2.792  1.00  0.00    -0.336 N 
ATOM      7  H3  UNL     1      -3.255  10.130   3.043  1.00  0.00     0.168 HD
HETATM    8  C31 UNL     1      -3.921  12.073   2.680  1.00  0.00     0.141 A 
HETATM    9  C32 UNL     1      -3.244  13.248   2.321  1.00  0.00     0.070 A 
HETATM   10  C33 UNL     1      -1.912  12.937   2.222  1.00  0.00     0.005 A 
ENDROOT
BRANCH   2  11
HETATM   11  O1  UNL     1       1.595  13.568   1.460  1.00  0.00    -0.321 OA
BRANCH  11  12
HETATM   12  C7  UNL     1       2.269  13.399   0.289  1.00  0.00     0.140 C 
HETATM   13  C8  UNL     1       1.818  12.929  -1.001  1.00  0.00     0.017 C 
BRANCH  13  14
HETATM   14  C9  UNL     1       0.777  13.583  -1.810  1.00  0.00     0.151 C 
BRANCH  14  15
HETATM   15  N1  UNL     1      -0.433  12.823  -1.937  1.00  0.00    -0.390 N 
HETATM   16  C10 UNL     1      -0.426  11.475  -1.582  1.00  0.00     0.058 C 
HETATM   17  C11 UNL     1      -1.712  10.942  -1.017  1.00  0.00     0.049 C 
HETATM   18  C12 UNL     1      -2.938  11.688  -1.478  1.00  0.00    -0.007 C 
HETATM   19  C18 UNL     1      -2.734  13.166  -1.472  1.00  0.00     0.025 C 
HETATM   20  C19 UNL     1      -1.575  13.451  -2.433  1.00  0.00     0.122 C 
BRANCH  18  21
HETATM   21  C13 UNL     1      -4.148  11.238  -0.720  1.00  0.00     0.025 C 
BRANCH  21  22
HETATM   22  C14 UNL     1      -5.395  11.971  -1.110  1.00  0.00     0.135 C 
BRANCH  22  23
HETATM   23  N2  UNL     1      -6.005  11.351  -2.317  1.00  0.00    -0.288 N 
HETATM   24  C15 UNL     1      -6.625  10.202  -2.281  1.00  0.00     0.152 A 
HETATM   25  C16 UNL     1      -7.153   9.722  -3.448  1.00  0.00     0.111 A 
HETATM   26  S1  UNL     1      -6.736  10.945  -4.560  1.00  0.00    -0.036 SA
HETATM   27  C17 UNL     1      -5.922  11.989  -3.488  1.00  0.00     0.292 A 
HETATM   28  O3  UNL     1      -5.355  13.121  -3.719  1.00  0.00    -0.259 OA
BRANCH  24  29
HETATM   29  O2  UNL     1      -6.780   9.426  -1.091  1.00  0.00    -0.345 OA
ATOM     30  H2  UNL     1      -6.945   9.806  -0.236  1.00  0.00     0.219 HD
ENDBRANCH  24  29
ENDBRANCH  22  23
ENDBRANCH  21  22
ENDBRANCH  18  21
ENDBRANCH  14  15
ENDBRANCH  13  14
ENDBRANCH  11  12
ENDBRANCH   2  11
BRANCH   1  31
HETATM   31  C2  UNL     1      -0.694  15.077   1.839  1.00  0.00    -0.020 C 
HETATM   32  C1  UNL     1      -2.033  15.540   2.592  1.00  0.00     0.019 C 
HETATM   33  C3  UNL     1       0.345  15.884   2.475  1.00  0.00     0.019 C 
HETATM   34  C4  UNL     1      -0.946  15.737   0.470  1.00  0.00     0.019 C 
ENDBRANCH   1  31
BRANCH   3  35
HETATM   35  C21 UNL     1       1.800  10.842   2.185  1.00  0.00    -0.059 C 
HETATM   36  C22 UNL     1       2.856  10.249   2.182  1.00  0.00    -0.061 C 
BRANCH  36  37
HETATM   37  C23 UNL     1       4.100   9.532   2.157  1.00  0.00     0.021 A 
HETATM   38  C24 UNL     1       4.458   8.769   1.062  1.00  0.00     0.021 A 
HETATM   39  C25 UNL     1       5.651   8.071   1.012  1.00  0.00     0.004 A 
HETATM   40  C26 UNL     1       6.541   8.108   2.064  1.00  0.00     0.042 A 
HETATM   41  C27 UNL     1       6.196   8.866   3.163  1.00  0.00     0.117 A 
HETATM   42  F1  UNL     1       7.069   8.904   4.194  1.00  0.00    -0.206 F 
HETATM   43  C28 UNL     1       5.003   9.559   3.202  1.00  0.00     0.062 A 
ENDBRANCH  36  37
ENDBRANCH   3  35
BRANCH   8  44
HETATM   44  O4  UNL     1      -5.301  12.021   2.870  1.00  0.00    -0.346 OA
ATOM     45  H4  UNL     1      -5.966  12.610   2.535  1.00  0.00     0.219 HD
ENDBRANCH   8  44
TORSDOF 12
ENDMDL
MODEL 4
REMARK VINA RESULT: -5.871335409      1.190      1.471
REMARK  12 active torsions:
REMARK  status: ('A' for Active; 'I' for Inactive)
REMARK    1  A    between atoms: C2_2  and  C5_5 
REMARK    2  A    between atoms: C6_6  and  O1_7 
REMARK    3  A    between atoms: O1_7  and  C7_8 
REMARK    4  A    between atoms: C8_9  and  C9_10 
REMARK    5  A    between atoms: C9_10  and  N1_11 
REMARK    6  A    between atoms: C12_14  and  C13_15 
REMARK    7  A    between atoms: C13_15  and  C14_16 
REMARK    8  A    between atoms: C14_16  and  N2_17 
REMARK    9  A    between atoms: C15_18  and  O2_19 
REMARK   10  A    between atoms: C20_27  and  C21_28 
REMARK   11  A    between atoms: C22_29  and  C23_30 
REMARK   12  A    between atoms: C31_41  and  O4_42 
ROOT
HETATM    1  C5  UNL     1      -0.332  13.637   1.873  1.00  0.00    -0.003 A 
HETATM    2  C6  UNL     1       0.858  12.882   1.873  1.00  0.00     0.101 A 
HETATM    3  C20 UNL     1       0.915  11.551   2.186  1.00  0.00     0.054 A 
HETATM    4  C29 UNL     1      -0.286  10.913   2.505  1.00  0.00     0.054 A 
HETATM    5  C30 UNL     1      -1.468  11.606   2.501  1.00  0.00     0.046 A 
HETATM    6  N3  UNL     1      -2.715  11.167   2.742  1.00  0.00    -0.336 N 
ATOM      7  H3  UNL     1      -2.966  10.211   2.996  1.00  0.00     0.168 HD
HETATM    8  C31 UNL     1      -3.568  12.168   2.599  1.00  0.00     0.141 A 
HETATM    9  C32 UNL     1      -2.850  13.321   2.248  1.00  0.00     0.070 A 
HETATM   10  C33 UNL     1      -1.525  12.973   2.187  1.00  0.00     0.005 A 
ENDROOT
BRANCH   2  11
HETATM   11  O1  UNL     1       2.017  13.502   1.511  1.00  0.00    -0.321 OA
BRANCH  11  12
HETATM   12  C7  UNL     1       2.725  13.291   0.368  1.00  0.00     0.140 C 
HETATM   13  C8  UNL     1       2.301  12.832  -0.935  1.00  0.00     0.017 C 
BRANCH  13  14
HETATM   14  C9  UNL     1       1.323  13.529  -1.787  1.00  0.00     0.151 C 
BRANCH  14  15
HETATM   15  N1  UNL     1       0.090  12.819  -1.967  1.00  0.00    -0.390 N 
HETATM   16  C10 UNL     1       0.008  11.488  -1.560  1.00  0.00     0.058 C 
HETATM   17  C11 UNL     1      -1.337  11.038  -1.064  1.00  0.00     0.049 C 
HETATM   18  C12 UNL     1      -2.492  11.818  -1.638  1.00  0.00    -0.007 C 
HETATM   19  C18 UNL     1      -2.219  13.284  -1.676  1.00  0.00     0.025 C 
HETATM   20  C19 UNL     1      -0.985  13.476  -2.565  1.00  0.00     0.122 C 
BRANCH  18  21
HETATM   21  C13 UNL     1      -3.771  11.455  -0.948  1.00  0.00     0.025 C 
BRANCH  21  22
HETATM   22  C14 UNL     1      -4.990  11.899  -1.695  1.00  0.00     0.135 C 
BRANCH  22  23
HETATM   23  N2  UNL     1      -6.083  12.245  -0.747  1.00  0.00    -0.288 N 
HETATM   24  C15 UNL     1      -6.230  13.444  -0.249  1.00  0.00     0.152 A 
HETATM   25  C16 UNL     1      -7.270  13.657   0.613  1.00  0.00     0.111 A 
HETATM   26  S1  UNL     1      -8.002  12.119   0.679  1.00  0.00    -0.036 SA
HETATM   27  C17 UNL     1      -6.955  11.299  -0.384  1.00  0.00     0.292 A 
HETATM   28  O3  UNL     1      -6.971  10.069  -0.766  1.00  0.00    -0.259 OA
BRANCH  24  29
HETATM   29  O2  UNL     1      -5.364  14.538  -0.559  1.00  0.00    -0.345 OA
ATOM     30  H2  UNL     1      -5.243  15.288   0.011  1.00  0.00     0.219 HD
ENDBRANCH  24  29
ENDBRANCH  22  23
ENDBRANCH  21  22
ENDBRANCH  18  21
ENDBRANCH  14  15
ENDBRANCH  13  14
ENDBRANCH  11  12
ENDBRANCH   2  11
BRANCH   1  31
HETATM   31  C2  UNL     1      -0.239  15.076   1.818  1.00  0.00    -0.020 C 
HETATM   32  C1  UNL     1      -1.522  15.582   2.636  1.00  0.00     0.019 C 
HETATM   33  C3  UNL     1       0.855  15.853   2.394  1.00  0.00     0.019 C 
HETATM   34  C4  UNL     1      -0.542  15.737   0.460  1.00  0.00     0.019 C 
ENDBRANCH   1  31
BRANCH   3  35
HETATM   35  C21 UNL     1       2.128  10.778   2.265  1.00  0.00    -0.059 C 
HETATM   36  C22 UNL     1       3.174  10.171   2.327  1.00  0.00    -0.061 C 
BRANCH  36  37
HETATM   37  C23 UNL     1       4.417   9.452   2.374  1.00  0.00     0.021 A 
HETATM   38  C24 UNL     1       5.255   9.554   3.468  1.00  0.00     0.021 A 
HETATM   39  C25 UNL     1       6.455   8.870   3.539  1.00  0.00     0.004 A 
HETATM   40  C26 UNL     1       6.868   8.050   2.511  1.00  0.00     0.042 A 
HETATM   41  C27 UNL     1       6.041   7.940   1.413  1.00  0.00     0.117 A 
HETATM   42  F1  UNL     1       6.445   7.135   0.405  1.00  0.00    -0.206 F 
HETATM   43  C28 UNL     1       4.845   8.626   1.353  1.00  0.00     0.062 A 
ENDBRANCH  36  37
ENDBRANCH   3  35
BRANCH   8  44
HETATM   44  O4  UNL     1      -4.953  12.155   2.753  1.00  0.00    -0.346 OA
ATOM     45  H4  UNL     1      -5.532  11.407   2.839  1.00  0.00     0.219 HD
ENDBRANCH   8  44
TORSDOF 12
ENDMDL
MODEL 5
REMARK VINA RESULT: -5.764233420      4.375      8.690
REMARK  12 active torsions:
REMARK  status: ('A' for Active; 'I' for Inactive)
REMARK    1  A    between atoms: C2_2  and  C5_5 
REMARK    2  A    between atoms: C6_6  and  O1_7 
REMARK    3  A    between atoms: O1_7  and  C7_8 
REMARK    4  A    between atoms: C8_9  and  C9_10 
REMARK    5  A    between atoms: C9_10  and  N1_11 
REMARK    6  A    between atoms: C12_14  and  C13_15 
REMARK    7  A    between atoms: C13_15  and  C14_16 
REMARK    8  A    between atoms: C14_16  and  N2_17 
REMARK    9  A    between atoms: C15_18  and  O2_19 
REMARK   10  A    between atoms: C20_27  and  C21_28 
REMARK   11  A    between atoms: C22_29  and  C23_30 
REMARK   12  A    between atoms: C31_41  and  O4_42 
ROOT
HETATM    1  C5  UNL     1      -1.246  12.861  -2.829  1.00  0.00    -0.003 A 
HETATM    2  C6  UNL     1      -1.837  12.390  -1.639  1.00  0.00     0.101 A 
HETATM    3  C20 UNL     1      -1.620  11.141  -1.125  1.00  0.00     0.054 A 
HETATM    4  C29 UNL     1      -0.749  10.300  -1.821  1.00  0.00     0.054 A 
HETATM    5  C30 UNL     1      -0.142  10.724  -2.974  1.00  0.00     0.046 A 
HETATM    6  N3  UNL     1       0.743  10.083  -3.757  1.00  0.00    -0.336 N 
ATOM      7  H3  UNL     1       1.088   9.135  -3.605  1.00  0.00     0.168 HD
HETATM    8  C31 UNL     1       1.099  10.875  -4.755  1.00  0.00     0.141 A 
HETATM    9  C32 UNL     1       0.417  12.094  -4.626  1.00  0.00     0.070 A 
HETATM   10  C33 UNL     1      -0.369  12.003  -3.506  1.00  0.00     0.005 A 
ENDROOT
BRANCH   2  11
HETATM   11  O1  UNL     1      -2.645  13.236  -0.941  1.00  0.00    -0.321 OA
BRANCH  11  12
HETATM   12  C7  UNL     1      -2.264  14.082   0.056  1.00  0.00     0.140 C 
HETATM   13  C8  UNL     1      -1.216  13.965   1.045  1.00  0.00     0.017 C 
BRANCH  13  14
HETATM   14  C9  UNL     1       0.216  13.847   0.732  1.00  0.00     0.151 C 
BRANCH  14  15
HETATM   15  N1  UNL     1       0.780  12.563   1.033  1.00  0.00    -0.390 N 
HETATM   16  C10 UNL     1       1.725  12.017   0.165  1.00  0.00     0.058 C 
HETATM   17  C11 UNL     1       2.780  11.160   0.803  1.00  0.00     0.049 C 
HETATM   18  C12 UNL     1       2.344  10.511   2.092  1.00  0.00    -0.007 C 
HETATM   19  C18 UNL     1       1.587  11.452   2.969  1.00  0.00     0.025 C 
HETATM   20  C19 UNL     1       0.351  11.888   2.176  1.00  0.00     0.122 C 
BRANCH  18  21
HETATM   21  C13 UNL     1       3.503   9.847   2.770  1.00  0.00     0.025 C 
BRANCH  21  22
HETATM   22  C14 UNL     1       4.826  10.221   2.177  1.00  0.00     0.135 C 
BRANCH  22  23
HETATM   23  N2  UNL     1       5.693   9.020   2.043  1.00  0.00    -0.288 N 
HETATM   24  C15 UNL     1       5.628   8.216   1.015  1.00  0.00     0.152 A 
HETATM   25  C16 UNL     1       6.472   7.140   0.988  1.00  0.00     0.111 A 
HETATM   26  S1  UNL     1       7.332   7.322   2.449  1.00  0.00    -0.036 SA
HETATM   27  C17 UNL     1       6.577   8.744   3.006  1.00  0.00     0.292 A 
HETATM   28  O3  UNL     1       6.785   9.413   4.086  1.00  0.00    -0.259 OA
BRANCH  24  29
HETATM   29  O2  UNL     1       4.726   8.404  -0.077  1.00  0.00    -0.345 OA
ATOM     30  H2  UNL     1       3.943   8.939  -0.023  1.00  0.00     0.219 HD
ENDBRANCH  24  29
ENDBRANCH  22  23
ENDBRANCH  21  22
ENDBRANCH  18  21
ENDBRANCH  14  15
ENDBRANCH  13  14
ENDBRANCH  11  12
ENDBRANCH   2  11
BRANCH   1  31
HETATM   31  C2  UNL     1      -1.764  14.066  -3.430  1.00  0.00    -0.020 C 
HETATM   32  C1  UNL     1      -1.388  13.923  -4.982  1.00  0.00     0.019 C 
HETATM   33  C3  UNL     1      -3.179  14.430  -3.459  1.00  0.00     0.019 C 
HETATM   34  C4  UNL     1      -1.011  15.373  -3.118  1.00  0.00     0.019 C 
ENDBRANCH   1  31
BRANCH   3  35
HETATM   35  C21 UNL     1      -2.270  10.613   0.048  1.00  0.00    -0.059 C 
HETATM   36  C22 UNL     1      -2.799  10.210   1.060  1.00  0.00    -0.061 C 
BRANCH  36  37
HETATM   37  C23 UNL     1      -3.403   9.721   2.268  1.00  0.00     0.021 A 
HETATM   38  C24 UNL     1      -3.579   8.367   2.477  1.00  0.00     0.021 A 
HETATM   39  C25 UNL     1      -4.154   7.871   3.632  1.00  0.00     0.004 A 
HETATM   40  C26 UNL     1      -4.581   8.717   4.634  1.00  0.00     0.042 A 
HETATM   41  C27 UNL     1      -4.411  10.071   4.438  1.00  0.00     0.117 A 
HETATM   42  F1  UNL     1      -4.829  10.901   5.420  1.00  0.00    -0.206 F 
HETATM   43  C28 UNL     1      -3.835  10.555   3.281  1.00  0.00     0.062 A 
ENDBRANCH  36  37
ENDBRANCH   3  35
BRANCH   8  44
HETATM   44  O4  UNL     1       1.992  10.613  -5.793  1.00  0.00    -0.346 OA
ATOM     45  H4  UNL     1       2.456  11.232  -6.345  1.00  0.00     0.219 HD
ENDBRANCH   8  44
TORSDOF 12
ENDMDL
