MODEL 1
REMARK VINA RESULT: -7.865971337      0.000      0.000
REMARK  10 active torsions:
REMARK  status: ('A' for Active; 'I' for Inactive)
REMARK    1  A    between atoms: N1_2  and  N2_4 
REMARK    2  A    between atoms: C2_5  and  N3_6 
REMARK       I    between atoms: N3_6  and  C3_8 
REMARK    3  A    between atoms: N7_15  and  C4_16 
REMARK    4  A    between atoms: C4_16  and  O1_17 
REMARK    5  A    between atoms: O1_17  and  C5_18 
REMARK    6  A    between atoms: C6_20  and  N8_21 
REMARK    7  A    between atoms: N8_21  and  C7_22 
REMARK    8  A    between atoms: C7_22  and  O3_23 
REMARK    9  A    between atoms: C7_22  and  C8_25 
REMARK   10  A    between atoms: C8_25  and  N9_26 
ROOT
HETATM    1  N2  UNL     1       0.153   2.577  84.318  1.00  0.00    -0.042 N 
HETATM    2  C2  UNL     1      -0.137   1.466  85.029  1.00  0.00     0.724 A 
HETATM    3  N6  UNL     1      -0.229   0.443  84.140  1.00  0.00    -0.122 N 
ATOM      4  H6  UNL     1      -0.442  -0.519  84.404  1.00  0.00     0.206 HD
HETATM    5  N7  UNL     1      -0.018   0.823  82.932  1.00  0.00    -0.209 N 
HETATM    6  C6  UNL     1       0.228   2.197  82.993  1.00  0.00     0.318 A 
ENDROOT
BRANCH   6   7
HETATM    7  N8  UNL     1       0.288   2.875  81.998  1.00  0.00    -0.345 NA
BRANCH   7   8
HETATM    8  C7  UNL     1       0.356   3.613  80.920  1.00  0.00     0.212 C 
BRANCH   8   9
HETATM    9  O3  UNL     1      -0.337   3.295  79.856  1.00  0.00    -0.338 OA
ATOM     10  H3  UNL     1      -0.623   3.968  79.251  1.00  0.00     0.220 HD
ENDBRANCH   8   9
BRANCH   8  11
HETATM   11  C8  UNL     1       1.153   4.857  80.709  1.00  0.00     0.233 C 
BRANCH  11  12
HETATM   12  N9  UNL     1       2.554   4.761  80.994  1.00  0.00    -0.300 N 
HETATM   13  C9  UNL     1       3.366   4.357  79.968  1.00  0.00     0.108 A 
HETATM   14  C10 UNL     1       4.715   4.295  80.178  1.00  0.00     0.022 A 
HETATM   15  C11 UNL     1       5.621   3.874  79.054  1.00  0.00     0.056 C 
HETATM   16  C12 UNL     1       5.215   4.637  81.410  1.00  0.00     0.256 A 
HETATM   17  O4  UNL     1       6.465   4.597  81.651  1.00  0.00    -0.267 OA
HETATM   18  N10 UNL     1       4.365   5.027  82.390  1.00  0.00    -0.275 N 
HETATM   19  C13 UNL     1       3.025   5.098  82.211  1.00  0.00     0.329 A 
ATOM     20  H10 UNL     1       4.750   5.276  83.301  1.00  0.00     0.173 HD
HETATM   21  O5  UNL     1       2.271   5.465  83.157  1.00  0.00    -0.246 OA
ENDBRANCH  11  12
ENDBRANCH   8  11
ENDBRANCH   7   8
ENDBRANCH   6   7
BRANCH   1  22
HETATM   22  N1  UNL     1       0.302   3.834  84.904  1.00  0.00    -0.316 N 
HETATM   23  C1  UNL     1      -0.714   4.850  85.004  1.00  0.00     0.169 C 
ATOM     24  H1  UNL     1       1.217   4.055  85.299  1.00  0.00     0.180 HD
ENDBRANCH   1  22
BRANCH   5  25
HETATM   25  C4  UNL     1       0.022  -0.021  81.758  1.00  0.00     0.332 C 
BRANCH  25  26
HETATM   26  O1  UNL     1       0.377  -1.335  82.026  1.00  0.00    -0.307 OA
BRANCH  26  27
HETATM   27  C5  UNL     1       1.437  -2.078  81.679  1.00  0.00     0.399 C 
HETATM   28  O2  UNL     1       1.389  -3.326  81.738  1.00  0.00    -0.276 OA
ENDBRANCH  26  27
ENDBRANCH  25  26
ENDBRANCH   5  25
BRANCH   2  29
HETATM   29  N3  UNL     1      -0.276   1.259  86.277  1.00  0.00    -0.161 N 
HETATM   30  C3  UNL     1      -1.325   1.253  87.114  1.00  0.00     0.200 C 
HETATM   31  N4  UNL     1      -1.860   2.356  87.602  1.00  0.00    -0.373 N 
HETATM   32  N5  UNL     1      -1.983   0.059  87.601  1.00  0.00    -0.063 NA
ATOM     33  H42 UNL     1      -1.397   3.198  87.260  1.00  0.00     0.158 HD
ATOM     34  H41 UNL     1      -2.658   2.352  88.238  1.00  0.00     0.158 HD
ATOM     35  H3  UNL     1       0.606   1.050  86.745  1.00  0.00     0.187 HD
ENDBRANCH   2  29
TORSDOF 10
ENDMDL
MODEL 2
REMARK VINA RESULT: -7.760645972      3.144      7.436
REMARK  10 active torsions:
REMARK  status: ('A' for Active; 'I' for Inactive)
REMARK    1  A    between atoms: N1_2  and  N2_4 
REMARK    2  A    between atoms: C2_5  and  N3_6 
REMARK       I    between atoms: N3_6  and  C3_8 
REMARK    3  A    between atoms: N7_15  and  C4_16 
REMARK    4  A    between atoms: C4_16  and  O1_17 
REMARK    5  A    between atoms: O1_17  and  C5_18 
REMARK    6  A    between atoms: C6_20  and  N8_21 
REMARK    7  A    between atoms: N8_21  and  C7_22 
REMARK    8  A    between atoms: C7_22  and  O3_23 
REMARK    9  A    between atoms: C7_22  and  C8_25 
REMARK   10  A    between atoms: C8_25  and  N9_26 
ROOT
HETATM    1  N2  UNL     1       0.443   4.020  81.321  1.00  0.00    -0.042 N 
HETATM    2  C2  UNL     1       0.784   4.075  80.015  1.00  0.00     0.724 A 
HETATM    3  N6  UNL     1       0.254   5.223  79.518  1.00  0.00    -0.122 N 
ATOM      4  H6  UNL     1       0.356   5.520  78.548  1.00  0.00     0.206 HD
HETATM    5  N7  UNL     1      -0.390   5.890  80.406  1.00  0.00    -0.209 N 
HETATM    6  C6  UNL     1      -0.302   5.151  81.589  1.00  0.00     0.318 A 
ENDROOT
BRANCH   6   7
HETATM    7  N8  UNL     1      -0.956   5.432  82.562  1.00  0.00    -0.345 NA
BRANCH   7   8
HETATM    8  C7  UNL     1      -1.663   5.737  83.619  1.00  0.00     0.212 C 
BRANCH   8   9
HETATM    9  O3  UNL     1      -2.906   6.124  83.495  1.00  0.00    -0.338 OA
ATOM     10  H3  UNL     1      -3.108   7.014  83.230  1.00  0.00     0.220 HD
ENDBRANCH   8   9
BRANCH   8  11
HETATM   11  C8  UNL     1      -1.237   5.696  85.049  1.00  0.00     0.233 C 
BRANCH  11  12
HETATM   12  N9  UNL     1      -0.986   4.393  85.593  1.00  0.00    -0.300 N 
HETATM   13  C9  UNL     1      -2.051   3.746  86.160  1.00  0.00     0.108 A 
HETATM   14  C10 UNL     1      -1.872   2.483  86.651  1.00  0.00     0.022 A 
HETATM   15  C11 UNL     1      -3.038   1.751  87.257  1.00  0.00     0.056 C 
HETATM   16  C12 UNL     1      -0.632   1.902  86.562  1.00  0.00     0.256 A 
HETATM   17  O4  UNL     1      -0.418   0.727  87.003  1.00  0.00    -0.267 OA
HETATM   18  N10 UNL     1       0.388   2.591  85.994  1.00  0.00    -0.275 N 
HETATM   19  C13 UNL     1       0.240   3.843  85.500  1.00  0.00     0.329 A 
ATOM     20  H10 UNL     1       1.305   2.147  85.936  1.00  0.00     0.173 HD
HETATM   21  O5  UNL     1       1.222   4.445  84.980  1.00  0.00    -0.246 OA
ENDBRANCH  11  12
ENDBRANCH   8  11
ENDBRANCH   7   8
ENDBRANCH   6   7
BRANCH   1  22
HETATM   22  N1  UNL     1       0.801   2.960  82.154  1.00  0.00    -0.316 N 
HETATM   23  C1  UNL     1       0.012   1.784  82.418  1.00  0.00     0.169 C 
ATOM     24  H1  UNL     1       1.707   3.024  82.619  1.00  0.00     0.180 HD
ENDBRANCH   1  22
BRANCH   5  25
HETATM   25  C4  UNL     1      -1.018   7.181  80.227  1.00  0.00     0.332 C 
BRANCH  25  26
HETATM   26  O1  UNL     1      -2.356   7.106  79.869  1.00  0.00    -0.307 OA
BRANCH  26  27
HETATM   27  C5  UNL     1      -3.313   8.034  79.733  1.00  0.00     0.399 C 
HETATM   28  O2  UNL     1      -4.268   7.856  78.946  1.00  0.00    -0.276 OA
ENDBRANCH  26  27
ENDBRANCH  25  26
ENDBRANCH   5  25
BRANCH   2  29
HETATM   29  N3  UNL     1       1.490   3.313  79.281  1.00  0.00    -0.161 N 
HETATM   30  C3  UNL     1       2.699   2.746  79.410  1.00  0.00     0.200 C 
HETATM   31  N4  UNL     1       3.826   3.400  79.194  1.00  0.00    -0.373 N 
HETATM   32  N5  UNL     1       2.926   1.363  79.773  1.00  0.00    -0.063 NA
ATOM     33  H42 UNL     1       3.666   4.374  78.938  1.00  0.00     0.158 HD
ATOM     34  H41 UNL     1       4.745   2.969  79.293  1.00  0.00     0.158 HD
ATOM     35  H3  UNL     1       1.036   3.081  78.397  1.00  0.00     0.187 HD
ENDBRANCH   2  29
TORSDOF 10
ENDMDL
MODEL 3
REMARK VINA RESULT: -7.739025390      1.293      1.760
REMARK  10 active torsions:
REMARK  status: ('A' for Active; 'I' for Inactive)
REMARK    1  A    between atoms: N1_2  and  N2_4 
REMARK    2  A    between atoms: C2_5  and  N3_6 
REMARK       I    between atoms: N3_6  and  C3_8 
REMARK    3  A    between atoms: N7_15  and  C4_16 
REMARK    4  A    between atoms: C4_16  and  O1_17 
REMARK    5  A    between atoms: O1_17  and  C5_18 
REMARK    6  A    between atoms: C6_20  and  N8_21 
REMARK    7  A    between atoms: N8_21  and  C7_22 
REMARK    8  A    between atoms: C7_22  and  O3_23 
REMARK    9  A    between atoms: C7_22  and  C8_25 
REMARK   10  A    between atoms: C8_25  and  N9_26 
ROOT
HETATM    1  N2  UNL     1       0.015   2.915  84.066  1.00  0.00    -0.042 N 
HETATM    2  C2  UNL     1      -0.201   1.819  84.826  1.00  0.00     0.724 A 
HETATM    3  N6  UNL     1      -0.202   0.752  83.986  1.00  0.00    -0.122 N 
ATOM      4  H6  UNL     1      -0.345  -0.210  84.293  1.00  0.00     0.206 HD
HETATM    5  N7  UNL     1      -0.002   1.089  82.764  1.00  0.00    -0.209 N 
HETATM    6  C6  UNL     1       0.138   2.479  82.761  1.00  0.00     0.318 A 
ENDROOT
BRANCH   6   7
HETATM    7  N8  UNL     1       0.162   3.112  81.735  1.00  0.00    -0.345 NA
BRANCH   7   8
HETATM    8  C7  UNL     1       0.190   3.797  80.622  1.00  0.00     0.212 C 
BRANCH   8   9
HETATM    9  O3  UNL     1      -0.765   4.647  80.343  1.00  0.00    -0.338 OA
ATOM     10  H3  UNL     1      -0.568   5.569  80.226  1.00  0.00     0.220 HD
ENDBRANCH   8   9
BRANCH   8  11
HETATM   11  C8  UNL     1       1.227   3.759  79.548  1.00  0.00     0.233 C 
BRANCH  11  12
HETATM   12  N9  UNL     1       2.580   3.968  79.974  1.00  0.00    -0.300 N 
HETATM   13  C9  UNL     1       2.796   4.980  80.870  1.00  0.00     0.108 A 
HETATM   14  C10 UNL     1       4.062   5.188  81.340  1.00  0.00     0.022 A 
HETATM   15  C11 UNL     1       4.310   6.282  82.342  1.00  0.00     0.056 C 
HETATM   16  C12 UNL     1       5.078   4.378  80.900  1.00  0.00     0.256 A 
HETATM   17  O4  UNL     1       6.273   4.532  81.312  1.00  0.00    -0.267 OA
HETATM   18  N10 UNL     1       4.808   3.393  80.010  1.00  0.00    -0.275 N 
HETATM   19  C13 UNL     1       3.564   3.164  79.526  1.00  0.00     0.329 A 
ATOM     20  H10 UNL     1       5.574   2.800  79.690  1.00  0.00     0.173 HD
HETATM   21  O5  UNL     1       3.362   2.234  78.695  1.00  0.00    -0.246 OA
ENDBRANCH  11  12
ENDBRANCH   8  11
ENDBRANCH   7   8
ENDBRANCH   6   7
BRANCH   1  22
HETATM   22  N1  UNL     1       0.060   4.205  84.592  1.00  0.00    -0.316 N 
HETATM   23  C1  UNL     1       1.214   5.066  84.635  1.00  0.00     0.169 C 
ATOM     24  H1  UNL     1      -0.807   4.575  84.983  1.00  0.00     0.180 HD
ENDBRANCH   1  22
BRANCH   5  25
HETATM   25  C4  UNL     1       0.120   0.196  81.632  1.00  0.00     0.332 C 
BRANCH  25  26
HETATM   26  O1  UNL     1       0.441  -1.107  81.980  1.00  0.00    -0.307 OA
BRANCH  26  27
HETATM   27  C5  UNL     1       1.440  -1.924  81.619  1.00  0.00     0.399 C 
HETATM   28  O2  UNL     1       1.394  -3.145  81.884  1.00  0.00    -0.276 OA
ENDBRANCH  26  27
ENDBRANCH  25  26
ENDBRANCH   5  25
BRANCH   2  29
HETATM   29  N3  UNL     1      -0.343   1.660  86.081  1.00  0.00    -0.161 N 
HETATM   30  C3  UNL     1      -1.397   1.463  86.886  1.00  0.00     0.200 C 
HETATM   31  N4  UNL     1      -2.191   2.440  87.283  1.00  0.00    -0.373 N 
HETATM   32  N5  UNL     1      -1.786   0.181  87.435  1.00  0.00    -0.063 NA
ATOM     33  H42 UNL     1      -1.918   3.344  86.896  1.00  0.00     0.158 HD
ATOM     34  H41 UNL     1      -2.993   2.290  87.894  1.00  0.00     0.158 HD
ATOM     35  H3  UNL     1       0.543   1.690  86.587  1.00  0.00     0.187 HD
ENDBRANCH   2  29
TORSDOF 10
ENDMDL
MODEL 4
REMARK VINA RESULT: -7.732888244      2.882      5.240
REMARK  10 active torsions:
REMARK  status: ('A' for Active; 'I' for Inactive)
REMARK    1  A    between atoms: N1_2  and  N2_4 
REMARK    2  A    between atoms: C2_5  and  N3_6 
REMARK       I    between atoms: N3_6  and  C3_8 
REMARK    3  A    between atoms: N7_15  and  C4_16 
REMARK    4  A    between atoms: C4_16  and  O1_17 
REMARK    5  A    between atoms: O1_17  and  C5_18 
REMARK    6  A    between atoms: C6_20  and  N8_21 
REMARK    7  A    between atoms: N8_21  and  C7_22 
REMARK    8  A    between atoms: C7_22  and  O3_23 
REMARK    9  A    between atoms: C7_22  and  C8_25 
REMARK   10  A    between atoms: C8_25  and  N9_26 
ROOT
HETATM    1  N2  UNL     1      -0.194   4.616  84.255  1.00  0.00    -0.042 N 
HETATM    2  C2  UNL     1      -0.899   5.619  84.821  1.00  0.00     0.724 A 
HETATM    3  N6  UNL     1      -1.816   5.043  85.640  1.00  0.00    -0.122 N 
ATOM      4  H6  UNL     1      -2.488   5.570  86.198  1.00  0.00     0.206 HD
HETATM    5  N7  UNL     1      -1.741   3.761  85.634  1.00  0.00    -0.209 N 
HETATM    6  C6  UNL     1      -0.711   3.435  84.749  1.00  0.00     0.318 A 
ENDROOT
BRANCH   6   7
HETATM    7  N8  UNL     1      -0.515   2.299  84.395  1.00  0.00    -0.345 NA
BRANCH   7   8
HETATM    8  C7  UNL     1      -0.301   1.068  84.008  1.00  0.00     0.212 C 
BRANCH   8   9
HETATM    9  O3  UNL     1      -0.384   0.082  84.864  1.00  0.00    -0.338 OA
ATOM     10  H3  UNL     1      -0.252  -0.814  84.579  1.00  0.00     0.220 HD
ENDBRANCH   8   9
BRANCH   8  11
HETATM   11  C8  UNL     1       0.035   0.583  82.637  1.00  0.00     0.233 C 
BRANCH  11  12
HETATM   12  N9  UNL     1       0.437   1.588  81.696  1.00  0.00    -0.300 N 
HETATM   13  C9  UNL     1       1.779   1.833  81.591  1.00  0.00     0.108 A 
HETATM   14  C10 UNL     1       2.214   2.750  80.675  1.00  0.00     0.022 A 
HETATM   15  C11 UNL     1       3.687   3.013  80.532  1.00  0.00     0.056 C 
HETATM   16  C12 UNL     1       1.293   3.397  79.890  1.00  0.00     0.256 A 
HETATM   17  O4  UNL     1       1.650   4.257  79.022  1.00  0.00    -0.267 OA
HETATM   18  N10 UNL     1      -0.025   3.118  80.040  1.00  0.00    -0.275 N 
HETATM   19  C13 UNL     1      -0.484   2.215  80.939  1.00  0.00     0.329 A 
ATOM     20  H10 UNL     1      -0.699   3.608  79.452  1.00  0.00     0.173 HD
HETATM   21  O5  UNL     1      -1.724   1.990  81.043  1.00  0.00    -0.246 OA
ENDBRANCH  11  12
ENDBRANCH   8  11
ENDBRANCH   7   8
ENDBRANCH   6   7
BRANCH   1  22
HETATM   22  N1  UNL     1       0.829   4.835  83.333  1.00  0.00    -0.316 N 
HETATM   23  C1  UNL     1       2.191   5.187  83.641  1.00  0.00     0.169 C 
ATOM     24  H1  UNL     1       0.589   4.736  82.345  1.00  0.00     0.180 HD
ENDBRANCH   1  22
BRANCH   5  25
HETATM   25  C4  UNL     1      -2.525   2.848  86.438  1.00  0.00     0.332 C 
BRANCH  25  26
HETATM   26  O1  UNL     1      -1.875   2.413  87.583  1.00  0.00    -0.307 OA
BRANCH  26  27
HETATM   27  C5  UNL     1      -1.482   1.201  87.999  1.00  0.00     0.399 C 
HETATM   28  O2  UNL     1      -1.848   0.169  87.396  1.00  0.00    -0.276 OA
ENDBRANCH  26  27
ENDBRANCH  25  26
ENDBRANCH   5  25
BRANCH   2  29
HETATM   29  N3  UNL     1      -0.805   6.886  84.739  1.00  0.00    -0.161 N 
HETATM   30  C3  UNL     1      -1.533   7.842  84.142  1.00  0.00     0.200 C 
HETATM   31  N4  UNL     1      -1.447   8.111  82.853  1.00  0.00    -0.373 N 
HETATM   32  N5  UNL     1      -2.476   8.704  84.822  1.00  0.00    -0.063 NA
ATOM     33  H42 UNL     1      -0.783   7.504  82.373  1.00  0.00     0.158 HD
ATOM     34  H41 UNL     1      -2.001   8.837  82.399  1.00  0.00     0.158 HD
ATOM     35  H3  UNL     1       0.004   7.257  85.238  1.00  0.00     0.187 HD
ENDBRANCH   2  29
TORSDOF 10
ENDMDL
MODEL 5
REMARK VINA RESULT: -7.556648769      1.066      1.293
REMARK  10 active torsions:
REMARK  status: ('A' for Active; 'I' for Inactive)
REMARK    1  A    between atoms: N1_2  and  N2_4 
REMARK    2  A    between atoms: C2_5  and  N3_6 
REMARK       I    between atoms: N3_6  and  C3_8 
REMARK    3  A    between atoms: N7_15  and  C4_16 
REMARK    4  A    between atoms: C4_16  and  O1_17 
REMARK    5  A    between atoms: O1_17  and  C5_18 
REMARK    6  A    between atoms: C6_20  and  N8_21 
REMARK    7  A    between atoms: N8_21  and  C7_22 
REMARK    8  A    between atoms: C7_22  and  O3_23 
REMARK    9  A    between atoms: C7_22  and  C8_25 
REMARK   10  A    between atoms: C8_25  and  N9_26 
ROOT
HETATM    1  N2  UNL     1      -0.030   3.109  84.488  1.00  0.00    -0.042 N 
HETATM    2  C2  UNL     1      -0.233   1.962  85.170  1.00  0.00     0.724 A 
HETATM    3  N6  UNL     1      -0.203   0.953  84.262  1.00  0.00    -0.122 N 
ATOM      4  H6  UNL     1      -0.330  -0.030  84.502  1.00  0.00     0.206 HD
HETATM    5  N7  UNL     1       0.004   1.375  83.067  1.00  0.00    -0.209 N 
HETATM    6  C6  UNL     1       0.116   2.765  83.159  1.00  0.00     0.318 A 
ENDROOT
BRANCH   6   7
HETATM    7  N8  UNL     1       0.139   3.465  82.178  1.00  0.00    -0.345 NA
BRANCH   7   8
HETATM    8  C7  UNL     1       0.167   4.225  81.114  1.00  0.00     0.212 C 
BRANCH   8   9
HETATM    9  O3  UNL     1      -0.697   4.043  80.148  1.00  0.00    -0.338 OA
ATOM     10  H3  UNL     1      -0.815   3.183  79.764  1.00  0.00     0.220 HD
ENDBRANCH   8   9
BRANCH   8  11
HETATM   11  C8  UNL     1       1.096   5.356  80.819  1.00  0.00     0.233 C 
BRANCH  11  12
HETATM   12  N9  UNL     1       2.483   5.117  81.093  1.00  0.00    -0.300 N 
HETATM   13  C9  UNL     1       3.238   4.619  80.066  1.00  0.00     0.108 A 
HETATM   14  C10 UNL     1       4.575   4.419  80.265  1.00  0.00     0.022 A 
HETATM   15  C11 UNL     1       5.421   3.894  79.139  1.00  0.00     0.056 C 
HETATM   16  C12 UNL     1       5.120   4.721  81.488  1.00  0.00     0.256 A 
HETATM   17  O4  UNL     1       6.361   4.553  81.720  1.00  0.00    -0.267 OA
HETATM   18  N10 UNL     1       4.324   5.208  82.471  1.00  0.00    -0.275 N 
HETATM   19  C13 UNL     1       2.997   5.416  82.302  1.00  0.00     0.329 A 
ATOM     20  H10 UNL     1       4.742   5.426  83.375  1.00  0.00     0.173 HD
HETATM   21  O5  UNL     1       2.295   5.871  83.250  1.00  0.00    -0.246 OA
ENDBRANCH  11  12
ENDBRANCH   8  11
ENDBRANCH   7   8
ENDBRANCH   6   7
BRANCH   1  22
HETATM   22  N1  UNL     1      -0.018   4.363  85.099  1.00  0.00    -0.316 N 
HETATM   23  C1  UNL     1      -1.076   5.339  85.056  1.00  0.00     0.169 C 
ATOM     24  H1  UNL     1       0.819   4.611  85.627  1.00  0.00     0.180 HD
ENDBRANCH   1  22
BRANCH   5  25
HETATM   25  C4  UNL     1       0.156   0.563  81.880  1.00  0.00     0.332 C 
BRANCH  25  26
HETATM   26  O1  UNL     1       1.478   0.306  81.544  1.00  0.00    -0.307 OA
BRANCH  26  27
HETATM   27  C5  UNL     1       2.451   1.075  81.036  1.00  0.00     0.399 C 
HETATM   28  O2  UNL     1       2.608   1.171  79.799  1.00  0.00    -0.276 OA
ENDBRANCH  26  27
ENDBRANCH  25  26
ENDBRANCH   5  25
BRANCH   2  29
HETATM   29  N3  UNL     1      -0.386   1.717  86.410  1.00  0.00    -0.161 N 
HETATM   30  C3  UNL     1      -1.448   1.465  87.191  1.00  0.00     0.200 C 
HETATM   31  N4  UNL     1      -2.245   2.413  87.647  1.00  0.00    -0.373 N 
HETATM   32  N5  UNL     1      -1.842   0.149  87.646  1.00  0.00    -0.063 NA
ATOM     33  H42 UNL     1      -1.968   3.341  87.326  1.00  0.00     0.158 HD
ATOM     34  H41 UNL     1      -3.053   2.222  88.240  1.00  0.00     0.158 HD
ATOM     35  H3  UNL     1       0.495   1.710  86.925  1.00  0.00     0.187 HD
ENDBRANCH   2  29
TORSDOF 10
ENDMDL
