MODEL 1
REMARK VINA RESULT: -7.964770447      0.000      0.000
REMARK  5 active torsions:
REMARK  status: ('A' for Active; 'I' for Inactive)
REMARK    1  A    between atoms: N1_1  and  C1_4 
REMARK    2  A    between atoms: N4_13  and  C5_14 
REMARK    3  A    between atoms: C5_14  and  N5_15 
REMARK    4  A    between atoms: N5_15  and  C6_17 
REMARK    5  A    between atoms: N7_20  and  N8_21 
ROOT
HETATM    1  C1  UNL     1      13.464  23.738  48.654  1.00  0.00     0.680 A 
HETATM    2  N2  UNL     1      14.683  24.233  48.343  1.00  0.00    -0.154 N 
ATOM      3  H2  UNL     1      15.342  23.673  47.803  1.00  0.00     0.187 HD
HETATM    4  C2  UNL     1      15.018  25.471  48.751  1.00  0.00     0.290 A 
HETATM    5  O1  UNL     1      16.151  25.942  48.467  1.00  0.00    -0.265 OA
HETATM    6  C3  UNL     1      14.090  26.176  49.475  1.00  0.00     0.147 A 
HETATM    7  N3  UNL     1      14.154  27.404  49.997  1.00  0.00    -0.345 N 
ATOM      8  H3  UNL     1      14.948  28.041  49.935  1.00  0.00     0.167 HD
HETATM    9  C4  UNL     1      12.988  27.652  50.619  1.00  0.00     0.187 A 
HETATM   10  N4  UNL     1      12.161  26.588  50.503  1.00  0.00    -0.310 N 
HETATM   11  C7  UNL     1      12.843  25.668  49.792  1.00  0.00     0.158 A 
HETATM   12  N11 UNL     1      12.555  24.431  49.363  1.00  0.00    -0.174 N 
ATOM     13  H11 UNL     1      11.647  24.016  49.574  1.00  0.00     0.186 HD
ENDROOT
BRANCH  10  14
HETATM   14  C5  UNL     1      10.820  26.459  51.032  1.00  0.00     0.257 C 
BRANCH  14  15
HETATM   15  N5  UNL     1      10.896  26.293  52.463  1.00  0.00    -0.343 N 
ATOM     16  H5  UNL     1      11.319  25.448  52.849  1.00  0.00     0.164 HD
BRANCH  15  17
HETATM   17  C6  UNL     1      10.393  27.288  53.341  1.00  0.00     0.211 C 
HETATM   18  N6  UNL     1      10.830  28.496  53.474  1.00  0.00    -0.235 N 
HETATM   19  N7  UNL     1      10.070  29.165  54.440  1.00  0.00    -0.119 N 
ATOM     20  H6  UNL     1      11.610  28.901  52.955  1.00  0.00     0.193 HD
HETATM   21  N9  UNL     1       8.884  28.431  54.551  1.00  0.00     0.020 NA
HETATM   22  N10 UNL     1       9.304  27.134  54.245  1.00  0.00    -0.251 N 
ATOM     23  H10 UNL     1       8.913  26.260  54.595  1.00  0.00     0.187 HD
BRANCH  19  24
HETATM   24  N8  UNL     1      10.391  30.317  55.161  1.00  0.00    -0.310 N 
ATOM     25  H82 UNL     1       9.810  31.152  55.243  1.00  0.00     0.180 HD
ATOM     26  H81 UNL     1      11.228  30.515  55.708  1.00  0.00     0.180 HD
ENDBRANCH  19  24
ENDBRANCH  15  17
ENDBRANCH  14  15
ENDBRANCH  10  14
BRANCH   1  27
HETATM   27  N1  UNL     1      13.123  22.545  48.269  1.00  0.00    -0.234 N 
ATOM     28  H12 UNL     1      13.501  21.762  48.802  1.00  0.00     0.174 HD
ATOM     29  H11 UNL     1      12.505  22.420  47.467  1.00  0.00     0.174 HD
ENDBRANCH   1  27
TORSDOF 5
ENDMDL
MODEL 2
REMARK VINA RESULT: -7.385028456      1.096      2.323
REMARK  5 active torsions:
REMARK  status: ('A' for Active; 'I' for Inactive)
REMARK    1  A    between atoms: N1_1  and  C1_4 
REMARK    2  A    between atoms: N4_13  and  C5_14 
REMARK    3  A    between atoms: C5_14  and  N5_15 
REMARK    4  A    between atoms: N5_15  and  C6_17 
REMARK    5  A    between atoms: N7_20  and  N8_21 
ROOT
HETATM    1  C1  UNL     1      14.920  26.958  49.419  1.00  0.00     0.680 A 
HETATM    2  N2  UNL     1      15.396  25.825  48.856  1.00  0.00    -0.154 N 
ATOM      3  H2  UNL     1      16.328  25.809  48.442  1.00  0.00     0.187 HD
HETATM    4  C2  UNL     1      14.629  24.718  48.845  1.00  0.00     0.290 A 
HETATM    5  O1  UNL     1      15.063  23.657  48.323  1.00  0.00    -0.265 OA
HETATM    6  C3  UNL     1      13.385  24.801  49.416  1.00  0.00     0.147 A 
HETATM    7  N3  UNL     1      12.431  23.875  49.544  1.00  0.00    -0.345 N 
ATOM      8  H3  UNL     1      12.485  22.910  49.218  1.00  0.00     0.167 HD
HETATM    9  C4  UNL     1      11.387  24.437  50.178  1.00  0.00     0.187 A 
HETATM   10  N4  UNL     1      11.658  25.732  50.465  1.00  0.00    -0.310 N 
HETATM   11  C7  UNL     1      12.899  25.961  49.992  1.00  0.00     0.158 A 
HETATM   12  N11 UNL     1      13.700  27.037  49.979  1.00  0.00    -0.174 N 
ATOM     13  H11 UNL     1      13.383  27.914  50.393  1.00  0.00     0.186 HD
ENDROOT
BRANCH  10  14
HETATM   14  C5  UNL     1      10.796  26.678  51.139  1.00  0.00     0.257 C 
BRANCH  14  15
HETATM   15  N5  UNL     1      10.858  26.435  52.560  1.00  0.00    -0.343 N 
ATOM     16  H5  UNL     1      11.264  25.565  52.904  1.00  0.00     0.164 HD
BRANCH  15  17
HETATM   17  C6  UNL     1      10.362  27.390  53.486  1.00  0.00     0.211 C 
HETATM   18  N6  UNL     1      10.828  28.575  53.700  1.00  0.00    -0.235 N 
HETATM   19  N7  UNL     1      10.065  29.206  54.689  1.00  0.00    -0.119 N 
ATOM     20  H6  UNL     1      11.629  28.988  53.222  1.00  0.00     0.193 HD
HETATM   21  N9  UNL     1       8.857  28.500  54.732  1.00  0.00     0.020 NA
HETATM   22  N10 UNL     1       9.250  27.213  54.357  1.00  0.00    -0.251 N 
ATOM     23  H10 UNL     1       8.828  26.331  54.646  1.00  0.00     0.187 HD
BRANCH  19  24
HETATM   24  N8  UNL     1      10.401  30.304  55.484  1.00  0.00    -0.310 N 
ATOM     25  H82 UNL     1       9.971  31.228  55.440  1.00  0.00     0.180 HD
ATOM     26  H81 UNL     1      11.106  30.370  56.217  1.00  0.00     0.180 HD
ENDBRANCH  19  24
ENDBRANCH  15  17
ENDBRANCH  14  15
ENDBRANCH  10  14
BRANCH   1  27
HETATM   27  N1  UNL     1      15.646  28.035  49.439  1.00  0.00    -0.234 N 
ATOM     28  H12 UNL     1      16.623  27.938  49.163  1.00  0.00     0.174 HD
ATOM     29  H11 UNL     1      15.237  28.926  49.720  1.00  0.00     0.174 HD
ENDBRANCH   1  27
TORSDOF 5
ENDMDL
MODEL 3
REMARK VINA RESULT: -7.276737069      1.680      2.358
REMARK  5 active torsions:
REMARK  status: ('A' for Active; 'I' for Inactive)
REMARK    1  A    between atoms: N1_1  and  C1_4 
REMARK    2  A    between atoms: N4_13  and  C5_14 
REMARK    3  A    between atoms: C5_14  and  N5_15 
REMARK    4  A    between atoms: N5_15  and  C6_17 
REMARK    5  A    between atoms: N7_20  and  N8_21 
ROOT
HETATM    1  C1  UNL     1      14.198  24.782  48.958  1.00  0.00     0.680 A 
HETATM    2  N2  UNL     1      13.610  23.991  48.033  1.00  0.00    -0.154 N 
ATOM      3  H2  UNL     1      14.179  23.429  47.401  1.00  0.00     0.187 HD
HETATM    4  C2  UNL     1      12.266  23.952  47.953  1.00  0.00     0.290 A 
HETATM    5  O1  UNL     1      11.708  23.219  47.095  1.00  0.00    -0.265 OA
HETATM    6  C3  UNL     1      11.554  24.730  48.830  1.00  0.00     0.147 A 
HETATM    7  N3  UNL     1      10.235  24.883  48.972  1.00  0.00    -0.345 N 
ATOM      8  H3  UNL     1       9.515  24.419  48.419  1.00  0.00     0.167 HD
HETATM    9  C4  UNL     1      10.023  25.757  49.972  1.00  0.00     0.187 A 
HETATM   10  N4  UNL     1      11.203  26.175  50.484  1.00  0.00    -0.310 N 
HETATM   11  C7  UNL     1      12.157  25.539  49.777  1.00  0.00     0.158 A 
HETATM   12  N11 UNL     1      13.498  25.544  49.818  1.00  0.00    -0.174 N 
ATOM     13  H11 UNL     1      13.986  26.125  50.500  1.00  0.00     0.186 HD
ENDROOT
BRANCH  10  14
HETATM   14  C5  UNL     1      11.405  27.112  51.568  1.00  0.00     0.257 C 
BRANCH  14  15
HETATM   15  N5  UNL     1      10.617  26.691  52.701  1.00  0.00    -0.343 N 
ATOM     16  H5  UNL     1      10.364  25.708  52.800  1.00  0.00     0.164 HD
BRANCH  15  17
HETATM   17  C6  UNL     1      10.188  27.627  53.680  1.00  0.00     0.211 C 
HETATM   18  N6  UNL     1      10.697  28.790  53.914  1.00  0.00    -0.235 N 
HETATM   19  N7  UNL     1       9.995  29.406  54.956  1.00  0.00    -0.119 N 
ATOM     20  H6  UNL     1      11.490  29.197  53.417  1.00  0.00     0.193 HD
HETATM   21  N9  UNL     1       8.769  28.733  55.026  1.00  0.00     0.020 NA
HETATM   22  N10 UNL     1       9.108  27.450  54.590  1.00  0.00    -0.251 N 
ATOM     23  H10 UNL     1       8.673  26.570  54.867  1.00  0.00     0.187 HD
BRANCH  19  24
HETATM   24  N8  UNL     1      10.395  30.466  55.773  1.00  0.00    -0.310 N 
ATOM     25  H82 UNL     1      10.002  31.407  55.767  1.00  0.00     0.180 HD
ATOM     26  H81 UNL     1      11.121  30.481  56.488  1.00  0.00     0.180 HD
ENDBRANCH  19  24
ENDBRANCH  15  17
ENDBRANCH  14  15
ENDBRANCH  10  14
BRANCH   1  27
HETATM   27  N1  UNL     1      15.493  24.832  49.050  1.00  0.00    -0.234 N 
ATOM     28  H12 UNL     1      16.016  24.883  48.176  1.00  0.00     0.174 HD
ATOM     29  H11 UNL     1      15.945  24.820  49.965  1.00  0.00     0.174 HD
ENDBRANCH   1  27
TORSDOF 5
ENDMDL
MODEL 4
REMARK VINA RESULT: -7.276690769      3.301      5.102
REMARK  5 active torsions:
REMARK  status: ('A' for Active; 'I' for Inactive)
REMARK    1  A    between atoms: N1_1  and  C1_4 
REMARK    2  A    between atoms: N4_13  and  C5_14 
REMARK    3  A    between atoms: C5_14  and  N5_15 
REMARK    4  A    between atoms: N5_15  and  C6_17 
REMARK    5  A    between atoms: N7_20  and  N8_21 
ROOT
HETATM    1  C1  UNL     1      15.128  25.752  48.771  1.00  0.00     0.680 A 
HETATM    2  N2  UNL     1      15.251  26.822  49.587  1.00  0.00    -0.154 N 
ATOM      3  H2  UNL     1      16.168  27.235  49.759  1.00  0.00     0.187 HD
HETATM    4  C2  UNL     1      14.154  27.340  50.171  1.00  0.00     0.290 A 
HETATM    5  O1  UNL     1      14.258  28.337  50.933  1.00  0.00    -0.265 OA
HETATM    6  C3  UNL     1      12.949  26.743  49.902  1.00  0.00     0.147 A 
HETATM    7  N3  UNL     1      11.722  27.042  50.336  1.00  0.00    -0.345 N 
ATOM      8  H3  UNL     1      11.480  27.803  50.971  1.00  0.00     0.167 HD
HETATM    9  C4  UNL     1      10.861  26.164  49.791  1.00  0.00     0.187 A 
HETATM   10  N4  UNL     1      11.526  25.290  49.000  1.00  0.00    -0.310 N 
HETATM   11  C7  UNL     1      12.824  25.647  49.066  1.00  0.00     0.158 A 
HETATM   12  N11 UNL     1      13.945  25.168  48.508  1.00  0.00    -0.174 N 
ATOM     13  H11 UNL     1      13.901  24.361  47.885  1.00  0.00     0.186 HD
ENDROOT
BRANCH  10  14
HETATM   14  C5  UNL     1      10.964  24.197  48.237  1.00  0.00     0.257 C 
BRANCH  14  15
HETATM   15  N5  UNL     1      10.770  23.067  49.113  1.00  0.00    -0.343 N 
ATOM     16  H5  UNL     1      11.580  22.536  49.434  1.00  0.00     0.164 HD
BRANCH  15  17
HETATM   17  C6  UNL     1       9.470  22.684  49.535  1.00  0.00     0.211 C 
HETATM   18  N6  UNL     1       8.349  23.011  48.983  1.00  0.00    -0.235 N 
HETATM   19  N7  UNL     1       7.292  22.435  49.695  1.00  0.00    -0.119 N 
ATOM     20  H6  UNL     1       8.250  23.598  48.154  1.00  0.00     0.193 HD
HETATM   21  N9  UNL     1       7.865  21.393  50.433  1.00  0.00     0.020 NA
HETATM   22  N10 UNL     1       9.162  21.863  50.656  1.00  0.00    -0.251 N 
ATOM     23  H10 UNL     1       9.762  21.660  51.455  1.00  0.00     0.187 HD
BRANCH  19  24
HETATM   24  N8  UNL     1       5.942  22.794  49.698  1.00  0.00    -0.310 N 
ATOM     25  H82 UNL     1       5.233  22.462  49.044  1.00  0.00     0.180 HD
ATOM     26  H81 UNL     1       5.451  23.426  50.330  1.00  0.00     0.180 HD
ENDBRANCH  19  24
ENDBRANCH  15  17
ENDBRANCH  14  15
ENDBRANCH  10  14
BRANCH   1  27
HETATM   27  N1  UNL     1      16.176  25.239  48.199  1.00  0.00    -0.234 N 
ATOM     28  H12 UNL     1      16.610  24.441  48.662  1.00  0.00     0.174 HD
ATOM     29  H11 UNL     1      16.530  25.632  47.327  1.00  0.00     0.174 HD
ENDBRANCH   1  27
TORSDOF 5
ENDMDL
MODEL 5
REMARK VINA RESULT: -7.233493943      3.175      5.369
REMARK  5 active torsions:
REMARK  status: ('A' for Active; 'I' for Inactive)
REMARK    1  A    between atoms: N1_1  and  C1_4 
REMARK    2  A    between atoms: N4_13  and  C5_14 
REMARK    3  A    between atoms: C5_14  and  N5_15 
REMARK    4  A    between atoms: N5_15  and  C6_17 
REMARK    5  A    between atoms: N7_20  and  N8_21 
ROOT
HETATM    1  C1  UNL     1      12.857  27.227  50.297  1.00  0.00     0.680 A 
HETATM    2  N2  UNL     1      14.200  27.373  50.247  1.00  0.00    -0.154 N 
ATOM      3  H2  UNL     1      14.644  28.184  50.677  1.00  0.00     0.187 HD
HETATM    4  C2  UNL     1      14.945  26.438  49.627  1.00  0.00     0.290 A 
HETATM    5  O1  UNL     1      16.196  26.565  49.575  1.00  0.00    -0.265 OA
HETATM    6  C3  UNL     1      14.290  25.370  49.068  1.00  0.00     0.147 A 
HETATM    7  N3  UNL     1      14.770  24.316  48.404  1.00  0.00    -0.345 N 
ATOM      8  H3  UNL     1      15.752  24.133  48.199  1.00  0.00     0.167 HD
HETATM    9  C4  UNL     1      13.731  23.537  48.054  1.00  0.00     0.187 A 
HETATM   10  N4  UNL     1      12.571  24.082  48.489  1.00  0.00    -0.310 N 
HETATM   11  C7  UNL     1      12.915  25.222  49.120  1.00  0.00     0.158 A 
HETATM   12  N11 UNL     1      12.216  26.178  49.749  1.00  0.00    -0.174 N 
ATOM     13  H11 UNL     1      11.200  26.110  49.812  1.00  0.00     0.186 HD
ENDROOT
BRANCH  10  14
HETATM   14  C5  UNL     1      11.236  23.554  48.315  1.00  0.00     0.257 C 
BRANCH  14  15
HETATM   15  N5  UNL     1      10.811  22.943  49.551  1.00  0.00    -0.343 N 
ATOM     16  H5  UNL     1      11.497  22.764  50.285  1.00  0.00     0.164 HD
BRANCH  15  17
HETATM   17  C6  UNL     1       9.451  22.590  49.761  1.00  0.00     0.211 C 
HETATM   18  N6  UNL     1       8.438  22.956  49.050  1.00  0.00    -0.235 N 
HETATM   19  N7  UNL     1       7.269  22.398  49.580  1.00  0.00    -0.119 N 
ATOM     20  H6  UNL     1       8.482  23.558  48.228  1.00  0.00     0.193 HD
HETATM   21  N9  UNL     1       7.696  21.329  50.376  1.00  0.00     0.020 NA
HETATM   22  N10 UNL     1       8.954  21.760  50.805  1.00  0.00    -0.251 N 
ATOM     23  H10 UNL     1       9.419  21.528  51.683  1.00  0.00     0.187 HD
BRANCH  19  24
HETATM   24  N8  UNL     1       5.944  22.795  49.383  1.00  0.00    -0.310 N 
ATOM     25  H82 UNL     1       5.514  23.018  48.486  1.00  0.00     0.180 HD
ATOM     26  H81 UNL     1       5.207  22.923  50.076  1.00  0.00     0.180 HD
ENDBRANCH  19  24
ENDBRANCH  15  17
ENDBRANCH  14  15
ENDBRANCH  10  14
BRANCH   1  27
HETATM   27  N1  UNL     1      12.122  28.118  50.892  1.00  0.00    -0.234 N 
ATOM     28  H12 UNL     1      12.402  29.092  50.785  1.00  0.00     0.174 HD
ATOM     29  H11 UNL     1      11.306  27.833  51.435  1.00  0.00     0.174 HD
ENDBRANCH   1  27
TORSDOF 5
ENDMDL
