MODEL 1
REMARK VINA RESULT: -8.372872986      0.000      0.000
REMARK  7 active torsions:
REMARK  status: ('A' for Active; 'I' for Inactive)
REMARK       I    between atoms: C2_3  and  N2_5 
REMARK    1  A    between atoms: N2_5  and  N3_7 
REMARK    2  A    between atoms: C3_9  and  C4_10 
REMARK    3  A    between atoms: C3_9  and  N5_15 
REMARK    4  A    between atoms: C4_10  and  N4_11 
REMARK    5  A    between atoms: N5_15  and  N6_17 
REMARK    6  A    between atoms: N6_17  and  C5_19 
REMARK    7  A    between atoms: C7_26  and  N10_27 
ROOT
HETATM    1  N1  UNL     1     -10.673  19.916 -13.674  1.00  0.00    -0.186 NA
HETATM    2  C1  UNL     1      -9.774  19.722 -12.969  1.00  0.00     0.163 C 
HETATM    3  C2  UNL     1      -8.662  19.504 -12.092  1.00  0.00     0.340 C 
HETATM    4  O1  UNL     1      -8.873  19.454 -10.862  1.00  0.00    -0.254 OA
HETATM    5  N2  UNL     1      -7.366  19.353 -12.657  1.00  0.00    -0.256 N 
ATOM      6  H2  UNL     1      -7.218  19.397 -13.665  1.00  0.00     0.191 HD
ENDROOT
BRANCH   5   7
HETATM    7  N3  UNL     1      -6.290  19.140 -11.762  1.00  0.00    -0.283 N 
HETATM    8  C3  UNL     1      -5.787  20.161 -11.142  1.00  0.00     0.137 C 
ATOM      9  H3  UNL     1      -5.918  18.202 -11.608  1.00  0.00     0.188 HD
BRANCH   8  10
HETATM   10  C4  UNL     1      -4.657  19.950 -10.200  1.00  0.00     0.308 C 
BRANCH  10  11
HETATM   11  N4  UNL     1      -5.188  19.539  -8.894  1.00  0.00    -0.073 N 
ATOM     12  H43 UNL     1      -5.569  18.592  -8.912  1.00  0.00     0.274 HD
ATOM     13  H42 UNL     1      -4.450  19.384  -8.208  1.00  0.00     0.274 HD
ATOM     14  H41 UNL     1      -5.873  20.226  -8.579  1.00  0.00     0.274 HD
ENDBRANCH  10  11
ENDBRANCH   8  10
BRANCH   8  15
HETATM   15  N5  UNL     1      -6.305  21.468 -11.356  1.00  0.00    -0.272 N 
ATOM     16  H5  UNL     1      -6.655  21.724 -12.279  1.00  0.00     0.189 HD
BRANCH  15  17
HETATM   17  N6  UNL     1      -6.342  22.392 -10.340  1.00  0.00    -0.130 N 
ATOM     18  H6  UNL     1      -5.528  22.994 -10.218  1.00  0.00     0.205 HD
BRANCH  17  19
HETATM   19  C5  UNL     1      -7.333  22.550  -9.529  1.00  0.00     0.713 A 
HETATM   20  N7  UNL     1      -7.883  23.765  -9.391  1.00  0.00    -0.161 N 
HETATM   21  C6  UNL     1      -8.930  23.989  -8.550  1.00  0.00     0.221 A 
ATOM     22  H7  UNL     1      -7.507  24.544  -9.932  1.00  0.00     0.187 HD
HETATM   23  N8  UNL     1      -9.510  25.286  -8.410  1.00  0.00    -0.062 NA
HETATM   24  N9  UNL     1      -9.390  22.929  -7.859  1.00  0.00    -0.163 N 
HETATM   25  C7  UNL     1      -8.840  21.711  -7.995  1.00  0.00     0.692 A 
ATOM     26  H9  UNL     1     -10.173  23.054  -7.217  1.00  0.00     0.187 HD
HETATM   27  N11 UNL     1      -7.799  21.498  -8.833  1.00  0.00    -0.021 N 
ATOM     28  H11 UNL     1      -7.383  20.572  -8.934  1.00  0.00     0.203 HD
BRANCH  25  29
HETATM   29  N10 UNL     1      -9.267  20.677  -7.338  1.00  0.00    -0.234 N 
ATOM     30 2H10 UNL     1     -10.266  20.657  -7.131  1.00  0.00     0.174 HD
ATOM     31 1H10 UNL     1      -8.648  19.922  -7.044  1.00  0.00     0.174 HD
ENDBRANCH  25  29
ENDBRANCH  17  19
ENDBRANCH  15  17
ENDBRANCH   8  15
ENDBRANCH   5   7
TORSDOF 7
ENDMDL
MODEL 2
REMARK VINA RESULT: -8.370937428      2.945      5.587
REMARK  7 active torsions:
REMARK  status: ('A' for Active; 'I' for Inactive)
REMARK       I    between atoms: C2_3  and  N2_5 
REMARK    1  A    between atoms: N2_5  and  N3_7 
REMARK    2  A    between atoms: C3_9  and  C4_10 
REMARK    3  A    between atoms: C3_9  and  N5_15 
REMARK    4  A    between atoms: C4_10  and  N4_11 
REMARK    5  A    between atoms: N5_15  and  N6_17 
REMARK    6  A    between atoms: N6_17  and  C5_19 
REMARK    7  A    between atoms: C7_26  and  N10_27 
ROOT
HETATM    1  N1  UNL     1     -15.068  24.775  -9.674  1.00  0.00    -0.186 NA
HETATM    2  C1  UNL     1     -13.948  24.931  -9.927  1.00  0.00     0.163 C 
HETATM    3  C2  UNL     1     -12.566  25.112 -10.260  1.00  0.00     0.340 C 
HETATM    4  O1  UNL     1     -12.269  25.928 -11.157  1.00  0.00    -0.254 OA
HETATM    5  N2  UNL     1     -11.590  24.356  -9.554  1.00  0.00    -0.256 N 
ATOM      6  H2  UNL     1     -11.856  23.695  -8.824  1.00  0.00     0.191 HD
ENDROOT
BRANCH   5   7
HETATM    7  N3  UNL     1     -10.234  24.558  -9.908  1.00  0.00    -0.283 N 
HETATM    8  C3  UNL     1      -9.322  23.889  -9.275  1.00  0.00     0.137 C 
ATOM      9  H3  UNL     1      -9.981  25.217 -10.644  1.00  0.00     0.188 HD
BRANCH   8  10
HETATM   10  C4  UNL     1      -7.895  24.093  -9.637  1.00  0.00     0.308 C 
BRANCH  10  11
HETATM   11  N4  UNL     1      -7.195  24.717  -8.507  1.00  0.00    -0.073 N 
ATOM     12  H43 UNL     1      -7.534  24.378  -7.606  1.00  0.00     0.274 HD
ATOM     13  H42 UNL     1      -6.230  24.398  -8.427  1.00  0.00     0.274 HD
ATOM     14  H41 UNL     1      -7.263  25.731  -8.589  1.00  0.00     0.274 HD
ENDBRANCH  10  11
ENDBRANCH   8  10
BRANCH   8  15
HETATM   15  N5  UNL     1      -9.675  22.970  -8.249  1.00  0.00    -0.272 N 
ATOM     16  H5  UNL     1      -9.978  23.324  -7.341  1.00  0.00     0.189 HD
BRANCH  15  17
HETATM   17  N6  UNL     1      -9.614  21.614  -8.459  1.00  0.00    -0.130 N 
ATOM     18  H6  UNL     1     -10.300  21.030  -7.981  1.00  0.00     0.205 HD
BRANCH  17  19
HETATM   19  C5  UNL     1      -8.751  21.028  -9.217  1.00  0.00     0.713 A 
HETATM   20  N7  UNL     1      -7.485  20.895  -8.795  1.00  0.00    -0.161 N 
HETATM   21  C6  UNL     1      -6.534  20.285  -9.554  1.00  0.00     0.221 A 
ATOM     22  H7  UNL     1      -7.228  21.262  -7.878  1.00  0.00     0.187 HD
HETATM   23  N8  UNL     1      -5.189  20.149  -9.097  1.00  0.00    -0.062 NA
HETATM   24  N9  UNL     1      -6.925  19.818 -10.755  1.00  0.00    -0.163 N 
HETATM   25  C7  UNL     1      -8.192  19.950 -11.180  1.00  0.00     0.692 A 
ATOM     26  H9  UNL     1      -6.243  19.355 -11.356  1.00  0.00     0.187 HD
HETATM   27  N11 UNL     1      -9.131  20.558 -10.419  1.00  0.00    -0.021 N 
ATOM     28  H11 UNL     1     -10.093  20.657 -10.744  1.00  0.00     0.203 HD
BRANCH  25  29
HETATM   29  N10 UNL     1      -8.589  19.508 -12.334  1.00  0.00    -0.234 N 
ATOM     30 2H10 UNL     1      -9.439  18.942 -12.331  1.00  0.00     0.174 HD
ATOM     31 1H10 UNL     1      -8.089  19.710 -13.199  1.00  0.00     0.174 HD
ENDBRANCH  25  29
ENDBRANCH  17  19
ENDBRANCH  15  17
ENDBRANCH   8  15
ENDBRANCH   5   7
TORSDOF 7
ENDMDL
MODEL 3
REMARK VINA RESULT: -8.292125051      2.979      5.626
REMARK  7 active torsions:
REMARK  status: ('A' for Active; 'I' for Inactive)
REMARK       I    between atoms: C2_3  and  N2_5 
REMARK    1  A    between atoms: N2_5  and  N3_7 
REMARK    2  A    between atoms: C3_9  and  C4_10 
REMARK    3  A    between atoms: C3_9  and  N5_15 
REMARK    4  A    between atoms: C4_10  and  N4_11 
REMARK    5  A    between atoms: N5_15  and  N6_17 
REMARK    6  A    between atoms: N6_17  and  C5_19 
REMARK    7  A    between atoms: C7_26  and  N10_27 
ROOT
HETATM    1  N1  UNL     1     -15.135  24.754  -9.698  1.00  0.00    -0.186 NA
HETATM    2  C1  UNL     1     -14.015  24.926  -9.939  1.00  0.00     0.163 C 
HETATM    3  C2  UNL     1     -12.632  25.126 -10.257  1.00  0.00     0.340 C 
HETATM    4  O1  UNL     1     -12.338  25.934 -11.163  1.00  0.00    -0.254 OA
HETATM    5  N2  UNL     1     -11.653  24.398  -9.527  1.00  0.00    -0.256 N 
ATOM      6  H2  UNL     1     -11.916  23.744  -8.791  1.00  0.00     0.191 HD
ENDROOT
BRANCH   5   7
HETATM    7  N3  UNL     1     -10.296  24.619  -9.866  1.00  0.00    -0.283 N 
HETATM    8  C3  UNL     1      -9.386  23.901  -9.286  1.00  0.00     0.137 C 
ATOM      9  H3  UNL     1     -10.039  25.329 -10.552  1.00  0.00     0.188 HD
BRANCH   8  10
HETATM   10  C4  UNL     1      -7.959  24.123  -9.634  1.00  0.00     0.308 C 
BRANCH  10  11
HETATM   11  N4  UNL     1      -7.286  24.786  -8.509  1.00  0.00    -0.073 N 
ATOM     12  H43 UNL     1      -6.970  25.727  -8.746  1.00  0.00     0.274 HD
ATOM     13  H42 UNL     1      -7.935  25.035  -7.763  1.00  0.00     0.274 HD
ATOM     14  H41 UNL     1      -6.524  24.193  -8.178  1.00  0.00     0.274 HD
ENDBRANCH  10  11
ENDBRANCH   8  10
BRANCH   8  15
HETATM   15  N5  UNL     1      -9.743  22.911  -8.330  1.00  0.00    -0.272 N 
ATOM     16  H5  UNL     1     -10.003  23.196  -7.386  1.00  0.00     0.189 HD
BRANCH  15  17
HETATM   17  N6  UNL     1      -9.743  21.576  -8.657  1.00  0.00    -0.130 N 
ATOM     18  H6  UNL     1     -10.495  20.997  -8.283  1.00  0.00     0.205 HD
BRANCH  17  19
HETATM   19  C5  UNL     1      -8.860  21.004  -9.402  1.00  0.00     0.713 A 
HETATM   20  N7  UNL     1      -9.217  20.537 -10.607  1.00  0.00    -0.161 N 
HETATM   21  C6  UNL     1      -8.325  19.925 -11.434  1.00  0.00     0.221 A 
ATOM     22  H7  UNL     1     -10.184  20.644 -10.913  1.00  0.00     0.187 HD
HETATM   23  N8  UNL     1      -8.715  19.431 -12.716  1.00  0.00    -0.062 NA
HETATM   24  N9  UNL     1      -7.061  19.809 -10.984  1.00  0.00    -0.163 N 
HETATM   25  C7  UNL     1      -6.701  20.277  -9.778  1.00  0.00     0.692 A 
ATOM     26  H9  UNL     1      -6.362  19.357 -11.573  1.00  0.00     0.187 HD
HETATM   27  N11 UNL     1      -7.594  20.883  -8.962  1.00  0.00    -0.021 N 
ATOM     28  H11 UNL     1      -7.318  21.236  -8.046  1.00  0.00     0.203 HD
BRANCH  25  29
HETATM   29  N10 UNL     1      -5.490  20.175  -9.325  1.00  0.00    -0.234 N 
ATOM     30 2H10 UNL     1      -4.938  19.397  -9.687  1.00  0.00     0.174 HD
ATOM     31 1H10 UNL     1      -5.102  20.831  -8.647  1.00  0.00     0.174 HD
ENDBRANCH  25  29
ENDBRANCH  17  19
ENDBRANCH  15  17
ENDBRANCH   8  15
ENDBRANCH   5   7
TORSDOF 7
ENDMDL
MODEL 4
REMARK VINA RESULT: -8.284454179      1.696      3.834
REMARK  7 active torsions:
REMARK  status: ('A' for Active; 'I' for Inactive)
REMARK       I    between atoms: C2_3  and  N2_5 
REMARK    1  A    between atoms: N2_5  and  N3_7 
REMARK    2  A    between atoms: C3_9  and  C4_10 
REMARK    3  A    between atoms: C3_9  and  N5_15 
REMARK    4  A    between atoms: C4_10  and  N4_11 
REMARK    5  A    between atoms: N5_15  and  N6_17 
REMARK    6  A    between atoms: N6_17  and  C5_19 
REMARK    7  A    between atoms: C7_26  and  N10_27 
ROOT
HETATM    1  N1  UNL     1      -4.893  19.613  -9.901  1.00  0.00    -0.186 NA
HETATM    2  C1  UNL     1      -5.676  19.622 -10.756  1.00  0.00     0.163 C 
HETATM    3  C2  UNL     1      -6.645  19.656 -11.811  1.00  0.00     0.340 C 
HETATM    4  O1  UNL     1      -6.288  20.058 -12.938  1.00  0.00    -0.254 OA
HETATM    5  N2  UNL     1      -7.972  19.229 -11.531  1.00  0.00    -0.256 N 
ATOM      6  H2  UNL     1      -8.242  18.904 -10.603  1.00  0.00     0.191 HD
ENDROOT
BRANCH   5   7
HETATM    7  N3  UNL     1      -8.905  19.276 -12.596  1.00  0.00    -0.283 N 
HETATM    8  C3  UNL     1      -9.844  20.169 -12.560  1.00  0.00     0.137 C 
ATOM      9  H3  UNL     1      -8.840  18.620 -13.374  1.00  0.00     0.188 HD
BRANCH   8  10
HETATM   10  C4  UNL     1     -10.829  20.228 -13.671  1.00  0.00     0.308 C 
BRANCH  10  11
HETATM   11  N4  UNL     1     -10.781  18.969 -14.424  1.00  0.00    -0.073 N 
ATOM     12  H43 UNL     1     -10.311  19.073 -15.324  1.00  0.00     0.274 HD
ATOM     13  H42 UNL     1     -10.144  18.292 -14.006  1.00  0.00     0.274 HD
ATOM     14  H41 UNL     1     -11.728  18.601 -14.522  1.00  0.00     0.274 HD
ENDBRANCH  10  11
ENDBRANCH   8  10
BRANCH   8  15
HETATM   15  N5  UNL     1      -9.934  21.084 -11.475  1.00  0.00    -0.272 N 
ATOM     16  H5  UNL     1     -10.559  20.878 -10.695  1.00  0.00     0.189 HD
BRANCH  15  17
HETATM   17  N6  UNL     1      -9.194  22.241 -11.459  1.00  0.00    -0.130 N 
ATOM     18  H6  UNL     1      -9.033  22.713 -12.348  1.00  0.00     0.205 HD
BRANCH  17  19
HETATM   19  C5  UNL     1      -8.687  22.773 -10.398  1.00  0.00     0.713 A 
HETATM   20  N7  UNL     1      -9.323  23.793  -9.804  1.00  0.00    -0.161 N 
HETATM   21  C6  UNL     1      -8.834  24.390  -8.683  1.00  0.00     0.221 A 
ATOM     22  H7  UNL     1     -10.200  24.130 -10.203  1.00  0.00     0.187 HD
HETATM   23  N8  UNL     1      -9.518  25.476  -8.057  1.00  0.00    -0.062 NA
HETATM   24  N9  UNL     1      -7.675  23.908  -8.195  1.00  0.00    -0.163 N 
HETATM   25  C7  UNL     1      -7.036  22.887  -8.789  1.00  0.00     0.692 A 
ATOM     26  H9  UNL     1      -7.274  24.328  -7.357  1.00  0.00     0.187 HD
HETATM   27  N11 UNL     1      -7.530  22.299  -9.903  1.00  0.00    -0.021 N 
ATOM     28  H11 UNL     1      -7.042  21.524 -10.352  1.00  0.00     0.203 HD
BRANCH  25  29
HETATM   29  N10 UNL     1      -5.918  22.408  -8.336  1.00  0.00    -0.234 N 
ATOM     30 2H10 UNL     1      -5.455  22.956  -7.611  1.00  0.00     0.174 HD
ATOM     31 1H10 UNL     1      -5.520  21.533  -8.677  1.00  0.00     0.174 HD
ENDBRANCH  25  29
ENDBRANCH  17  19
ENDBRANCH  15  17
ENDBRANCH   8  15
ENDBRANCH   5   7
TORSDOF 7
ENDMDL
MODEL 5
REMARK VINA RESULT: -8.245900865      2.022      3.528
REMARK  7 active torsions:
REMARK  status: ('A' for Active; 'I' for Inactive)
REMARK       I    between atoms: C2_3  and  N2_5 
REMARK    1  A    between atoms: N2_5  and  N3_7 
REMARK    2  A    between atoms: C3_9  and  C4_10 
REMARK    3  A    between atoms: C3_9  and  N5_15 
REMARK    4  A    between atoms: C4_10  and  N4_11 
REMARK    5  A    between atoms: N5_15  and  N6_17 
REMARK    6  A    between atoms: N6_17  and  C5_19 
REMARK    7  A    between atoms: C7_26  and  N10_27 
ROOT
HETATM    1  N1  UNL     1      -7.159  25.047  -8.824  1.00  0.00    -0.186 NA
HETATM    2  C1  UNL     1      -6.702  23.989  -8.942  1.00  0.00     0.163 C 
HETATM    3  C2  UNL     1      -6.118  22.687  -9.077  1.00  0.00     0.340 C 
HETATM    4  O1  UNL     1      -6.069  21.947  -8.072  1.00  0.00    -0.254 OA
HETATM    5  N2  UNL     1      -5.619  22.292 -10.348  1.00  0.00    -0.256 N 
ATOM      6  H2  UNL     1      -5.670  22.913 -11.156  1.00  0.00     0.191 HD
ENDROOT
BRANCH   5   7
HETATM    7  N3  UNL     1      -5.048  21.000 -10.447  1.00  0.00    -0.283 N 
HETATM    8  C3  UNL     1      -5.588  20.143 -11.256  1.00  0.00     0.137 C 
ATOM      9  H3  UNL     1      -4.229  20.749  -9.893  1.00  0.00     0.188 HD
BRANCH   8  10
HETATM   10  C4  UNL     1      -4.998  18.784 -11.368  1.00  0.00     0.308 C 
BRANCH  10  11
HETATM   11  N4  UNL     1      -5.613  18.083 -12.503  1.00  0.00    -0.073 N 
ATOM     12  H43 UNL     1      -5.995  18.728 -13.195  1.00  0.00     0.274 HD
ATOM     13  H42 UNL     1      -4.920  17.627 -13.097  1.00  0.00     0.274 HD
ATOM     14  H41 UNL     1      -6.314  17.430 -12.153  1.00  0.00     0.274 HD
ENDBRANCH  10  11
ENDBRANCH   8  10
BRANCH   8  15
HETATM   15  N5  UNL     1      -6.729  20.493 -12.029  1.00  0.00    -0.272 N 
ATOM     16  H5  UNL     1      -6.604  20.970 -12.922  1.00  0.00     0.189 HD
BRANCH  15  17
HETATM   17  N6  UNL     1      -7.998  20.201 -11.592  1.00  0.00    -0.130 N 
ATOM     18  H6  UNL     1      -8.478  19.411 -12.025  1.00  0.00     0.205 HD
BRANCH  17  19
HETATM   19  C5  UNL     1      -8.626  20.854 -10.674  1.00  0.00     0.713 A 
HETATM   20  N7  UNL     1      -9.264  21.990 -10.992  1.00  0.00    -0.161 N 
HETATM   21  C6  UNL     1      -9.942  22.718 -10.063  1.00  0.00     0.221 A 
ATOM     22  H7  UNL     1      -9.241  22.317 -11.958  1.00  0.00     0.187 HD
HETATM   23  N8  UNL     1     -10.619  23.926 -10.411  1.00  0.00    -0.062 NA
HETATM   24  N9  UNL     1      -9.943  22.244  -8.803  1.00  0.00    -0.163 N 
HETATM   25  C7  UNL     1      -9.305  21.106  -8.482  1.00  0.00     0.692 A 
ATOM     26  H9  UNL     1     -10.439  22.760  -8.076  1.00  0.00     0.187 HD
HETATM   27  N11 UNL     1      -8.633  20.389  -9.412  1.00  0.00    -0.021 N 
ATOM     28  H11 UNL     1      -8.148  19.526  -9.165  1.00  0.00     0.203 HD
BRANCH  25  29
HETATM   29  N10 UNL     1      -9.292  20.632  -7.274  1.00  0.00    -0.234 N 
ATOM     30 2H10 UNL     1      -9.933  21.071  -6.612  1.00  0.00     0.174 HD
ATOM     31 1H10 UNL     1      -8.682  19.864  -6.994  1.00  0.00     0.174 HD
ENDBRANCH  25  29
ENDBRANCH  17  19
ENDBRANCH  15  17
ENDBRANCH   8  15
ENDBRANCH   5   7
TORSDOF 7
ENDMDL
