MODEL 1
REMARK VINA RESULT: -7.708637765      0.000      0.000
REMARK  6 active torsions:
REMARK  status: ('A' for Active; 'I' for Inactive)
REMARK    1  A    between atoms: N1_1  and  C1_4 
REMARK    2  A    between atoms: C2_7  and  C3_8 
REMARK    3  A    between atoms: C3_8  and  C4_16 
REMARK    4  A    between atoms: N3_9  and  N4_11 
REMARK    5  A    between atoms: N4_11  and  N5_13 
REMARK    6  A    between atoms: C5_19  and  N7_20 
ROOT
HETATM    1  C1  UNL     1     -16.628 -27.307  18.049  1.00  0.00     0.677 A 
HETATM    2  N2  UNL     1     -15.416 -27.718  17.755  1.00  0.00    -0.187 N 
ATOM      3  H2  UNL     1     -15.264 -28.106  16.824  1.00  0.00     0.184 HD
HETATM    4  C2  UNL     1     -14.319 -27.664  18.614  1.00  0.00     0.119 A 
HETATM    5  C5  UNL     1     -14.613 -27.140  19.816  1.00  0.00     0.174 A 
HETATM    6  C6  UNL     1     -15.917 -26.690  20.150  1.00  0.00     0.167 A 
HETATM    7  N8  UNL     1     -16.137 -26.149  21.449  1.00  0.00    -0.079 NA
HETATM    8  N9  UNL     1     -16.870 -26.798  19.240  1.00  0.00    -0.177 N 
ATOM      9  H9  UNL     1     -17.813 -26.481  19.465  1.00  0.00     0.185 HD
ENDROOT
BRANCH   4  10
HETATM   10  C3  UNL     1     -13.071 -28.125  18.050  1.00  0.00     0.144 C 
HETATM   11  N3  UNL     1     -13.249 -28.500  16.782  1.00  0.00    -0.280 N 
ATOM     12  H3  UNL     1     -14.210 -28.393  16.455  1.00  0.00     0.188 HD
BRANCH  11  13
HETATM   13  N4  UNL     1     -12.434 -28.981  15.868  1.00  0.00    -0.249 N 
ATOM     14  H4  UNL     1     -11.464 -29.134  16.142  1.00  0.00     0.207 HD
BRANCH  13  15
HETATM   15  N5  UNL     1     -12.792 -29.306  14.528  1.00  0.00    -0.331 N 
ATOM     16  H52 UNL     1     -13.447 -28.672  14.072  1.00  0.00     0.178 HD
ATOM     17  H51 UNL     1     -12.449 -30.110  14.001  1.00  0.00     0.178 HD
ENDBRANCH  13  15
ENDBRANCH  11  13
BRANCH  10  18
HETATM   18  C4  UNL     1     -11.746 -28.251  18.521  1.00  0.00     0.285 C 
HETATM   19  N6  UNL     1     -11.373 -29.319  19.457  1.00  0.00    -0.056 NA
HETATM   20  O1  UNL     1     -10.741 -27.571  18.271  1.00  0.00    -0.269 OA
ENDBRANCH  10  18
ENDBRANCH   4  10
BRANCH   5  21
HETATM   21  N7  UNL     1     -13.673 -27.012  20.866  1.00  0.00    -0.110 N 
HETATM   22  O2  UNL     1     -12.924 -26.023  20.946  1.00  0.00    -0.532 OA
HETATM   23  O3  UNL     1     -13.543 -28.072  21.748  1.00  0.00    -0.532 OA
ENDBRANCH   5  21
BRANCH   1  24
HETATM   24  N1  UNL     1     -17.617 -27.382  17.214  1.00  0.00    -0.234 N 
ATOM     25  H12 UNL     1     -17.907 -26.524  16.745  1.00  0.00     0.174 HD
ATOM     26  H11 UNL     1     -18.109 -28.254  17.016  1.00  0.00     0.174 HD
ENDBRANCH   1  24
TORSDOF 6
ENDMDL
MODEL 2
REMARK VINA RESULT: -7.642094686      2.178      3.468
REMARK  6 active torsions:
REMARK  status: ('A' for Active; 'I' for Inactive)
REMARK    1  A    between atoms: N1_1  and  C1_4 
REMARK    2  A    between atoms: C2_7  and  C3_8 
REMARK    3  A    between atoms: C3_8  and  C4_16 
REMARK    4  A    between atoms: N3_9  and  N4_11 
REMARK    5  A    between atoms: N4_11  and  N5_13 
REMARK    6  A    between atoms: C5_19  and  N7_20 
ROOT
HETATM    1  C1  UNL     1     -16.217 -26.538  20.119  1.00  0.00     0.677 A 
HETATM    2  N2  UNL     1     -14.958 -26.903  20.050  1.00  0.00    -0.187 N 
ATOM      3  H2  UNL     1     -14.360 -26.678  20.845  1.00  0.00     0.184 HD
HETATM    4  C2  UNL     1     -14.373 -27.573  18.977  1.00  0.00     0.119 A 
HETATM    5  C5  UNL     1     -15.235 -27.824  17.976  1.00  0.00     0.174 A 
HETATM    6  C6  UNL     1     -16.600 -27.438  18.035  1.00  0.00     0.167 A 
HETATM    7  N8  UNL     1     -17.441 -27.746  16.928  1.00  0.00    -0.079 NA
HETATM    8  N9  UNL     1     -17.027 -26.807  19.116  1.00  0.00    -0.177 N 
ATOM      9  H9  UNL     1     -18.005 -26.522  19.173  1.00  0.00     0.185 HD
ENDROOT
BRANCH   4  10
HETATM   10  C3  UNL     1     -12.981 -27.918  19.150  1.00  0.00     0.144 C 
HETATM   11  N3  UNL     1     -12.255 -27.425  18.145  1.00  0.00    -0.280 N 
ATOM     12  H3  UNL     1     -12.805 -26.908  17.459  1.00  0.00     0.188 HD
BRANCH  11  13
HETATM   13  N4  UNL     1     -10.972 -27.472  17.861  1.00  0.00    -0.249 N 
ATOM     14  H4  UNL     1     -10.667 -28.180  17.192  1.00  0.00     0.207 HD
BRANCH  13  15
HETATM   15  N5  UNL     1      -9.971 -26.619  18.408  1.00  0.00    -0.331 N 
ATOM     16  H52 UNL     1      -9.112 -27.075  18.717  1.00  0.00     0.178 HD
ATOM     17  H51 UNL     1     -10.046 -25.607  18.511  1.00  0.00     0.178 HD
ENDBRANCH  13  15
ENDBRANCH  11  13
BRANCH  10  18
HETATM   18  C4  UNL     1     -12.239 -28.627  20.121  1.00  0.00     0.285 C 
HETATM   19  N6  UNL     1     -12.675 -28.675  21.522  1.00  0.00    -0.056 NA
HETATM   20  O1  UNL     1     -11.194 -29.282  20.006  1.00  0.00    -0.269 OA
ENDBRANCH  10  18
ENDBRANCH   4  10
BRANCH   5  21
HETATM   21  N7  UNL     1     -14.869 -28.464  16.769  1.00  0.00    -0.110 N 
HETATM   22  O2  UNL     1     -15.052 -29.681  16.601  1.00  0.00    -0.532 OA
HETATM   23  O3  UNL     1     -14.207 -27.709  15.815  1.00  0.00    -0.532 OA
ENDBRANCH   5  21
BRANCH   1  24
HETATM   24  N1  UNL     1     -16.713 -25.912  21.142  1.00  0.00    -0.234 N 
ATOM     25  H12 UNL     1     -16.614 -24.897  21.169  1.00  0.00     0.174 HD
ATOM     26  H11 UNL     1     -17.187 -26.391  21.907  1.00  0.00     0.174 HD
ENDBRANCH   1  24
TORSDOF 6
ENDMDL
MODEL 3
REMARK VINA RESULT: -7.545705150      1.788      1.937
REMARK  6 active torsions:
REMARK  status: ('A' for Active; 'I' for Inactive)
REMARK    1  A    between atoms: N1_1  and  C1_4 
REMARK    2  A    between atoms: C2_7  and  C3_8 
REMARK    3  A    between atoms: C3_8  and  C4_16 
REMARK    4  A    between atoms: N3_9  and  N4_11 
REMARK    5  A    between atoms: N4_11  and  N5_13 
REMARK    6  A    between atoms: C5_19  and  N7_20 
ROOT
HETATM    1  C1  UNL     1     -16.216 -27.255  17.873  1.00  0.00     0.677 A 
HETATM    2  N2  UNL     1     -14.963 -27.566  18.114  1.00  0.00    -0.187 N 
ATOM      3  H2  UNL     1     -14.420 -27.956  17.344  1.00  0.00     0.184 HD
HETATM    4  C2  UNL     1     -14.317 -27.404  19.338  1.00  0.00     0.119 A 
HETATM    5  C5  UNL     1     -15.109 -26.886  20.292  1.00  0.00     0.174 A 
HETATM    6  C6  UNL     1     -16.465 -26.543  20.048  1.00  0.00     0.167 A 
HETATM    7  N8  UNL     1     -17.231 -25.999  21.119  1.00  0.00    -0.079 NA
HETATM    8  N9  UNL     1     -16.956 -26.748  18.838  1.00  0.00    -0.177 N 
ATOM      9  H9  UNL     1     -17.929 -26.508  18.647  1.00  0.00     0.185 HD
ENDROOT
BRANCH   4  10
HETATM   10  C3  UNL     1     -12.918 -27.767  19.349  1.00  0.00     0.144 C 
HETATM   11  N3  UNL     1     -12.374 -27.542  18.152  1.00  0.00    -0.280 N 
ATOM     12  H3  UNL     1     -13.031 -27.165  17.469  1.00  0.00     0.188 HD
BRANCH  11  13
HETATM   13  N4  UNL     1     -11.160 -27.711  17.675  1.00  0.00    -0.249 N 
ATOM     14  H4  UNL     1     -10.952 -28.606  17.232  1.00  0.00     0.207 HD
BRANCH  13  15
HETATM   15  N5  UNL     1     -10.110 -26.749  17.724  1.00  0.00    -0.331 N 
ATOM     16  H52 UNL     1      -9.183 -27.082  17.459  1.00  0.00     0.178 HD
ATOM     17  H51 UNL     1     -10.214 -25.772  17.999  1.00  0.00     0.178 HD
ENDBRANCH  13  15
ENDBRANCH  11  13
BRANCH  10  18
HETATM   18  C4  UNL     1     -12.024 -28.278  20.316  1.00  0.00     0.285 C 
HETATM   19  N6  UNL     1     -10.820 -27.532  20.703  1.00  0.00    -0.056 NA
HETATM   20  O1  UNL     1     -12.065 -29.331  20.966  1.00  0.00    -0.269 OA
ENDBRANCH  10  18
ENDBRANCH   4  10
BRANCH   5  21
HETATM   21  N7  UNL     1     -14.688 -26.660  21.623  1.00  0.00    -0.110 N 
HETATM   22  O2  UNL     1     -14.160 -25.587  21.961  1.00  0.00    -0.532 OA
HETATM   23  O3  UNL     1     -14.793 -27.711  22.520  1.00  0.00    -0.532 OA
ENDBRANCH   5  21
BRANCH   1  24
HETATM   24  N1  UNL     1     -16.773 -27.429  16.715  1.00  0.00    -0.234 N 
ATOM     25  H12 UNL     1     -17.757 -27.177  16.620  1.00  0.00     0.174 HD
ATOM     26  H11 UNL     1     -16.271 -27.805  15.910  1.00  0.00     0.174 HD
ENDBRANCH   1  24
TORSDOF 6
ENDMDL
MODEL 4
REMARK VINA RESULT: -7.500352750      2.403      3.937
REMARK  6 active torsions:
REMARK  status: ('A' for Active; 'I' for Inactive)
REMARK    1  A    between atoms: N1_1  and  C1_4 
REMARK    2  A    between atoms: C2_7  and  C3_8 
REMARK    3  A    between atoms: C3_8  and  C4_16 
REMARK    4  A    between atoms: N3_9  and  N4_11 
REMARK    5  A    between atoms: N4_11  and  N5_13 
REMARK    6  A    between atoms: C5_19  and  N7_20 
ROOT
HETATM    1  C1  UNL     1     -12.589 -27.383  20.774  1.00  0.00     0.677 A 
HETATM    2  N2  UNL     1     -13.224 -27.657  19.658  1.00  0.00    -0.187 N 
ATOM      3  H2  UNL     1     -12.670 -28.010  18.877  1.00  0.00     0.184 HD
HETATM    4  C2  UNL     1     -14.594 -27.505  19.455  1.00  0.00     0.119 A 
HETATM    5  C5  UNL     1     -15.241 -27.034  20.536  1.00  0.00     0.174 A 
HETATM    6  C6  UNL     1     -14.570 -26.734  21.750  1.00  0.00     0.167 A 
HETATM    7  N8  UNL     1     -15.336 -26.239  22.844  1.00  0.00    -0.079 NA
HETATM    8  N9  UNL     1     -13.263 -26.925  21.809  1.00  0.00    -0.177 N 
ATOM      9  H9  UNL     1     -12.766 -26.713  22.674  1.00  0.00     0.185 HD
ENDROOT
BRANCH   4  10
HETATM   10  C3  UNL     1     -15.076 -27.923  18.159  1.00  0.00     0.144 C 
HETATM   11  N3  UNL     1     -14.749 -29.197  17.934  1.00  0.00    -0.280 N 
ATOM     12  H3  UNL     1     -14.233 -29.627  18.702  1.00  0.00     0.188 HD
BRANCH  11  13
HETATM   13  N4  UNL     1     -14.958 -30.009  16.921  1.00  0.00    -0.249 N 
ATOM     14  H4  UNL     1     -15.261 -30.958  17.138  1.00  0.00     0.207 HD
BRANCH  13  15
HETATM   15  N5  UNL     1     -14.797 -29.675  15.546  1.00  0.00    -0.331 N 
ATOM     16  H52 UNL     1     -15.614 -29.277  15.082  1.00  0.00     0.178 HD
ATOM     17  H51 UNL     1     -13.944 -29.802  15.001  1.00  0.00     0.178 HD
ENDBRANCH  13  15
ENDBRANCH  11  13
BRANCH  10  18
HETATM   18  C4  UNL     1     -15.804 -27.309  17.115  1.00  0.00     0.285 C 
HETATM   19  N6  UNL     1     -17.193 -27.692  16.833  1.00  0.00    -0.056 NA
HETATM   20  O1  UNL     1     -15.465 -26.423  16.319  1.00  0.00    -0.269 OA
ENDBRANCH  10  18
ENDBRANCH   4  10
BRANCH   5  21
HETATM   21  N7  UNL     1     -16.629 -26.766  20.563  1.00  0.00    -0.110 N 
HETATM   22  O2  UNL     1     -17.466 -27.683  20.518  1.00  0.00    -0.532 OA
HETATM   23  O3  UNL     1     -17.031 -25.440  20.541  1.00  0.00    -0.532 OA
ENDBRANCH   5  21
BRANCH   1  24
HETATM   24  N1  UNL     1     -11.308 -27.539  20.911  1.00  0.00    -0.234 N 
ATOM     25  H12 UNL     1     -10.726 -26.702  20.900  1.00  0.00     0.174 HD
ATOM     26  H11 UNL     1     -10.872 -28.454  21.024  1.00  0.00     0.174 HD
ENDBRANCH   1  24
TORSDOF 6
ENDMDL
MODEL 5
REMARK VINA RESULT: -7.443917591      0.714      2.239
REMARK  6 active torsions:
REMARK  status: ('A' for Active; 'I' for Inactive)
REMARK    1  A    between atoms: N1_1  and  C1_4 
REMARK    2  A    between atoms: C2_7  and  C3_8 
REMARK    3  A    between atoms: C3_8  and  C4_16 
REMARK    4  A    between atoms: N3_9  and  N4_11 
REMARK    5  A    between atoms: N4_11  and  N5_13 
REMARK    6  A    between atoms: C5_19  and  N7_20 
ROOT
HETATM    1  C1  UNL     1     -16.468 -27.335  18.218  1.00  0.00     0.677 A 
HETATM    2  N2  UNL     1     -15.237 -27.770  18.086  1.00  0.00    -0.187 N 
ATOM      3  H2  UNL     1     -14.987 -28.213  17.201  1.00  0.00     0.184 HD
HETATM    4  C2  UNL     1     -14.242 -27.676  19.059  1.00  0.00     0.119 A 
HETATM    5  C5  UNL     1     -14.662 -27.082  20.189  1.00  0.00     0.174 A 
HETATM    6  C6  UNL     1     -15.989 -26.603  20.347  1.00  0.00     0.167 A 
HETATM    7  N8  UNL     1     -16.345 -25.986  21.580  1.00  0.00    -0.079 NA
HETATM    8  N9  UNL     1     -16.835 -26.756  19.343  1.00  0.00    -0.177 N 
ATOM      9  H9  UNL     1     -17.793 -26.419  19.442  1.00  0.00     0.185 HD
ENDROOT
BRANCH   4  10
HETATM   10  C3  UNL     1     -12.946 -28.179  18.666  1.00  0.00     0.144 C 
HETATM   11  N3  UNL     1     -12.410 -28.895  19.656  1.00  0.00    -0.280 N 
ATOM     12  H3  UNL     1     -13.002 -28.953  20.485  1.00  0.00     0.188 HD
BRANCH  11  13
HETATM   13  N4  UNL     1     -11.271 -29.541  19.778  1.00  0.00    -0.249 N 
ATOM     14  H4  UNL     1     -10.894 -29.985  18.941  1.00  0.00     0.207 HD
BRANCH  13  15
HETATM   15  N5  UNL     1     -10.517 -29.671  20.980  1.00  0.00    -0.331 N 
ATOM     16  H52 UNL     1      -9.533 -29.410  20.923  1.00  0.00     0.178 HD
ATOM     17  H51 UNL     1     -10.881 -29.999  21.875  1.00  0.00     0.178 HD
ENDBRANCH  13  15
ENDBRANCH  11  13
BRANCH  10  18
HETATM   18  C4  UNL     1     -12.150 -28.095  17.502  1.00  0.00     0.285 C 
HETATM   19  N6  UNL     1     -12.676 -28.507  16.194  1.00  0.00    -0.056 NA
HETATM   20  O1  UNL     1     -10.986 -27.700  17.357  1.00  0.00    -0.269 OA
ENDBRANCH  10  18
ENDBRANCH   4  10
BRANCH   5  21
HETATM   21  N7  UNL     1     -13.844 -26.900  21.329  1.00  0.00    -0.110 N 
HETATM   22  O2  UNL     1     -13.159 -25.874  21.477  1.00  0.00    -0.532 OA
HETATM   23  O3  UNL     1     -13.753 -27.949  22.230  1.00  0.00    -0.532 OA
ENDBRANCH   5  21
BRANCH   1  24
HETATM   24  N1  UNL     1     -17.358 -27.450  17.281  1.00  0.00    -0.234 N 
ATOM     25  H12 UNL     1     -17.052 -27.317  16.318  1.00  0.00     0.174 HD
ATOM     26  H11 UNL     1     -18.338 -27.661  17.473  1.00  0.00     0.174 HD
ENDBRANCH   1  24
TORSDOF 6
ENDMDL
