MODEL 1
REMARK VINA RESULT: -8.246313689      0.000      0.000
REMARK  12 active torsions:
REMARK  status: ('A' for Active; 'I' for Inactive)
REMARK       I    between atoms: N1_1  and  C1_4 
REMARK       I    between atoms: C1_4  and  N2_5 
REMARK       I    between atoms: C1_4  and  N9_42 
REMARK    1  A    between atoms: N2_5  and  C2_7 
REMARK    2  A    between atoms: C3_9  and  C4_10 
REMARK    3  A    between atoms: C4_10  and  N3_11 
REMARK    4  A    between atoms: N3_11  and  C5_14 
REMARK    5  A    between atoms: C5_14  and  O2_15 
REMARK    6  A    between atoms: C5_14  and  O3_17 
REMARK    7  A    between atoms: C7_22  and  C8_23 
REMARK    8  A    between atoms: C8_23  and  C9_25 
REMARK       I    between atoms: C9_25  and  N5_27 
REMARK    9  A    between atoms: N5_27  and  C10_29 
REMARK   10  A    between atoms: C11_34  and  S1_35 
REMARK   11  A    between atoms: S1_35  and  N8_36 
REMARK   12  A    between atoms: N9_42  and  O9_44 
ROOT
HETATM    1  C2  UNL     1     -32.640 -26.153  17.932  1.00  0.00     0.194 A 
HETATM    2  O1  UNL     1     -33.480 -27.133  17.749  1.00  0.00    -0.292 OA
HETATM    3  C3  UNL     1     -34.409 -27.491  18.602  1.00  0.00     0.096 A 
HETATM    4  C6  UNL     1     -34.536 -26.807  19.790  1.00  0.00     0.123 A 
HETATM    5  N4  UNL     1     -33.692 -25.789  20.020  1.00  0.00    -0.357 N 
ATOM      6  H4  UNL     1     -33.769 -25.267  20.893  1.00  0.00     0.165 HD
HETATM    7  C7  UNL     1     -32.731 -25.434  19.115  1.00  0.00     0.141 A 
ENDROOT
BRANCH   7   8
HETATM    8  C8  UNL     1     -31.845 -24.329  19.413  1.00  0.00     0.270 C 
HETATM    9  O4  UNL     1     -30.616 -24.475  19.247  1.00  0.00    -0.280 OA
BRANCH   8  10
HETATM   10  C9  UNL     1     -32.380 -23.081  19.894  1.00  0.00     0.301 C 
HETATM   11  O5  UNL     1     -32.958 -23.046  21.006  1.00  0.00    -0.264 OA
HETATM   12  N5  UNL     1     -32.280 -21.874  19.154  1.00  0.00    -0.284 N 
ATOM     13  H5  UNL     1     -32.981 -21.654  18.446  1.00  0.00     0.172 HD
BRANCH  12  14
HETATM   14  C10 UNL     1     -31.300 -21.050  19.373  1.00  0.00     0.248 A 
HETATM   15  N6  UNL     1     -30.194 -21.271  20.100  1.00  0.00    -0.262 N 
HETATM   16  N7  UNL     1     -29.454 -20.176  20.069  1.00  0.00    -0.265 N 
ATOM     17  H6  UNL     1     -29.963 -22.135  20.590  1.00  0.00     0.190 HD
HETATM   18  C11 UNL     1     -30.094 -19.277  19.329  1.00  0.00     0.284 A 
ATOM     19  H7  UNL     1     -28.554 -20.046  20.530  1.00  0.00     0.190 HD
HETATM   20  O8  UNL     1     -31.210 -19.829  18.919  1.00  0.00    -0.248 OA
BRANCH  18  21
HETATM   21  S1  UNL     1     -29.640 -17.641  18.910  1.00  0.00     0.297 S 
HETATM   22  O6  UNL     1     -28.267 -17.328  19.426  1.00  0.00    -0.197 OA
HETATM   23  O7  UNL     1     -29.731 -17.453  17.427  1.00  0.00    -0.197 OA
BRANCH  21  24
HETATM   24  N8  UNL     1     -30.827 -16.596  19.641  1.00  0.00    -0.321 N 
ATOM     25  H82 UNL     1     -31.394 -16.814  20.461  1.00  0.00     0.169 HD
ATOM     26  H81 UNL     1     -30.838 -15.739  19.089  1.00  0.00     0.169 HD
ENDBRANCH  21  24
ENDBRANCH  18  21
ENDBRANCH  12  14
ENDBRANCH   8  10
ENDBRANCH   7   8
BRANCH   1  27
HETATM   27  N2  UNL     1     -31.728 -25.801  17.091  1.00  0.00    -0.166 N 
HETATM   28  C1  UNL     1     -31.090 -26.695  16.190  1.00  0.00     0.697 C 
HETATM   29  N1  UNL     1     -31.784 -27.588  15.570  1.00  0.00    -0.233 N 
HETATM   30  N9  UNL     1     -29.704 -26.656  15.932  1.00  0.00    -0.099 N 
ATOM     31  H12 UNL     1     -32.787 -27.616  15.757  1.00  0.00     0.174 HD
ATOM     32  H11 UNL     1     -31.326 -28.229  14.922  1.00  0.00     0.174 HD
ATOM     33  H9  UNL     1     -29.200 -25.770  15.976  1.00  0.00     0.213 HD
ATOM     34  H2  UNL     1     -31.448 -24.821  17.072  1.00  0.00     0.186 HD
BRANCH  30  35
HETATM   35  O9  UNL     1     -29.052 -27.785  15.629  1.00  0.00    -0.276 OA
ATOM     36  H9  UNL     1     -28.249 -27.745  15.123  1.00  0.00     0.245 HD
ENDBRANCH  30  35
ENDBRANCH   1  27
BRANCH   3  37
HETATM   37  C4  UNL     1     -35.336 -28.637  18.309  1.00  0.00     0.304 C 
BRANCH  37  38
HETATM   38  N3  UNL     1     -34.898 -29.330  17.113  1.00  0.00    -0.019 N 
ATOM     39  H32 UNL     1     -35.487 -29.127  16.305  1.00  0.00     0.283 HD
ATOM     40  H31 UNL     1     -34.022 -28.960  16.744  1.00  0.00     0.283 HD
BRANCH  38  41
HETATM   41  C5  UNL     1     -34.825 -30.742  17.406  1.00  0.00     0.464 C 
BRANCH  41  42
HETATM   42  O2  UNL     1     -33.608 -31.311  17.113  1.00  0.00    -0.350 OA
ATOM     43  H2  UNL     1     -33.648 -32.247  16.957  1.00  0.00     0.214 HD
ENDBRANCH  41  42
BRANCH  41  44
HETATM   44  O3  UNL     1     -35.133 -31.003  18.739  1.00  0.00    -0.350 OA
ATOM     45  H3  UNL     1     -34.431 -30.733  19.318  1.00  0.00     0.214 HD
ENDBRANCH  41  44
ENDBRANCH  38  41
ENDBRANCH  37  38
ENDBRANCH   3  37
TORSDOF 12
ENDMDL
MODEL 2
REMARK VINA RESULT: -8.029563777      1.185      1.344
REMARK  12 active torsions:
REMARK  status: ('A' for Active; 'I' for Inactive)
REMARK       I    between atoms: N1_1  and  C1_4 
REMARK       I    between atoms: C1_4  and  N2_5 
REMARK       I    between atoms: C1_4  and  N9_42 
REMARK    1  A    between atoms: N2_5  and  C2_7 
REMARK    2  A    between atoms: C3_9  and  C4_10 
REMARK    3  A    between atoms: C4_10  and  N3_11 
REMARK    4  A    between atoms: N3_11  and  C5_14 
REMARK    5  A    between atoms: C5_14  and  O2_15 
REMARK    6  A    between atoms: C5_14  and  O3_17 
REMARK    7  A    between atoms: C7_22  and  C8_23 
REMARK    8  A    between atoms: C8_23  and  C9_25 
REMARK       I    between atoms: C9_25  and  N5_27 
REMARK    9  A    between atoms: N5_27  and  C10_29 
REMARK   10  A    between atoms: C11_34  and  S1_35 
REMARK   11  A    between atoms: S1_35  and  N8_36 
REMARK   12  A    between atoms: N9_42  and  O9_44 
ROOT
HETATM    1  C2  UNL     1     -32.611 -26.162  17.945  1.00  0.00     0.194 A 
HETATM    2  O1  UNL     1     -33.441 -27.148  17.756  1.00  0.00    -0.292 OA
HETATM    3  C3  UNL     1     -34.374 -27.514  18.602  1.00  0.00     0.096 A 
HETATM    4  C6  UNL     1     -34.516 -26.830  19.789  1.00  0.00     0.123 A 
HETATM    5  N4  UNL     1     -33.682 -25.806  20.024  1.00  0.00    -0.357 N 
ATOM      6  H4  UNL     1     -33.770 -25.284  20.896  1.00  0.00     0.165 HD
HETATM    7  C7  UNL     1     -32.717 -25.443  19.127  1.00  0.00     0.141 A 
ENDROOT
BRANCH   7   8
HETATM    8  C8  UNL     1     -31.842 -24.331  19.432  1.00  0.00     0.270 C 
HETATM    9  O4  UNL     1     -30.608 -24.479  19.311  1.00  0.00    -0.280 OA
BRANCH   8  10
HETATM   10  C9  UNL     1     -32.394 -23.074  19.869  1.00  0.00     0.301 C 
HETATM   11  O5  UNL     1     -33.014 -23.018  20.957  1.00  0.00    -0.264 OA
HETATM   12  N5  UNL     1     -32.264 -21.882  19.111  1.00  0.00    -0.284 N 
ATOM     13  H5  UNL     1     -32.938 -21.674  18.373  1.00  0.00     0.172 HD
BRANCH  12  14
HETATM   14  C10 UNL     1     -31.293 -21.053  19.351  1.00  0.00     0.248 A 
HETATM   15  N6  UNL     1     -30.207 -21.267  20.110  1.00  0.00    -0.262 N 
HETATM   16  N7  UNL     1     -29.469 -20.171  20.092  1.00  0.00    -0.265 N 
ATOM     17  H6  UNL     1     -29.989 -22.126  20.614  1.00  0.00     0.190 HD
HETATM   18  C11 UNL     1     -30.090 -19.279  19.327  1.00  0.00     0.284 A 
ATOM     19  H7  UNL     1     -28.583 -20.034  20.578  1.00  0.00     0.190 HD
HETATM   20  O8  UNL     1     -31.192 -19.836  18.890  1.00  0.00    -0.248 OA
BRANCH  18  21
HETATM   21  S1  UNL     1     -29.627 -17.645  18.909  1.00  0.00     0.297 S 
HETATM   22  O6  UNL     1     -28.252 -17.338  19.426  1.00  0.00    -0.197 OA
HETATM   23  O7  UNL     1     -29.716 -17.456  17.425  1.00  0.00    -0.197 OA
BRANCH  21  24
HETATM   24  N8  UNL     1     -30.809 -16.594  19.640  1.00  0.00    -0.321 N 
ATOM     25  H82 UNL     1     -31.703 -16.883  20.039  1.00  0.00     0.169 HD
ATOM     26  H81 UNL     1     -30.429 -15.650  19.586  1.00  0.00     0.169 HD
ENDBRANCH  21  24
ENDBRANCH  18  21
ENDBRANCH  12  14
ENDBRANCH   8  10
ENDBRANCH   7   8
BRANCH   1  27
HETATM   27  N2  UNL     1     -31.695 -25.803  17.112  1.00  0.00    -0.166 N 
HETATM   28  C1  UNL     1     -31.088 -26.678  16.171  1.00  0.00     0.697 C 
HETATM   29  N1  UNL     1     -31.812 -27.525  15.522  1.00  0.00    -0.233 N 
HETATM   30  N9  UNL     1     -29.704 -26.668  15.904  1.00  0.00    -0.099 N 
ATOM     31  H12 UNL     1     -32.814 -27.532  15.715  1.00  0.00     0.174 HD
ATOM     32  H11 UNL     1     -31.376 -28.153  14.846  1.00  0.00     0.174 HD
ATOM     33  H9  UNL     1     -29.175 -25.800  15.979  1.00  0.00     0.213 HD
ATOM     34  H2  UNL     1     -31.387 -24.831  17.129  1.00  0.00     0.186 HD
BRANCH  30  35
HETATM   35  O9  UNL     1     -29.087 -27.802  15.551  1.00  0.00    -0.276 OA
ATOM     36  H9  UNL     1     -28.494 -27.806  14.809  1.00  0.00     0.245 HD
ENDBRANCH  30  35
ENDBRANCH   1  27
BRANCH   3  37
HETATM   37  C4  UNL     1     -35.290 -28.667  18.301  1.00  0.00     0.304 C 
BRANCH  37  38
HETATM   38  N3  UNL     1     -35.247 -28.972  16.884  1.00  0.00    -0.019 N 
ATOM     39  H32 UNL     1     -34.306 -29.194  16.559  1.00  0.00     0.283 HD
ATOM     40  H31 UNL     1     -35.685 -29.866  16.663  1.00  0.00     0.283 HD
BRANCH  38  41
HETATM   41  C5  UNL     1     -35.839 -27.869  16.163  1.00  0.00     0.464 C 
BRANCH  41  42
HETATM   42  O2  UNL     1     -35.004 -27.299  15.232  1.00  0.00    -0.350 OA
ATOM     43  H2  UNL     1     -35.302 -27.395  14.336  1.00  0.00     0.214 HD
ENDBRANCH  41  42
BRANCH  41  44
HETATM   44  O3  UNL     1     -37.022 -28.248  15.533  1.00  0.00    -0.350 OA
ATOM     45  H3  UNL     1     -37.227 -27.674  14.805  1.00  0.00     0.214 HD
ENDBRANCH  41  44
ENDBRANCH  38  41
ENDBRANCH  37  38
ENDBRANCH   3  37
TORSDOF 12
ENDMDL
MODEL 3
REMARK VINA RESULT: -8.007431275      2.909      4.536
REMARK  12 active torsions:
REMARK  status: ('A' for Active; 'I' for Inactive)
REMARK       I    between atoms: N1_1  and  C1_4 
REMARK       I    between atoms: C1_4  and  N2_5 
REMARK       I    between atoms: C1_4  and  N9_42 
REMARK    1  A    between atoms: N2_5  and  C2_7 
REMARK    2  A    between atoms: C3_9  and  C4_10 
REMARK    3  A    between atoms: C4_10  and  N3_11 
REMARK    4  A    between atoms: N3_11  and  C5_14 
REMARK    5  A    between atoms: C5_14  and  O2_15 
REMARK    6  A    between atoms: C5_14  and  O3_17 
REMARK    7  A    between atoms: C7_22  and  C8_23 
REMARK    8  A    between atoms: C8_23  and  C9_25 
REMARK       I    between atoms: C9_25  and  N5_27 
REMARK    9  A    between atoms: N5_27  and  C10_29 
REMARK   10  A    between atoms: C11_34  and  S1_35 
REMARK   11  A    between atoms: S1_35  and  N8_36 
REMARK   12  A    between atoms: N9_42  and  O9_44 
ROOT
HETATM    1  C2  UNL     1     -31.560 -24.774  20.546  1.00  0.00     0.194 A 
HETATM    2  O1  UNL     1     -30.745 -25.306  19.680  1.00  0.00    -0.292 OA
HETATM    3  C3  UNL     1     -30.464 -24.794  18.506  1.00  0.00     0.096 A 
HETATM    4  C6  UNL     1     -31.055 -23.610  18.124  1.00  0.00     0.123 A 
HETATM    5  N4  UNL     1     -31.901 -23.027  18.987  1.00  0.00    -0.357 N 
ATOM      6  H4  UNL     1     -32.349 -22.149  18.726  1.00  0.00     0.165 HD
HETATM    7  C7  UNL     1     -32.179 -23.579  20.205  1.00  0.00     0.141 A 
ENDROOT
BRANCH   7   8
HETATM    8  C8  UNL     1     -33.101 -22.909  21.098  1.00  0.00     0.270 C 
HETATM    9  O4  UNL     1     -34.275 -23.326  21.181  1.00  0.00    -0.280 OA
BRANCH   8  10
HETATM   10  C9  UNL     1     -32.664 -21.778  21.875  1.00  0.00     0.301 C 
HETATM   11  O5  UNL     1     -32.324 -21.945  23.070  1.00  0.00    -0.264 OA
HETATM   12  N5  UNL     1     -32.602 -20.465  21.340  1.00  0.00    -0.284 N 
ATOM     13  H5  UNL     1     -33.434 -19.875  21.346  1.00  0.00     0.172 HD
BRANCH  12  14
HETATM   14  C10 UNL     1     -31.492 -20.011  20.841  1.00  0.00     0.248 A 
HETATM   15  N6  UNL     1     -30.281 -20.590  20.883  1.00  0.00    -0.262 N 
HETATM   16  N7  UNL     1     -29.426 -19.801  20.258  1.00  0.00    -0.265 N 
ATOM     17  H6  UNL     1     -30.060 -21.483  21.322  1.00  0.00     0.190 HD
HETATM   18  C11 UNL     1     -30.096 -18.737  19.829  1.00  0.00     0.284 A 
ATOM     19  H7  UNL     1     -28.429 -19.977  20.129  1.00  0.00     0.190 HD
HETATM   20  O8  UNL     1     -31.345 -18.887  20.194  1.00  0.00    -0.248 OA
BRANCH  18  21
HETATM   21  S1  UNL     1     -29.533 -17.341  18.938  1.00  0.00     0.297 S 
HETATM   22  O6  UNL     1     -28.098 -17.050  19.266  1.00  0.00    -0.197 OA
HETATM   23  O7  UNL     1     -29.732 -17.561  17.470  1.00  0.00    -0.197 OA
BRANCH  21  24
HETATM   24  N8  UNL     1     -30.555 -16.010  19.408  1.00  0.00    -0.321 N 
ATOM     25  H82 UNL     1     -30.270 -15.200  19.960  1.00  0.00     0.169 HD
ATOM     26  H81 UNL     1     -31.479 -16.206  19.025  1.00  0.00     0.169 HD
ENDBRANCH  21  24
ENDBRANCH  18  21
ENDBRANCH  12  14
ENDBRANCH   8  10
ENDBRANCH   7   8
BRANCH   1  27
HETATM   27  N2  UNL     1     -31.835 -25.277  21.701  1.00  0.00    -0.166 N 
HETATM   28  C1  UNL     1     -30.937 -25.279  22.802  1.00  0.00     0.697 C 
HETATM   29  N1  UNL     1     -30.233 -24.229  23.058  1.00  0.00    -0.233 N 
HETATM   30  N9  UNL     1     -30.773 -26.393  23.649  1.00  0.00    -0.099 N 
ATOM     31  H12 UNL     1     -30.352 -23.423  22.445  1.00  0.00     0.174 HD
ATOM     32  H11 UNL     1     -29.588 -24.230  23.849  1.00  0.00     0.174 HD
ATOM     33  H9  UNL     1     -31.556 -27.023  23.824  1.00  0.00     0.213 HD
ATOM     34  H2  UNL     1     -32.754 -25.700  21.832  1.00  0.00     0.186 HD
BRANCH  30  35
HETATM   35  O9  UNL     1     -29.586 -26.623  24.223  1.00  0.00    -0.276 OA
ATOM     36  H9  UNL     1     -29.497 -27.320  24.862  1.00  0.00     0.245 HD
ENDBRANCH  30  35
ENDBRANCH   1  27
BRANCH   3  37
HETATM   37  C4  UNL     1     -29.510 -25.477  17.567  1.00  0.00     0.304 C 
BRANCH  37  38
HETATM   38  N3  UNL     1     -30.168 -25.739  16.301  1.00  0.00    -0.019 N 
ATOM     39  H32 UNL     1     -31.135 -25.415  16.289  1.00  0.00     0.283 HD
ATOM     40  H31 UNL     1     -29.815 -25.151  15.547  1.00  0.00     0.283 HD
BRANCH  38  41
HETATM   41  C5  UNL     1     -30.051 -27.148  16.009  1.00  0.00     0.464 C 
BRANCH  41  42
HETATM   42  O2  UNL     1     -31.191 -27.707  15.483  1.00  0.00    -0.350 OA
ATOM     43  H2  UNL     1     -31.950 -27.640  16.051  1.00  0.00     0.214 HD
ENDBRANCH  41  42
BRANCH  41  44
HETATM   44  O3  UNL     1     -28.987 -27.404  15.148  1.00  0.00    -0.350 OA
ATOM     45  H3  UNL     1     -28.859 -28.336  15.019  1.00  0.00     0.214 HD
ENDBRANCH  41  44
ENDBRANCH  38  41
ENDBRANCH  37  38
ENDBRANCH   3  37
TORSDOF 12
ENDMDL
MODEL 4
REMARK VINA RESULT: -7.850987990      2.739      4.384
REMARK  12 active torsions:
REMARK  status: ('A' for Active; 'I' for Inactive)
REMARK       I    between atoms: N1_1  and  C1_4 
REMARK       I    between atoms: C1_4  and  N2_5 
REMARK       I    between atoms: C1_4  and  N9_42 
REMARK    1  A    between atoms: N2_5  and  C2_7 
REMARK    2  A    between atoms: C3_9  and  C4_10 
REMARK    3  A    between atoms: C4_10  and  N3_11 
REMARK    4  A    between atoms: N3_11  and  C5_14 
REMARK    5  A    between atoms: C5_14  and  O2_15 
REMARK    6  A    between atoms: C5_14  and  O3_17 
REMARK    7  A    between atoms: C7_22  and  C8_23 
REMARK    8  A    between atoms: C8_23  and  C9_25 
REMARK       I    between atoms: C9_25  and  N5_27 
REMARK    9  A    between atoms: N5_27  and  C10_29 
REMARK   10  A    between atoms: C11_34  and  S1_35 
REMARK   11  A    between atoms: S1_35  and  N8_36 
REMARK   12  A    between atoms: N9_42  and  O9_44 
ROOT
HETATM    1  C2  UNL     1     -33.595 -23.316  19.280  1.00  0.00     0.194 A 
HETATM    2  O1  UNL     1     -33.204 -24.117  18.329  1.00  0.00    -0.292 OA
HETATM    3  C3  UNL     1     -32.263 -25.022  18.453  1.00  0.00     0.096 A 
HETATM    4  C6  UNL     1     -31.617 -25.166  19.661  1.00  0.00     0.123 A 
HETATM    5  N4  UNL     1     -31.989 -24.362  20.668  1.00  0.00    -0.357 N 
ATOM      6  H4  UNL     1     -31.526 -24.451  21.572  1.00  0.00     0.165 HD
HETATM    7  C7  UNL     1     -32.972 -23.425  20.515  1.00  0.00     0.141 A 
ENDROOT
BRANCH   7   8
HETATM    8  C8  UNL     1     -33.334 -22.582  21.635  1.00  0.00     0.270 C 
HETATM    9  O4  UNL     1     -34.536 -22.489  21.961  1.00  0.00    -0.280 OA
BRANCH   8  10
HETATM   10  C9  UNL     1     -32.317 -21.862  22.358  1.00  0.00     0.301 C 
HETATM   11  O5  UNL     1     -31.625 -22.464  23.212  1.00  0.00    -0.264 OA
HETATM   12  N5  UNL     1     -32.062 -20.483  22.142  1.00  0.00    -0.284 N 
ATOM     13  H5  UNL     1     -32.610 -19.781  22.642  1.00  0.00     0.172 HD
BRANCH  12  14
HETATM   14  C10 UNL     1     -31.136 -20.108  21.312  1.00  0.00     0.248 A 
HETATM   15  N6  UNL     1     -30.101 -20.835  20.861  1.00  0.00    -0.262 N 
HETATM   16  N7  UNL     1     -29.398 -20.082  20.035  1.00  0.00    -0.265 N 
ATOM     17  H6  UNL     1     -29.894 -21.801  21.113  1.00  0.00     0.190 HD
HETATM   18  C11 UNL     1     -29.988 -18.893  19.969  1.00  0.00     0.284 A 
ATOM     19  H7  UNL     1     -28.553 -20.363  19.536  1.00  0.00     0.190 HD
HETATM   20  O8  UNL     1     -31.038 -18.934  20.751  1.00  0.00    -0.248 OA
BRANCH  18  21
HETATM   21  S1  UNL     1     -29.545 -17.470  19.053  1.00  0.00     0.297 S 
HETATM   22  O6  UNL     1     -28.119 -17.093  19.324  1.00  0.00    -0.197 OA
HETATM   23  O7  UNL     1     -29.788 -17.709  17.594  1.00  0.00    -0.197 OA
BRANCH  21  24
HETATM   24  N8  UNL     1     -30.627 -16.201  19.560  1.00  0.00    -0.321 N 
ATOM     25  H82 UNL     1     -31.642 -16.273  19.637  1.00  0.00     0.169 HD
ATOM     26  H81 UNL     1     -30.044 -15.388  19.760  1.00  0.00     0.169 HD
ENDBRANCH  21  24
ENDBRANCH  18  21
ENDBRANCH  12  14
ENDBRANCH   8  10
ENDBRANCH   7   8
BRANCH   1  27
HETATM   27  N2  UNL     1     -34.521 -22.427  19.157  1.00  0.00    -0.166 N 
HETATM   28  C1  UNL     1     -35.624 -22.545  18.269  1.00  0.00     0.697 C 
HETATM   29  N1  UNL     1     -36.233 -23.676  18.147  1.00  0.00    -0.233 N 
HETATM   30  N9  UNL     1     -36.099 -21.466  17.497  1.00  0.00    -0.099 N 
ATOM     31  H12 UNL     1     -35.889 -24.457  18.707  1.00  0.00     0.174 HD
ATOM     32  H11 UNL     1     -37.025 -23.760  17.510  1.00  0.00     0.174 HD
ATOM     33  H9  UNL     1     -36.022 -20.512  17.849  1.00  0.00     0.213 HD
ATOM     34  H2  UNL     1     -34.458 -21.588  19.732  1.00  0.00     0.186 HD
BRANCH  30  35
HETATM   35  O9  UNL     1     -36.650 -21.697  16.299  1.00  0.00    -0.276 OA
ATOM     36  H9  UNL     1     -36.250 -21.336  15.517  1.00  0.00     0.245 HD
ENDBRANCH  30  35
ENDBRANCH   1  27
BRANCH   3  37
HETATM   37  C4  UNL     1     -31.875 -25.905  17.301  1.00  0.00     0.304 C 
BRANCH  37  38
HETATM   38  N3  UNL     1     -30.465 -25.738  17.007  1.00  0.00    -0.019 N 
ATOM     39  H32 UNL     1     -30.198 -24.758  16.913  1.00  0.00     0.283 HD
ATOM     40  H31 UNL     1     -29.869 -25.969  17.802  1.00  0.00     0.283 HD
BRANCH  38  41
HETATM   41  C5  UNL     1     -30.149 -26.515  15.832  1.00  0.00     0.464 C 
BRANCH  41  42
HETATM   42  O2  UNL     1     -28.833 -26.904  15.757  1.00  0.00    -0.350 OA
ATOM     43  H2  UNL     1     -28.277 -26.295  15.287  1.00  0.00     0.214 HD
ENDBRANCH  41  42
BRANCH  41  44
HETATM   44  O3  UNL     1     -30.957 -27.645  15.735  1.00  0.00    -0.350 OA
ATOM     45  H3  UNL     1     -31.863 -27.412  15.570  1.00  0.00     0.214 HD
ENDBRANCH  41  44
ENDBRANCH  38  41
ENDBRANCH  37  38
ENDBRANCH   3  37
TORSDOF 12
ENDMDL
MODEL 5
REMARK VINA RESULT: -7.718114078      2.717      4.645
REMARK  12 active torsions:
REMARK  status: ('A' for Active; 'I' for Inactive)
REMARK       I    between atoms: N1_1  and  C1_4 
REMARK       I    between atoms: C1_4  and  N2_5 
REMARK       I    between atoms: C1_4  and  N9_42 
REMARK    1  A    between atoms: N2_5  and  C2_7 
REMARK    2  A    between atoms: C3_9  and  C4_10 
REMARK    3  A    between atoms: C4_10  and  N3_11 
REMARK    4  A    between atoms: N3_11  and  C5_14 
REMARK    5  A    between atoms: C5_14  and  O2_15 
REMARK    6  A    between atoms: C5_14  and  O3_17 
REMARK    7  A    between atoms: C7_22  and  C8_23 
REMARK    8  A    between atoms: C8_23  and  C9_25 
REMARK       I    between atoms: C9_25  and  N5_27 
REMARK    9  A    between atoms: N5_27  and  C10_29 
REMARK   10  A    between atoms: C11_34  and  S1_35 
REMARK   11  A    between atoms: S1_35  and  N8_36 
REMARK   12  A    between atoms: N9_42  and  O9_44 
ROOT
HETATM    1  C2  UNL     1     -33.375 -23.418  19.392  1.00  0.00     0.194 A 
HETATM    2  O1  UNL     1     -33.075 -24.136  18.347  1.00  0.00    -0.292 OA
HETATM    3  C3  UNL     1     -32.206 -25.118  18.339  1.00  0.00     0.096 A 
HETATM    4  C6  UNL     1     -31.541 -25.442  19.500  1.00  0.00     0.123 A 
HETATM    5  N4  UNL     1     -31.820 -24.728  20.601  1.00  0.00    -0.357 N 
ATOM      6  H4  UNL     1     -31.341 -24.951  21.473  1.00  0.00     0.165 HD
HETATM    7  C7  UNL     1     -32.730 -23.708  20.586  1.00  0.00     0.141 A 
ENDROOT
BRANCH   7   8
HETATM    8  C8  UNL     1     -32.993 -22.969  21.802  1.00  0.00     0.270 C 
HETATM    9  O4  UNL     1     -34.157 -22.940  22.255  1.00  0.00    -0.280 OA
BRANCH   8  10
HETATM   10  C9  UNL     1     -31.924 -22.276  22.474  1.00  0.00     0.301 C 
HETATM   11  O5  UNL     1     -31.141 -22.920  23.211  1.00  0.00    -0.264 OA
HETATM   12  N5  UNL     1     -31.718 -20.879  22.337  1.00  0.00    -0.284 N 
ATOM     13  H5  UNL     1     -32.227 -20.230  22.937  1.00  0.00     0.172 HD
BRANCH  12  14
HETATM   14  C10 UNL     1     -30.884 -20.423  21.451  1.00  0.00     0.248 A 
HETATM   15  N6  UNL     1     -29.854 -21.073  20.888  1.00  0.00    -0.262 N 
HETATM   16  N7  UNL     1     -29.262 -20.251  20.040  1.00  0.00    -0.265 N 
ATOM     17  H6  UNL     1     -29.576 -22.035  21.082  1.00  0.00     0.190 HD
HETATM   18  C11 UNL     1     -29.917 -19.096  20.072  1.00  0.00     0.284 A 
ATOM     19  H7  UNL     1     -28.448 -20.465  19.464  1.00  0.00     0.190 HD
HETATM   20  O8  UNL     1     -30.896 -19.224  20.935  1.00  0.00    -0.248 OA
BRANCH  18  21
HETATM   21  S1  UNL     1     -29.627 -17.617  19.185  1.00  0.00     0.297 S 
HETATM   22  O6  UNL     1     -28.218 -17.147  19.390  1.00  0.00    -0.197 OA
HETATM   23  O7  UNL     1     -29.936 -17.827  17.734  1.00  0.00    -0.197 OA
BRANCH  21  24
HETATM   24  N8  UNL     1     -30.764 -16.444  19.794  1.00  0.00    -0.321 N 
ATOM     25  H82 UNL     1     -31.728 -16.324  19.482  1.00  0.00     0.169 HD
ATOM     26  H81 UNL     1     -30.273 -15.914  20.514  1.00  0.00     0.169 HD
ENDBRANCH  21  24
ENDBRANCH  18  21
ENDBRANCH  12  14
ENDBRANCH   8  10
ENDBRANCH   7   8
BRANCH   1  27
HETATM   27  N2  UNL     1     -34.231 -22.453  19.398  1.00  0.00    -0.166 N 
HETATM   28  C1  UNL     1     -33.881 -21.080  19.506  1.00  0.00     0.697 C 
HETATM   29  N1  UNL     1     -32.871 -20.621  18.849  1.00  0.00    -0.233 N 
HETATM   30  N9  UNL     1     -34.598 -20.173  20.312  1.00  0.00    -0.099 N 
ATOM     31  H12 UNL     1     -32.352 -21.278  18.266  1.00  0.00     0.174 HD
ATOM     32  H11 UNL     1     -32.620 -19.635  18.926  1.00  0.00     0.174 HD
ATOM     33  H9  UNL     1     -35.599 -20.300  20.461  1.00  0.00     0.213 HD
ATOM     34  H2  UNL     1     -35.220 -22.690  19.322  1.00  0.00     0.186 HD
BRANCH  30  35
HETATM   35  O9  UNL     1     -33.961 -19.142  20.881  1.00  0.00    -0.276 OA
ATOM     36  H9  UNL     1     -34.455 -18.388  21.179  1.00  0.00     0.245 HD
ENDBRANCH  30  35
ENDBRANCH   1  27
BRANCH   3  37
HETATM   37  C4  UNL     1     -31.920 -25.895  17.085  1.00  0.00     0.304 C 
BRANCH  37  38
HETATM   38  N3  UNL     1     -30.514 -25.782  16.747  1.00  0.00    -0.019 N 
ATOM     39  H32 UNL     1     -30.319 -24.983  16.145  1.00  0.00     0.283 HD
ATOM     40  H31 UNL     1     -29.941 -25.500  17.542  1.00  0.00     0.283 HD
BRANCH  38  41
HETATM   41  C5  UNL     1     -30.083 -27.033  16.167  1.00  0.00     0.464 C 
BRANCH  41  42
HETATM   42  O2  UNL     1     -31.049 -27.663  15.419  1.00  0.00    -0.350 OA
ATOM     43  H2  UNL     1     -31.272 -27.208  14.615  1.00  0.00     0.214 HD
ENDBRANCH  41  42
BRANCH  41  44
HETATM   44  O3  UNL     1     -28.945 -26.866  15.383  1.00  0.00    -0.350 OA
ATOM     45  H3  UNL     1     -28.592 -27.701  15.099  1.00  0.00     0.214 HD
ENDBRANCH  41  44
ENDBRANCH  38  41
ENDBRANCH  37  38
ENDBRANCH   3  37
TORSDOF 12
ENDMDL
