MODEL 1
REMARK VINA RESULT: -9.042810052      0.000      0.000
REMARK  9 active torsions:
REMARK  status: ('A' for Active; 'I' for Inactive)
REMARK    1  A    between atoms: C1_4  and  O1_6 
REMARK    2  A    between atoms: O1_6  and  N3_7 
REMARK    3  A    between atoms: C2_9  and  C3_10 
REMARK    4  A    between atoms: C2_9  and  C9_26 
REMARK    5  A    between atoms: C3_10  and  C4_11 
REMARK    6  A    between atoms: C4_11  and  C5_13 
REMARK    7  A    between atoms: C6_16  and  N5_17 
REMARK    8  A    between atoms: C10_31  and  N10_32 
REMARK    9  A    between atoms: N10_32  and  C11_34 
ROOT
HETATM    1  N3  UNL     1      -4.655  34.544  -1.355  1.00  0.00    -0.257 N 
ATOM      2  H3  UNL     1      -4.689  35.532  -1.606  1.00  0.00     0.194 HD
HETATM    3  C2  UNL     1      -5.760  34.025  -1.046  1.00  0.00     0.092 C 
ENDROOT
BRANCH   3   4
HETATM    4  C3  UNL     1      -6.991  34.835  -1.062  1.00  0.00     0.149 C 
BRANCH   4   5
HETATM    5  C4  UNL     1      -7.341  35.385   0.267  1.00  0.00     0.184 C 
HETATM    6  O2  UNL     1      -7.311  34.633   1.282  1.00  0.00    -0.290 OA
BRANCH   5   7
HETATM    7  C5  UNL     1      -7.715  36.783   0.376  1.00  0.00     0.125 A 
HETATM    8  N4  UNL     1      -6.801  37.707   0.698  1.00  0.00    -0.186 N 
HETATM    9  C6  UNL     1      -7.126  39.009   0.806  1.00  0.00     0.679 A 
ATOM     10  H4  UNL     1      -5.837  37.417   0.866  1.00  0.00     0.184 HD
HETATM   11  N6  UNL     1      -8.374  39.443   0.597  1.00  0.00    -0.155 N 
HETATM   12  C7  UNL     1      -9.324  38.551   0.270  1.00  0.00     0.286 A 
ATOM     13  H6  UNL     1      -8.601  40.434   0.684  1.00  0.00     0.187 HD
HETATM   14  O3  UNL     1     -10.494  38.970   0.076  1.00  0.00    -0.266 OA
HETATM   15  C8  UNL     1      -9.005  37.211   0.157  1.00  0.00     0.145 A 
HETATM   16  N7  UNL     1     -10.005  36.262  -0.188  1.00  0.00    -0.094 NA
BRANCH   9  17
HETATM   17  N5  UNL     1      -6.213  39.856   1.118  1.00  0.00    -0.234 N 
ATOM     18  H52 UNL     1      -5.242  39.546   1.167  1.00  0.00     0.174 HD
ATOM     19  H51 UNL     1      -6.478  40.822   1.310  1.00  0.00     0.174 HD
ENDBRANCH   9  17
ENDBRANCH   5   7
ENDBRANCH   4   5
ENDBRANCH   3   4
BRANCH   3  20
HETATM   20  C9  UNL     1      -5.847  32.630  -0.661  1.00  0.00     0.191 A 
HETATM   21  N8  UNL     1      -5.931  32.089   0.578  1.00  0.00    -0.275 N 
HETATM   22  N9  UNL     1      -5.992  30.774   0.500  1.00  0.00    -0.262 N 
ATOM     23  H8  UNL     1      -5.945  32.623   1.448  1.00  0.00     0.189 HD
HETATM   24  C10 UNL     1      -5.948  30.459  -0.790  1.00  0.00     0.259 A 
ATOM     25  H9  UNL     1      -6.061  30.121   1.282  1.00  0.00     0.190 HD
HETATM   26  O5  UNL     1      -5.862  31.570  -1.468  1.00  0.00    -0.257 OA
BRANCH  24  27
HETATM   27  N10 UNL     1      -5.983  29.170  -1.409  1.00  0.00    -0.153 N 
ATOM     28  H10 UNL     1      -6.095  28.323  -0.852  1.00  0.00     0.188 HD
BRANCH  27  29
HETATM   29  C11 UNL     1      -5.857  29.104  -2.822  1.00  0.00     0.692 A 
HETATM   30  N11 UNL     1      -6.577  29.932  -3.599  1.00  0.00    -0.163 N 
HETATM   31  C12 UNL     1      -6.527  29.943  -4.935  1.00  0.00     0.210 A 
ATOM     32  H11 UNL     1      -7.202  30.595  -3.140  1.00  0.00     0.187 HD
HETATM   33  N12 UNL     1      -7.294  30.823  -5.723  1.00  0.00    -0.062 NA
HETATM   34  N13 UNL     1      -5.684  29.049  -5.527  1.00  0.00    -0.282 N 
HETATM   35  C13 UNL     1      -4.953  28.212  -4.766  1.00  0.00     0.341 A 
ATOM     36  H13 UNL     1      -5.607  29.015  -6.543  1.00  0.00     0.173 HD
HETATM   37  O4  UNL     1      -4.193  27.410  -5.376  1.00  0.00    -0.246 OA
HETATM   38  N14 UNL     1      -5.045  28.244  -3.421  1.00  0.00    -0.141 N 
ATOM     39  H14 UNL     1      -4.485  27.601  -2.860  1.00  0.00     0.189 HD
ENDBRANCH  27  29
ENDBRANCH  24  27
ENDBRANCH   3  20
BRANCH   1  40
HETATM   40  O1  UNL     1      -3.432  33.978  -1.401  1.00  0.00    -0.204 OA
BRANCH  40  41
HETATM   41  C1  UNL     1      -2.263  34.666  -1.738  1.00  0.00     0.249 C 
HETATM   42  N1  UNL     1      -1.158  34.065  -1.439  1.00  0.00    -0.366 N 
ATOM     43  H12 UNL     1      -0.305  34.568  -1.685  1.00  0.00     0.159 HD
ATOM     44  H11 UNL     1      -1.093  33.154  -0.987  1.00  0.00     0.159 HD
HETATM   45  N2  UNL     1      -2.353  35.922  -2.359  1.00  0.00    -0.055 NA
ENDBRANCH  40  41
ENDBRANCH   1  40
TORSDOF 9
ENDMDL
MODEL 2
REMARK VINA RESULT: -8.910396163      0.941      1.436
REMARK  9 active torsions:
REMARK  status: ('A' for Active; 'I' for Inactive)
REMARK    1  A    between atoms: C1_4  and  O1_6 
REMARK    2  A    between atoms: O1_6  and  N3_7 
REMARK    3  A    between atoms: C2_9  and  C3_10 
REMARK    4  A    between atoms: C2_9  and  C9_26 
REMARK    5  A    between atoms: C3_10  and  C4_11 
REMARK    6  A    between atoms: C4_11  and  C5_13 
REMARK    7  A    between atoms: C6_16  and  N5_17 
REMARK    8  A    between atoms: C10_31  and  N10_32 
REMARK    9  A    between atoms: N10_32  and  C11_34 
ROOT
HETATM    1  N3  UNL     1      -4.532  34.618  -0.935  1.00  0.00    -0.257 N 
ATOM      2  H3  UNL     1      -4.539  35.617  -1.139  1.00  0.00     0.194 HD
HETATM    3  C2  UNL     1      -5.665  34.087  -0.794  1.00  0.00     0.092 C 
ENDROOT
BRANCH   3   4
HETATM    4  C3  UNL     1      -6.887  34.899  -0.925  1.00  0.00     0.149 C 
BRANCH   4   5
HETATM    5  C4  UNL     1      -7.369  35.436   0.367  1.00  0.00     0.184 C 
HETATM    6  O2  UNL     1      -7.440  34.675   1.373  1.00  0.00    -0.290 OA
BRANCH   5   7
HETATM    7  C5  UNL     1      -7.753  36.834   0.450  1.00  0.00     0.125 A 
HETATM    8  N4  UNL     1      -6.854  37.764   0.796  1.00  0.00    -0.186 N 
HETATM    9  C6  UNL     1      -7.188  39.065   0.881  1.00  0.00     0.679 A 
ATOM     10  H4  UNL     1      -5.896  37.480   0.999  1.00  0.00     0.184 HD
HETATM   11  N6  UNL     1      -8.431  39.491   0.625  1.00  0.00    -0.155 N 
HETATM   12  C7  UNL     1      -9.365  38.592   0.275  1.00  0.00     0.286 A 
ATOM     13  H6  UNL     1      -8.665  40.482   0.696  1.00  0.00     0.187 HD
HETATM   14  O3  UNL     1     -10.530  39.004   0.037  1.00  0.00    -0.266 OA
HETATM   15  C8  UNL     1      -9.036  37.253   0.184  1.00  0.00     0.145 A 
HETATM   16  N7  UNL     1     -10.019  36.296  -0.187  1.00  0.00    -0.094 NA
BRANCH   9  17
HETATM   17  N5  UNL     1      -6.291  39.920   1.217  1.00  0.00    -0.234 N 
ATOM     18  H52 UNL     1      -6.220  40.209   2.193  1.00  0.00     0.174 HD
ATOM     19  H51 UNL     1      -5.668  40.292   0.501  1.00  0.00     0.174 HD
ENDBRANCH   9  17
ENDBRANCH   5   7
ENDBRANCH   4   5
ENDBRANCH   3   4
BRANCH   3  20
HETATM   20  C9  UNL     1      -5.793  32.674  -0.492  1.00  0.00     0.191 A 
HETATM   21  N8  UNL     1      -5.815  32.057   0.714  1.00  0.00    -0.275 N 
HETATM   22  N9  UNL     1      -5.947  30.754   0.558  1.00  0.00    -0.262 N 
ATOM     23  H8  UNL     1      -5.740  32.533   1.614  1.00  0.00     0.189 HD
HETATM   24  C10 UNL     1      -6.012  30.524  -0.748  1.00  0.00     0.259 A 
ATOM     25  H9  UNL     1      -5.992  30.055   1.300  1.00  0.00     0.190 HD
HETATM   26  O5  UNL     1      -5.919  31.672  -1.360  1.00  0.00    -0.257 OA
BRANCH  24  27
HETATM   27  N10 UNL     1      -6.155  29.281  -1.443  1.00  0.00    -0.153 N 
ATOM     28  H10 UNL     1      -6.317  28.412  -0.935  1.00  0.00     0.188 HD
BRANCH  27  29
HETATM   29  C11 UNL     1      -6.066  29.294  -2.860  1.00  0.00     0.692 A 
HETATM   30  N11 UNL     1      -5.248  28.432  -3.488  1.00  0.00    -0.163 N 
HETATM   31  C12 UNL     1      -5.096  28.370  -4.816  1.00  0.00     0.210 A 
ATOM     32  H11 UNL     1      -4.708  27.783  -2.916  1.00  0.00     0.187 HD
HETATM   33  N12 UNL     1      -4.231  27.456  -5.446  1.00  0.00    -0.062 NA
HETATM   34  N13 UNL     1      -5.829  29.247  -5.560  1.00  0.00    -0.282 N 
HETATM   35  C13 UNL     1      -6.655  30.118  -4.950  1.00  0.00     0.341 A 
ATOM     36  H13 UNL     1      -5.752  29.243  -6.577  1.00  0.00     0.173 HD
HETATM   37  O4  UNL     1      -7.304  30.902  -5.697  1.00  0.00    -0.246 OA
HETATM   38  N14 UNL     1      -6.768  30.137  -3.606  1.00  0.00    -0.141 N 
ATOM     39  H14 UNL     1      -7.398  30.805  -3.160  1.00  0.00     0.189 HD
ENDBRANCH  27  29
ENDBRANCH  24  27
ENDBRANCH   3  20
BRANCH   1  40
HETATM   40  O1  UNL     1      -3.310  34.052  -0.854  1.00  0.00    -0.204 OA
BRANCH  40  41
HETATM   41  C1  UNL     1      -2.223  34.420  -1.652  1.00  0.00     0.249 C 
HETATM   42  N1  UNL     1      -1.223  33.601  -1.641  1.00  0.00    -0.366 N 
ATOM     43  H12 UNL     1      -0.430  33.869  -2.224  1.00  0.00     0.159 HD
ATOM     44  H11 UNL     1      -1.183  32.736  -1.104  1.00  0.00     0.159 HD
HETATM   45  N2  UNL     1      -2.279  35.612  -2.392  1.00  0.00    -0.055 NA
ENDBRANCH  40  41
ENDBRANCH   1  40
TORSDOF 9
ENDMDL
MODEL 3
REMARK VINA RESULT: -8.861654579      1.032      1.079
REMARK  9 active torsions:
REMARK  status: ('A' for Active; 'I' for Inactive)
REMARK    1  A    between atoms: C1_4  and  O1_6 
REMARK    2  A    between atoms: O1_6  and  N3_7 
REMARK    3  A    between atoms: C2_9  and  C3_10 
REMARK    4  A    between atoms: C2_9  and  C9_26 
REMARK    5  A    between atoms: C3_10  and  C4_11 
REMARK    6  A    between atoms: C4_11  and  C5_13 
REMARK    7  A    between atoms: C6_16  and  N5_17 
REMARK    8  A    between atoms: C10_31  and  N10_32 
REMARK    9  A    between atoms: N10_32  and  C11_34 
ROOT
HETATM    1  N3  UNL     1      -4.316  34.610   0.639  1.00  0.00    -0.257 N 
ATOM      2  H3  UNL     1      -4.375  35.609   0.840  1.00  0.00     0.194 HD
HETATM    3  C2  UNL     1      -5.401  33.976   0.727  1.00  0.00     0.092 C 
ENDROOT
BRANCH   3   4
HETATM    4  C3  UNL     1      -6.643  34.676   1.098  1.00  0.00     0.149 C 
BRANCH   4   5
HETATM    5  C4  UNL     1      -7.231  35.447  -0.020  1.00  0.00     0.184 C 
HETATM    6  O2  UNL     1      -7.370  34.900  -1.151  1.00  0.00    -0.290 OA
BRANCH   5   7
HETATM    7  C5  UNL     1      -7.637  36.822   0.207  1.00  0.00     0.125 A 
HETATM    8  N4  UNL     1      -6.727  37.755   0.513  1.00  0.00    -0.186 N 
HETATM    9  C6  UNL     1      -7.082  39.036   0.729  1.00  0.00     0.679 A 
ATOM     10  H4  UNL     1      -5.745  37.490   0.584  1.00  0.00     0.184 HD
HETATM   11  N6  UNL     1      -8.356  39.437   0.649  1.00  0.00    -0.155 N 
HETATM   12  C7  UNL     1      -9.302  38.534   0.344  1.00  0.00     0.286 A 
ATOM     13  H6  UNL     1      -8.605  40.412   0.817  1.00  0.00     0.187 HD
HETATM   14  O3  UNL     1     -10.496  38.922   0.272  1.00  0.00    -0.266 OA
HETATM   15  C8  UNL     1      -8.952  37.215   0.120  1.00  0.00     0.145 A 
HETATM   16  N7  UNL     1      -9.948  36.254  -0.203  1.00  0.00    -0.094 NA
BRANCH   9  17
HETATM   17  N5  UNL     1      -6.173  39.895   1.020  1.00  0.00    -0.234 N 
ATOM     18  H52 UNL     1      -5.886  40.005   1.993  1.00  0.00     0.174 HD
ATOM     19  H51 UNL     1      -5.757  40.450   0.272  1.00  0.00     0.174 HD
ENDBRANCH   9  17
ENDBRANCH   5   7
ENDBRANCH   4   5
ENDBRANCH   3   4
BRANCH   3  20
HETATM   20  C9  UNL     1      -5.451  32.548   0.475  1.00  0.00     0.191 A 
HETATM   21  N8  UNL     1      -4.699  31.559   1.015  1.00  0.00    -0.275 N 
HETATM   22  N9  UNL     1      -5.059  30.390   0.520  1.00  0.00    -0.262 N 
ATOM     23  H8  UNL     1      -3.961  31.698   1.706  1.00  0.00     0.189 HD
HETATM   24  C10 UNL     1      -6.044  30.620  -0.341  1.00  0.00     0.259 A 
ATOM     25  H9  UNL     1      -4.657  29.482   0.754  1.00  0.00     0.190 HD
HETATM   26  O5  UNL     1      -6.267  31.904  -0.358  1.00  0.00    -0.257 OA
BRANCH  24  27
HETATM   27  N10 UNL     1      -6.780  29.691  -1.143  1.00  0.00    -0.153 N 
ATOM     28  H10 UNL     1      -7.557  29.159  -0.751  1.00  0.00     0.188 HD
BRANCH  27  29
HETATM   29  C11 UNL     1      -6.396  29.532  -2.501  1.00  0.00     0.692 A 
HETATM   30  N11 UNL     1      -6.995  30.264  -3.457  1.00  0.00    -0.163 N 
HETATM   31  C12 UNL     1      -6.702  30.183  -4.760  1.00  0.00     0.210 A 
ATOM     32  H11 UNL     1      -7.718  30.924  -3.171  1.00  0.00     0.187 HD
HETATM   33  N12 UNL     1      -7.346  30.963  -5.739  1.00  0.00    -0.062 NA
HETATM   34  N13 UNL     1      -5.732  29.294  -5.118  1.00  0.00    -0.282 N 
HETATM   35  C13 UNL     1      -5.120  28.552  -4.176  1.00  0.00     0.341 A 
ATOM     36  H13 UNL     1      -5.470  29.192  -6.099  1.00  0.00     0.173 HD
HETATM   37  O4  UNL     1      -4.231  27.750  -4.575  1.00  0.00    -0.246 OA
HETATM   38  N14 UNL     1      -5.456  28.674  -2.876  1.00  0.00    -0.141 N 
ATOM     39  H14 UNL     1      -4.983  28.103  -2.175  1.00  0.00     0.189 HD
ENDBRANCH  27  29
ENDBRANCH  24  27
ENDBRANCH   3  20
BRANCH   1  40
HETATM   40  O1  UNL     1      -3.088  34.157   0.317  1.00  0.00    -0.204 OA
BRANCH  40  41
HETATM   41  C1  UNL     1      -2.661  33.917  -0.992  1.00  0.00     0.249 C 
HETATM   42  N1  UNL     1      -2.109  32.765  -1.195  1.00  0.00    -0.366 N 
ATOM     43  H12 UNL     1      -1.797  32.590  -2.150  1.00  0.00     0.159 HD
ATOM     44  H11 UNL     1      -1.971  32.050  -0.482  1.00  0.00     0.159 HD
HETATM   45  N2  UNL     1      -2.850  34.902  -1.974  1.00  0.00    -0.055 NA
ENDBRANCH  40  41
ENDBRANCH   1  40
TORSDOF 9
ENDMDL
MODEL 4
REMARK VINA RESULT: -8.718817030      2.326      3.840
REMARK  9 active torsions:
REMARK  status: ('A' for Active; 'I' for Inactive)
REMARK    1  A    between atoms: C1_4  and  O1_6 
REMARK    2  A    between atoms: O1_6  and  N3_7 
REMARK    3  A    between atoms: C2_9  and  C3_10 
REMARK    4  A    between atoms: C2_9  and  C9_26 
REMARK    5  A    between atoms: C3_10  and  C4_11 
REMARK    6  A    between atoms: C4_11  and  C5_13 
REMARK    7  A    between atoms: C6_16  and  N5_17 
REMARK    8  A    between atoms: C10_31  and  N10_32 
REMARK    9  A    between atoms: N10_32  and  C11_34 
ROOT
HETATM    1  N3  UNL     1      -7.215  33.514   2.550  1.00  0.00    -0.257 N 
ATOM      2  H3  UNL     1      -7.823  34.282   2.837  1.00  0.00     0.194 HD
HETATM    3  C2  UNL     1      -6.225  33.843   1.845  1.00  0.00     0.092 C 
ENDROOT
BRANCH   3   4
HETATM    4  C3  UNL     1      -6.003  35.254   1.487  1.00  0.00     0.149 C 
BRANCH   4   5
HETATM    5  C4  UNL     1      -6.904  35.729   0.412  1.00  0.00     0.184 C 
HETATM    6  O2  UNL     1      -7.173  34.966  -0.560  1.00  0.00    -0.290 OA
BRANCH   5   7
HETATM    7  C5  UNL     1      -7.460  37.067   0.496  1.00  0.00     0.125 A 
HETATM    8  N4  UNL     1      -6.676  38.110   0.794  1.00  0.00    -0.186 N 
HETATM    9  C6  UNL     1      -7.171  39.359   0.879  1.00  0.00     0.679 A 
ATOM     10  H4  UNL     1      -5.681  37.955   0.960  1.00  0.00     0.184 HD
HETATM   11  N6  UNL     1      -8.468  39.618   0.670  1.00  0.00    -0.155 N 
HETATM   12  C7  UNL     1      -9.291  38.601   0.369  1.00  0.00     0.286 A 
ATOM     13  H6  UNL     1      -8.824  40.571   0.740  1.00  0.00     0.187 HD
HETATM   14  O3  UNL     1     -10.508  38.856   0.176  1.00  0.00    -0.266 OA
HETATM   15  C8  UNL     1      -8.796  37.313   0.279  1.00  0.00     0.145 A 
HETATM   16  N7  UNL     1      -9.662  36.233  -0.040  1.00  0.00    -0.094 NA
BRANCH   9  17
HETATM   17  N5  UNL     1      -6.379  40.327   1.167  1.00  0.00    -0.234 N 
ATOM     18  H52 UNL     1      -6.726  41.285   1.116  1.00  0.00     0.174 HD
ATOM     19  H51 UNL     1      -5.419  40.118   1.442  1.00  0.00     0.174 HD
ENDBRANCH   9  17
ENDBRANCH   5   7
ENDBRANCH   4   5
ENDBRANCH   3   4
BRANCH   3  20
HETATM   20  C9  UNL     1      -5.288  32.845   1.365  1.00  0.00     0.191 A 
HETATM   21  N8  UNL     1      -4.366  32.136   2.059  1.00  0.00    -0.275 N 
HETATM   22  N9  UNL     1      -3.709  31.326   1.251  1.00  0.00    -0.262 N 
ATOM     23  H8  UNL     1      -4.202  32.217   3.063  1.00  0.00     0.189 HD
HETATM   24  C10 UNL     1      -4.205  31.508   0.032  1.00  0.00     0.259 A 
ATOM     25  H9  UNL     1      -2.962  30.681   1.512  1.00  0.00     0.190 HD
HETATM   26  O5  UNL     1      -5.141  32.412   0.114  1.00  0.00    -0.257 OA
BRANCH  24  27
HETATM   27  N10 UNL     1      -3.839  30.874  -1.197  1.00  0.00    -0.153 N 
ATOM     28  H10 UNL     1      -2.862  30.691  -1.423  1.00  0.00     0.188 HD
BRANCH  27  29
HETATM   29  C11 UNL     1      -4.878  30.509  -2.094  1.00  0.00     0.692 A 
HETATM   30  N11 UNL     1      -4.576  29.940  -3.275  1.00  0.00    -0.163 N 
HETATM   31  C12 UNL     1      -5.483  29.564  -4.183  1.00  0.00     0.210 A 
ATOM     32  H11 UNL     1      -3.591  29.786  -3.492  1.00  0.00     0.187 HD
HETATM   33  N12 UNL     1      -5.136  28.971  -5.411  1.00  0.00    -0.062 NA
HETATM   34  N13 UNL     1      -6.793  29.780  -3.870  1.00  0.00    -0.282 N 
HETATM   35  C13 UNL     1      -7.116  30.348  -2.693  1.00  0.00     0.341 A 
ATOM     36  H13 UNL     1      -7.525  29.513  -4.526  1.00  0.00     0.173 HD
HETATM   37  O4  UNL     1      -8.346  30.519  -2.465  1.00  0.00    -0.246 OA
HETATM   38  N14 UNL     1      -6.159  30.709  -1.814  1.00  0.00    -0.141 N 
ATOM     39  H14 UNL     1      -6.422  31.139  -0.927  1.00  0.00     0.189 HD
ENDBRANCH  27  29
ENDBRANCH  24  27
ENDBRANCH   3  20
BRANCH   1  40
HETATM   40  O1  UNL     1      -7.586  32.291   2.980  1.00  0.00    -0.204 OA
BRANCH  40  41
HETATM   41  C1  UNL     1      -7.958  32.004   4.297  1.00  0.00     0.249 C 
HETATM   42  N1  UNL     1      -9.192  31.656   4.463  1.00  0.00    -0.366 N 
ATOM     43  H12 UNL     1      -9.463  31.447   5.424  1.00  0.00     0.159 HD
ATOM     44  H11 UNL     1      -9.884  31.584   3.718  1.00  0.00     0.159 HD
HETATM   45  N2  UNL     1      -7.005  32.104   5.323  1.00  0.00    -0.055 NA
ENDBRANCH  40  41
ENDBRANCH   1  40
TORSDOF 9
ENDMDL
MODEL 5
REMARK VINA RESULT: -8.696829538      2.052      6.222
REMARK  9 active torsions:
REMARK  status: ('A' for Active; 'I' for Inactive)
REMARK    1  A    between atoms: C1_4  and  O1_6 
REMARK    2  A    between atoms: O1_6  and  N3_7 
REMARK    3  A    between atoms: C2_9  and  C3_10 
REMARK    4  A    between atoms: C2_9  and  C9_26 
REMARK    5  A    between atoms: C3_10  and  C4_11 
REMARK    6  A    between atoms: C4_11  and  C5_13 
REMARK    7  A    between atoms: C6_16  and  N5_17 
REMARK    8  A    between atoms: C10_31  and  N10_32 
REMARK    9  A    between atoms: N10_32  and  C11_34 
ROOT
HETATM    1  N3  UNL     1      -6.882  32.477  -1.100  1.00  0.00    -0.257 N 
ATOM      2  H3  UNL     1      -7.896  32.551  -1.014  1.00  0.00     0.194 HD
HETATM    3  C2  UNL     1      -6.268  33.569  -1.228  1.00  0.00     0.092 C 
ENDROOT
BRANCH   3   4
HETATM    4  C3  UNL     1      -7.012  34.840  -1.248  1.00  0.00     0.149 C 
BRANCH   4   5
HETATM    5  C4  UNL     1      -7.320  35.354   0.106  1.00  0.00     0.184 C 
HETATM    6  O2  UNL     1      -7.250  34.576   1.100  1.00  0.00    -0.290 OA
BRANCH   5   7
HETATM    7  C5  UNL     1      -7.700  36.746   0.263  1.00  0.00     0.125 A 
HETATM    8  N4  UNL     1      -6.779  37.668   0.572  1.00  0.00    -0.186 N 
HETATM    9  C6  UNL     1      -7.109  38.965   0.724  1.00  0.00     0.679 A 
ATOM     10  H4  UNL     1      -5.808  37.382   0.695  1.00  0.00     0.184 HD
HETATM   11  N6  UNL     1      -8.368  39.394   0.575  1.00  0.00    -0.155 N 
HETATM   12  C7  UNL     1      -9.323  38.502   0.264  1.00  0.00     0.286 A 
ATOM     13  H6  UNL     1      -8.598  40.380   0.695  1.00  0.00     0.187 HD
HETATM   14  O3  UNL     1     -10.503  38.917   0.127  1.00  0.00    -0.266 OA
HETATM   15  C8  UNL     1      -8.999  37.168   0.106  1.00  0.00     0.145 A 
HETATM   16  N7  UNL     1     -10.006  36.220  -0.223  1.00  0.00    -0.094 NA
BRANCH   9  17
HETATM   17  N5  UNL     1      -6.191  39.812   1.021  1.00  0.00    -0.234 N 
ATOM     18  H52 UNL     1      -5.482  39.556   1.709  1.00  0.00     0.174 HD
ATOM     19  H51 UNL     1      -6.189  40.723   0.563  1.00  0.00     0.174 HD
ENDBRANCH   9  17
ENDBRANCH   5   7
ENDBRANCH   4   5
ENDBRANCH   3   4
BRANCH   3  20
HETATM   20  C9  UNL     1      -4.825  33.601  -1.368  1.00  0.00     0.191 A 
HETATM   21  N8  UNL     1      -3.949  32.569  -1.412  1.00  0.00    -0.275 N 
HETATM   22  N9  UNL     1      -2.716  33.022  -1.547  1.00  0.00    -0.262 N 
ATOM     23  H8  UNL     1      -4.205  31.583  -1.350  1.00  0.00     0.189 HD
HETATM   24  C10 UNL     1      -2.793  34.347  -1.590  1.00  0.00     0.259 A 
ATOM     25  H9  UNL     1      -1.866  32.460  -1.607  1.00  0.00     0.190 HD
HETATM   26  O5  UNL     1      -4.049  34.678  -1.483  1.00  0.00    -0.257 OA
BRANCH  24  27
HETATM   27  N10 UNL     1      -1.743  35.309  -1.727  1.00  0.00    -0.153 N 
ATOM     28  H10 UNL     1      -0.840  35.049  -2.123  1.00  0.00     0.188 HD
BRANCH  27  29
HETATM   29  C11 UNL     1      -1.996  36.639  -1.296  1.00  0.00     0.692 A 
HETATM   30  N11 UNL     1      -2.667  36.856  -0.150  1.00  0.00    -0.163 N 
HETATM   31  C12 UNL     1      -2.952  38.069   0.335  1.00  0.00     0.210 A 
ATOM     32  H11 UNL     1      -2.977  36.044   0.382  1.00  0.00     0.187 HD
HETATM   33  N12 UNL     1      -3.656  38.265   1.538  1.00  0.00    -0.062 NA
HETATM   34  N13 UNL     1      -2.526  39.140  -0.395  1.00  0.00    -0.282 N 
HETATM   35  C13 UNL     1      -1.853  38.943  -1.544  1.00  0.00     0.341 A 
ATOM     36  H13 UNL     1      -2.718  40.087  -0.070  1.00  0.00     0.173 HD
HETATM   37  O4  UNL     1      -1.487  39.977  -2.170  1.00  0.00    -0.246 OA
HETATM   38  N14 UNL     1      -1.593  37.697  -1.987  1.00  0.00    -0.141 N 
ATOM     39  H14 UNL     1      -1.083  37.566  -2.861  1.00  0.00     0.189 HD
ENDBRANCH  27  29
ENDBRANCH  24  27
ENDBRANCH   3  20
BRANCH   1  40
HETATM   40  O1  UNL     1      -6.388  31.222  -1.059  1.00  0.00    -0.204 OA
BRANCH  40  41
HETATM   41  C1  UNL     1      -6.927  30.145  -1.769  1.00  0.00     0.249 C 
HETATM   42  N1  UNL     1      -6.331  29.011  -1.596  1.00  0.00    -0.366 N 
ATOM     43  H12 UNL     1      -6.724  28.226  -2.114  1.00  0.00     0.159 HD
ATOM     44  H11 UNL     1      -5.520  28.863  -0.996  1.00  0.00     0.159 HD
HETATM   45  N2  UNL     1      -8.044  30.349  -2.595  1.00  0.00    -0.055 NA
ENDBRANCH  40  41
ENDBRANCH   1  40
TORSDOF 9
ENDMDL
