MODEL 1
REMARK VINA RESULT: -8.178321982      0.000      0.000
REMARK  9 active torsions:
REMARK  status: ('A' for Active; 'I' for Inactive)
REMARK    1  A    between atoms: C2_3  and  C3_7 
REMARK    2  A    between atoms: C3_7  and  O1_8 
REMARK    3  A    between atoms: C3_7  and  N3_10 
REMARK    4  A    between atoms: N3_10  and  N4_12 
REMARK    5  A    between atoms: N4_12  and  C4_14 
REMARK    6  A    between atoms: C5_19  and  N7_20 
REMARK    7  A    between atoms: N7_20  and  C6_22 
REMARK    8  A    between atoms: C6_22  and  C7_23 
REMARK    9  A    between atoms: N10_36  and  N11_38 
REMARK       I    between atoms: N11_38  and  C13_39 
ROOT
HETATM    1  N1  UNL     1      -6.766  39.713   1.087  1.00  0.00    -0.190 NA
HETATM    2  C1  UNL     1      -7.724  39.141   0.736  1.00  0.00     0.117 C 
HETATM    3  C2  UNL     1      -8.898  38.442   0.280  1.00  0.00     0.134 C 
HETATM    4  N2  UNL     1     -10.023  39.069   0.340  1.00  0.00    -0.390 N 
ATOM      5  H21 UNL     1     -10.855  38.574   0.017  1.00  0.00     0.156 HD
ATOM      6  H22 UNL     1     -10.079  40.023   0.695  1.00  0.00     0.156 HD
ENDROOT
BRANCH   3   7
HETATM    7  C3  UNL     1      -8.816  37.060  -0.235  1.00  0.00     0.294 C 
BRANCH   7   8
HETATM    8  O1  UNL     1      -9.995  36.359   0.000  1.00  0.00    -0.369 OA
ATOM      9  H1  UNL     1     -10.394  36.616   0.823  1.00  0.00     0.212 HD
ENDBRANCH   7   8
BRANCH   7  10
HETATM   10  N3  UNL     1      -7.679  36.342   0.314  1.00  0.00    -0.287 N 
ATOM     11  H3  UNL     1      -6.719  36.620   0.107  1.00  0.00     0.184 HD
BRANCH  10  12
HETATM   12  N4  UNL     1      -7.963  35.250   1.141  1.00  0.00    -0.132 N 
ATOM     13  H4  UNL     1      -8.891  34.829   1.157  1.00  0.00     0.205 HD
BRANCH  12  14
HETATM   14  C4  UNL     1      -7.014  34.795   1.880  1.00  0.00     0.726 A 
HETATM   15  N5  UNL     1      -5.966  35.451   2.346  1.00  0.00    -0.116 N 
HETATM   16  N6  UNL     1      -5.227  34.647   3.059  1.00  0.00    -0.117 N 
ATOM     17  H5  UNL     1      -5.766  36.435   2.173  1.00  0.00     0.206 HD
HETATM   18  C5  UNL     1      -5.803  33.440   3.061  1.00  0.00     0.707 A 
ATOM     19  H6  UNL     1      -4.359  34.897   3.534  1.00  0.00     0.206 HD
HETATM   20  N13 UNL     1      -6.939  33.526   2.314  1.00  0.00    -0.018 N 
ATOM     21  H13 UNL     1      -7.602  32.775   2.122  1.00  0.00     0.203 HD
BRANCH  18  22
HETATM   22  N7  UNL     1      -5.341  32.260   3.714  1.00  0.00    -0.220 N 
ATOM     23  H7  UNL     1      -5.656  32.089   4.669  1.00  0.00     0.177 HD
BRANCH  22  24
HETATM   24  C6  UNL     1      -4.457  31.293   3.112  1.00  0.00     0.199 C 
BRANCH  24  25
HETATM   25  C7  UNL     1      -5.144  30.481   2.004  1.00  0.00     0.291 C 
HETATM   26  O2  UNL     1      -4.377  29.347   1.824  1.00  0.00    -0.287 OA
HETATM   27  C8  UNL     1      -4.135  28.467   0.791  1.00  0.00     0.271 C 
HETATM   28  O3  UNL     1      -3.543  27.412   1.098  1.00  0.00    -0.264 OA
HETATM   29  C9  UNL     1      -4.520  28.681  -0.631  1.00  0.00     0.140 C 
HETATM   30  C10 UNL     1      -3.290  28.947  -1.445  1.00  0.00     0.095 C 
HETATM   31  C14 UNL     1      -5.518  29.746  -0.716  1.00  0.00     0.121 A 
HETATM   32  N8  UNL     1      -2.737  30.118  -1.202  1.00  0.00    -0.316 N 
HETATM   33  N9  UNL     1      -3.385  30.891  -0.245  1.00  0.00    -0.296 N 
ATOM     34  H8  UNL     1      -1.894  30.434  -1.682  1.00  0.00     0.185 HD
HETATM   35  C11 UNL     1      -4.824  30.998  -0.220  1.00  0.00     0.203 A 
ATOM     36  H9  UNL     1      -2.834  31.392   0.452  1.00  0.00     0.184 HD
HETATM   37  O4  UNL     1      -5.399  31.309   0.973  1.00  0.00    -0.321 OA
HETATM   38  C12 UNL     1      -5.463  30.981  -1.491  1.00  0.00     0.084 A 
HETATM   39  N10 UNL     1      -5.864  31.466  -2.626  1.00  0.00    -0.234 N 
ATOM     40  H10 UNL     1      -5.604  32.442  -2.771  1.00  0.00     0.201 HD
BRANCH  39  41
HETATM   41  N11 UNL     1      -6.531  30.951  -3.608  1.00  0.00    -0.268 NA
HETATM   42  C13 UNL     1      -7.245  30.400  -4.660  1.00  0.00     0.424 C 
HETATM   43  N12 UNL     1      -7.365  31.121  -5.920  1.00  0.00    -0.024 NA
HETATM   44  O5  UNL     1      -7.852  29.275  -4.674  1.00  0.00    -0.232 OA
ENDBRANCH  39  41
ENDBRANCH  24  25
ENDBRANCH  22  24
ENDBRANCH  18  22
ENDBRANCH  12  14
ENDBRANCH  10  12
ENDBRANCH   7  10
ENDBRANCH   3   7
TORSDOF 9
ENDMDL
MODEL 2
REMARK VINA RESULT: -7.929736838      2.461      2.928
REMARK  9 active torsions:
REMARK  status: ('A' for Active; 'I' for Inactive)
REMARK    1  A    between atoms: C2_3  and  C3_7 
REMARK    2  A    between atoms: C3_7  and  O1_8 
REMARK    3  A    between atoms: C3_7  and  N3_10 
REMARK    4  A    between atoms: N3_10  and  N4_12 
REMARK    5  A    between atoms: N4_12  and  C4_14 
REMARK    6  A    between atoms: C5_19  and  N7_20 
REMARK    7  A    between atoms: N7_20  and  C6_22 
REMARK    8  A    between atoms: C6_22  and  C7_23 
REMARK    9  A    between atoms: N10_36  and  N11_38 
REMARK       I    between atoms: N11_38  and  C13_39 
ROOT
HETATM    1  N1  UNL     1      -9.177  35.905  -0.565  1.00  0.00    -0.190 NA
HETATM    2  C1  UNL     1      -9.084  37.003  -0.173  1.00  0.00     0.117 C 
HETATM    3  C2  UNL     1      -8.971  38.347   0.333  1.00  0.00     0.134 C 
HETATM    4  N2  UNL     1     -10.031  39.080   0.314  1.00  0.00    -0.390 N 
ATOM      5  H21 UNL     1      -9.952  40.032   0.672  1.00  0.00     0.156 HD
ATOM      6  H22 UNL     1     -10.916  38.721  -0.044  1.00  0.00     0.156 HD
ENDROOT
BRANCH   3   7
HETATM    7  C3  UNL     1      -7.689  38.867   0.852  1.00  0.00     0.294 C 
BRANCH   7   8
HETATM    8  O1  UNL     1      -7.559  40.232   0.614  1.00  0.00    -0.369 OA
ATOM      9  H1  UNL     1      -7.459  40.414  -0.312  1.00  0.00     0.212 HD
ENDBRANCH   7   8
BRANCH   7  10
HETATM   10  N3  UNL     1      -6.551  38.145   0.309  1.00  0.00    -0.287 N 
ATOM     11  H3  UNL     1      -6.195  38.335  -0.629  1.00  0.00     0.184 HD
BRANCH  10  12
HETATM   12  N4  UNL     1      -5.966  37.177   1.132  1.00  0.00    -0.132 N 
ATOM     13  H4  UNL     1      -5.809  37.356   2.124  1.00  0.00     0.205 HD
BRANCH  12  14
HETATM   14  C4  UNL     1      -5.634  36.056   0.598  1.00  0.00     0.726 A 
HETATM   15  N5  UNL     1      -4.531  35.775  -0.072  1.00  0.00    -0.116 N 
HETATM   16  N6  UNL     1      -4.556  34.530  -0.456  1.00  0.00    -0.117 N 
ATOM     17  H5  UNL     1      -3.775  36.433  -0.261  1.00  0.00     0.206 HD
HETATM   18  C5  UNL     1      -5.700  33.982  -0.029  1.00  0.00     0.707 A 
ATOM     19  H6  UNL     1      -3.829  34.054  -0.991  1.00  0.00     0.206 HD
HETATM   20  N13 UNL     1      -6.390  34.947   0.642  1.00  0.00    -0.018 N 
ATOM     21  H13 UNL     1      -7.301  34.846   1.089  1.00  0.00     0.203 HD
BRANCH  18  22
HETATM   22  N7  UNL     1      -6.145  32.642  -0.222  1.00  0.00    -0.220 N 
ATOM     23  H7  UNL     1      -6.897  32.481  -0.892  1.00  0.00     0.177 HD
BRANCH  22  24
HETATM   24  C6  UNL     1      -5.602  31.500   0.471  1.00  0.00     0.199 C 
BRANCH  24  25
HETATM   25  C7  UNL     1      -5.858  30.184  -0.279  1.00  0.00     0.291 C 
HETATM   26  O2  UNL     1      -4.988  29.257   0.261  1.00  0.00    -0.287 OA
HETATM   27  C8  UNL     1      -4.379  28.099  -0.174  1.00  0.00     0.271 C 
HETATM   28  O3  UNL     1      -3.828  27.408   0.707  1.00  0.00    -0.264 OA
HETATM   29  C9  UNL     1      -4.331  27.627  -1.584  1.00  0.00     0.140 C 
HETATM   30  C10 UNL     1      -2.937  27.778  -2.113  1.00  0.00     0.095 C 
HETATM   31  C14 UNL     1      -5.335  28.338  -2.376  1.00  0.00     0.121 A 
HETATM   32  N8  UNL     1      -2.574  29.031  -2.302  1.00  0.00    -0.316 N 
HETATM   33  N9  UNL     1      -3.538  29.980  -1.981  1.00  0.00    -0.296 N 
ATOM     34  H8  UNL     1      -1.652  29.286  -2.657  1.00  0.00     0.185 HD
HETATM   35  C11 UNL     1      -4.922  29.795  -2.349  1.00  0.00     0.203 A 
ATOM     36  H9  UNL     1      -3.263  30.823  -1.477  1.00  0.00     0.184 HD
HETATM   37  O4  UNL     1      -5.852  30.446  -1.600  1.00  0.00    -0.321 OA
HETATM   38  C12 UNL     1      -5.144  29.128  -3.586  1.00  0.00     0.084 A 
HETATM   39  N10 UNL     1      -5.219  29.013  -4.877  1.00  0.00    -0.234 N 
ATOM     40  H10 UNL     1      -5.002  29.872  -5.381  1.00  0.00     0.201 HD
BRANCH  39  41
HETATM   41  N11 UNL     1      -5.516  28.016  -5.647  1.00  0.00    -0.268 NA
HETATM   42  C13 UNL     1      -5.833  26.950  -6.473  1.00  0.00     0.424 C 
HETATM   43  N12 UNL     1      -6.031  25.621  -5.908  1.00  0.00    -0.024 NA
HETATM   44  O5  UNL     1      -5.985  26.975  -7.742  1.00  0.00    -0.232 OA
ENDBRANCH  39  41
ENDBRANCH  24  25
ENDBRANCH  22  24
ENDBRANCH  18  22
ENDBRANCH  12  14
ENDBRANCH  10  12
ENDBRANCH   7  10
ENDBRANCH   3   7
TORSDOF 9
ENDMDL
MODEL 3
REMARK VINA RESULT: -7.687995270      2.706      3.574
REMARK  9 active torsions:
REMARK  status: ('A' for Active; 'I' for Inactive)
REMARK    1  A    between atoms: C2_3  and  C3_7 
REMARK    2  A    between atoms: C3_7  and  O1_8 
REMARK    3  A    between atoms: C3_7  and  N3_10 
REMARK    4  A    between atoms: N3_10  and  N4_12 
REMARK    5  A    between atoms: N4_12  and  C4_14 
REMARK    6  A    between atoms: C5_19  and  N7_20 
REMARK    7  A    between atoms: N7_20  and  C6_22 
REMARK    8  A    between atoms: C6_22  and  C7_23 
REMARK    9  A    between atoms: N10_36  and  N11_38 
REMARK       I    between atoms: N11_38  and  C13_39 
ROOT
HETATM    1  N1  UNL     1     -10.358  38.690   0.261  1.00  0.00    -0.190 NA
HETATM    2  C1  UNL     1      -9.212  38.852   0.427  1.00  0.00     0.117 C 
HETATM    3  C2  UNL     1      -7.803  39.050   0.656  1.00  0.00     0.134 C 
HETATM    4  N2  UNL     1      -7.359  40.259   0.615  1.00  0.00    -0.390 N 
ATOM      5  H21 UNL     1      -6.361  40.399   0.777  1.00  0.00     0.156 HD
ATOM      6  H22 UNL     1      -7.981  41.045   0.429  1.00  0.00     0.156 HD
ENDROOT
BRANCH   3   7
HETATM    7  C3  UNL     1      -6.902  37.910   0.926  1.00  0.00     0.294 C 
BRANCH   7   8
HETATM    8  O1  UNL     1      -5.714  38.020   0.210  1.00  0.00    -0.369 OA
ATOM      9  H1  UNL     1      -5.152  38.694   0.572  1.00  0.00     0.212 HD
ENDBRANCH   7   8
BRANCH   7  10
HETATM   10  N3  UNL     1      -7.544  36.634   0.654  1.00  0.00    -0.287 N 
ATOM     11  H3  UNL     1      -8.461  36.404   1.036  1.00  0.00     0.184 HD
BRANCH  10  12
HETATM   12  N4  UNL     1      -6.843  35.737  -0.158  1.00  0.00    -0.132 N 
ATOM     13  H4  UNL     1      -6.754  35.893  -1.162  1.00  0.00     0.205 HD
BRANCH  12  14
HETATM   14  C4  UNL     1      -6.312  34.709   0.402  1.00  0.00     0.726 A 
HETATM   15  N5  UNL     1      -6.895  33.835   1.204  1.00  0.00    -0.116 N 
HETATM   16  N6  UNL     1      -6.029  32.931   1.570  1.00  0.00    -0.117 N 
ATOM     17  H5  UNL     1      -7.872  33.863   1.492  1.00  0.00     0.206 HD
HETATM   18  C5  UNL     1      -4.855  33.218   0.997  1.00  0.00     0.707 A 
ATOM     19  H6  UNL     1      -6.215  32.141   2.187  1.00  0.00     0.206 HD
HETATM   20  N13 UNL     1      -5.028  34.347   0.253  1.00  0.00    -0.018 N 
ATOM     21  H13 UNL     1      -4.320  34.823  -0.307  1.00  0.00     0.203 HD
BRANCH  18  22
HETATM   22  N7  UNL     1      -3.631  32.498   1.119  1.00  0.00    -0.220 N 
ATOM     23  H7  UNL     1      -2.813  33.002   1.461  1.00  0.00     0.177 HD
BRANCH  22  24
HETATM   24  C6  UNL     1      -3.475  31.103   0.788  1.00  0.00     0.199 C 
BRANCH  24  25
HETATM   25  C7  UNL     1      -3.616  30.839  -0.718  1.00  0.00     0.291 C 
HETATM   26  O2  UNL     1      -4.628  31.668  -1.162  1.00  0.00    -0.287 OA
HETATM   27  C8  UNL     1      -5.537  31.655  -2.199  1.00  0.00     0.271 C 
HETATM   28  O3  UNL     1      -6.150  32.722  -2.401  1.00  0.00    -0.264 OA
HETATM   29  C9  UNL     1      -5.831  30.486  -3.072  1.00  0.00     0.140 C 
HETATM   30  C10 UNL     1      -7.192  29.951  -2.745  1.00  0.00     0.095 C 
HETATM   31  C14 UNL     1      -4.767  29.492  -2.941  1.00  0.00     0.121 A 
HETATM   32  N8  UNL     1      -7.260  29.354  -1.571  1.00  0.00    -0.316 N 
HETATM   33  N9  UNL     1      -6.069  29.327  -0.853  1.00  0.00    -0.296 N 
ATOM     34  H8  UNL     1      -8.123  28.943  -1.216  1.00  0.00     0.185 HD
HETATM   35  C11 UNL     1      -4.812  29.030  -1.499  1.00  0.00     0.203 A 
ATOM     36  H9  UNL     1      -6.083  29.520   0.148  1.00  0.00     0.184 HD
HETATM   37  O4  UNL     1      -3.686  29.507  -0.906  1.00  0.00    -0.321 OA
HETATM   38  C12 UNL     1      -4.877  28.088  -2.563  1.00  0.00     0.084 A 
HETATM   39  N10 UNL     1      -4.957  26.911  -3.105  1.00  0.00    -0.234 N 
ATOM     40  H10 UNL     1      -5.007  26.149  -2.430  1.00  0.00     0.201 HD
BRANCH  39  41
HETATM   41  N11 UNL     1      -4.984  26.519  -4.338  1.00  0.00    -0.268 NA
HETATM   42  C13 UNL     1      -5.012  26.098  -5.658  1.00  0.00     0.424 C 
HETATM   43  N12 UNL     1      -6.197  26.328  -6.473  1.00  0.00    -0.024 NA
HETATM   44  O5  UNL     1      -4.082  25.496  -6.296  1.00  0.00    -0.232 OA
ENDBRANCH  39  41
ENDBRANCH  24  25
ENDBRANCH  22  24
ENDBRANCH  18  22
ENDBRANCH  12  14
ENDBRANCH  10  12
ENDBRANCH   7  10
ENDBRANCH   3   7
TORSDOF 9
ENDMDL
MODEL 4
REMARK VINA RESULT: -7.623965710      2.766      4.602
REMARK  9 active torsions:
REMARK  status: ('A' for Active; 'I' for Inactive)
REMARK    1  A    between atoms: C2_3  and  C3_7 
REMARK    2  A    between atoms: C3_7  and  O1_8 
REMARK    3  A    between atoms: C3_7  and  N3_10 
REMARK    4  A    between atoms: N3_10  and  N4_12 
REMARK    5  A    between atoms: N4_12  and  C4_14 
REMARK    6  A    between atoms: C5_19  and  N7_20 
REMARK    7  A    between atoms: N7_20  and  C6_22 
REMARK    8  A    between atoms: C6_22  and  C7_23 
REMARK    9  A    between atoms: N10_36  and  N11_38 
REMARK       I    between atoms: N11_38  and  C13_39 
ROOT
HETATM    1  N1  UNL     1      -3.242  39.454  -1.880  1.00  0.00    -0.190 NA
HETATM    2  C1  UNL     1      -3.459  39.887  -0.815  1.00  0.00     0.117 C 
HETATM    3  C2  UNL     1      -3.740  40.436   0.487  1.00  0.00     0.134 C 
HETATM    4  N2  UNL     1      -2.887  41.268   0.978  1.00  0.00    -0.390 N 
ATOM      5  H21 UNL     1      -3.086  41.656   1.900  1.00  0.00     0.156 HD
ATOM      6  H22 UNL     1      -2.045  41.528   0.464  1.00  0.00     0.156 HD
ENDROOT
BRANCH   3   7
HETATM    7  C3  UNL     1      -4.960  40.060   1.231  1.00  0.00     0.294 C 
BRANCH   7   8
HETATM    8  O1  UNL     1      -4.864  38.771   1.748  1.00  0.00    -0.369 OA
ATOM      9  H1  UNL     1      -4.224  38.726   2.449  1.00  0.00     0.212 HD
ENDBRANCH   7   8
BRANCH   7  10
HETATM   10  N3  UNL     1      -6.156  40.192   0.415  1.00  0.00    -0.287 N 
ATOM     11  H3  UNL     1      -6.109  40.499  -0.557  1.00  0.00     0.184 HD
BRANCH  10  12
HETATM   12  N4  UNL     1      -7.374  39.878   1.026  1.00  0.00    -0.132 N 
ATOM     13  H4  UNL     1      -7.740  40.443   1.792  1.00  0.00     0.205 HD
BRANCH  12  14
HETATM   14  C4  UNL     1      -8.017  38.853   0.591  1.00  0.00     0.726 A 
HETATM   15  N5  UNL     1      -9.301  38.774   0.289  1.00  0.00    -0.116 N 
HETATM   16  N6  UNL     1      -9.581  37.568  -0.121  1.00  0.00    -0.117 N 
ATOM     17  H5  UNL     1      -9.971  39.539   0.365  1.00  0.00     0.206 HD
HETATM   18  C5  UNL     1      -8.458  36.842  -0.087  1.00  0.00     0.707 A 
ATOM     19  H6  UNL     1     -10.499  37.235  -0.417  1.00  0.00     0.206 HD
HETATM   20  N13 UNL     1      -7.460  37.653   0.365  1.00  0.00    -0.018 N 
ATOM     21  H13 UNL     1      -6.482  37.398   0.503  1.00  0.00     0.203 HD
BRANCH  18  22
HETATM   22  N7  UNL     1      -8.299  35.473  -0.450  1.00  0.00    -0.220 N 
ATOM     23  H7  UNL     1      -9.130  34.882  -0.459  1.00  0.00     0.177 HD
BRANCH  22  24
HETATM   24  C6  UNL     1      -7.038  34.870  -0.804  1.00  0.00     0.199 C 
BRANCH  24  25
HETATM   25  C7  UNL     1      -6.866  33.471  -0.193  1.00  0.00     0.291 C 
HETATM   26  O2  UNL     1      -5.705  33.518   0.555  1.00  0.00    -0.287 OA
HETATM   27  C8  UNL     1      -4.758  32.607   0.974  1.00  0.00     0.271 C 
HETATM   28  O3  UNL     1      -3.961  33.009   1.845  1.00  0.00    -0.264 OA
HETATM   29  C9  UNL     1      -4.623  31.212   0.472  1.00  0.00     0.140 C 
HETATM   30  C10 UNL     1      -3.393  31.106  -0.378  1.00  0.00     0.095 C 
HETATM   31  C14 UNL     1      -5.848  30.818  -0.224  1.00  0.00     0.121 A 
HETATM   32  N8  UNL     1      -3.491  31.733  -1.533  1.00  0.00    -0.316 N 
HETATM   33  N9  UNL     1      -4.705  32.374  -1.757  1.00  0.00    -0.296 N 
ATOM     34  H8  UNL     1      -2.731  31.748  -2.214  1.00  0.00     0.185 HD
HETATM   35  C11 UNL     1      -5.958  31.743  -1.418  1.00  0.00     0.203 A 
ATOM     36  H9  UNL     1      -4.710  33.308  -2.168  1.00  0.00     0.184 HD
HETATM   37  O4  UNL     1      -7.016  32.562  -1.174  1.00  0.00    -0.321 OA
HETATM   38  C12 UNL     1      -6.000  30.331  -1.590  1.00  0.00     0.084 A 
HETATM   39  N10 UNL     1      -6.095  29.217  -2.248  1.00  0.00    -0.234 N 
ATOM     40  H10 UNL     1      -6.211  29.341  -3.254  1.00  0.00     0.201 HD
BRANCH  39  41
HETATM   41  N11 UNL     1      -6.071  27.978  -1.875  1.00  0.00    -0.268 NA
HETATM   42  C13 UNL     1      -6.046  26.652  -1.474  1.00  0.00     0.424 C 
HETATM   43  N12 UNL     1      -6.678  25.628  -2.296  1.00  0.00    -0.024 NA
HETATM   44  O5  UNL     1      -5.511  26.176  -0.415  1.00  0.00    -0.232 OA
ENDBRANCH  39  41
ENDBRANCH  24  25
ENDBRANCH  22  24
ENDBRANCH  18  22
ENDBRANCH  12  14
ENDBRANCH  10  12
ENDBRANCH   7  10
ENDBRANCH   3   7
TORSDOF 9
ENDMDL
MODEL 5
REMARK VINA RESULT: -7.619855906      2.855      4.552
REMARK  9 active torsions:
REMARK  status: ('A' for Active; 'I' for Inactive)
REMARK    1  A    between atoms: C2_3  and  C3_7 
REMARK    2  A    between atoms: C3_7  and  O1_8 
REMARK    3  A    between atoms: C3_7  and  N3_10 
REMARK    4  A    between atoms: N3_10  and  N4_12 
REMARK    5  A    between atoms: N4_12  and  C4_14 
REMARK    6  A    between atoms: C5_19  and  N7_20 
REMARK    7  A    between atoms: N7_20  and  C6_22 
REMARK    8  A    between atoms: C6_22  and  C7_23 
REMARK    9  A    between atoms: N10_36  and  N11_38 
REMARK       I    between atoms: N11_38  and  C13_39 
ROOT
HETATM    1  N1  UNL     1      -9.759  35.795  -0.430  1.00  0.00    -0.190 NA
HETATM    2  C1  UNL     1      -9.452  36.885  -0.138  1.00  0.00     0.117 C 
HETATM    3  C2  UNL     1      -9.075  38.221   0.246  1.00  0.00     0.134 C 
HETATM    4  N2  UNL     1     -10.011  39.104   0.327  1.00  0.00    -0.390 N 
ATOM      5  H21 UNL     1      -9.743  40.050   0.598  1.00  0.00     0.156 HD
ATOM      6  H22 UNL     1     -10.982  38.864   0.128  1.00  0.00     0.156 HD
ENDROOT
BRANCH   3   7
HETATM    7  C3  UNL     1      -7.668  38.568   0.534  1.00  0.00     0.294 C 
BRANCH   7   8
HETATM    8  O1  UNL     1      -7.020  37.541   1.215  1.00  0.00    -0.369 OA
ATOM      9  H1  UNL     1      -7.617  36.833   1.424  1.00  0.00     0.212 HD
ENDBRANCH   7   8
BRANCH   7  10
HETATM   10  N3  UNL     1      -7.556  39.816   1.272  1.00  0.00    -0.287 N 
ATOM     11  H3  UNL     1      -8.381  40.347   1.552  1.00  0.00     0.184 HD
BRANCH  10  12
HETATM   12  N4  UNL     1      -6.263  40.253   1.578  1.00  0.00    -0.132 N 
ATOM     13  H4  UNL     1      -6.084  40.835   2.396  1.00  0.00     0.205 HD
BRANCH  12  14
HETATM   14  C4  UNL     1      -5.308  39.897   0.795  1.00  0.00     0.726 A 
HETATM   15  N5  UNL     1      -4.919  40.484  -0.324  1.00  0.00    -0.116 N 
HETATM   16  N6  UNL     1      -3.916  39.828  -0.836  1.00  0.00    -0.117 N 
ATOM     17  H5  UNL     1      -5.340  41.322  -0.725  1.00  0.00     0.206 HD
HETATM   18  C5  UNL     1      -3.641  38.791  -0.038  1.00  0.00     0.707 A 
ATOM     19  H6  UNL     1      -3.424  40.066  -1.698  1.00  0.00     0.206 HD
HETATM   20  N13 UNL     1      -4.522  38.829   1.001  1.00  0.00    -0.018 N 
ATOM     21  H13 UNL     1      -4.574  38.174   1.781  1.00  0.00     0.203 HD
BRANCH  18  22
HETATM   22  N7  UNL     1      -2.622  37.809  -0.211  1.00  0.00    -0.220 N 
ATOM     23  H7  UNL     1      -1.745  38.103  -0.641  1.00  0.00     0.177 HD
BRANCH  22  24
HETATM   24  C6  UNL     1      -2.751  36.428   0.183  1.00  0.00     0.199 C 
BRANCH  24  25
HETATM   25  C7  UNL     1      -4.048  35.790  -0.337  1.00  0.00     0.291 C 
HETATM   26  O2  UNL     1      -4.812  35.505   0.779  1.00  0.00    -0.287 OA
HETATM   27  C8  UNL     1      -5.799  34.598   1.099  1.00  0.00     0.271 C 
HETATM   28  O3  UNL     1      -6.414  34.812   2.163  1.00  0.00    -0.264 OA
HETATM   29  C9  UNL     1      -6.173  33.409   0.285  1.00  0.00     0.140 C 
HETATM   30  C10 UNL     1      -5.718  32.163   0.985  1.00  0.00     0.095 C 
HETATM   31  C14 UNL     1      -5.634  33.547  -1.067  1.00  0.00     0.121 A 
HETATM   32  N8  UNL     1      -4.409  32.007   0.992  1.00  0.00    -0.316 N 
HETATM   33  N9  UNL     1      -3.690  33.012   0.354  1.00  0.00    -0.296 N 
ATOM     34  H8  UNL     1      -3.956  31.206   1.432  1.00  0.00     0.185 HD
HETATM   35  C11 UNL     1      -4.127  33.559  -0.909  1.00  0.00     0.203 A 
ATOM     36  H9  UNL     1      -2.839  33.370   0.786  1.00  0.00     0.184 HD
HETATM   37  O4  UNL     1      -3.718  34.820  -1.210  1.00  0.00    -0.321 OA
HETATM   38  C12 UNL     1      -4.755  32.636  -1.792  1.00  0.00     0.084 A 
HETATM   39  N10 UNL     1      -4.812  31.676  -2.663  1.00  0.00    -0.234 N 
ATOM     40  H10 UNL     1      -3.900  31.302  -2.923  1.00  0.00     0.201 HD
BRANCH  39  41
HETATM   41  N11 UNL     1      -5.803  31.101  -3.264  1.00  0.00    -0.268 NA
HETATM   42  C13 UNL     1      -6.865  30.486  -3.908  1.00  0.00     0.424 C 
HETATM   43  N12 UNL     1      -7.153  30.795  -5.303  1.00  0.00    -0.024 NA
HETATM   44  O5  UNL     1      -7.677  29.632  -3.413  1.00  0.00    -0.232 OA
ENDBRANCH  39  41
ENDBRANCH  24  25
ENDBRANCH  22  24
ENDBRANCH  18  22
ENDBRANCH  12  14
ENDBRANCH  10  12
ENDBRANCH   7  10
ENDBRANCH   3   7
TORSDOF 9
ENDMDL
