MODEL 1
REMARK VINA RESULT: -7.858464966      0.000      0.000
REMARK  9 active torsions:
REMARK  status: ('A' for Active; 'I' for Inactive)
REMARK    1  A    between atoms: N1_1  and  C1_4 
REMARK    2  A    between atoms: C4_14  and  N5_15 
REMARK    3  A    between atoms: N7_20  and  O1_22 
REMARK    4  A    between atoms: N10_29  and  C9_30 
REMARK    5  A    between atoms: N11_32  and  C11_33 
REMARK    6  A    between atoms: C11_33  and  C12_34 
REMARK    7  A    between atoms: C12_34  and  C13_35 
REMARK    8  A    between atoms: C13_35  and  N12_36 
REMARK    9  A    between atoms: C13_35  and  C14_40 
ROOT
HETATM    1  C1  UNL     1      -8.738  38.261   0.243  1.00  0.00     0.679 A 
HETATM    2  N2  UNL     1      -8.152  39.418   0.667  1.00  0.00    -0.175 N 
ATOM      3  H2  UNL     1      -8.736  40.251   0.744  1.00  0.00     0.186 HD
HETATM    4  C2  UNL     1      -6.869  39.528   0.985  1.00  0.00     0.146 A 
HETATM    5  N3  UNL     1      -6.348  40.646   1.387  1.00  0.00    -0.383 N 
ATOM      6  H31 UNL     1      -5.361  40.731   1.632  1.00  0.00     0.157 HD
ATOM      7  H32 UNL     1      -6.941  41.472   1.459  1.00  0.00     0.157 HD
HETATM    8  C3  UNL     1      -6.065  38.410   0.887  1.00  0.00     0.139 A 
HETATM    9  N4  UNL     1      -4.794  38.135   1.109  1.00  0.00    -0.182 N 
ATOM     10  H4  UNL     1      -4.103  38.810   1.436  1.00  0.00     0.184 HD
HETATM   11  C4  UNL     1      -4.531  36.824   0.843  1.00  0.00     0.716 A 
HETATM   12  N10 UNL     1      -5.690  36.280   0.442  1.00  0.00    -0.110 N 
HETATM   13  C15 UNL     1      -6.678  37.226   0.452  1.00  0.00     0.177 A 
HETATM   14  N15 UNL     1      -7.977  37.163   0.141  1.00  0.00    -0.173 N 
ATOM     15  H15 UNL     1      -8.386  36.283  -0.175  1.00  0.00     0.186 HD
ENDROOT
BRANCH  12  16
HETATM   16  C9  UNL     1      -5.924  34.921   0.047  1.00  0.00     0.163 A 
HETATM   17  C10 UNL     1      -5.573  34.351  -1.154  1.00  0.00     0.162 A 
HETATM   18  N11 UNL     1      -5.940  33.037  -1.166  1.00  0.00    -0.285 N 
HETATM   19  N13 UNL     1      -6.497  32.838   0.004  1.00  0.00    -0.239 N 
HETATM   20  N14 UNL     1      -6.501  33.928   0.736  1.00  0.00    -0.269 N 
ATOM     21  H13 UNL     1      -6.880  31.944   0.309  1.00  0.00     0.208 HD
ATOM     22  H14 UNL     1      -6.882  34.005   1.679  1.00  0.00     0.190 HD
BRANCH  18  23
HETATM   23  C11 UNL     1      -5.717  32.122  -2.279  1.00  0.00     0.152 C 
BRANCH  23  24
HETATM   24  C12 UNL     1      -6.766  31.066  -2.342  1.00  0.00     0.066 C 
BRANCH  24  25
HETATM   25  C13 UNL     1      -6.481  29.899  -3.236  1.00  0.00     0.285 C 
BRANCH  25  26
HETATM   26  N12 UNL     1      -5.081  30.046  -3.663  1.00  0.00    -0.065 N 
ATOM     27 3H12 UNL     1      -4.937  29.860  -4.656  1.00  0.00     0.275 HD
ATOM     28 2H12 UNL     1      -4.758  31.013  -3.671  1.00  0.00     0.275 HD
ATOM     29 1H12 UNL     1      -4.534  29.439  -3.052  1.00  0.00     0.275 HD
ENDBRANCH  25  26
BRANCH  25  30
HETATM   30  C14 UNL     1      -7.289  29.952  -4.489  1.00  0.00     0.204 C 
HETATM   31  O2  UNL     1      -8.121  29.085  -4.748  1.00  0.00    -0.646 OA
HETATM   32  O3  UNL     1      -7.096  30.990  -5.366  1.00  0.00    -0.646 OA
ENDBRANCH  25  30
ENDBRANCH  24  25
ENDBRANCH  23  24
ENDBRANCH  18  23
ENDBRANCH  12  16
BRANCH  11  33
HETATM   33  N5  UNL     1      -3.271  36.173   0.961  1.00  0.00    -0.059 N 
HETATM   34  N6  UNL     1      -2.923  35.450   2.073  1.00  0.00    -0.300 N 
HETATM   35  C5  UNL     1      -1.753  34.657   1.998  1.00  0.00     0.178 A 
ATOM     36  H6  UNL     1      -3.486  35.483   2.922  1.00  0.00     0.182 HD
HETATM   37  C6  UNL     1      -0.415  35.196   2.020  1.00  0.00     0.061 A 
HETATM   38  C7  UNL     1      -1.052  34.551   0.764  1.00  0.00     0.164 A 
HETATM   39  N7  UNL     1       0.780  35.717   2.166  1.00  0.00    -0.273 N 
ATOM     40  H7  UNL     1       1.427  35.729   1.378  1.00  0.00     0.193 HD
HETATM   41  N8  UNL     1      -1.324  35.528  -0.252  1.00  0.00    -0.350 N 
HETATM   42  C8  UNL     1      -2.385  36.288  -0.137  1.00  0.00     0.227 C 
ATOM     43  H8  UNL     1      -0.700  35.629  -1.052  1.00  0.00     0.163 HD
HETATM   44  N9  UNL     1      -2.559  37.218  -1.204  1.00  0.00    -0.061 NA
BRANCH  39  45
HETATM   45  O1  UNL     1       1.166  36.247   3.380  1.00  0.00    -0.290 OA
ATOM     46  H1  UNL     1       2.025  36.640   3.481  1.00  0.00     0.244 HD
ENDBRANCH  39  45
ENDBRANCH  11  33
BRANCH   1  47
HETATM   47  N1  UNL     1     -10.015  38.215  -0.059  1.00  0.00    -0.234 N 
ATOM     48  H12 UNL     1     -10.706  38.651   0.551  1.00  0.00     0.174 HD
ATOM     49  H11 UNL     1     -10.342  37.746  -0.904  1.00  0.00     0.174 HD
ENDBRANCH   1  47
TORSDOF 9
ENDMDL
MODEL 2
REMARK VINA RESULT: -7.647707016      1.283      1.748
REMARK  9 active torsions:
REMARK  status: ('A' for Active; 'I' for Inactive)
REMARK    1  A    between atoms: N1_1  and  C1_4 
REMARK    2  A    between atoms: C4_14  and  N5_15 
REMARK    3  A    between atoms: N7_20  and  O1_22 
REMARK    4  A    between atoms: N10_29  and  C9_30 
REMARK    5  A    between atoms: N11_32  and  C11_33 
REMARK    6  A    between atoms: C11_33  and  C12_34 
REMARK    7  A    between atoms: C12_34  and  C13_35 
REMARK    8  A    between atoms: C13_35  and  N12_36 
REMARK    9  A    between atoms: C13_35  and  C14_40 
ROOT
HETATM    1  C1  UNL     1      -8.730  38.293   0.272  1.00  0.00     0.679 A 
HETATM    2  N2  UNL     1      -8.152  39.437   0.740  1.00  0.00    -0.175 N 
ATOM      3  H2  UNL     1      -8.730  40.275   0.804  1.00  0.00     0.186 HD
HETATM    4  C2  UNL     1      -6.883  39.528   1.118  1.00  0.00     0.146 A 
HETATM    5  N3  UNL     1      -6.370  40.634   1.562  1.00  0.00    -0.383 N 
ATOM      6  H31 UNL     1      -5.394  40.704   1.852  1.00  0.00     0.157 HD
ATOM      7  H32 UNL     1      -6.958  41.465   1.620  1.00  0.00     0.157 HD
HETATM    8  C3  UNL     1      -6.088  38.403   1.039  1.00  0.00     0.139 A 
HETATM    9  N4  UNL     1      -4.831  38.110   1.314  1.00  0.00    -0.182 N 
ATOM     10  H4  UNL     1      -4.149  38.772   1.682  1.00  0.00     0.184 HD
HETATM   11  C4  UNL     1      -4.570  36.801   1.039  1.00  0.00     0.716 A 
HETATM   12  N10 UNL     1      -5.715  36.276   0.577  1.00  0.00    -0.110 N 
HETATM   13  C15 UNL     1      -6.693  37.233   0.557  1.00  0.00     0.177 A 
HETATM   14  N15 UNL     1      -7.976  37.189   0.186  1.00  0.00    -0.173 N 
ATOM     15  H15 UNL     1      -8.380  36.319  -0.162  1.00  0.00     0.186 HD
ENDROOT
BRANCH  12  16
HETATM   16  C9  UNL     1      -5.945  34.926   0.150  1.00  0.00     0.163 A 
HETATM   17  C10 UNL     1      -5.633  34.398  -1.082  1.00  0.00     0.162 A 
HETATM   18  N11 UNL     1      -5.982  33.079  -1.120  1.00  0.00    -0.285 N 
HETATM   19  N13 UNL     1      -6.488  32.837   0.064  1.00  0.00    -0.239 N 
HETATM   20  N14 UNL     1      -6.479  33.904   0.829  1.00  0.00    -0.269 N 
ATOM     21  H13 UNL     1      -6.847  31.928   0.357  1.00  0.00     0.208 HD
ATOM     22  H14 UNL     1      -6.823  33.947   1.788  1.00  0.00     0.190 HD
BRANCH  18  23
HETATM   23  C11 UNL     1      -5.790  32.202  -2.269  1.00  0.00     0.152 C 
BRANCH  23  24
HETATM   24  C12 UNL     1      -6.806  31.113  -2.306  1.00  0.00     0.066 C 
BRANCH  24  25
HETATM   25  C13 UNL     1      -6.495  29.944  -3.186  1.00  0.00     0.285 C 
BRANCH  25  26
HETATM   26  N12 UNL     1      -5.094  30.111  -3.606  1.00  0.00    -0.065 N 
ATOM     27 3H12 UNL     1      -4.832  31.083  -3.769  1.00  0.00     0.275 HD
ATOM     28 2H12 UNL     1      -4.422  29.925  -2.862  1.00  0.00     0.275 HD
ATOM     29 1H12 UNL     1      -4.972  29.514  -4.424  1.00  0.00     0.275 HD
ENDBRANCH  25  26
BRANCH  25  30
HETATM   30  C14 UNL     1      -7.295  29.972  -4.446  1.00  0.00     0.204 C 
HETATM   31  O2  UNL     1      -8.120  29.096  -4.696  1.00  0.00    -0.646 OA
HETATM   32  O3  UNL     1      -7.102  30.997  -5.338  1.00  0.00    -0.646 OA
ENDBRANCH  25  30
ENDBRANCH  24  25
ENDBRANCH  23  24
ENDBRANCH  18  23
ENDBRANCH  12  16
BRANCH  11  33
HETATM   33  N5  UNL     1      -3.324  36.134   1.203  1.00  0.00    -0.059 N 
HETATM   34  N6  UNL     1      -2.494  35.862   0.146  1.00  0.00    -0.300 N 
HETATM   35  C5  UNL     1      -1.186  35.407   0.439  1.00  0.00     0.178 A 
ATOM     36  H6  UNL     1      -2.808  35.984  -0.816  1.00  0.00     0.182 HD
HETATM   37  C6  UNL     1      -0.888  34.079   0.920  1.00  0.00     0.061 A 
HETATM   38  C7  UNL     1      -0.748  35.352   1.793  1.00  0.00     0.164 A 
HETATM   39  N7  UNL     1      -0.649  32.830   1.237  1.00  0.00    -0.273 N 
ATOM     40  H7  UNL     1      -0.324  32.598   2.176  1.00  0.00     0.193 HD
HETATM   41  N8  UNL     1      -1.742  35.396   2.826  1.00  0.00    -0.350 N 
HETATM   42  C8  UNL     1      -2.960  35.771   2.523  1.00  0.00     0.227 C 
ATOM     43  H8  UNL     1      -1.503  35.140   3.784  1.00  0.00     0.163 HD
HETATM   44  N9  UNL     1      -3.863  35.783   3.627  1.00  0.00    -0.061 NA
BRANCH  39  45
HETATM   45  O1  UNL     1      -0.835  31.827   0.308  1.00  0.00    -0.290 OA
ATOM     46  H1  UNL     1      -1.590  31.840  -0.268  1.00  0.00     0.244 HD
ENDBRANCH  39  45
ENDBRANCH  11  33
BRANCH   1  47
HETATM   47  N1  UNL     1      -9.992  38.266  -0.090  1.00  0.00    -0.234 N 
ATOM     48  H12 UNL     1     -10.404  37.411  -0.463  1.00  0.00     0.174 HD
ATOM     49  H11 UNL     1     -10.583  39.093  -0.007  1.00  0.00     0.174 HD
ENDBRANCH   1  47
TORSDOF 9
ENDMDL
MODEL 3
REMARK VINA RESULT: -7.486283391      1.551      2.025
REMARK  9 active torsions:
REMARK  status: ('A' for Active; 'I' for Inactive)
REMARK    1  A    between atoms: N1_1  and  C1_4 
REMARK    2  A    between atoms: C4_14  and  N5_15 
REMARK    3  A    between atoms: N7_20  and  O1_22 
REMARK    4  A    between atoms: N10_29  and  C9_30 
REMARK    5  A    between atoms: N11_32  and  C11_33 
REMARK    6  A    between atoms: C11_33  and  C12_34 
REMARK    7  A    between atoms: C12_34  and  C13_35 
REMARK    8  A    between atoms: C13_35  and  N12_36 
REMARK    9  A    between atoms: C13_35  and  C14_40 
ROOT
HETATM    1  C1  UNL     1      -8.801  38.347   0.272  1.00  0.00     0.679 A 
HETATM    2  N2  UNL     1      -8.189  39.420   0.853  1.00  0.00    -0.175 N 
ATOM      3  H2  UNL     1      -8.752  40.251   1.035  1.00  0.00     0.186 HD
HETATM    4  C2  UNL     1      -6.908  39.450   1.196  1.00  0.00     0.146 A 
HETATM    5  N3  UNL     1      -6.363  40.490   1.749  1.00  0.00    -0.383 N 
ATOM      6  H31 UNL     1      -5.378  40.513   2.012  1.00  0.00     0.157 HD
ATOM      7  H32 UNL     1      -6.936  41.315   1.926  1.00  0.00     0.157 HD
HETATM    8  C3  UNL     1      -6.134  38.333   0.956  1.00  0.00     0.139 A 
HETATM    9  N4  UNL     1      -4.873  37.995   1.152  1.00  0.00    -0.182 N 
ATOM     10  H4  UNL     1      -4.169  38.601   1.572  1.00  0.00     0.184 HD
HETATM   11  C4  UNL     1      -4.641  36.725   0.714  1.00  0.00     0.716 A 
HETATM   12  N10 UNL     1      -5.810  36.272   0.233  1.00  0.00    -0.110 N 
HETATM   13  C15 UNL     1      -6.772  37.236   0.360  1.00  0.00     0.177 A 
HETATM   14  N15 UNL     1      -8.067  37.252   0.030  1.00  0.00    -0.173 N 
ATOM     15  H15 UNL     1      -8.495  36.434  -0.404  1.00  0.00     0.186 HD
ENDROOT
BRANCH  12  16
HETATM   16  C9  UNL     1      -6.074  34.986  -0.343  1.00  0.00     0.163 A 
HETATM   17  C10 UNL     1      -5.214  34.254  -1.129  1.00  0.00     0.162 A 
HETATM   18  N11 UNL     1      -5.802  33.074  -1.480  1.00  0.00    -0.285 N 
HETATM   19  N13 UNL     1      -6.983  33.111  -0.914  1.00  0.00    -0.239 N 
HETATM   20  N14 UNL     1      -7.169  34.223  -0.241  1.00  0.00    -0.269 N 
ATOM     21  H13 UNL     1      -7.676  32.366  -0.987  1.00  0.00     0.208 HD
ATOM     22  H14 UNL     1      -8.013  34.466   0.278  1.00  0.00     0.190 HD
BRANCH  18  23
HETATM   23  C11 UNL     1      -5.177  32.047  -2.305  1.00  0.00     0.152 C 
BRANCH  23  24
HETATM   24  C12 UNL     1      -5.325  30.692  -1.705  1.00  0.00     0.066 C 
BRANCH  24  25
HETATM   25  C13 UNL     1      -5.966  29.650  -2.567  1.00  0.00     0.285 C 
BRANCH  25  26
HETATM   26  N12 UNL     1      -5.247  29.683  -3.849  1.00  0.00    -0.065 N 
ATOM     27 3H12 UNL     1      -4.409  29.101  -3.861  1.00  0.00     0.275 HD
ATOM     28 2H12 UNL     1      -5.739  29.206  -4.604  1.00  0.00     0.275 HD
ATOM     29 1H12 UNL     1      -5.061  30.668  -4.043  1.00  0.00     0.275 HD
ENDBRANCH  25  26
BRANCH  25  30
HETATM   30  C14 UNL     1      -7.381  29.995  -2.893  1.00  0.00     0.204 C 
HETATM   31  O2  UNL     1      -7.851  29.772  -4.007  1.00  0.00    -0.646 OA
HETATM   32  O3  UNL     1      -8.168  30.573  -1.928  1.00  0.00    -0.646 OA
ENDBRANCH  25  30
ENDBRANCH  24  25
ENDBRANCH  23  24
ENDBRANCH  18  23
ENDBRANCH  12  16
BRANCH  11  33
HETATM   33  N5  UNL     1      -3.401  36.029   0.756  1.00  0.00    -0.059 N 
HETATM   34  N6  UNL     1      -2.435  36.199  -0.201  1.00  0.00    -0.300 N 
HETATM   35  C5  UNL     1      -1.158  35.642   0.051  1.00  0.00     0.178 A 
ATOM     36  H6  UNL     1      -2.629  36.708  -1.063  1.00  0.00     0.182 HD
HETATM   37  C6  UNL     1      -0.871  34.229  -0.014  1.00  0.00     0.061 A 
HETATM   38  C7  UNL     1      -0.892  35.033   1.310  1.00  0.00     0.164 A 
HETATM   39  N7  UNL     1      -0.626  32.955  -0.204  1.00  0.00    -0.273 N 
ATOM     40  H7  UNL     1      -0.414  32.355   0.593  1.00  0.00     0.193 HD
HETATM   41  N8  UNL     1      -2.010  34.668   2.131  1.00  0.00    -0.350 N 
HETATM   42  C8  UNL     1      -3.194  35.153   1.849  1.00  0.00     0.227 C 
ATOM     43  H8  UNL     1      -1.885  34.039   2.924  1.00  0.00     0.163 HD
HETATM   44  N9  UNL     1      -4.229  34.728   2.733  1.00  0.00    -0.061 NA
BRANCH  39  45
HETATM   45  O1  UNL     1      -0.653  32.422  -1.477  1.00  0.00    -0.290 OA
ATOM     46  H1  UNL     1      -1.435  32.496  -2.012  1.00  0.00     0.244 HD
ENDBRANCH  39  45
ENDBRANCH  11  33
BRANCH   1  47
HETATM   47  N1  UNL     1     -10.074  38.378  -0.046  1.00  0.00    -0.234 N 
ATOM     48  H12 UNL     1     -10.486  39.222  -0.445  1.00  0.00     0.174 HD
ATOM     49  H11 UNL     1     -10.675  37.567   0.098  1.00  0.00     0.174 HD
ENDBRANCH   1  47
TORSDOF 9
ENDMDL
MODEL 4
REMARK VINA RESULT: -7.147549880      6.388      9.599
REMARK  9 active torsions:
REMARK  status: ('A' for Active; 'I' for Inactive)
REMARK    1  A    between atoms: N1_1  and  C1_4 
REMARK    2  A    between atoms: C4_14  and  N5_15 
REMARK    3  A    between atoms: N7_20  and  O1_22 
REMARK    4  A    between atoms: N10_29  and  C9_30 
REMARK    5  A    between atoms: N11_32  and  C11_33 
REMARK    6  A    between atoms: C11_33  and  C12_34 
REMARK    7  A    between atoms: C12_34  and  C13_35 
REMARK    8  A    between atoms: C13_35  and  N12_36 
REMARK    9  A    between atoms: C13_35  and  C14_40 
ROOT
HETATM    1  C1  UNL     1      -3.600  24.511   2.404  1.00  0.00     0.679 A 
HETATM    2  N2  UNL     1      -3.225  25.471   3.299  1.00  0.00    -0.175 N 
ATOM      3  H2  UNL     1      -2.822  25.168   4.186  1.00  0.00     0.186 HD
HETATM    4  C2  UNL     1      -3.351  26.774   3.087  1.00  0.00     0.146 A 
HETATM    5  N3  UNL     1      -2.979  27.657   3.962  1.00  0.00    -0.383 N 
ATOM      6  H31 UNL     1      -3.076  28.660   3.798  1.00  0.00     0.157 HD
ATOM      7  H32 UNL     1      -2.579  27.343   4.845  1.00  0.00     0.157 HD
HETATM    8  C3  UNL     1      -3.893  27.200   1.891  1.00  0.00     0.139 A 
HETATM    9  N4  UNL     1      -4.165  28.366   1.336  1.00  0.00    -0.182 N 
ATOM     10  H4  UNL     1      -3.991  29.271   1.774  1.00  0.00     0.184 HD
HETATM   11  C4  UNL     1      -4.709  28.196   0.098  1.00  0.00     0.716 A 
HETATM   12  N10 UNL     1      -4.770  26.871  -0.109  1.00  0.00    -0.110 N 
HETATM   13  C15 UNL     1      -4.274  26.205   0.979  1.00  0.00     0.177 A 
HETATM   14  N15 UNL     1      -4.129  24.902   1.237  1.00  0.00    -0.173 N 
ATOM     15  H15 UNL     1      -4.421  24.208   0.548  1.00  0.00     0.186 HD
ENDROOT
BRANCH  12  16
HETATM   16  C9  UNL     1      -5.271  26.193  -1.268  1.00  0.00     0.163 A 
HETATM   17  C10 UNL     1      -4.553  25.868  -2.396  1.00  0.00     0.162 A 
HETATM   18  N11 UNL     1      -5.358  25.214  -3.283  1.00  0.00    -0.285 N 
HETATM   19  N13 UNL     1      -6.525  25.156  -2.690  1.00  0.00    -0.239 N 
HETATM   20  N14 UNL     1      -6.503  25.724  -1.507  1.00  0.00    -0.269 N 
ATOM     21  H13 UNL     1      -7.353  24.722  -3.100  1.00  0.00     0.208 HD
ATOM     22  H14 UNL     1      -7.297  25.796  -0.870  1.00  0.00     0.190 HD
BRANCH  18  23
HETATM   23  C11 UNL     1      -4.927  24.715  -4.583  1.00  0.00     0.152 C 
BRANCH  23  24
HETATM   24  C12 UNL     1      -5.540  25.488  -5.700  1.00  0.00     0.066 C 
BRANCH  24  25
HETATM   25  C13 UNL     1      -4.725  26.614  -6.255  1.00  0.00     0.285 C 
BRANCH  25  26
HETATM   26  N12 UNL     1      -3.373  26.451  -5.698  1.00  0.00    -0.065 N 
ATOM     27 3H12 UNL     1      -3.333  26.569  -4.686  1.00  0.00     0.275 HD
ATOM     28 2H12 UNL     1      -3.036  25.489  -5.723  1.00  0.00     0.275 HD
ATOM     29 1H12 UNL     1      -2.778  27.105  -6.207  1.00  0.00     0.275 HD
ENDBRANCH  25  26
BRANCH  25  30
HETATM   30  C14 UNL     1      -5.204  27.938  -5.762  1.00  0.00     0.204 C 
HETATM   31  O2  UNL     1      -5.255  28.190  -4.559  1.00  0.00    -0.646 OA
HETATM   32  O3  UNL     1      -5.594  28.890  -6.671  1.00  0.00    -0.646 OA
ENDBRANCH  25  30
ENDBRANCH  24  25
ENDBRANCH  23  24
ENDBRANCH  18  23
ENDBRANCH  12  16
BRANCH  11  33
HETATM   33  N5  UNL     1      -5.133  29.225  -0.789  1.00  0.00    -0.059 N 
HETATM   34  N6  UNL     1      -6.448  29.593  -0.906  1.00  0.00    -0.300 N 
HETATM   35  C5  UNL     1      -6.736  30.771  -1.636  1.00  0.00     0.178 A 
ATOM     36  H6  UNL     1      -7.191  29.039  -0.482  1.00  0.00     0.182 HD
HETATM   37  C6  UNL     1      -6.658  30.863  -3.074  1.00  0.00     0.061 A 
HETATM   38  C7  UNL     1      -5.667  31.577  -2.121  1.00  0.00     0.164 A 
HETATM   39  N7  UNL     1      -6.694  30.868  -4.385  1.00  0.00    -0.273 N 
ATOM     40  H7  UNL     1      -5.997  31.398  -4.909  1.00  0.00     0.193 HD
HETATM   41  N8  UNL     1      -4.358  30.993  -2.186  1.00  0.00    -0.350 N 
HETATM   42  C8  UNL     1      -4.127  29.874  -1.545  1.00  0.00     0.227 C 
ATOM     43  H8  UNL     1      -3.618  31.442  -2.725  1.00  0.00     0.163 HD
HETATM   44  N9  UNL     1      -2.793  29.387  -1.675  1.00  0.00    -0.061 NA
BRANCH  39  45
HETATM   45  O1  UNL     1      -7.669  30.161  -5.059  1.00  0.00    -0.290 OA
ATOM     46  H1  UNL     1      -8.483  30.584  -5.307  1.00  0.00     0.244 HD
ENDBRANCH  39  45
ENDBRANCH  11  33
BRANCH   1  47
HETATM   47  N1  UNL     1      -3.452  23.234   2.672  1.00  0.00    -0.234 N 
ATOM     48  H12 UNL     1      -2.577  22.887   3.065  1.00  0.00     0.174 HD
ATOM     49  H11 UNL     1      -4.202  22.566   2.494  1.00  0.00     0.174 HD
ENDBRANCH   1  47
TORSDOF 9
ENDMDL
MODEL 5
REMARK VINA RESULT: -7.140782488      3.990      7.996
REMARK  9 active torsions:
REMARK  status: ('A' for Active; 'I' for Inactive)
REMARK    1  A    between atoms: N1_1  and  C1_4 
REMARK    2  A    between atoms: C4_14  and  N5_15 
REMARK    3  A    between atoms: N7_20  and  O1_22 
REMARK    4  A    between atoms: N10_29  and  C9_30 
REMARK    5  A    between atoms: N11_32  and  C11_33 
REMARK    6  A    between atoms: C11_33  and  C12_34 
REMARK    7  A    between atoms: C12_34  and  C13_35 
REMARK    8  A    between atoms: C13_35  and  N12_36 
REMARK    9  A    between atoms: C13_35  and  C14_40 
ROOT
HETATM    1  C1  UNL     1      -4.773  31.787   5.806  1.00  0.00     0.679 A 
HETATM    2  N2  UNL     1      -4.188  30.556   5.714  1.00  0.00    -0.175 N 
ATOM      3  H2  UNL     1      -3.839  30.127   6.571  1.00  0.00     0.186 HD
HETATM    4  C2  UNL     1      -4.046  29.885   4.580  1.00  0.00     0.146 A 
HETATM    5  N3  UNL     1      -3.486  28.715   4.533  1.00  0.00    -0.383 N 
ATOM      6  H31 UNL     1      -3.376  28.198   3.660  1.00  0.00     0.157 HD
ATOM      7  H32 UNL     1      -3.140  28.296   5.396  1.00  0.00     0.157 HD
HETATM    8  C3  UNL     1      -4.514  30.452   3.412  1.00  0.00     0.139 A 
HETATM    9  N4  UNL     1      -4.555  30.104   2.140  1.00  0.00    -0.182 N 
ATOM     10  H4  UNL     1      -4.189  29.229   1.766  1.00  0.00     0.184 HD
HETATM   11  C4  UNL     1      -5.153  31.075   1.393  1.00  0.00     0.716 A 
HETATM   12  N10 UNL     1      -5.490  32.054   2.247  1.00  0.00    -0.110 N 
HETATM   13  C15 UNL     1      -5.113  31.716   3.518  1.00  0.00     0.177 A 
HETATM   14  N15 UNL     1      -5.234  32.357   4.685  1.00  0.00    -0.173 N 
ATOM     15  H15 UNL     1      -5.675  33.276   4.721  1.00  0.00     0.186 HD
ENDROOT
BRANCH  12  16
HETATM   16  C9  UNL     1      -6.143  33.293   1.938  1.00  0.00     0.163 A 
HETATM   17  C10 UNL     1      -5.585  34.366   1.284  1.00  0.00     0.162 A 
HETATM   18  N11 UNL     1      -6.511  35.360   1.154  1.00  0.00    -0.285 N 
HETATM   19  N13 UNL     1      -7.591  34.882   1.722  1.00  0.00    -0.239 N 
HETATM   20  N14 UNL     1      -7.403  33.670   2.191  1.00  0.00    -0.269 N 
ATOM     21  H13 UNL     1      -8.473  35.390   1.791  1.00  0.00     0.208 HD
ATOM     22  H14 UNL     1      -8.105  33.106   2.670  1.00  0.00     0.190 HD
BRANCH  18  23
HETATM   23  C11 UNL     1      -6.268  36.643   0.505  1.00  0.00     0.152 C 
BRANCH  23  24
HETATM   24  C12 UNL     1      -7.091  37.729   1.107  1.00  0.00     0.066 C 
BRANCH  24  25
HETATM   25  C13 UNL     1      -7.963  38.500   0.166  1.00  0.00     0.285 C 
BRANCH  25  26
HETATM   26  N12 UNL     1      -8.072  39.855   0.730  1.00  0.00    -0.065 N 
ATOM     27 3H12 UNL     1      -8.489  39.877   1.660  1.00  0.00     0.275 HD
ATOM     28 2H12 UNL     1      -7.173  40.261   0.989  1.00  0.00     0.275 HD
ATOM     29 1H12 UNL     1      -8.584  40.407   0.041  1.00  0.00     0.275 HD
ENDBRANCH  25  26
BRANCH  25  30
HETATM   30  C14 UNL     1      -9.356  37.966   0.140  1.00  0.00     0.204 C 
HETATM   31  O2  UNL     1      -9.577  36.769  -0.035  1.00  0.00    -0.646 OA
HETATM   32  O3  UNL     1     -10.408  38.831   0.315  1.00  0.00    -0.646 OA
ENDBRANCH  25  30
ENDBRANCH  24  25
ENDBRANCH  23  24
ENDBRANCH  18  23
ENDBRANCH  12  16
BRANCH  11  33
HETATM   33  N5  UNL     1      -5.367  31.051  -0.013  1.00  0.00    -0.059 N 
HETATM   34  N6  UNL     1      -6.492  30.503  -0.573  1.00  0.00    -0.300 N 
HETATM   35  C5  UNL     1      -6.716  30.732  -1.951  1.00  0.00     0.178 A 
ATOM     36  H6  UNL     1      -7.144  29.951  -0.016  1.00  0.00     0.182 HD
HETATM   37  C6  UNL     1      -5.968  30.088  -3.004  1.00  0.00     0.061 A 
HETATM   38  C7  UNL     1      -5.843  31.596  -2.672  1.00  0.00     0.164 A 
HETATM   39  N7  UNL     1      -5.350  29.391  -3.927  1.00  0.00    -0.273 N 
ATOM     40  H7  UNL     1      -4.679  29.849  -4.544  1.00  0.00     0.193 HD
HETATM   41  N8  UNL     1      -4.569  31.905  -2.090  1.00  0.00    -0.350 N 
HETATM   42  C8  UNL     1      -4.365  31.637  -0.823  1.00  0.00     0.227 C 
ATOM     43  H8  UNL     1      -3.833  32.328  -2.654  1.00  0.00     0.163 HD
HETATM   44  N9  UNL     1      -3.067  31.990  -0.351  1.00  0.00    -0.061 NA
BRANCH  39  45
HETATM   45  O1  UNL     1      -5.601  28.041  -4.067  1.00  0.00    -0.290 OA
ATOM     46  H1  UNL     1      -5.515  27.623  -4.916  1.00  0.00     0.244 HD
ENDBRANCH  39  45
ENDBRANCH  11  33
BRANCH   1  47
HETATM   47  N1  UNL     1      -4.884  32.404   6.960  1.00  0.00    -0.234 N 
ATOM     48  H12 UNL     1      -4.796  31.885   7.834  1.00  0.00     0.174 HD
ATOM     49  H11 UNL     1      -5.060  33.407   7.008  1.00  0.00     0.174 HD
ENDBRANCH   1  47
TORSDOF 9
ENDMDL
