MODEL 1
REMARK VINA RESULT: -6.236107590      0.000      0.000
REMARK  4 active torsions:
REMARK  status: ('A' for Active; 'I' for Inactive)
REMARK    1  A    between atoms: N1_1  and  C1_4 
REMARK    2  A    between atoms: C2_7  and  N3_8 
REMARK    3  A    between atoms: C7_17  and  S1_18 
REMARK    4  A    between atoms: S1_18  and  C8_19 
ROOT
HETATM    1  C1  UNL     1      -7.316 -32.353  13.385  1.00  0.00     0.692 A 
HETATM    2  N2  UNL     1      -7.215 -33.391  12.515  1.00  0.00    -0.022 N 
ATOM      3  H2  UNL     1      -6.942 -34.305  12.876  1.00  0.00     0.203 HD
HETATM    4  C2  UNL     1      -7.458 -33.268  11.199  1.00  0.00     0.697 A 
HETATM    5  N5  UNL     1      -7.816 -32.036  10.757  1.00  0.00    -0.169 N 
ATOM      6  H5  UNL     1      -8.007 -31.908   9.764  1.00  0.00     0.186 HD
HETATM    7  C7  UNL     1      -7.930 -30.978  11.575  1.00  0.00     0.182 A 
HETATM    8  N10 UNL     1      -7.677 -31.153  12.883  1.00  0.00    -0.169 N 
ATOM      9  H10 UNL     1      -7.760 -30.356  13.514  1.00  0.00     0.186 HD
ENDROOT
BRANCH   7  10
HETATM   10  S1  UNL     1      -8.406 -29.348  10.985  1.00  0.00    -0.014 SA
BRANCH  10  11
HETATM   11  C8  UNL     1     -10.128 -29.333  10.531  1.00  0.00     0.183 A 
HETATM   12  N6  UNL     1     -11.102 -30.220  10.822  1.00  0.00    -0.263 N 
HETATM   13  N7  UNL     1     -12.226 -29.760  10.250  1.00  0.00    -0.226 N 
ATOM     14  H6  UNL     1     -11.003 -31.073  11.371  1.00  0.00     0.190 HD
HETATM   15  N8  UNL     1     -11.996 -28.635   9.621  1.00  0.00    -0.226 N 
ATOM     16  H7  UNL     1     -13.133 -30.222  10.300  1.00  0.00     0.210 HD
HETATM   17  N9  UNL     1     -10.710 -28.376   9.794  1.00  0.00    -0.263 N 
ATOM     18  H8  UNL     1     -12.671 -28.073   9.102  1.00  0.00     0.210 HD
ATOM     19  H9  UNL     1     -10.227 -27.560   9.418  1.00  0.00     0.190 HD
ENDBRANCH  10  11
ENDBRANCH   7  10
BRANCH   4  20
HETATM   20  N3  UNL     1      -7.348 -34.362  10.298  1.00  0.00    -0.214 N 
HETATM   21  C3  UNL     1      -7.726 -35.666  10.774  1.00  0.00     0.160 C 
HETATM   22  C4  UNL     1      -6.805 -36.646  10.037  1.00  0.00     0.134 C 
HETATM   23  N4  UNL     1      -7.166 -36.554   8.654  1.00  0.00    -0.418 N 
HETATM   24  C5  UNL     1      -6.959 -35.286   8.051  1.00  0.00     0.134 C 
ATOM     25  H4  UNL     1      -7.546 -37.347   8.137  1.00  0.00     0.153 HD
HETATM   26  C6  UNL     1      -6.870 -34.128   8.965  1.00  0.00     0.160 C 
ENDBRANCH   4  20
BRANCH   1  27
HETATM   27  N1  UNL     1      -7.073 -32.513  14.645  1.00  0.00    -0.234 N 
ATOM     28  H12 UNL     1      -7.773 -32.294  15.354  1.00  0.00     0.174 HD
ATOM     29  H11 UNL     1      -6.171 -32.864  14.968  1.00  0.00     0.174 HD
ENDBRANCH   1  27
TORSDOF 4
ENDMDL
MODEL 2
REMARK VINA RESULT: -6.221951503      3.043      4.454
REMARK  4 active torsions:
REMARK  status: ('A' for Active; 'I' for Inactive)
REMARK    1  A    between atoms: N1_1  and  C1_4 
REMARK    2  A    between atoms: C2_7  and  N3_8 
REMARK    3  A    between atoms: C7_17  and  S1_18 
REMARK    4  A    between atoms: S1_18  and  C8_19 
ROOT
HETATM    1  C1  UNL     1      -7.422 -33.053   9.718  1.00  0.00     0.692 A 
HETATM    2  N2  UNL     1      -6.171 -32.524   9.727  1.00  0.00    -0.022 N 
ATOM      3  H2  UNL     1      -5.431 -33.016   9.228  1.00  0.00     0.203 HD
HETATM    4  C2  UNL     1      -5.866 -31.381  10.364  1.00  0.00     0.697 A 
HETATM    5  N5  UNL     1      -6.878 -30.756  11.017  1.00  0.00    -0.169 N 
ATOM      6  H5  UNL     1      -6.680 -29.887  11.511  1.00  0.00     0.186 HD
HETATM    7  C7  UNL     1      -8.131 -31.238  11.039  1.00  0.00     0.182 A 
HETATM    8  N10 UNL     1      -8.386 -32.384  10.386  1.00  0.00    -0.169 N 
ATOM      9  H10 UNL     1      -9.334 -32.759  10.396  1.00  0.00     0.186 HD
ENDROOT
BRANCH   7  10
HETATM   10  S1  UNL     1      -9.469 -30.407  11.905  1.00  0.00    -0.014 SA
BRANCH  10  11
HETATM   11  C8  UNL     1     -10.415 -29.409  10.773  1.00  0.00     0.183 A 
HETATM   12  N6  UNL     1     -10.063 -28.283  10.120  1.00  0.00    -0.263 N 
HETATM   13  N7  UNL     1     -11.126 -27.914   9.387  1.00  0.00    -0.226 N 
ATOM     14  H6  UNL     1      -9.165 -27.804  10.172  1.00  0.00     0.190 HD
HETATM   15  N8  UNL     1     -12.115 -28.755   9.555  1.00  0.00    -0.226 N 
ATOM     16  H7  UNL     1     -11.159 -27.093   8.784  1.00  0.00     0.210 HD
HETATM   17  N9  UNL     1     -11.677 -29.670  10.405  1.00  0.00    -0.263 N 
ATOM     18  H8  UNL     1     -13.037 -28.713   9.119  1.00  0.00     0.210 HD
ATOM     19  H9  UNL     1     -12.224 -30.465  10.735  1.00  0.00     0.190 HD
ENDBRANCH  10  11
ENDBRANCH   7  10
BRANCH   4  20
HETATM   20  N3  UNL     1      -4.552 -30.837  10.366  1.00  0.00    -0.214 N 
HETATM   21  C3  UNL     1      -4.318 -29.639   9.606  1.00  0.00     0.160 C 
HETATM   22  C4  UNL     1      -2.871 -29.753   9.111  1.00  0.00     0.134 C 
HETATM   23  N4  UNL     1      -2.053 -29.703  10.284  1.00  0.00    -0.418 N 
HETATM   24  C5  UNL     1      -2.241 -30.766  11.207  1.00  0.00     0.134 C 
ATOM     25  H4  UNL     1      -1.380 -28.954  10.446  1.00  0.00     0.153 HD
HETATM   26  C6  UNL     1      -3.522 -31.497  11.118  1.00  0.00     0.160 C 
ENDBRANCH   4  20
BRANCH   1  27
HETATM   27  N1  UNL     1      -7.675 -34.156   9.092  1.00  0.00    -0.234 N 
ATOM     28  H12 UNL     1      -7.435 -35.063   9.492  1.00  0.00     0.174 HD
ATOM     29  H11 UNL     1      -8.124 -34.151   8.176  1.00  0.00     0.174 HD
ENDBRANCH   1  27
TORSDOF 4
ENDMDL
MODEL 3
REMARK VINA RESULT: -6.138967520      3.014      4.367
REMARK  4 active torsions:
REMARK  status: ('A' for Active; 'I' for Inactive)
REMARK    1  A    between atoms: N1_1  and  C1_4 
REMARK    2  A    between atoms: C2_7  and  N3_8 
REMARK    3  A    between atoms: C7_17  and  S1_18 
REMARK    4  A    between atoms: S1_18  and  C8_19 
ROOT
HETATM    1  C1  UNL     1      -7.428 -33.060   9.720  1.00  0.00     0.692 A 
HETATM    2  N2  UNL     1      -6.173 -32.542   9.741  1.00  0.00    -0.022 N 
ATOM      3  H2  UNL     1      -5.434 -33.037   9.243  1.00  0.00     0.203 HD
HETATM    4  C2  UNL     1      -5.861 -31.407  10.388  1.00  0.00     0.697 A 
HETATM    5  N5  UNL     1      -6.872 -30.779  11.040  1.00  0.00    -0.169 N 
ATOM      6  H5  UNL     1      -6.669 -29.915  11.542  1.00  0.00     0.186 HD
HETATM    7  C7  UNL     1      -8.129 -31.249  11.051  1.00  0.00     0.182 A 
HETATM    8  N10 UNL     1      -8.390 -32.387  10.387  1.00  0.00    -0.169 N 
ATOM      9  H10 UNL     1      -9.342 -32.754  10.388  1.00  0.00     0.186 HD
ENDROOT
BRANCH   7  10
HETATM   10  S1  UNL     1      -9.465 -30.412  11.915  1.00  0.00    -0.014 SA
BRANCH  10  11
HETATM   11  C8  UNL     1     -10.419 -29.429  10.778  1.00  0.00     0.183 A 
HETATM   12  N6  UNL     1     -10.068 -28.319  10.096  1.00  0.00    -0.263 N 
HETATM   13  N7  UNL     1     -11.138 -27.955   9.373  1.00  0.00    -0.226 N 
ATOM     14  H6  UNL     1      -9.164 -27.848  10.125  1.00  0.00     0.190 HD
HETATM   15  N8  UNL     1     -12.133 -28.783   9.574  1.00  0.00    -0.226 N 
ATOM     16  H7  UNL     1     -11.173 -27.146   8.754  1.00  0.00     0.210 HD
HETATM   17  N9  UNL     1     -11.689 -29.685  10.435  1.00  0.00    -0.263 N 
ATOM     18  H8  UNL     1     -13.061 -28.741   9.152  1.00  0.00     0.210 HD
ATOM     19  H9  UNL     1     -12.239 -30.467  10.790  1.00  0.00     0.190 HD
ENDBRANCH  10  11
ENDBRANCH   7  10
BRANCH   4  20
HETATM   20  N3  UNL     1      -4.543 -30.876  10.403  1.00  0.00    -0.214 N 
HETATM   21  C3  UNL     1      -3.658 -31.299  11.455  1.00  0.00     0.160 C 
HETATM   22  C4  UNL     1      -2.755 -30.091  11.731  1.00  0.00     0.134 C 
HETATM   23  N4  UNL     1      -1.977 -29.907  10.543  1.00  0.00    -0.418 N 
HETATM   24  C5  UNL     1      -2.716 -29.590   9.373  1.00  0.00     0.134 C 
ATOM     25  H4  UNL     1      -0.961 -29.997  10.538  1.00  0.00     0.153 HD
HETATM   26  C6  UNL     1      -4.149 -29.948   9.380  1.00  0.00     0.160 C 
ENDBRANCH   4  20
BRANCH   1  27
HETATM   27  N1  UNL     1      -7.688 -34.156   9.084  1.00  0.00    -0.234 N 
ATOM     28  H12 UNL     1      -7.380 -35.062   9.437  1.00  0.00     0.174 HD
ATOM     29  H11 UNL     1      -8.210 -34.145   8.208  1.00  0.00     0.174 HD
ENDBRANCH   1  27
TORSDOF 4
ENDMDL
MODEL 4
REMARK VINA RESULT: -6.115779345      1.700      1.907
REMARK  4 active torsions:
REMARK  status: ('A' for Active; 'I' for Inactive)
REMARK    1  A    between atoms: N1_1  and  C1_4 
REMARK    2  A    between atoms: C2_7  and  N3_8 
REMARK    3  A    between atoms: C7_17  and  S1_18 
REMARK    4  A    between atoms: S1_18  and  C8_19 
ROOT
HETATM    1  C1  UNL     1      -6.559 -30.390  10.813  1.00  0.00     0.692 A 
HETATM    2  N2  UNL     1      -6.453 -31.673  10.383  1.00  0.00    -0.022 N 
ATOM      3  H2  UNL     1      -5.541 -32.009  10.074  1.00  0.00     0.203 HD
HETATM    4  C2  UNL     1      -7.496 -32.519  10.344  1.00  0.00     0.697 A 
HETATM    5  N5  UNL     1      -8.692 -32.033  10.762  1.00  0.00    -0.169 N 
ATOM      6  H5  UNL     1      -9.504 -32.650  10.745  1.00  0.00     0.186 HD
HETATM    7  C7  UNL     1      -8.849 -30.773  11.197  1.00  0.00     0.182 A 
HETATM    8  N10 UNL     1      -7.776 -29.966  11.216  1.00  0.00    -0.169 N 
ATOM      9  H10 UNL     1      -7.883 -29.007  11.545  1.00  0.00     0.186 HD
ENDROOT
BRANCH   7  10
HETATM   10  S1  UNL     1     -10.437 -30.134  11.749  1.00  0.00    -0.014 SA
BRANCH  10  11
HETATM   11  C8  UNL     1     -11.229 -29.226  10.438  1.00  0.00     0.183 A 
HETATM   12  N6  UNL     1     -12.516 -29.245  10.036  1.00  0.00    -0.263 N 
HETATM   13  N7  UNL     1     -12.612 -28.384   9.009  1.00  0.00    -0.226 N 
ATOM     14  H6  UNL     1     -13.270 -29.804  10.433  1.00  0.00     0.190 HD
HETATM   15  N8  UNL     1     -11.450 -27.835   8.759  1.00  0.00    -0.226 N 
ATOM     16  H7  UNL     1     -13.470 -28.186   8.497  1.00  0.00     0.210 HD
HETATM   17  N9  UNL     1     -10.604 -28.353   9.636  1.00  0.00    -0.263 N 
ATOM     18  H8  UNL     1     -11.239 -27.148   8.035  1.00  0.00     0.210 HD
ATOM     19  H9  UNL     1      -9.613 -28.120   9.692  1.00  0.00     0.190 HD
ENDBRANCH  10  11
ENDBRANCH   7  10
BRANCH   4  20
HETATM   20  N3  UNL     1      -7.372 -33.861   9.891  1.00  0.00    -0.214 N 
HETATM   21  C3  UNL     1      -7.749 -34.914  10.794  1.00  0.00     0.160 C 
HETATM   22  C4  UNL     1      -6.817 -36.084  10.459  1.00  0.00     0.134 C 
HETATM   23  N4  UNL     1      -7.164 -36.492   9.131  1.00  0.00    -0.418 N 
HETATM   24  C5  UNL     1      -6.957 -35.517   8.119  1.00  0.00     0.134 C 
ATOM     25  H4  UNL     1      -7.536 -37.419   8.926  1.00  0.00     0.153 HD
HETATM   26  C6  UNL     1      -6.882 -34.110   8.564  1.00  0.00     0.160 C 
ENDBRANCH   4  20
BRANCH   1  27
HETATM   27  N1  UNL     1      -5.530 -29.606  10.835  1.00  0.00    -0.234 N 
ATOM     28  H12 UNL     1      -4.705 -29.824  11.394  1.00  0.00     0.174 HD
ATOM     29  H11 UNL     1      -5.513 -28.743  10.291  1.00  0.00     0.174 HD
ENDBRANCH   1  27
TORSDOF 4
ENDMDL
MODEL 5
REMARK VINA RESULT: -5.966756112      1.867      2.427
REMARK  4 active torsions:
REMARK  status: ('A' for Active; 'I' for Inactive)
REMARK    1  A    between atoms: N1_1  and  C1_4 
REMARK    2  A    between atoms: C2_7  and  N3_8 
REMARK    3  A    between atoms: C7_17  and  S1_18 
REMARK    4  A    between atoms: S1_18  and  C8_19 
ROOT
HETATM    1  C1  UNL     1      -8.339 -29.847  12.614  1.00  0.00     0.692 A 
HETATM    2  N2  UNL     1      -7.710 -30.932  12.095  1.00  0.00    -0.022 N 
ATOM      3  H2  UNL     1      -6.748 -31.120  12.379  1.00  0.00     0.203 HD
HETATM    4  C2  UNL     1      -8.296 -31.771  11.224  1.00  0.00     0.697 A 
HETATM    5  N5  UNL     1      -9.575 -31.487  10.870  1.00  0.00    -0.169 N 
ATOM      6  H5  UNL     1     -10.049 -32.103  10.211  1.00  0.00     0.186 HD
HETATM    7  C7  UNL     1     -10.241 -30.427  11.354  1.00  0.00     0.182 A 
HETATM    8  N10 UNL     1      -9.611 -29.619  12.223  1.00  0.00    -0.169 N 
ATOM      9  H10 UNL     1     -10.108 -28.811  12.597  1.00  0.00     0.186 HD
ENDROOT
BRANCH   7  10
HETATM   10  S1  UNL     1     -11.936 -30.056  10.882  1.00  0.00    -0.014 SA
BRANCH  10  11
HETATM   11  C8  UNL     1     -11.996 -28.562   9.915  1.00  0.00     0.183 A 
HETATM   12  N6  UNL     1     -13.044 -27.757   9.641  1.00  0.00    -0.263 N 
HETATM   13  N7  UNL     1     -12.575 -26.762   8.872  1.00  0.00    -0.226 N 
ATOM     14  H6  UNL     1     -14.005 -27.881   9.956  1.00  0.00     0.190 HD
HETATM   15  N8  UNL     1     -11.292 -26.911   8.659  1.00  0.00    -0.226 N 
ATOM     16  H7  UNL     1     -13.139 -25.996   8.506  1.00  0.00     0.210 HD
HETATM   17  N9  UNL     1     -10.940 -28.014   9.298  1.00  0.00    -0.263 N 
ATOM     18  H8  UNL     1     -10.686 -26.300   8.110  1.00  0.00     0.210 HD
ATOM     19  H9  UNL     1      -9.995 -28.397   9.319  1.00  0.00     0.190 HD
ENDBRANCH  10  11
ENDBRANCH   7  10
BRANCH   4  20
HETATM   20  N3  UNL     1      -7.625 -32.904  10.688  1.00  0.00    -0.214 N 
HETATM   21  C3  UNL     1      -7.062 -33.852  11.611  1.00  0.00     0.160 C 
HETATM   22  C4  UNL     1      -5.814 -34.403  10.910  1.00  0.00     0.134 C 
HETATM   23  N4  UNL     1      -6.295 -35.124   9.769  1.00  0.00    -0.418 N 
HETATM   24  C5  UNL     1      -6.983 -34.346   8.800  1.00  0.00     0.134 C 
ATOM     25  H4  UNL     1      -6.153 -36.128   9.660  1.00  0.00     0.153 HD
HETATM   26  C6  UNL     1      -7.537 -33.057   9.263  1.00  0.00     0.160 C 
ENDBRANCH   4  20
BRANCH   1  27
HETATM   27  N1  UNL     1      -7.739 -29.064  13.451  1.00  0.00    -0.234 N 
ATOM     28  H12 UNL     1      -7.766 -29.237  14.455  1.00  0.00     0.174 HD
ATOM     29  H11 UNL     1      -7.219 -28.247  13.128  1.00  0.00     0.174 HD
ENDBRANCH   1  27
TORSDOF 4
ENDMDL
