MODEL 1
REMARK VINA RESULT: -6.704927978      0.000      0.000
REMARK  8 active torsions:
REMARK  status: ('A' for Active; 'I' for Inactive)
REMARK    1  A    between atoms: C2_2  and  C4_4 
REMARK    2  A    between atoms: C4_4  and  C5_5 
REMARK    3  A    between atoms: C5_5  and  C6_6 
REMARK    4  A    between atoms: C5_5  and  N1_9 
REMARK    5  A    between atoms: N1_9  and  C7_10 
REMARK    6  A    between atoms: N1_9  and  C8_13 
REMARK    7  A    between atoms: C7_10  and  O3_11 
REMARK    8  A    between atoms: N2_16  and  C11_17 
ROOT
HETATM    1  C8  UNL     1      18.021   5.109  15.231  1.00  0.00     0.230 C 
HETATM    2  C9  UNL     1      17.314   6.330  14.633  1.00  0.00     0.066 C 
HETATM    3  C10 UNL     1      18.288   7.521  14.608  1.00  0.00     0.275 C 
HETATM    4  N2  UNL     1      19.323   7.333  13.645  1.00  0.00     0.093 N 
HETATM    5  C16 UNL     1      19.576   5.903  13.496  1.00  0.00     0.275 C 
HETATM    6  C17 UNL     1      19.431   5.226  14.871  1.00  0.00     0.066 C 
ENDROOT
BRANCH   1   7
HETATM    7  N1  UNL     1      17.272   3.904  14.836  1.00  0.00     0.130 N 
BRANCH   7   8
HETATM    8  C5  UNL     1      16.909   3.158  16.044  1.00  0.00     0.326 C 
BRANCH   8   9
HETATM    9  C4  UNL     1      15.433   3.236  16.367  1.00  0.00     0.051 C 
BRANCH   9  10
HETATM   10  C2  UNL     1      15.084   2.310  17.522  1.00  0.00    -0.020 C 
HETATM   11  C1  UNL     1      14.880   3.088  18.789  1.00  0.00     0.009 C 
HETATM   12  C3  UNL     1      13.693   1.751  17.144  1.00  0.00     0.009 C 
ENDBRANCH   9  10
ENDBRANCH   8   9
BRANCH   8  13
HETATM   13  C6  UNL     1      17.041   1.699  15.597  1.00  0.00     0.207 C 
HETATM   14  O1  UNL     1      17.511   0.810  16.317  1.00  0.00    -0.646 OA
HETATM   15  O2  UNL     1      16.611   1.348  14.334  1.00  0.00    -0.646 OA
ENDBRANCH   8  13
ENDBRANCH   7   8
BRANCH   7  16
HETATM   16  C7  UNL     1      16.071   4.516  14.222  1.00  0.00     0.439 C 
BRANCH  16  17
HETATM   17  O3  UNL     1      15.661   3.866  13.078  1.00  0.00    -0.373 OA
ATOM     18  H3  UNL     1      16.323   3.861  12.397  1.00  0.00     0.211 HD
ENDBRANCH  16  17
ENDBRANCH   7  16
ENDBRANCH   1   7
BRANCH   4  19
HETATM   19  C11 UNL     1      18.979   7.843  12.338  1.00  0.00     0.232 C 
HETATM   20  C12 UNL     1      20.005   7.476  11.320  1.00  0.00     0.037 C 
HETATM   21  C13 UNL     1      21.283   8.222  11.382  1.00  0.00     0.012 C 
HETATM   22  C14 UNL     1      21.646   8.778  12.716  1.00  0.00     0.074 C 
HETATM   23  S1  UNL     1      20.341   9.996  13.149  1.00  0.00    -0.167 SA
HETATM   24  C15 UNL     1      18.842   9.350  12.331  1.00  0.00     0.109 C 
ENDBRANCH   4  19
TORSDOF 8
ENDMDL
MODEL 2
REMARK VINA RESULT: -6.516992344      2.722      3.441
REMARK  8 active torsions:
REMARK  status: ('A' for Active; 'I' for Inactive)
REMARK    1  A    between atoms: C2_2  and  C4_4 
REMARK    2  A    between atoms: C4_4  and  C5_5 
REMARK    3  A    between atoms: C5_5  and  C6_6 
REMARK    4  A    between atoms: C5_5  and  N1_9 
REMARK    5  A    between atoms: N1_9  and  C7_10 
REMARK    6  A    between atoms: N1_9  and  C8_13 
REMARK    7  A    between atoms: C7_10  and  O3_11 
REMARK    8  A    between atoms: N2_16  and  C11_17 
ROOT
HETATM    1  C8  UNL     1      17.673   4.285  12.735  1.00  0.00     0.230 C 
HETATM    2  C9  UNL     1      17.715   3.892  11.255  1.00  0.00     0.066 C 
HETATM    3  C10 UNL     1      18.392   5.014  10.448  1.00  0.00     0.275 C 
HETATM    4  N2  UNL     1      19.789   5.090  10.727  1.00  0.00     0.093 N 
HETATM    5  C16 UNL     1      20.024   4.635  12.095  1.00  0.00     0.275 C 
HETATM    6  C17 UNL     1      18.856   5.104  12.982  1.00  0.00     0.066 C 
ENDROOT
BRANCH   1   7
HETATM    7  N1  UNL     1      17.461   3.064  13.529  1.00  0.00     0.130 N 
BRANCH   7   8
HETATM    8  C5  UNL     1      16.812   3.429  14.792  1.00  0.00     0.326 C 
BRANCH   8   9
HETATM    9  C4  UNL     1      15.303   3.474  14.691  1.00  0.00     0.051 C 
BRANCH   9  10
HETATM   10  C2  UNL     1      14.747   4.665  15.456  1.00  0.00    -0.020 C 
HETATM   11  C1  UNL     1      14.528   4.319  16.900  1.00  0.00     0.009 C 
HETATM   12  C3  UNL     1      15.906   5.689  15.443  1.00  0.00     0.009 C 
ENDBRANCH   9  10
ENDBRANCH   8   9
BRANCH   8  13
HETATM   13  C6  UNL     1      17.017   2.181  15.656  1.00  0.00     0.207 C 
HETATM   14  O1  UNL     1      17.993   2.024  16.398  1.00  0.00    -0.646 OA
HETATM   15  O2  UNL     1      16.068   1.181  15.616  1.00  0.00    -0.646 OA
ENDBRANCH   8  13
ENDBRANCH   7   8
BRANCH   7  16
HETATM   16  C7  UNL     1      16.519   2.327  12.655  1.00  0.00     0.439 C 
BRANCH  16  17
HETATM   17  O3  UNL     1      16.738   0.966  12.654  1.00  0.00    -0.373 OA
ATOM     18  H3  UNL     1      15.957   0.465  12.452  1.00  0.00     0.211 HD
ENDBRANCH  16  17
ENDBRANCH   7  16
ENDBRANCH   1   7
BRANCH   4  19
HETATM   19  C11 UNL     1      20.586   4.256   9.858  1.00  0.00     0.232 C 
HETATM   20  C12 UNL     1      22.024   4.269  10.255  1.00  0.00     0.037 C 
HETATM   21  C13 UNL     1      22.781   5.500   9.928  1.00  0.00     0.012 C 
HETATM   22  C14 UNL     1      21.972   6.747   9.815  1.00  0.00     0.074 C 
HETATM   23  S1  UNL     1      20.813   6.494   8.413  1.00  0.00    -0.167 SA
HETATM   24  C15 UNL     1      20.503   4.694   8.412  1.00  0.00     0.109 C 
ENDBRANCH   4  19
TORSDOF 8
ENDMDL
MODEL 3
REMARK VINA RESULT: -6.427198896      1.053      1.270
REMARK  8 active torsions:
REMARK  status: ('A' for Active; 'I' for Inactive)
REMARK    1  A    between atoms: C2_2  and  C4_4 
REMARK    2  A    between atoms: C4_4  and  C5_5 
REMARK    3  A    between atoms: C5_5  and  C6_6 
REMARK    4  A    between atoms: C5_5  and  N1_9 
REMARK    5  A    between atoms: N1_9  and  C7_10 
REMARK    6  A    between atoms: N1_9  and  C8_13 
REMARK    7  A    between atoms: C7_10  and  O3_11 
REMARK    8  A    between atoms: N2_16  and  C11_17 
ROOT
HETATM    1  C8  UNL     1      17.902   5.414  15.247  1.00  0.00     0.230 C 
HETATM    2  C9  UNL     1      17.665   6.727  14.493  1.00  0.00     0.066 C 
HETATM    3  C10 UNL     1      19.008   7.451  14.296  1.00  0.00     0.275 C 
HETATM    4  N2  UNL     1      19.839   6.770  13.358  1.00  0.00     0.093 N 
HETATM    5  C16 UNL     1      19.533   5.343  13.404  1.00  0.00     0.275 C 
HETATM    6  C17 UNL     1      19.230   4.946  14.861  1.00  0.00     0.066 C 
ENDROOT
BRANCH   1   7
HETATM    7  N1  UNL     1      16.737   4.541  15.027  1.00  0.00     0.130 N 
BRANCH   7   8
HETATM    8  C5  UNL     1      16.628   3.609  16.154  1.00  0.00     0.326 C 
BRANCH   8   9
HETATM    9  C4  UNL     1      15.204   3.414  16.626  1.00  0.00     0.051 C 
BRANCH   9  10
HETATM   10  C2  UNL     1      15.130   2.313  17.672  1.00  0.00    -0.020 C 
HETATM   11  C1  UNL     1      14.924   2.891  19.043  1.00  0.00     0.009 C 
HETATM   12  C3  UNL     1      13.820   1.565  17.334  1.00  0.00     0.009 C 
ENDBRANCH   9  10
ENDBRANCH   8   9
BRANCH   8  13
HETATM   13  C6  UNL     1      16.917   2.252  15.504  1.00  0.00     0.207 C 
HETATM   14  O1  UNL     1      16.477   1.923  14.396  1.00  0.00    -0.646 OA
HETATM   15  O2  UNL     1      17.712   1.348  16.178  1.00  0.00    -0.646 OA
ENDBRANCH   8  13
ENDBRANCH   7   8
BRANCH   7  16
HETATM   16  C7  UNL     1      15.638   5.533  15.067  1.00  0.00     0.439 C 
BRANCH  16  17
HETATM   17  O3  UNL     1      14.652   5.282  14.137  1.00  0.00    -0.373 OA
ATOM     18  H3  UNL     1      13.785   5.517  14.444  1.00  0.00     0.211 HD
ENDBRANCH  16  17
ENDBRANCH   7  16
ENDBRANCH   1   7
BRANCH   4  19
HETATM   19  C11 UNL     1      19.632   7.207  11.997  1.00  0.00     0.232 C 
HETATM   20  C12 UNL     1      20.351   6.333  11.026  1.00  0.00     0.037 C 
HETATM   21  C13 UNL     1      21.822   6.503  10.959  1.00  0.00     0.012 C 
HETATM   22  C14 UNL     1      22.470   7.029  12.194  1.00  0.00     0.074 C 
HETATM   23  S1  UNL     1      21.790   8.713  12.467  1.00  0.00    -0.167 SA
HETATM   24  C15 UNL     1      20.102   8.627  11.775  1.00  0.00     0.109 C 
ENDBRANCH   4  19
TORSDOF 8
ENDMDL
MODEL 4
REMARK VINA RESULT: -6.379187801      1.468      1.739
REMARK  8 active torsions:
REMARK  status: ('A' for Active; 'I' for Inactive)
REMARK    1  A    between atoms: C2_2  and  C4_4 
REMARK    2  A    between atoms: C4_4  and  C5_5 
REMARK    3  A    between atoms: C5_5  and  C6_6 
REMARK    4  A    between atoms: C5_5  and  N1_9 
REMARK    5  A    between atoms: N1_9  and  C7_10 
REMARK    6  A    between atoms: N1_9  and  C8_13 
REMARK    7  A    between atoms: C7_10  and  O3_11 
REMARK    8  A    between atoms: N2_16  and  C11_17 
ROOT
HETATM    1  C8  UNL     1      17.413   4.908  13.890  1.00  0.00     0.230 C 
HETATM    2  C9  UNL     1      17.439   5.232  12.394  1.00  0.00     0.066 C 
HETATM    3  C10 UNL     1      18.209   6.546  12.170  1.00  0.00     0.275 C 
HETATM    4  N2  UNL     1      19.605   6.384  12.416  1.00  0.00     0.093 N 
HETATM    5  C16 UNL     1      19.790   5.338  13.419  1.00  0.00     0.275 C 
HETATM    6  C17 UNL     1      18.653   5.434  14.453  1.00  0.00     0.066 C 
ENDROOT
BRANCH   1   7
HETATM    7  N1  UNL     1      17.099   3.478  14.046  1.00  0.00     0.130 N 
BRANCH   7   8
HETATM    8  C5  UNL     1      16.686   3.233  15.431  1.00  0.00     0.326 C 
BRANCH   8   9
HETATM    9  C4  UNL     1      15.184   3.207  15.606  1.00  0.00     0.051 C 
BRANCH   9  10
HETATM   10  C2  UNL     1      14.814   3.088  17.076  1.00  0.00    -0.020 C 
HETATM   11  C1  UNL     1      14.098   4.319  17.550  1.00  0.00     0.009 C 
HETATM   12  C3  UNL     1      13.763   1.954  17.105  1.00  0.00     0.009 C 
ENDBRANCH   9  10
ENDBRANCH   8   9
BRANCH   8  13
HETATM   13  C6  UNL     1      17.038   1.757  15.637  1.00  0.00     0.207 C 
HETATM   14  O1  UNL     1      17.843   1.364  16.490  1.00  0.00    -0.646 OA
HETATM   15  O2  UNL     1      16.426   0.810  14.842  1.00  0.00    -0.646 OA
ENDBRANCH   8  13
ENDBRANCH   7   8
BRANCH   7  16
HETATM   16  C7  UNL     1      15.943   3.349  13.129  1.00  0.00     0.439 C 
BRANCH  16  17
HETATM   17  O3  UNL     1      15.974   2.190  12.383  1.00  0.00    -0.373 OA
ATOM     18  H3  UNL     1      15.459   2.247  11.587  1.00  0.00     0.211 HD
ENDBRANCH  16  17
ENDBRANCH   7  16
ENDBRANCH   1   7
BRANCH   4  19
HETATM   19  C11 UNL     1      20.344   5.983  11.242  1.00  0.00     0.232 C 
HETATM   20  C12 UNL     1      21.750   5.616  11.579  1.00  0.00     0.037 C 
HETATM   21  C13 UNL     1      22.663   6.741  11.888  1.00  0.00     0.012 C 
HETATM   22  C14 UNL     1      22.014   7.978  12.408  1.00  0.00     0.074 C 
HETATM   23  S1  UNL     1      20.910   8.591  11.074  1.00  0.00    -0.167 SA
HETATM   24  C15 UNL     1      20.391   7.075  10.196  1.00  0.00     0.109 C 
ENDBRANCH   4  19
TORSDOF 8
ENDMDL
MODEL 5
REMARK VINA RESULT: -6.348774650      0.990      1.261
REMARK  8 active torsions:
REMARK  status: ('A' for Active; 'I' for Inactive)
REMARK    1  A    between atoms: C2_2  and  C4_4 
REMARK    2  A    between atoms: C4_4  and  C5_5 
REMARK    3  A    between atoms: C5_5  and  C6_6 
REMARK    4  A    between atoms: C5_5  and  N1_9 
REMARK    5  A    between atoms: N1_9  and  C7_10 
REMARK    6  A    between atoms: N1_9  and  C8_13 
REMARK    7  A    between atoms: C7_10  and  O3_11 
REMARK    8  A    between atoms: N2_16  and  C11_17 
ROOT
HETATM    1  C8  UNL     1      17.958   5.352  14.900  1.00  0.00     0.230 C 
HETATM    2  C9  UNL     1      17.696   6.855  15.028  1.00  0.00     0.066 C 
HETATM    3  C10 UNL     1      18.954   7.631  14.602  1.00  0.00     0.275 C 
HETATM    4  N2  UNL     1      19.179   7.534  13.197  1.00  0.00     0.093 N 
HETATM    5  C16 UNL     1      18.645   6.262  12.719  1.00  0.00     0.275 C 
HETATM    6  C17 UNL     1      18.893   5.185  13.791  1.00  0.00     0.066 C 
ENDROOT
BRANCH   1   7
HETATM    7  N1  UNL     1      16.659   4.660  14.859  1.00  0.00     0.130 N 
BRANCH   7   8
HETATM    8  C5  UNL     1      16.538   3.813  16.050  1.00  0.00     0.326 C 
BRANCH   8   9
HETATM    9  C4  UNL     1      15.110   3.409  16.347  1.00  0.00     0.051 C 
BRANCH   9  10
HETATM   10  C2  UNL     1      15.064   2.377  17.462  1.00  0.00    -0.020 C 
HETATM   11  C1  UNL     1      14.904   3.039  18.800  1.00  0.00     0.009 C 
HETATM   12  C3  UNL     1      13.741   1.616  17.211  1.00  0.00     0.009 C 
ENDBRANCH   9  10
ENDBRANCH   8   9
BRANCH   8  13
HETATM   13  C6  UNL     1      17.136   2.482  15.585  1.00  0.00     0.207 C 
HETATM   14  O1  UNL     1      16.942   2.008  14.459  1.00  0.00    -0.646 OA
HETATM   15  O2  UNL     1      17.935   1.772  16.457  1.00  0.00    -0.646 OA
ENDBRANCH   8  13
ENDBRANCH   7   8
BRANCH   7  16
HETATM   16  C7  UNL     1      15.731   5.811  14.945  1.00  0.00     0.439 C 
BRANCH  16  17
HETATM   17  O3  UNL     1      14.795   5.825  13.933  1.00  0.00    -0.373 OA
ATOM     18  H3  UNL     1      14.333   6.652  13.867  1.00  0.00     0.211 HD
ENDBRANCH  16  17
ENDBRANCH   7  16
ENDBRANCH   1   7
BRANCH   4  19
HETATM   19  C11 UNL     1      18.523   8.580  12.446  1.00  0.00     0.232 C 
HETATM   20  C12 UNL     1      18.610   8.336  10.977  1.00  0.00     0.037 C 
HETATM   21  C13 UNL     1      19.930   8.580  10.351  1.00  0.00     0.012 C 
HETATM   22  C14 UNL     1      21.110   8.451  11.253  1.00  0.00     0.074 C 
HETATM   23  S1  UNL     1      20.927   9.746  12.543  1.00  0.00    -0.167 SA
HETATM   24  C15 UNL     1      19.120   9.942  12.723  1.00  0.00     0.109 C 
ENDBRANCH   4  19
TORSDOF 8
ENDMDL
