MODEL 1
REMARK VINA RESULT: -6.836639454      0.000      0.000
REMARK  6 active torsions:
REMARK  status: ('A' for Active; 'I' for Inactive)
REMARK    1  A    between atoms: C2_2  and  C3_3 
REMARK    2  A    between atoms: C2_2  and  N2_12 
REMARK    3  A    between atoms: C3_3  and  C4_4 
REMARK    4  A    between atoms: C4_4  and  N1_5 
REMARK       I    between atoms: N1_5  and  C5_7 
REMARK    5  A    between atoms: C5_7  and  C6_9 
REMARK       I    between atoms: N2_12  and  C9_14 
REMARK    6  A    between atoms: C9_14  and  C10_16 
ROOT
HETATM    1  C1  UNL     1      -1.739   4.140  80.919  1.00  0.00     0.032 C 
HETATM    2  C2  UNL     1      -0.649   4.447  81.930  1.00  0.00     0.081 C 
ENDROOT
BRANCH   2   3
HETATM    3  C3  UNL     1      -1.027   3.969  83.313  1.00  0.00     0.044 C 
BRANCH   3   4
HETATM    4  C4  UNL     1      -1.028   5.073  84.319  1.00  0.00     0.124 C 
BRANCH   4   5
HETATM    5  N1  UNL     1      -1.929   4.731  85.405  1.00  0.00    -0.361 N 
HETATM    6  C5  UNL     1      -1.488   3.859  86.430  1.00  0.00     0.221 C 
HETATM    7  O1  UNL     1      -0.333   3.388  86.402  1.00  0.00    -0.273 OA
ATOM      8  H1  UNL     1      -2.874   5.115  85.429  1.00  0.00     0.162 HD
BRANCH   6   9
HETATM    9  C6  UNL     1      -2.399   3.511  87.531  1.00  0.00     0.078 A 
HETATM   10  C7  UNL     1      -3.877   3.786  87.189  1.00  0.00     0.015 A 
HETATM   11  C8  UNL     1      -3.162   4.554  88.258  1.00  0.00     0.015 A 
ENDBRANCH   6   9
ENDBRANCH   4   5
ENDBRANCH   3   4
ENDBRANCH   2   3
BRANCH   2  12
HETATM   12  N2  UNL     1      -0.283   5.833  81.939  1.00  0.00    -0.355 N 
HETATM   13  C9  UNL     1       1.051   6.304  81.975  1.00  0.00     0.251 C 
HETATM   14  O2  UNL     1       1.971   5.455  82.000  1.00  0.00    -0.271 OA
ATOM     15  H2  UNL     1      -1.032   6.525  81.919  1.00  0.00     0.162 HD
BRANCH  13  16
HETATM   16  C10 UNL     1       1.376   7.736  81.983  1.00  0.00     0.315 C 
HETATM   17  C11 UNL     1       0.470   8.625  82.776  1.00  0.00     0.076 C 
HETATM   18  C12 UNL     1       1.431   8.317  83.907  1.00  0.00     0.275 C 
HETATM   19  N3  UNL     1       2.448   8.089  82.896  1.00  0.00     0.098 N 
HETATM   20  C13 UNL     1       3.039   9.352  82.501  1.00  0.00     0.310 C 
ENDBRANCH  13  16
ENDBRANCH   2  12
TORSDOF 6
ENDMDL
MODEL 2
REMARK VINA RESULT: -6.805977006      0.962      1.075
REMARK  6 active torsions:
REMARK  status: ('A' for Active; 'I' for Inactive)
REMARK    1  A    between atoms: C2_2  and  C3_3 
REMARK    2  A    between atoms: C2_2  and  N2_12 
REMARK    3  A    between atoms: C3_3  and  C4_4 
REMARK    4  A    between atoms: C4_4  and  N1_5 
REMARK       I    between atoms: N1_5  and  C5_7 
REMARK    5  A    between atoms: C5_7  and  C6_9 
REMARK       I    between atoms: N2_12  and  C9_14 
REMARK    6  A    between atoms: C9_14  and  C10_16 
ROOT
HETATM    1  C1  UNL     1      -1.469   4.467  81.183  1.00  0.00     0.032 C 
HETATM    2  C2  UNL     1      -0.646   5.180  82.240  1.00  0.00     0.081 C 
ENDROOT
BRANCH   2   3
HETATM    3  C3  UNL     1      -1.501   5.613  83.410  1.00  0.00     0.044 C 
BRANCH   3   4
HETATM    4  C4  UNL     1      -0.732   5.666  84.689  1.00  0.00     0.124 C 
BRANCH   4   5
HETATM    5  N1  UNL     1      -1.602   5.281  85.787  1.00  0.00    -0.361 N 
HETATM    6  C5  UNL     1      -1.367   4.064  86.470  1.00  0.00     0.221 C 
HETATM    7  O1  UNL     1      -0.418   3.326  86.135  1.00  0.00    -0.273 OA
ATOM      8  H1  UNL     1      -2.378   5.884  86.062  1.00  0.00     0.162 HD
BRANCH   6   9
HETATM    9  C6  UNL     1      -2.246   3.672  87.582  1.00  0.00     0.078 A 
HETATM   10  C7  UNL     1      -3.738   3.682  87.192  1.00  0.00     0.015 A 
HETATM   11  C8  UNL     1      -3.184   4.640  88.201  1.00  0.00     0.015 A 
ENDBRANCH   6   9
ENDBRANCH   4   5
ENDBRANCH   3   4
ENDBRANCH   2   3
BRANCH   2  12
HETATM   12  N2  UNL     1       0.101   6.280  81.704  1.00  0.00    -0.355 N 
HETATM   13  C9  UNL     1       1.515   6.338  81.665  1.00  0.00     0.251 C 
HETATM   14  O2  UNL     1       2.154   5.366  82.129  1.00  0.00    -0.271 OA
ATOM     15  H2  UNL     1      -0.419   7.071  81.328  1.00  0.00     0.162 HD
BRANCH  13  16
HETATM   16  C10 UNL     1       2.236   7.489  81.105  1.00  0.00     0.315 C 
HETATM   17  C11 UNL     1       1.698   8.845  81.440  1.00  0.00     0.076 C 
HETATM   18  C12 UNL     1       2.628   8.737  82.632  1.00  0.00     0.275 C 
HETATM   19  N3  UNL     1       3.442   7.837  81.834  1.00  0.00     0.098 N 
HETATM   20  C13 UNL     1       4.331   8.601  80.984  1.00  0.00     0.310 C 
ENDBRANCH  13  16
ENDBRANCH   2  12
TORSDOF 6
ENDMDL
MODEL 3
REMARK VINA RESULT: -6.740339938      1.353      1.759
REMARK  6 active torsions:
REMARK  status: ('A' for Active; 'I' for Inactive)
REMARK    1  A    between atoms: C2_2  and  C3_3 
REMARK    2  A    between atoms: C2_2  and  N2_12 
REMARK    3  A    between atoms: C3_3  and  C4_4 
REMARK    4  A    between atoms: C4_4  and  N1_5 
REMARK       I    between atoms: N1_5  and  C5_7 
REMARK    5  A    between atoms: C5_7  and  C6_9 
REMARK       I    between atoms: N2_12  and  C9_14 
REMARK    6  A    between atoms: C9_14  and  C10_16 
ROOT
HETATM    1  C1  UNL     1      -1.215   5.010  81.089  1.00  0.00     0.032 C 
HETATM    2  C2  UNL     1      -0.430   5.396  82.329  1.00  0.00     0.081 C 
ENDROOT
BRANCH   2   3
HETATM    3  C3  UNL     1      -1.346   5.673  83.500  1.00  0.00     0.044 C 
BRANCH   3   4
HETATM    4  C4  UNL     1      -0.608   5.745  84.797  1.00  0.00     0.124 C 
BRANCH   4   5
HETATM    5  N1  UNL     1      -1.494   5.339  85.874  1.00  0.00    -0.361 N 
HETATM    6  C5  UNL     1      -1.323   4.069  86.477  1.00  0.00     0.221 C 
HETATM    7  O1  UNL     1      -0.420   3.302  86.087  1.00  0.00    -0.273 OA
ATOM      8  H1  UNL     1      -2.233   5.965  86.194  1.00  0.00     0.162 HD
BRANCH   6   9
HETATM    9  C6  UNL     1      -2.219   3.656  87.568  1.00  0.00     0.078 A 
HETATM   10  C7  UNL     1      -3.709   3.749  87.183  1.00  0.00     0.015 A 
HETATM   11  C8  UNL     1      -3.115   4.629  88.239  1.00  0.00     0.015 A 
ENDBRANCH   6   9
ENDBRANCH   4   5
ENDBRANCH   3   4
ENDBRANCH   2   3
BRANCH   2  12
HETATM   12  N2  UNL     1       0.463   6.492  82.095  1.00  0.00    -0.355 N 
HETATM   13  C9  UNL     1       1.867   6.362  81.971  1.00  0.00     0.251 C 
HETATM   14  O2  UNL     1       2.360   5.215  82.072  1.00  0.00    -0.271 OA
ATOM     15  H2  UNL     1       0.062   7.426  82.013  1.00  0.00     0.162 HD
BRANCH  13  16
HETATM   16  C10 UNL     1       2.743   7.517  81.731  1.00  0.00     0.315 C 
HETATM   17  C11 UNL     1       3.904   7.299  80.812  1.00  0.00     0.076 C 
HETATM   18  C12 UNL     1       2.919   7.718  79.738  1.00  0.00     0.275 C 
HETATM   19  N3  UNL     1       2.213   8.463  80.765  1.00  0.00     0.098 N 
HETATM   20  C13 UNL     1       2.837   9.758  80.949  1.00  0.00     0.310 C 
ENDBRANCH  13  16
ENDBRANCH   2  12
TORSDOF 6
ENDMDL
MODEL 4
REMARK VINA RESULT: -6.694784582      1.683      1.894
REMARK  6 active torsions:
REMARK  status: ('A' for Active; 'I' for Inactive)
REMARK    1  A    between atoms: C2_2  and  C3_3 
REMARK    2  A    between atoms: C2_2  and  N2_12 
REMARK    3  A    between atoms: C3_3  and  C4_4 
REMARK    4  A    between atoms: C4_4  and  N1_5 
REMARK       I    between atoms: N1_5  and  C5_7 
REMARK    5  A    between atoms: C5_7  and  C6_9 
REMARK       I    between atoms: N2_12  and  C9_14 
REMARK    6  A    between atoms: C9_14  and  C10_16 
ROOT
HETATM    1  C1  UNL     1      -1.686   3.521  80.853  1.00  0.00     0.032 C 
HETATM    2  C2  UNL     1      -0.905   4.419  81.795  1.00  0.00     0.081 C 
ENDROOT
BRANCH   2   3
HETATM    3  C3  UNL     1      -1.031   3.960  83.230  1.00  0.00     0.044 C 
BRANCH   3   4
HETATM    4  C4  UNL     1      -0.861   5.080  84.204  1.00  0.00     0.124 C 
BRANCH   4   5
HETATM    5  N1  UNL     1      -1.758   4.876  85.328  1.00  0.00    -0.361 N 
HETATM    6  C5  UNL     1      -1.392   3.977  86.358  1.00  0.00     0.221 C 
HETATM    7  O1  UNL     1      -0.308   3.362  86.304  1.00  0.00    -0.273 OA
ATOM      8  H1  UNL     1      -2.645   5.378  85.375  1.00  0.00     0.162 HD
BRANCH   6   9
HETATM    9  C6  UNL     1      -2.299   3.770  87.498  1.00  0.00     0.078 A 
HETATM   10  C7  UNL     1      -3.778   3.681  87.073  1.00  0.00     0.015 A 
HETATM   11  C8  UNL     1      -3.268   4.813  87.911  1.00  0.00     0.015 A 
ENDBRANCH   6   9
ENDBRANCH   4   5
ENDBRANCH   3   4
ENDBRANCH   2   3
BRANCH   2  12
HETATM   12  N2  UNL     1      -1.260   5.801  81.656  1.00  0.00    -0.355 N 
HETATM   13  C9  UNL     1      -0.671   6.683  80.719  1.00  0.00     0.251 C 
HETATM   14  O2  UNL     1       0.217   6.227  79.963  1.00  0.00    -0.271 OA
ATOM     15  H2  UNL     1      -1.983   6.172  82.272  1.00  0.00     0.162 HD
BRANCH  13  16
HETATM   16  C10 UNL     1      -1.070   8.093  80.614  1.00  0.00     0.315 C 
HETATM   17  C11 UNL     1      -1.493   8.767  81.882  1.00  0.00     0.076 C 
HETATM   18  C12 UNL     1      -0.020   9.105  81.999  1.00  0.00     0.275 C 
HETATM   19  N3  UNL     1       0.050   9.016  80.552  1.00  0.00     0.098 N 
HETATM   20  C13 UNL     1      -0.374  10.269  79.960  1.00  0.00     0.310 C 
ENDBRANCH  13  16
ENDBRANCH   2  12
TORSDOF 6
ENDMDL
MODEL 5
REMARK VINA RESULT: -6.596555904      1.896      2.618
REMARK  6 active torsions:
REMARK  status: ('A' for Active; 'I' for Inactive)
REMARK    1  A    between atoms: C2_2  and  C3_3 
REMARK    2  A    between atoms: C2_2  and  N2_12 
REMARK    3  A    between atoms: C3_3  and  C4_4 
REMARK    4  A    between atoms: C4_4  and  N1_5 
REMARK       I    between atoms: N1_5  and  C5_7 
REMARK    5  A    between atoms: C5_7  and  C6_9 
REMARK       I    between atoms: N2_12  and  C9_14 
REMARK    6  A    between atoms: C9_14  and  C10_16 
ROOT
HETATM    1  C1  UNL     1      -1.466   8.212  82.641  1.00  0.00     0.032 C 
HETATM    2  C2  UNL     1      -0.180   7.479  82.979  1.00  0.00     0.081 C 
ENDROOT
BRANCH   2   3
HETATM    3  C3  UNL     1       0.227   7.709  84.416  1.00  0.00     0.044 C 
BRANCH   3   4
HETATM    4  C4  UNL     1       0.350   6.434  85.185  1.00  0.00     0.124 C 
BRANCH   4   5
HETATM    5  N1  UNL     1      -0.977   5.963  85.543  1.00  0.00    -0.361 N 
HETATM    6  C5  UNL     1      -1.128   4.686  86.135  1.00  0.00     0.221 C 
HETATM    7  O1  UNL     1      -0.130   3.969  86.349  1.00  0.00    -0.273 OA
ATOM      8  H1  UNL     1      -1.794   6.549  85.369  1.00  0.00     0.162 HD
BRANCH   6   9
HETATM    9  C6  UNL     1      -2.471   4.207  86.499  1.00  0.00     0.078 A 
HETATM   10  C7  UNL     1      -2.837   4.522  87.963  1.00  0.00     0.015 A 
HETATM   11  C8  UNL     1      -2.658   3.115  87.484  1.00  0.00     0.015 A 
ENDBRANCH   6   9
ENDBRANCH   4   5
ENDBRANCH   3   4
ENDBRANCH   2   3
BRANCH   2  12
HETATM   12  N2  UNL     1       0.887   7.798  82.076  1.00  0.00    -0.355 N 
HETATM   13  C9  UNL     1       1.830   6.858  81.596  1.00  0.00     0.251 C 
HETATM   14  O2  UNL     1       1.726   5.672  81.984  1.00  0.00    -0.271 OA
ATOM     15  H2  UNL     1       0.972   8.763  81.761  1.00  0.00     0.162 HD
BRANCH  13  16
HETATM   16  C10 UNL     1       2.908   7.234  80.671  1.00  0.00     0.315 C 
HETATM   17  C11 UNL     1       3.361   8.660  80.712  1.00  0.00     0.076 C 
HETATM   18  C12 UNL     1       4.329   8.148  81.762  1.00  0.00     0.275 C 
HETATM   19  N3  UNL     1       4.232   6.847  81.124  1.00  0.00     0.098 N 
HETATM   20  C13 UNL     1       5.141   6.782  79.998  1.00  0.00     0.310 C 
ENDBRANCH  13  16
ENDBRANCH   2  12
TORSDOF 6
ENDMDL
