MODEL 1
REMARK VINA RESULT: -7.067649446      0.000      0.000
REMARK  8 active torsions:
REMARK  status: ('A' for Active; 'I' for Inactive)
REMARK    1  A    between atoms: C3_3  and  N1_4 
REMARK    2  A    between atoms: C11_14  and  C12_15 
REMARK    3  A    between atoms: C14_17  and  O1_18 
REMARK    4  A    between atoms: C16_20  and  O2_21 
REMARK    5  A    between atoms: C17_23  and  O3_24 
REMARK    6  A    between atoms: C21_29  and  N2_30 
REMARK       I    between atoms: N2_30  and  C22_32 
REMARK    7  A    between atoms: C22_32  and  O6_34 
REMARK    8  A    between atoms: O6_34  and  C23_35 
ROOT
HETATM    1  C1  UNL     1      27.850  -2.351   8.671  1.00  0.00     0.014 C 
HETATM    2  C2  UNL     1      27.202  -3.063   7.950  1.00  0.00    -0.098 C 
HETATM    3  C3  UNL     1      26.403  -3.944   7.043  1.00  0.00     0.218 C 
ENDROOT
BRANCH   3   4
HETATM    4  N1  UNL     1      25.297  -3.239   6.509  1.00  0.00    -0.341 N 
HETATM    5  C4  UNL     1      23.952  -3.589   6.808  1.00  0.00     0.046 A 
HETATM    6  C5  UNL     1      23.661  -4.835   7.319  1.00  0.00     0.057 A 
HETATM    7  C9  UNL     1      22.906  -2.659   6.614  1.00  0.00     0.008 A 
HETATM    8  C6  UNL     1      22.378  -5.250   7.671  1.00  0.00     0.074 A 
HETATM    9 CL1  UNL     1      22.088  -6.854   8.313  1.00  0.00    -0.081 Cl
HETATM   10  C7  UNL     1      21.378  -4.348   7.488  1.00  0.00     0.139 A 
HETATM   11  F1  UNL     1      20.110  -4.712   7.823  1.00  0.00    -0.204 F 
HETATM   12  C8  UNL     1      21.651  -3.089   6.975  1.00  0.00     0.058 A 
HETATM   13  C10 UNL     1      23.144  -1.323   6.112  1.00  0.00     0.027 C 
HETATM   14  C11 UNL     1      22.257  -0.471   5.780  1.00  0.00     0.027 C 
HETATM   15  C20 UNL     1      24.594  -1.036   5.843  1.00  0.00     0.202 C 
HETATM   16  O4  UNL     1      24.936   0.147   5.799  1.00  0.00    -0.288 OA
HETATM   17  C21 UNL     1      25.589  -2.103   5.636  1.00  0.00     0.266 C 
BRANCH  14  18
HETATM   18  C12 UNL     1      20.843  -0.320   5.695  1.00  0.00    -0.030 A 
HETATM   19  C13 UNL     1      20.259   0.781   6.332  1.00  0.00     0.051 A 
HETATM   20  C14 UNL     1      18.922   1.059   6.238  1.00  0.00     0.104 A 
HETATM   21  C16 UNL     1      18.091   0.237   5.493  1.00  0.00     0.133 A 
HETATM   22  C17 UNL     1      18.640  -0.853   4.856  1.00  0.00     0.104 A 
HETATM   23  C19 UNL     1      19.984  -1.124   4.955  1.00  0.00     0.051 A 
BRANCH  20  24
HETATM   24  O1  UNL     1      18.399   2.156   6.882  1.00  0.00    -0.353 OA
HETATM   25  C15 UNL     1      18.272   3.442   6.315  1.00  0.00     0.210 C 
ENDBRANCH  20  24
BRANCH  21  26
HETATM   26  O2  UNL     1      16.744   0.544   5.419  1.00  0.00    -0.356 OA
ATOM     27  H2  UNL     1      16.437   1.080   4.697  1.00  0.00     0.218 HD
ENDBRANCH  21  26
BRANCH  22  28
HETATM   28  O3  UNL     1      17.768  -1.647   4.124  1.00  0.00    -0.353 OA
HETATM   29  C18 UNL     1      17.285  -2.855   4.672  1.00  0.00     0.210 C 
ENDBRANCH  22  28
ENDBRANCH  14  18
BRANCH  17  30
HETATM   30  N2  UNL     1      25.724  -2.444   4.261  1.00  0.00    -0.308 N 
HETATM   31  C22 UNL     1      27.029  -2.547   3.686  1.00  0.00     0.363 C 
HETATM   32  O5  UNL     1      28.047  -2.336   4.401  1.00  0.00    -0.238 OA
ATOM     33  H2  UNL     1      24.896  -2.613   3.690  1.00  0.00     0.167 HD
BRANCH  31  34
HETATM   34  O6  UNL     1      27.286  -2.868   2.372  1.00  0.00    -0.294 OA
BRANCH  34  35
HETATM   35  C23 UNL     1      27.612  -4.172   1.959  1.00  0.00     0.061 C 
HETATM   36  C24 UNL     1      26.870  -4.458   0.675  1.00  0.00     0.046 C 
HETATM   37  C25 UNL     1      27.287  -5.249   2.935  1.00  0.00     0.046 C 
HETATM   38  C26 UNL     1      29.110  -4.232   1.677  1.00  0.00     0.046 C 
ENDBRANCH  34  35
ENDBRANCH  31  34
ENDBRANCH  17  30
ENDBRANCH   3   4
TORSDOF 8
ENDMDL
MODEL 2
REMARK VINA RESULT: -6.790843235      4.297      7.863
REMARK  8 active torsions:
REMARK  status: ('A' for Active; 'I' for Inactive)
REMARK    1  A    between atoms: C3_3  and  N1_4 
REMARK    2  A    between atoms: C11_14  and  C12_15 
REMARK    3  A    between atoms: C14_17  and  O1_18 
REMARK    4  A    between atoms: C16_20  and  O2_21 
REMARK    5  A    between atoms: C17_23  and  O3_24 
REMARK    6  A    between atoms: C21_29  and  N2_30 
REMARK       I    between atoms: N2_30  and  C22_32 
REMARK    7  A    between atoms: C22_32  and  O6_34 
REMARK    8  A    between atoms: O6_34  and  C23_35 
ROOT
HETATM    1  C1  UNL     1      26.442   0.683   4.327  1.00  0.00     0.014 C 
HETATM    2  C2  UNL     1      26.228  -0.501   4.304  1.00  0.00    -0.098 C 
HETATM    3  C3  UNL     1      25.949  -1.970   4.273  1.00  0.00     0.218 C 
ENDROOT
BRANCH   3   4
HETATM    4  N1  UNL     1      25.471  -2.415   5.530  1.00  0.00    -0.341 N 
HETATM    5  C4  UNL     1      26.030  -3.532   6.208  1.00  0.00     0.046 A 
HETATM    6  C5  UNL     1      26.796  -4.445   5.517  1.00  0.00     0.057 A 
HETATM    7  C9  UNL     1      25.832  -3.705   7.596  1.00  0.00     0.008 A 
HETATM    8  C6  UNL     1      27.409  -5.548   6.107  1.00  0.00     0.074 A 
HETATM    9 CL1  UNL     1      28.369  -6.667   5.161  1.00  0.00    -0.081 Cl
HETATM   10  C7  UNL     1      27.220  -5.704   7.444  1.00  0.00     0.139 A 
HETATM   11  F1  UNL     1      27.805  -6.768   8.060  1.00  0.00    -0.204 F 
HETATM   12  C8  UNL     1      26.451  -4.797   8.157  1.00  0.00     0.058 A 
HETATM   13  C10 UNL     1      25.064  -2.768   8.389  1.00  0.00     0.027 C 
HETATM   14  C11 UNL     1      24.721  -2.911   9.607  1.00  0.00     0.027 C 
HETATM   15  C20 UNL     1      24.530  -1.610   7.594  1.00  0.00     0.202 C 
HETATM   16  O4  UNL     1      24.220  -0.594   8.216  1.00  0.00    -0.288 OA
HETATM   17  C21 UNL     1      24.372  -1.660   6.129  1.00  0.00     0.266 C 
BRANCH  14  18
HETATM   18  C12 UNL     1      24.827  -3.836  10.686  1.00  0.00    -0.030 A 
HETATM   19  C13 UNL     1      25.473  -3.414  11.854  1.00  0.00     0.051 A 
HETATM   20  C14 UNL     1      25.551  -4.198  12.973  1.00  0.00     0.104 A 
HETATM   21  C16 UNL     1      24.980  -5.461  12.979  1.00  0.00     0.133 A 
HETATM   22  C17 UNL     1      24.338  -5.901  11.843  1.00  0.00     0.104 A 
HETATM   23  C19 UNL     1      24.264  -5.106  10.724  1.00  0.00     0.051 A 
BRANCH  20  24
HETATM   24  O1  UNL     1      26.196  -3.735  14.096  1.00  0.00    -0.353 OA
HETATM   25  C15 UNL     1      27.591  -3.774  14.301  1.00  0.00     0.210 C 
ENDBRANCH  20  24
BRANCH  21  26
HETATM   26  O2  UNL     1      25.078  -6.229  14.126  1.00  0.00    -0.356 OA
ATOM     27  H2  UNL     1      24.630  -7.067  14.154  1.00  0.00     0.218 HD
ENDBRANCH  21  26
BRANCH  22  28
HETATM   28  O3  UNL     1      23.784  -7.172  11.897  1.00  0.00    -0.353 OA
HETATM   29  C18 UNL     1      23.733  -7.969  10.732  1.00  0.00     0.210 C 
ENDBRANCH  22  28
ENDBRANCH  14  18
BRANCH  17  30
HETATM   30  N2  UNL     1      23.077  -2.113   5.750  1.00  0.00    -0.308 N 
HETATM   31  C22 UNL     1      22.043  -1.159   5.494  1.00  0.00     0.363 C 
HETATM   32  O5  UNL     1      22.288   0.073   5.606  1.00  0.00    -0.238 OA
ATOM     33  H2  UNL     1      22.888  -3.112   5.662  1.00  0.00     0.167 HD
BRANCH  31  34
HETATM   34  O6  UNL     1      20.756  -1.475   5.123  1.00  0.00    -0.294 OA
BRANCH  34  35
HETATM   35  C23 UNL     1      19.627  -0.921   5.753  1.00  0.00     0.061 C 
HETATM   36  C24 UNL     1      18.634  -0.535   4.683  1.00  0.00     0.046 C 
HETATM   37  C25 UNL     1      19.892   0.276   6.597  1.00  0.00     0.046 C 
HETATM   38  C26 UNL     1      18.993  -1.989   6.639  1.00  0.00     0.046 C 
ENDBRANCH  34  35
ENDBRANCH  31  34
ENDBRANCH  17  30
ENDBRANCH   3   4
TORSDOF 8
ENDMDL
MODEL 3
REMARK VINA RESULT: -6.670397132      2.842      4.483
REMARK  8 active torsions:
REMARK  status: ('A' for Active; 'I' for Inactive)
REMARK    1  A    between atoms: C3_3  and  N1_4 
REMARK    2  A    between atoms: C11_14  and  C12_15 
REMARK    3  A    between atoms: C14_17  and  O1_18 
REMARK    4  A    between atoms: C16_20  and  O2_21 
REMARK    5  A    between atoms: C17_23  and  O3_24 
REMARK    6  A    between atoms: C21_29  and  N2_30 
REMARK       I    between atoms: N2_30  and  C22_32 
REMARK    7  A    between atoms: C22_32  and  O6_34 
REMARK    8  A    between atoms: O6_34  and  C23_35 
ROOT
HETATM    1  C1  UNL     1      28.394   2.303   7.185  1.00  0.00     0.014 C 
HETATM    2  C2  UNL     1      28.497   1.131   7.437  1.00  0.00    -0.098 C 
HETATM    3  C3  UNL     1      28.629  -0.328   7.740  1.00  0.00     0.218 C 
ENDROOT
BRANCH   3   4
HETATM    4  N1  UNL     1      27.493  -1.038   7.280  1.00  0.00    -0.341 N 
HETATM    5  C4  UNL     1      26.629  -1.748   8.158  1.00  0.00     0.046 A 
HETATM    6  C5  UNL     1      27.058  -2.085   9.423  1.00  0.00     0.057 A 
HETATM    7  C9  UNL     1      25.318  -2.090   7.758  1.00  0.00     0.008 A 
HETATM    8  C6  UNL     1      26.269  -2.750  10.359  1.00  0.00     0.074 A 
HETATM    9 CL1  UNL     1      26.887  -3.146  11.950  1.00  0.00    -0.081 Cl
HETATM   10  C7  UNL     1      25.006  -3.069   9.969  1.00  0.00     0.139 A 
HETATM   11  F1  UNL     1      24.201  -3.717  10.856  1.00  0.00    -0.204 F 
HETATM   12  C8  UNL     1      24.557  -2.740   8.700  1.00  0.00     0.058 A 
HETATM   13  C10 UNL     1      24.793  -1.739   6.455  1.00  0.00     0.027 C 
HETATM   14  C11 UNL     1      23.682  -2.120   5.961  1.00  0.00     0.027 C 
HETATM   15  C20 UNL     1      25.766  -0.974   5.605  1.00  0.00     0.202 C 
HETATM   16  O4  UNL     1      25.303  -0.308   4.678  1.00  0.00    -0.288 OA
HETATM   17  C21 UNL     1      27.220  -1.000   5.844  1.00  0.00     0.266 C 
BRANCH  14  18
HETATM   18  C12 UNL     1      22.549  -2.927   6.273  1.00  0.00    -0.030 A 
HETATM   19  C13 UNL     1      22.739  -4.309   6.394  1.00  0.00     0.051 A 
HETATM   20  C14 UNL     1      21.734  -5.157   6.772  1.00  0.00     0.104 A 
HETATM   21  C16 UNL     1      20.471  -4.658   7.052  1.00  0.00     0.133 A 
HETATM   22  C17 UNL     1      20.257  -3.302   6.942  1.00  0.00     0.104 A 
HETATM   23  C19 UNL     1      21.274  -2.457   6.562  1.00  0.00     0.051 A 
BRANCH  20  24
HETATM   24  O1  UNL     1      21.973  -6.507   6.877  1.00  0.00    -0.353 OA
HETATM   25  C15 UNL     1      22.722  -7.118   7.906  1.00  0.00     0.210 C 
ENDBRANCH  20  24
BRANCH  21  26
HETATM   26  O2  UNL     1      19.476  -5.541   7.431  1.00  0.00    -0.356 OA
ATOM     27  H2  UNL     1      18.636  -5.499   6.990  1.00  0.00     0.218 HD
ENDBRANCH  21  26
BRANCH  22  28
HETATM   28  O3  UNL     1      18.978  -2.850   7.231  1.00  0.00    -0.353 OA
HETATM   29  C18 UNL     1      18.201  -2.238   6.222  1.00  0.00     0.210 C 
ENDBRANCH  22  28
ENDBRANCH  14  18
BRANCH  17  30
HETATM   30  N2  UNL     1      27.862  -2.032   5.101  1.00  0.00    -0.308 N 
HETATM   31  C22 UNL     1      28.335  -1.758   3.781  1.00  0.00     0.363 C 
HETATM   32  O5  UNL     1      28.181  -0.607   3.287  1.00  0.00    -0.238 OA
ATOM     33  H2  UNL     1      27.983  -2.959   5.509  1.00  0.00     0.167 HD
BRANCH  31  34
HETATM   34  O6  UNL     1      28.968  -2.669   2.967  1.00  0.00    -0.294 OA
BRANCH  34  35
HETATM   35  C23 UNL     1      28.341  -3.842   2.510  1.00  0.00     0.061 C 
HETATM   36  C24 UNL     1      29.021  -4.270   1.230  1.00  0.00     0.046 C 
HETATM   37  C25 UNL     1      26.881  -3.721   2.244  1.00  0.00     0.046 C 
HETATM   38  C26 UNL     1      28.539  -4.937   3.552  1.00  0.00     0.046 C 
ENDBRANCH  34  35
ENDBRANCH  31  34
ENDBRANCH  17  30
ENDBRANCH   3   4
TORSDOF 8
ENDMDL
MODEL 4
REMARK VINA RESULT: -6.636887130      3.599      5.995
REMARK  8 active torsions:
REMARK  status: ('A' for Active; 'I' for Inactive)
REMARK    1  A    between atoms: C3_3  and  N1_4 
REMARK    2  A    between atoms: C11_14  and  C12_15 
REMARK    3  A    between atoms: C14_17  and  O1_18 
REMARK    4  A    between atoms: C16_20  and  O2_21 
REMARK    5  A    between atoms: C17_23  and  O3_24 
REMARK    6  A    between atoms: C21_29  and  N2_30 
REMARK       I    between atoms: N2_30  and  C22_32 
REMARK    7  A    between atoms: C22_32  and  O6_34 
REMARK    8  A    between atoms: O6_34  and  C23_35 
ROOT
HETATM    1  C1  UNL     1      27.228  -5.575   4.819  1.00  0.00     0.014 C 
HETATM    2  C2  UNL     1      27.143  -4.868   5.788  1.00  0.00    -0.098 C 
HETATM    3  C3  UNL     1      27.033  -3.999   7.001  1.00  0.00     0.218 C 
ENDROOT
BRANCH   3   4
HETATM    4  N1  UNL     1      25.769  -3.360   7.044  1.00  0.00    -0.341 N 
HETATM    5  C4  UNL     1      25.479  -2.190   6.291  1.00  0.00     0.046 A 
HETATM    6  C5  UNL     1      26.506  -1.423   5.787  1.00  0.00     0.057 A 
HETATM    7  C9  UNL     1      24.142  -1.816   6.027  1.00  0.00     0.008 A 
HETATM    8  C6  UNL     1      26.314  -0.280   5.012  1.00  0.00     0.074 A 
HETATM    9 CL1  UNL     1      27.673   0.645   4.407  1.00  0.00    -0.081 Cl
HETATM   10  C7  UNL     1      25.026   0.069   4.757  1.00  0.00     0.139 A 
HETATM   11  F1  UNL     1      24.794   1.177   4.000  1.00  0.00    -0.204 F 
HETATM   12  C8  UNL     1      23.978  -0.690   5.256  1.00  0.00     0.058 A 
HETATM   13  C10 UNL     1      23.016  -2.593   6.500  1.00  0.00     0.027 C 
HETATM   14  C11 UNL     1      21.788  -2.264   6.428  1.00  0.00     0.027 C 
HETATM   15  C20 UNL     1      23.417  -3.821   7.267  1.00  0.00     0.202 C 
HETATM   16  O4  UNL     1      22.585  -4.724   7.361  1.00  0.00    -0.288 OA
HETATM   17  C21 UNL     1      24.745  -3.967   7.891  1.00  0.00     0.266 C 
BRANCH  14  18
HETATM   18  C12 UNL     1      20.949  -1.205   5.975  1.00  0.00    -0.030 A 
HETATM   19  C13 UNL     1      19.823  -1.537   5.213  1.00  0.00     0.051 A 
HETATM   20  C14 UNL     1      18.912  -0.601   4.803  1.00  0.00     0.104 A 
HETATM   21  C16 UNL     1      19.086   0.733   5.139  1.00  0.00     0.133 A 
HETATM   22  C17 UNL     1      20.186   1.087   5.889  1.00  0.00     0.104 A 
HETATM   23  C19 UNL     1      21.095   0.139   6.297  1.00  0.00     0.051 A 
BRANCH  20  24
HETATM   24  O1  UNL     1      17.821  -0.980   4.057  1.00  0.00    -0.353 OA
HETATM   25  C15 UNL     1      17.148  -2.215   4.178  1.00  0.00     0.210 C 
ENDBRANCH  20  24
BRANCH  21  26
HETATM   26  O2  UNL     1      18.149   1.655   4.709  1.00  0.00    -0.356 OA
ATOM     27  H2  UNL     1      17.234   1.509   4.920  1.00  0.00     0.218 HD
ENDBRANCH  21  26
BRANCH  22  28
HETATM   28  O3  UNL     1      20.318   2.433   6.199  1.00  0.00    -0.353 OA
HETATM   29  C18 UNL     1      19.170   3.213   6.459  1.00  0.00     0.210 C 
ENDBRANCH  22  28
ENDBRANCH  14  18
BRANCH  17  30
HETATM   30  N2  UNL     1      24.752  -3.505   9.238  1.00  0.00    -0.308 N 
HETATM   31  C22 UNL     1      24.586  -4.442  10.305  1.00  0.00     0.363 C 
HETATM   32  O5  UNL     1      24.437  -5.667  10.045  1.00  0.00    -0.238 OA
ATOM     33  H2  UNL     1      24.874  -2.513   9.439  1.00  0.00     0.167 HD
BRANCH  31  34
HETATM   34  O6  UNL     1      24.575  -4.116  11.642  1.00  0.00    -0.294 OA
BRANCH  34  35
HETATM   35  C23 UNL     1      25.681  -4.330  12.484  1.00  0.00     0.061 C 
HETATM   36  C24 UNL     1      25.929  -3.061  13.266  1.00  0.00     0.046 C 
HETATM   37  C25 UNL     1      26.945  -4.706  11.793  1.00  0.00     0.046 C 
HETATM   38  C26 UNL     1      25.335  -5.444  13.467  1.00  0.00     0.046 C 
ENDBRANCH  34  35
ENDBRANCH  31  34
ENDBRANCH  17  30
ENDBRANCH   3   4
TORSDOF 8
ENDMDL
MODEL 5
REMARK VINA RESULT: -6.561571871      5.266      8.800
REMARK  8 active torsions:
REMARK  status: ('A' for Active; 'I' for Inactive)
REMARK    1  A    between atoms: C3_3  and  N1_4 
REMARK    2  A    between atoms: C11_14  and  C12_15 
REMARK    3  A    between atoms: C14_17  and  O1_18 
REMARK    4  A    between atoms: C16_20  and  O2_21 
REMARK    5  A    between atoms: C17_23  and  O3_24 
REMARK    6  A    between atoms: C21_29  and  N2_30 
REMARK       I    between atoms: N2_30  and  C22_32 
REMARK    7  A    between atoms: C22_32  and  O6_34 
REMARK    8  A    between atoms: O6_34  and  C23_35 
ROOT
HETATM    1  C1  UNL     1      21.947  -0.126   6.387  1.00  0.00     0.014 C 
HETATM    2  C2  UNL     1      22.674  -1.051   6.134  1.00  0.00    -0.098 C 
HETATM    3  C3  UNL     1      23.567  -2.210   5.820  1.00  0.00     0.218 C 
ENDROOT
BRANCH   3   4
HETATM    4  N1  UNL     1      23.951  -2.881   7.007  1.00  0.00    -0.341 N 
HETATM    5  C4  UNL     1      25.101  -2.512   7.756  1.00  0.00     0.046 A 
HETATM    6  C5  UNL     1      26.086  -1.746   7.172  1.00  0.00     0.057 A 
HETATM    7  C9  UNL     1      25.236  -2.900   9.108  1.00  0.00     0.008 A 
HETATM    8  C6  UNL     1      27.229  -1.311   7.840  1.00  0.00     0.074 A 
HETATM    9 CL1  UNL     1      28.440  -0.339   7.028  1.00  0.00    -0.081 Cl
HETATM   10  C7  UNL     1      27.348  -1.682   9.142  1.00  0.00     0.139 A 
HETATM   11  F1  UNL     1      28.449  -1.275   9.832  1.00  0.00    -0.204 F 
HETATM   12  C8  UNL     1      26.368  -2.454   9.746  1.00  0.00     0.058 A 
HETATM   13  C10 UNL     1      24.225  -3.678   9.791  1.00  0.00     0.027 C 
HETATM   14  C11 UNL     1      24.320  -4.184  10.956  1.00  0.00     0.027 C 
HETATM   15  C20 UNL     1      23.038  -4.004   8.930  1.00  0.00     0.202 C 
HETATM   16  O4  UNL     1      21.989  -4.301   9.504  1.00  0.00    -0.288 OA
HETATM   17  C21 UNL     1      23.095  -3.977   7.458  1.00  0.00     0.266 C 
BRANCH  14  18
HETATM   18  C12 UNL     1      25.235  -4.297  12.043  1.00  0.00    -0.030 A 
HETATM   19  C13 UNL     1      25.592  -5.581  12.473  1.00  0.00     0.051 A 
HETATM   20  C14 UNL     1      26.525  -5.795  13.450  1.00  0.00     0.104 A 
HETATM   21  C16 UNL     1      27.157  -4.720  14.056  1.00  0.00     0.133 A 
HETATM   22  C17 UNL     1      26.826  -3.446  13.652  1.00  0.00     0.104 A 
HETATM   23  C19 UNL     1      25.888  -3.241  12.668  1.00  0.00     0.051 A 
BRANCH  20  24
HETATM   24  O1  UNL     1      26.840  -7.077  13.835  1.00  0.00    -0.353 OA
HETATM   25  C15 UNL     1      27.561  -8.002  13.050  1.00  0.00     0.210 C 
ENDBRANCH  20  24
BRANCH  21  26
HETATM   26  O2  UNL     1      28.095  -4.969  15.042  1.00  0.00    -0.356 OA
ATOM     27  H2  UNL     1      28.008  -4.526  15.878  1.00  0.00     0.218 HD
ENDBRANCH  21  26
BRANCH  22  28
HETATM   28  O3  UNL     1      27.484  -2.403  14.288  1.00  0.00    -0.353 OA
HETATM   29  C18 UNL     1      28.814  -2.088  13.935  1.00  0.00     0.210 C 
ENDBRANCH  22  28
ENDBRANCH  14  18
BRANCH  17  30
HETATM   30  N2  UNL     1      23.442  -5.248   6.917  1.00  0.00    -0.308 N 
HETATM   31  C22 UNL     1      22.409  -6.130   6.472  1.00  0.00     0.363 C 
HETATM   32  O5  UNL     1      21.201  -5.775   6.562  1.00  0.00    -0.238 OA
ATOM     33  H2  UNL     1      24.421  -5.527   6.848  1.00  0.00     0.167 HD
BRANCH  31  34
HETATM   34  O6  UNL     1      22.618  -7.379   5.934  1.00  0.00    -0.294 OA
BRANCH  34  35
HETATM   35  C23 UNL     1      23.366  -7.584   4.761  1.00  0.00     0.061 C 
HETATM   36  C24 UNL     1      24.731  -8.094   5.156  1.00  0.00     0.046 C 
HETATM   37  C25 UNL     1      23.548  -6.381   3.903  1.00  0.00     0.046 C 
HETATM   38  C26 UNL     1      22.673  -8.655   3.924  1.00  0.00     0.046 C 
ENDBRANCH  34  35
ENDBRANCH  31  34
ENDBRANCH  17  30
ENDBRANCH   3   4
TORSDOF 8
ENDMDL
