MODEL 1
REMARK VINA RESULT: -7.366774346      0.000      0.000
REMARK  19 active torsions:
REMARK  status: ('A' for Active; 'I' for Inactive)
REMARK    1  A    between atoms: C2_2  and  O1_3 
REMARK    2  A    between atoms: C2_2  and  C3_5 
REMARK    3  A    between atoms: C3_5  and  C4_7 
REMARK    4  A    between atoms: C4_7  and  C5_9 
REMARK       I    between atoms: C5_9  and  N1_11 
REMARK    5  A    between atoms: N1_11  and  N2_13 
REMARK    6  A    between atoms: N2_13  and  C6_15 
REMARK    7  A    between atoms: C6_15  and  C7_16 
REMARK    8  A    between atoms: C7_16  and  O5_17 
REMARK    9  A    between atoms: C7_16  and  C8_19 
REMARK       I    between atoms: C8_19  and  N3_21 
REMARK   10  A    between atoms: N3_21  and  C9_23 
REMARK   11  A    between atoms: C9_23  and  C11_25 
REMARK       I    between atoms: C11_25  and  N4_27 
REMARK   12  A    between atoms: N4_27  and  C12_29 
REMARK   13  A    between atoms: C12_29  and  C14_31 
REMARK   14  A    between atoms: C14_31  and  C15_32 
REMARK   15  A    between atoms: C14_31  and  N6_37 
REMARK   16  A    between atoms: C15_32  and  N5_33 
REMARK       I    between atoms: N6_37  and  C16_39 
REMARK   17  A    between atoms: C16_39  and  C17_41 
REMARK   18  A    between atoms: C17_41  and  C18_42 
REMARK       I    between atoms: C18_42  and  N7_44 
REMARK   19  A    between atoms: N7_44  and  N8_46 
ROOT
HETATM    1  C9  UNL     1      -2.054  13.381 120.781  1.00  0.00     0.172 C 
HETATM    2  C10 UNL     1      -1.594  14.408 119.689  1.00  0.00     0.042 C 
ENDROOT
BRANCH   1   3
HETATM    3  N3  UNL     1      -3.341  12.897 120.271  1.00  0.00    -0.346 N 
HETATM    4  C8  UNL     1      -3.909  11.674 120.677  1.00  0.00     0.248 C 
HETATM    5  O6  UNL     1      -3.322  10.934 121.477  1.00  0.00    -0.271 OA
ATOM      6  H3  UNL     1      -3.845  13.469 119.594  1.00  0.00     0.163 HD
BRANCH   4   7
HETATM    7  C7  UNL     1      -5.228  11.273 120.133  1.00  0.00     0.229 C 
BRANCH   7   8
HETATM    8  C6  UNL     1      -5.173   9.914 119.523  1.00  0.00     0.180 C 
BRANCH   8   9
HETATM    9  N2  UNL     1      -5.736   8.914 120.351  1.00  0.00    -0.331 N 
ATOM     10  H2  UNL     1      -6.729   8.698 120.258  1.00  0.00     0.180 HD
BRANCH   9  11
HETATM   11  N1  UNL     1      -5.010   8.242 121.252  1.00  0.00    -0.267 N 
HETATM   12  C5  UNL     1      -5.154   8.448 122.668  1.00  0.00     0.313 C 
HETATM   13  O4  UNL     1      -5.985   9.276 123.124  1.00  0.00    -0.262 OA
ATOM     14  H1  UNL     1      -4.330   7.556 120.922  1.00  0.00     0.190 HD
BRANCH  12  15
HETATM   15  C4  UNL     1      -4.310   7.678 123.567  1.00  0.00     0.288 C 
HETATM   16  O3  UNL     1      -4.480   7.856 124.821  1.00  0.00    -0.278 OA
BRANCH  15  17
HETATM   17  C3  UNL     1      -3.325   6.748 123.063  1.00  0.00     0.232 C 
HETATM   18  O2  UNL     1      -3.618   5.630 122.663  1.00  0.00    -0.286 OA
BRANCH  17  19
HETATM   19  C2  UNL     1      -1.864   7.214 123.054  1.00  0.00     0.192 C 
HETATM   20  C1  UNL     1      -1.041   6.394 122.112  1.00  0.00     0.048 C 
BRANCH  19  21
HETATM   21  O1  UNL     1      -1.383   7.163 124.329  1.00  0.00    -0.388 OA
ATOM     22  H1  UNL     1      -1.250   8.029 124.693  1.00  0.00     0.210 HD
ENDBRANCH  19  21
ENDBRANCH  17  19
ENDBRANCH  15  17
ENDBRANCH  12  15
ENDBRANCH   9  11
ENDBRANCH   8   9
ENDBRANCH   7   8
BRANCH   7  23
HETATM   23  O5  UNL     1      -6.199  11.447 121.096  1.00  0.00    -0.384 OA
ATOM     24  H5  UNL     1      -6.999  10.952 120.960  1.00  0.00     0.210 HD
ENDBRANCH   7  23
ENDBRANCH   4   7
ENDBRANCH   1   3
BRANCH   1  25
HETATM   25  C11 UNL     1      -2.278  14.189 121.966  1.00  0.00     0.244 C 
HETATM   26  O7  UNL     1      -2.182  15.442 121.854  1.00  0.00    -0.271 OA
HETATM   27  N4  UNL     1      -2.603  13.627 123.243  1.00  0.00    -0.331 N 
ATOM     28  H4  UNL     1      -2.694  12.613 123.315  1.00  0.00     0.168 HD
BRANCH  27  29
HETATM   29  C12 UNL     1      -2.805  14.404 124.411  1.00  0.00     0.010 C 
HETATM   30  C13 UNL     1      -1.621  14.107 125.352  1.00  0.00     0.066 C 
BRANCH  29  31
HETATM   31  C14 UNL     1      -4.068  14.558 125.105  1.00  0.00     0.155 C 
BRANCH  31  32
HETATM   32  C15 UNL     1      -4.124  14.998 126.523  1.00  0.00     0.260 C 
BRANCH  32  33
HETATM   33  N5  UNL     1      -4.128  16.403 126.763  1.00  0.00    -0.077 N 
ATOM     34  H53 UNL     1      -4.021  16.900 125.878  1.00  0.00     0.274 HD
ATOM     35  H52 UNL     1      -5.066  16.701 127.033  1.00  0.00     0.274 HD
ATOM     36  H51 UNL     1      -3.451  16.759 127.438  1.00  0.00     0.274 HD
ENDBRANCH  32  33
ENDBRANCH  31  32
BRANCH  31  37
HETATM   37  N6  UNL     1      -4.995  15.433 124.347  1.00  0.00    -0.349 N 
HETATM   38  C16 UNL     1      -5.762  14.962 123.271  1.00  0.00     0.227 C 
HETATM   39  O8  UNL     1      -5.685  13.734 122.957  1.00  0.00    -0.273 OA
ATOM     40  H6  UNL     1      -5.078  16.413 124.617  1.00  0.00     0.163 HD
BRANCH  38  41
HETATM   41  C17 UNL     1      -6.669  15.791 122.455  1.00  0.00     0.207 C 
BRANCH  41  42
HETATM   42  C18 UNL     1      -5.919  16.700 121.561  1.00  0.00     0.244 C 
HETATM   43  O9  UNL     1      -6.220  17.932 121.406  1.00  0.00    -0.271 OA
HETATM   44  N7  UNL     1      -4.798  16.205 120.824  1.00  0.00    -0.276 N 
ATOM     45  H7  UNL     1      -4.552  15.221 120.935  1.00  0.00     0.189 HD
BRANCH  44  46
HETATM   46  N8  UNL     1      -4.027  16.972 119.972  1.00  0.00    -0.343 N 
ATOM     47  H82 UNL     1      -3.801  16.565 119.064  1.00  0.00     0.176 HD
ATOM     48  H81 UNL     1      -3.679  17.905 120.195  1.00  0.00     0.176 HD
ENDBRANCH  44  46
ENDBRANCH  41  42
ENDBRANCH  38  41
ENDBRANCH  31  37
ENDBRANCH  29  31
ENDBRANCH  27  29
ENDBRANCH   1  25
TORSDOF 19
ENDMDL
MODEL 2
REMARK VINA RESULT: -7.190891916      2.613      7.817
REMARK  19 active torsions:
REMARK  status: ('A' for Active; 'I' for Inactive)
REMARK    1  A    between atoms: C2_2  and  O1_3 
REMARK    2  A    between atoms: C2_2  and  C3_5 
REMARK    3  A    between atoms: C3_5  and  C4_7 
REMARK    4  A    between atoms: C4_7  and  C5_9 
REMARK       I    between atoms: C5_9  and  N1_11 
REMARK    5  A    between atoms: N1_11  and  N2_13 
REMARK    6  A    between atoms: N2_13  and  C6_15 
REMARK    7  A    between atoms: C6_15  and  C7_16 
REMARK    8  A    between atoms: C7_16  and  O5_17 
REMARK    9  A    between atoms: C7_16  and  C8_19 
REMARK       I    between atoms: C8_19  and  N3_21 
REMARK   10  A    between atoms: N3_21  and  C9_23 
REMARK   11  A    between atoms: C9_23  and  C11_25 
REMARK       I    between atoms: C11_25  and  N4_27 
REMARK   12  A    between atoms: N4_27  and  C12_29 
REMARK   13  A    between atoms: C12_29  and  C14_31 
REMARK   14  A    between atoms: C14_31  and  C15_32 
REMARK   15  A    between atoms: C14_31  and  N6_37 
REMARK   16  A    between atoms: C15_32  and  N5_33 
REMARK       I    between atoms: N6_37  and  C16_39 
REMARK   17  A    between atoms: C16_39  and  C17_41 
REMARK   18  A    between atoms: C17_41  and  C18_42 
REMARK       I    between atoms: C18_42  and  N7_44 
REMARK   19  A    between atoms: N7_44  and  N8_46 
ROOT
HETATM    1  C9  UNL     1      -2.239  11.664 123.248  1.00  0.00     0.172 C 
HETATM    2  C10 UNL     1      -1.571  11.501 124.658  1.00  0.00     0.042 C 
ENDROOT
BRANCH   1   3
HETATM    3  N3  UNL     1      -3.651  11.896 123.566  1.00  0.00    -0.346 N 
HETATM    4  C8  UNL     1      -4.559  12.444 122.641  1.00  0.00     0.248 C 
HETATM    5  O6  UNL     1      -4.189  12.781 121.509  1.00  0.00    -0.271 OA
ATOM      6  H3  UNL     1      -3.990  11.650 124.496  1.00  0.00     0.163 HD
BRANCH   4   7
HETATM    7  C7  UNL     1      -5.977  12.619 123.035  1.00  0.00     0.229 C 
BRANCH   7   8
HETATM    8  C6  UNL     1      -6.847  12.851 121.848  1.00  0.00     0.180 C 
BRANCH   8   9
HETATM    9  N2  UNL     1      -7.151  14.217 121.644  1.00  0.00    -0.331 N 
ATOM     10  H2  UNL     1      -8.119  14.526 121.741  1.00  0.00     0.180 HD
BRANCH   9  11
HETATM   11  N1  UNL     1      -6.214  15.118 121.328  1.00  0.00    -0.267 N 
HETATM   12  C5  UNL     1      -5.733  16.093 122.269  1.00  0.00     0.313 C 
HETATM   13  O4  UNL     1      -6.174  16.133 123.448  1.00  0.00    -0.262 OA
ATOM     14  H1  UNL     1      -5.826  15.114 120.384  1.00  0.00     0.190 HD
BRANCH  12  15
HETATM   15  C4  UNL     1      -4.722  17.039 121.827  1.00  0.00     0.288 C 
HETATM   16  O3  UNL     1      -4.384  17.957 122.650  1.00  0.00    -0.278 OA
BRANCH  15  17
HETATM   17  C3  UNL     1      -4.122  16.942 120.515  1.00  0.00     0.232 C 
HETATM   18  O2  UNL     1      -4.719  17.251 119.494  1.00  0.00    -0.286 OA
BRANCH  17  19
HETATM   19  C2  UNL     1      -2.683  16.420 120.442  1.00  0.00     0.192 C 
HETATM   20  C1  UNL     1      -1.881  17.183 119.436  1.00  0.00     0.048 C 
BRANCH  19  21
HETATM   21  O1  UNL     1      -2.717  15.087 120.161  1.00  0.00    -0.388 OA
ATOM     22  H1  UNL     1      -2.904  14.566 120.933  1.00  0.00     0.210 HD
ENDBRANCH  19  21
ENDBRANCH  17  19
ENDBRANCH  15  17
ENDBRANCH  12  15
ENDBRANCH   9  11
ENDBRANCH   8   9
ENDBRANCH   7   8
BRANCH   7  23
HETATM   23  O5  UNL     1      -6.363  11.576 123.852  1.00  0.00    -0.384 OA
ATOM     24  H5  UNL     1      -6.291  11.744 124.785  1.00  0.00     0.210 HD
ENDBRANCH   7  23
ENDBRANCH   4   7
ENDBRANCH   1   3
BRANCH   1  25
HETATM   25  C11 UNL     1      -2.091  10.361 122.626  1.00  0.00     0.244 C 
HETATM   26  O7  UNL     1      -1.821   9.378 123.370  1.00  0.00    -0.271 OA
HETATM   27  N4  UNL     1      -2.243  10.148 121.218  1.00  0.00    -0.331 N 
ATOM     28  H4  UNL     1      -2.478  10.948 120.631  1.00  0.00     0.168 HD
BRANCH  27  29
HETATM   29  C12 UNL     1      -2.082   8.884 120.596  1.00  0.00     0.010 C 
HETATM   30  C13 UNL     1      -1.111   9.089 119.418  1.00  0.00     0.066 C 
BRANCH  29  31
HETATM   31  C14 UNL     1      -3.155   7.954 120.304  1.00  0.00     0.155 C 
BRANCH  31  32
HETATM   32  C15 UNL     1      -2.888   6.641 119.661  1.00  0.00     0.260 C 
BRANCH  32  33
HETATM   33  N5  UNL     1      -3.719   6.281 118.560  1.00  0.00    -0.077 N 
ATOM     34  H53 UNL     1      -4.653   6.667 118.698  1.00  0.00     0.274 HD
ATOM     35  H52 UNL     1      -3.424   6.795 117.729  1.00  0.00     0.274 HD
ATOM     36  H51 UNL     1      -3.789   5.288 118.339  1.00  0.00     0.274 HD
ENDBRANCH  32  33
ENDBRANCH  31  32
BRANCH  31  37
HETATM   37  N6  UNL     1      -3.974   7.682 121.511  1.00  0.00    -0.349 N 
HETATM   38  C16 UNL     1      -5.059   8.491 121.881  1.00  0.00     0.227 C 
HETATM   39  O8  UNL     1      -5.371   9.471 121.137  1.00  0.00    -0.273 OA
ATOM     40  H6  UNL     1      -3.740   6.878 122.093  1.00  0.00     0.163 HD
BRANCH  38  41
HETATM   41  C17 UNL     1      -5.883   8.295 123.087  1.00  0.00     0.207 C 
BRANCH  41  42
HETATM   42  C18 UNL     1      -5.057   8.266 124.314  1.00  0.00     0.244 C 
HETATM   43  O9  UNL     1      -4.130   7.410 124.511  1.00  0.00    -0.271 OA
HETATM   44  N7  UNL     1      -5.282   9.234 125.342  1.00  0.00    -0.276 N 
ATOM     45  H7  UNL     1      -6.023   9.920 125.198  1.00  0.00     0.189 HD
BRANCH  44  46
HETATM   46  N8  UNL     1      -4.560   9.301 126.519  1.00  0.00    -0.343 N 
ATOM     47  H82 UNL     1      -3.647   9.753 126.473  1.00  0.00     0.176 HD
ATOM     48  H81 UNL     1      -4.883   8.930 127.413  1.00  0.00     0.176 HD
ENDBRANCH  44  46
ENDBRANCH  41  42
ENDBRANCH  38  41
ENDBRANCH  31  37
ENDBRANCH  29  31
ENDBRANCH  27  29
ENDBRANCH   1  25
TORSDOF 19
ENDMDL
MODEL 3
REMARK VINA RESULT: -6.977299993      1.235      2.090
REMARK  19 active torsions:
REMARK  status: ('A' for Active; 'I' for Inactive)
REMARK    1  A    between atoms: C2_2  and  O1_3 
REMARK    2  A    between atoms: C2_2  and  C3_5 
REMARK    3  A    between atoms: C3_5  and  C4_7 
REMARK    4  A    between atoms: C4_7  and  C5_9 
REMARK       I    between atoms: C5_9  and  N1_11 
REMARK    5  A    between atoms: N1_11  and  N2_13 
REMARK    6  A    between atoms: N2_13  and  C6_15 
REMARK    7  A    between atoms: C6_15  and  C7_16 
REMARK    8  A    between atoms: C7_16  and  O5_17 
REMARK    9  A    between atoms: C7_16  and  C8_19 
REMARK       I    between atoms: C8_19  and  N3_21 
REMARK   10  A    between atoms: N3_21  and  C9_23 
REMARK   11  A    between atoms: C9_23  and  C11_25 
REMARK       I    between atoms: C11_25  and  N4_27 
REMARK   12  A    between atoms: N4_27  and  C12_29 
REMARK   13  A    between atoms: C12_29  and  C14_31 
REMARK   14  A    between atoms: C14_31  and  C15_32 
REMARK   15  A    between atoms: C14_31  and  N6_37 
REMARK   16  A    between atoms: C15_32  and  N5_33 
REMARK       I    between atoms: N6_37  and  C16_39 
REMARK   17  A    between atoms: C16_39  and  C17_41 
REMARK   18  A    between atoms: C17_41  and  C18_42 
REMARK       I    between atoms: C18_42  and  N7_44 
REMARK   19  A    between atoms: N7_44  and  N8_46 
ROOT
HETATM    1  C9  UNL     1      -2.220  13.075 120.146  1.00  0.00     0.172 C 
HETATM    2  C10 UNL     1      -1.809  13.984 118.936  1.00  0.00     0.042 C 
ENDROOT
BRANCH   1   3
HETATM    3  N3  UNL     1      -3.546  12.578 119.764  1.00  0.00    -0.346 N 
HETATM    4  C8  UNL     1      -4.226  11.586 120.495  1.00  0.00     0.248 C 
HETATM    5  O6  UNL     1      -3.712  11.065 121.492  1.00  0.00    -0.271 OA
ATOM      6  H3  UNL     1      -3.994  12.968 118.935  1.00  0.00     0.163 HD
BRANCH   4   7
HETATM    7  C7  UNL     1      -5.576  11.161 120.054  1.00  0.00     0.229 C 
BRANCH   7   8
HETATM    8  C6  UNL     1      -5.531   9.847 119.353  1.00  0.00     0.180 C 
BRANCH   8   9
HETATM    9  N2  UNL     1      -4.770   8.877 120.047  1.00  0.00    -0.331 N 
ATOM     10  H2  UNL     1      -3.944   8.483 119.595  1.00  0.00     0.180 HD
BRANCH   9  11
HETATM   11  N1  UNL     1      -5.095   8.457 121.275  1.00  0.00    -0.267 N 
HETATM   12  C5  UNL     1      -4.113   7.998 122.219  1.00  0.00     0.313 C 
HETATM   13  O4  UNL     1      -2.888   7.979 121.927  1.00  0.00    -0.262 OA
ATOM     14  H1  UNL     1      -6.078   8.464 121.552  1.00  0.00     0.190 HD
BRANCH  12  15
HETATM   15  C4  UNL     1      -4.568   7.550 123.525  1.00  0.00     0.288 C 
HETATM   16  O3  UNL     1      -4.748   6.293 123.679  1.00  0.00    -0.278 OA
BRANCH  15  17
HETATM   17  C3  UNL     1      -4.799   8.484 124.604  1.00  0.00     0.232 C 
HETATM   18  O2  UNL     1      -4.973   8.126 125.760  1.00  0.00    -0.286 OA
BRANCH  17  19
HETATM   19  C2  UNL     1      -4.830   9.973 124.243  1.00  0.00     0.192 C 
HETATM   20  C1  UNL     1      -4.547  10.826 125.438  1.00  0.00     0.048 C 
BRANCH  19  21
HETATM   21  O1  UNL     1      -6.041  10.261 123.686  1.00  0.00    -0.388 OA
ATOM     22  H1  UNL     1      -5.954  10.782 122.897  1.00  0.00     0.210 HD
ENDBRANCH  19  21
ENDBRANCH  17  19
ENDBRANCH  15  17
ENDBRANCH  12  15
ENDBRANCH   9  11
ENDBRANCH   8   9
ENDBRANCH   7   8
BRANCH   7  23
HETATM   23  O5  UNL     1      -6.454  11.232 121.117  1.00  0.00    -0.384 OA
ATOM     24  H5  UNL     1      -6.068  11.078 121.971  1.00  0.00     0.210 HD
ENDBRANCH   7  23
ENDBRANCH   4   7
ENDBRANCH   1   3
BRANCH   1  25
HETATM   25  C11 UNL     1      -2.352  13.995 121.262  1.00  0.00     0.244 C 
HETATM   26  O7  UNL     1      -2.262  15.230 121.022  1.00  0.00    -0.271 OA
HETATM   27  N4  UNL     1      -2.581  13.560 122.607  1.00  0.00    -0.331 N 
ATOM     28  H4  UNL     1      -2.668  12.560 122.783  1.00  0.00     0.168 HD
BRANCH  27  29
HETATM   29  C12 UNL     1      -2.692  14.448 123.707  1.00  0.00     0.010 C 
HETATM   30  C13 UNL     1      -1.393  14.308 124.523  1.00  0.00     0.066 C 
BRANCH  29  31
HETATM   31  C14 UNL     1      -3.874  14.617 124.529  1.00  0.00     0.155 C 
BRANCH  31  32
HETATM   32  C15 UNL     1      -3.772  14.962 125.971  1.00  0.00     0.260 C 
BRANCH  32  33
HETATM   33  N5  UNL     1      -4.464  14.119 126.887  1.00  0.00    -0.077 N 
ATOM     34  H53 UNL     1      -4.108  13.166 126.809  1.00  0.00     0.274 HD
ATOM     35  H52 UNL     1      -4.183  14.347 127.841  1.00  0.00     0.274 HD
ATOM     36  H51 UNL     1      -5.483  14.107 126.826  1.00  0.00     0.274 HD
ENDBRANCH  32  33
ENDBRANCH  31  32
BRANCH  31  37
HETATM   37  N6  UNL     1      -4.817  15.587 123.921  1.00  0.00    -0.349 N 
HETATM   38  C16 UNL     1      -5.696  15.233 122.886  1.00  0.00     0.227 C 
HETATM   39  O8  UNL     1      -5.707  14.030 122.479  1.00  0.00    -0.273 OA
ATOM     40  H6  UNL     1      -4.827  16.546 124.267  1.00  0.00     0.163 HD
BRANCH  38  41
HETATM   41  C17 UNL     1      -6.626  16.160 122.216  1.00  0.00     0.207 C 
BRANCH  41  42
HETATM   42  C18 UNL     1      -6.042  16.719 120.977  1.00  0.00     0.244 C 
HETATM   43  O9  UNL     1      -6.746  17.218 120.036  1.00  0.00    -0.271 OA
HETATM   44  N7  UNL     1      -4.623  16.718 120.800  1.00  0.00    -0.276 N 
ATOM     45  H7  UNL     1      -4.050  16.317 121.543  1.00  0.00     0.189 HD
BRANCH  44  46
HETATM   46  N8  UNL     1      -3.978  17.224 119.688  1.00  0.00    -0.343 N 
ATOM     47  H82 UNL     1      -4.096  16.711 118.814  1.00  0.00     0.176 HD
ATOM     48  H81 UNL     1      -3.402  18.066 119.692  1.00  0.00     0.176 HD
ENDBRANCH  44  46
ENDBRANCH  41  42
ENDBRANCH  38  41
ENDBRANCH  31  37
ENDBRANCH  29  31
ENDBRANCH  27  29
ENDBRANCH   1  25
TORSDOF 19
ENDMDL
MODEL 4
REMARK VINA RESULT: -6.849537178      2.587      4.972
REMARK  19 active torsions:
REMARK  status: ('A' for Active; 'I' for Inactive)
REMARK    1  A    between atoms: C2_2  and  O1_3 
REMARK    2  A    between atoms: C2_2  and  C3_5 
REMARK    3  A    between atoms: C3_5  and  C4_7 
REMARK    4  A    between atoms: C4_7  and  C5_9 
REMARK       I    between atoms: C5_9  and  N1_11 
REMARK    5  A    between atoms: N1_11  and  N2_13 
REMARK    6  A    between atoms: N2_13  and  C6_15 
REMARK    7  A    between atoms: C6_15  and  C7_16 
REMARK    8  A    between atoms: C7_16  and  O5_17 
REMARK    9  A    between atoms: C7_16  and  C8_19 
REMARK       I    between atoms: C8_19  and  N3_21 
REMARK   10  A    between atoms: N3_21  and  C9_23 
REMARK   11  A    between atoms: C9_23  and  C11_25 
REMARK       I    between atoms: C11_25  and  N4_27 
REMARK   12  A    between atoms: N4_27  and  C12_29 
REMARK   13  A    between atoms: C12_29  and  C14_31 
REMARK   14  A    between atoms: C14_31  and  C15_32 
REMARK   15  A    between atoms: C14_31  and  N6_37 
REMARK   16  A    between atoms: C15_32  and  N5_33 
REMARK       I    between atoms: N6_37  and  C16_39 
REMARK   17  A    between atoms: C16_39  and  C17_41 
REMARK   18  A    between atoms: C17_41  and  C18_42 
REMARK       I    between atoms: C18_42  and  N7_44 
REMARK   19  A    between atoms: N7_44  and  N8_46 
ROOT
HETATM    1  C9  UNL     1      -4.212  14.631 125.435  1.00  0.00     0.172 C 
HETATM    2  C10 UNL     1      -2.894  15.381 125.838  1.00  0.00     0.042 C 
ENDROOT
BRANCH   1   3
HETATM    3  N3  UNL     1      -3.957  13.248 125.852  1.00  0.00    -0.346 N 
HETATM    4  C8  UNL     1      -4.323  12.757 127.119  1.00  0.00     0.248 C 
HETATM    5  O6  UNL     1      -4.863  13.492 127.956  1.00  0.00    -0.271 OA
ATOM      6  H3  UNL     1      -3.495  12.617 125.198  1.00  0.00     0.163 HD
BRANCH   4   7
HETATM    7  C7  UNL     1      -4.054  11.337 127.450  1.00  0.00     0.229 C 
BRANCH   7   8
HETATM    8  C6  UNL     1      -3.817  10.529 126.220  1.00  0.00     0.180 C 
BRANCH   8   9
HETATM    9  N2  UNL     1      -4.925   9.721 125.868  1.00  0.00    -0.331 N 
ATOM     10  H2  UNL     1      -5.367   9.151 126.589  1.00  0.00     0.180 HD
BRANCH   9  11
HETATM   11  N1  UNL     1      -5.412   9.680 124.623  1.00  0.00    -0.267 N 
HETATM   12  C5  UNL     1      -5.389   8.484 123.825  1.00  0.00     0.313 C 
HETATM   13  O4  UNL     1      -4.910   7.410 124.275  1.00  0.00    -0.262 OA
ATOM     14  H1  UNL     1      -5.815  10.529 124.225  1.00  0.00     0.190 HD
BRANCH  12  15
HETATM   15  C4  UNL     1      -5.930   8.543 122.477  1.00  0.00     0.288 C 
HETATM   16  O3  UNL     1      -7.165   8.247 122.332  1.00  0.00    -0.278 OA
BRANCH  15  17
HETATM   17  C3  UNL     1      -5.108   8.925 121.351  1.00  0.00     0.232 C 
HETATM   18  O2  UNL     1      -4.190   8.230 120.940  1.00  0.00    -0.286 OA
BRANCH  17  19
HETATM   19  C2  UNL     1      -5.424  10.266 120.678  1.00  0.00     0.192 C 
HETATM   20  C1  UNL     1      -4.691  11.389 121.337  1.00  0.00     0.048 C 
BRANCH  19  21
HETATM   21  O1  UNL     1      -6.774  10.456 120.700  1.00  0.00    -0.388 OA
ATOM     22  H1  UNL     1      -7.063  11.030 120.001  1.00  0.00     0.210 HD
ENDBRANCH  19  21
ENDBRANCH  17  19
ENDBRANCH  15  17
ENDBRANCH  12  15
ENDBRANCH   9  11
ENDBRANCH   8   9
ENDBRANCH   7   8
BRANCH   7  23
HETATM   23  O5  UNL     1      -3.058  11.264 128.402  1.00  0.00    -0.384 OA
ATOM     24  H5  UNL     1      -2.794  10.384 128.645  1.00  0.00     0.210 HD
ENDBRANCH   7  23
ENDBRANCH   4   7
ENDBRANCH   1   3
BRANCH   1  25
HETATM   25  C11 UNL     1      -4.238  14.700 123.985  1.00  0.00     0.244 C 
HETATM   26  O7  UNL     1      -5.217  14.177 123.385  1.00  0.00    -0.271 OA
HETATM   27  N4  UNL     1      -3.209  15.335 123.216  1.00  0.00    -0.331 N 
ATOM     28  H4  UNL     1      -2.432  15.769 123.715  1.00  0.00     0.168 HD
BRANCH  27  29
HETATM   29  C12 UNL     1      -3.213  15.392 121.800  1.00  0.00     0.010 C 
HETATM   30  C13 UNL     1      -1.992  14.584 121.319  1.00  0.00     0.066 C 
BRANCH  29  31
HETATM   31  C14 UNL     1      -3.463  16.582 121.012  1.00  0.00     0.155 C 
BRANCH  31  32
HETATM   32  C15 UNL     1      -2.523  17.017 119.946  1.00  0.00     0.260 C 
BRANCH  32  33
HETATM   33  N5  UNL     1      -2.809  16.587 118.618  1.00  0.00    -0.077 N 
ATOM     34  H53 UNL     1      -2.202  15.803 118.376  1.00  0.00     0.274 HD
ATOM     35  H52 UNL     1      -3.722  16.132 118.596  1.00  0.00     0.274 HD
ATOM     36  H51 UNL     1      -2.763  17.293 117.883  1.00  0.00     0.274 HD
ENDBRANCH  32  33
ENDBRANCH  31  32
BRANCH  31  37
HETATM   37  N6  UNL     1      -4.815  16.550 120.404  1.00  0.00    -0.349 N 
HETATM   38  C16 UNL     1      -5.967  16.921 121.114  1.00  0.00     0.227 C 
HETATM   39  O8  UNL     1      -5.843  17.332 122.308  1.00  0.00    -0.273 OA
ATOM     40  H6  UNL     1      -4.912  16.247 119.435  1.00  0.00     0.163 HD
BRANCH  38  41
HETATM   41  C17 UNL     1      -7.340  16.872 120.577  1.00  0.00     0.207 C 
BRANCH  41  42
HETATM   42  C18 UNL     1      -7.947  15.535 120.752  1.00  0.00     0.244 C 
HETATM   43  O9  UNL     1      -9.082  15.214 120.262  1.00  0.00    -0.271 OA
HETATM   44  N7  UNL     1      -7.249  14.532 121.496  1.00  0.00    -0.276 N 
ATOM     45  H7  UNL     1      -6.344  14.778 121.896  1.00  0.00     0.189 HD
BRANCH  44  46
HETATM   46  N8  UNL     1      -7.723  13.251 121.708  1.00  0.00    -0.343 N 
ATOM     47  H82 UNL     1      -7.887  12.678 120.880  1.00  0.00     0.176 HD
ATOM     48  H81 UNL     1      -7.912  12.854 122.628  1.00  0.00     0.176 HD
ENDBRANCH  44  46
ENDBRANCH  41  42
ENDBRANCH  38  41
ENDBRANCH  31  37
ENDBRANCH  29  31
ENDBRANCH  27  29
ENDBRANCH   1  25
TORSDOF 19
ENDMDL
MODEL 5
REMARK VINA RESULT: -6.774628843      2.703      4.839
REMARK  19 active torsions:
REMARK  status: ('A' for Active; 'I' for Inactive)
REMARK    1  A    between atoms: C2_2  and  O1_3 
REMARK    2  A    between atoms: C2_2  and  C3_5 
REMARK    3  A    between atoms: C3_5  and  C4_7 
REMARK    4  A    between atoms: C4_7  and  C5_9 
REMARK       I    between atoms: C5_9  and  N1_11 
REMARK    5  A    between atoms: N1_11  and  N2_13 
REMARK    6  A    between atoms: N2_13  and  C6_15 
REMARK    7  A    between atoms: C6_15  and  C7_16 
REMARK    8  A    between atoms: C7_16  and  O5_17 
REMARK    9  A    between atoms: C7_16  and  C8_19 
REMARK       I    between atoms: C8_19  and  N3_21 
REMARK   10  A    between atoms: N3_21  and  C9_23 
REMARK   11  A    between atoms: C9_23  and  C11_25 
REMARK       I    between atoms: C11_25  and  N4_27 
REMARK   12  A    between atoms: N4_27  and  C12_29 
REMARK   13  A    between atoms: C12_29  and  C14_31 
REMARK   14  A    between atoms: C14_31  and  C15_32 
REMARK   15  A    between atoms: C14_31  and  N6_37 
REMARK   16  A    between atoms: C15_32  and  N5_33 
REMARK       I    between atoms: N6_37  and  C16_39 
REMARK   17  A    between atoms: C16_39  and  C17_41 
REMARK   18  A    between atoms: C17_41  and  C18_42 
REMARK       I    between atoms: C18_42  and  N7_44 
REMARK   19  A    between atoms: N7_44  and  N8_46 
ROOT
HETATM    1  C9  UNL     1      -4.071  11.427 126.368  1.00  0.00     0.172 C 
HETATM    2  C10 UNL     1      -3.451  11.267 127.800  1.00  0.00     0.042 C 
ENDROOT
BRANCH   1   3
HETATM    3  N3  UNL     1      -4.424  10.054 125.995  1.00  0.00    -0.346 N 
HETATM    4  C8  UNL     1      -4.777   9.689 124.682  1.00  0.00     0.248 C 
HETATM    5  O6  UNL     1      -4.827  10.533 123.779  1.00  0.00    -0.271 OA
ATOM      6  H3  UNL     1      -4.414   9.333 126.717  1.00  0.00     0.163 HD
BRANCH   4   7
HETATM    7  C7  UNL     1      -5.092   8.271 124.385  1.00  0.00     0.229 C 
BRANCH   7   8
HETATM    8  C6  UNL     1      -5.886   8.143 123.131  1.00  0.00     0.180 C 
BRANCH   8   9
HETATM    9  N2  UNL     1      -5.127   8.412 121.967  1.00  0.00    -0.331 N 
ATOM     10  H2  UNL     1      -5.198   9.334 121.535  1.00  0.00     0.180 HD
BRANCH   9  11
HETATM   11  N1  UNL     1      -4.321   7.500 121.413  1.00  0.00    -0.267 N 
HETATM   12  C5  UNL     1      -2.893   7.665 121.356  1.00  0.00     0.313 C 
HETATM   13  O4  UNL     1      -2.336   8.686 121.839  1.00  0.00    -0.262 OA
ATOM     14  H1  UNL     1      -4.733   6.654 121.017  1.00  0.00     0.190 HD
BRANCH  12  15
HETATM   15  C4  UNL     1      -2.102   6.623 120.722  1.00  0.00     0.288 C 
HETATM   16  O3  UNL     1      -0.898   6.916 120.409  1.00  0.00    -0.278 OA
BRANCH  15  17
HETATM   17  C3  UNL     1      -2.653   5.313 120.461  1.00  0.00     0.232 C 
HETATM   18  O2  UNL     1      -3.063   4.581 121.352  1.00  0.00    -0.286 OA
BRANCH  17  19
HETATM   19  C2  UNL     1      -2.702   4.853 119.000  1.00  0.00     0.192 C 
HETATM   20  C1  UNL     1      -1.629   3.852 118.711  1.00  0.00     0.048 C 
BRANCH  19  21
HETATM   21  O1  UNL     1      -2.606   5.950 118.195  1.00  0.00    -0.388 OA
ATOM     22  H1  UNL     1      -2.252   6.699 118.659  1.00  0.00     0.210 HD
ENDBRANCH  19  21
ENDBRANCH  17  19
ENDBRANCH  15  17
ENDBRANCH  12  15
ENDBRANCH   9  11
ENDBRANCH   8   9
ENDBRANCH   7   8
BRANCH   7  23
HETATM   23  O5  UNL     1      -3.937   7.520 124.430  1.00  0.00    -0.384 OA
ATOM     24  H5  UNL     1      -3.929   6.754 123.867  1.00  0.00     0.210 HD
ENDBRANCH   7  23
ENDBRANCH   4   7
ENDBRANCH   1   3
BRANCH   1  25
HETATM   25  C11 UNL     1      -2.965  11.882 125.544  1.00  0.00     0.244 C 
HETATM   26  O7  UNL     1      -1.816  11.424 125.792  1.00  0.00    -0.271 OA
HETATM   27  N4  UNL     1      -3.126  12.818 124.472  1.00  0.00    -0.331 N 
ATOM     28  H4  UNL     1      -4.063  13.167 124.272  1.00  0.00     0.168 HD
BRANCH  27  29
HETATM   29  C12 UNL     1      -2.051  13.283 123.673  1.00  0.00     0.010 C 
HETATM   30  C13 UNL     1      -2.297  14.785 123.430  1.00  0.00     0.066 C 
BRANCH  29  31
HETATM   31  C14 UNL     1      -1.507  12.595 122.520  1.00  0.00     0.155 C 
BRANCH  31  32
HETATM   32  C15 UNL     1      -0.266  11.783 122.617  1.00  0.00     0.260 C 
BRANCH  32  33
HETATM   33  N5  UNL     1      -0.372  10.515 123.260  1.00  0.00    -0.077 N 
ATOM     34  H53 UNL     1       0.162  10.529 124.129  1.00  0.00     0.274 HD
ATOM     35  H52 UNL     1      -1.318  10.396 123.623  1.00  0.00     0.274 HD
ATOM     36  H51 UNL     1      -0.111   9.695 122.712  1.00  0.00     0.274 HD
ENDBRANCH  32  33
ENDBRANCH  31  32
BRANCH  31  37
HETATM   37  N6  UNL     1      -2.530  11.738 121.873  1.00  0.00    -0.349 N 
HETATM   38  C16 UNL     1      -3.241  12.146 120.735  1.00  0.00     0.227 C 
HETATM   39  O8  UNL     1      -2.974  13.276 120.220  1.00  0.00    -0.273 OA
ATOM     40  H6  UNL     1      -2.725  10.819 122.270  1.00  0.00     0.163 HD
BRANCH  38  41
HETATM   41  C17 UNL     1      -4.296  11.357 120.072  1.00  0.00     0.207 C 
BRANCH  41  42
HETATM   42  C18 UNL     1      -5.631  11.645 120.641  1.00  0.00     0.244 C 
HETATM   43  O9  UNL     1      -6.540  10.758 120.772  1.00  0.00    -0.271 OA
HETATM   44  N7  UNL     1      -5.945  12.970 121.077  1.00  0.00    -0.276 N 
ATOM     45  H7  UNL     1      -5.228  13.689 120.973  1.00  0.00     0.189 HD
BRANCH  44  46
HETATM   46  N8  UNL     1      -7.156  13.340 121.631  1.00  0.00    -0.343 N 
ATOM     47  H82 UNL     1      -7.304  13.105 122.612  1.00  0.00     0.176 HD
ATOM     48  H81 UNL     1      -7.895  13.827 121.123  1.00  0.00     0.176 HD
ENDBRANCH  44  46
ENDBRANCH  41  42
ENDBRANCH  38  41
ENDBRANCH  31  37
ENDBRANCH  29  31
ENDBRANCH  27  29
ENDBRANCH   1  25
TORSDOF 19
ENDMDL
