MODEL 1
REMARK VINA RESULT: -7.043340243      0.000      0.000
REMARK  8 active torsions:
REMARK  status: ('A' for Active; 'I' for Inactive)
REMARK       I    between atoms: C2_2  and  N1_4 
REMARK    1  A    between atoms: N1_4  and  C3_6 
REMARK    2  A    between atoms: C3_6  and  C4_7 
REMARK    3  A    between atoms: C3_6  and  C15_42 
REMARK       I    between atoms: C4_7  and  N2_9 
REMARK    4  A    between atoms: C5_11  and  N4_12 
REMARK    5  A    between atoms: C6_16  and  N5_17 
REMARK    6  A    between atoms: C11_27  and  C12_28 
REMARK    7  A    between atoms: C12_28  and  N8_29 
REMARK    8  A    between atoms: C12_28  and  O4_33 
ROOT
HETATM    1  C4  UNL     1       3.332   5.853  79.048  1.00  0.00     0.265 C 
HETATM    2  O2  UNL     1       2.786   6.096  77.943  1.00  0.00    -0.269 OA
HETATM    3  N2  UNL     1       2.561   5.333  80.146  1.00  0.00    -0.195 N 
HETATM    4  N3  UNL     1       3.124   5.042  81.360  1.00  0.00    -0.091 NA
HETATM    5  C5  UNL     1       2.177   4.830  82.431  1.00  0.00     0.338 C 
HETATM    6  C6  UNL     1       1.016   5.735  82.176  1.00  0.00     0.242 C 
HETATM    7  N10 UNL     1       0.387   5.309  80.948  1.00  0.00    -0.338 N 
ATOM      8  H10 UNL     1      -0.621   5.171  80.878  1.00  0.00     0.164 HD
HETATM    9  C14 UNL     1       1.172   5.113  79.946  1.00  0.00     0.211 C 
HETATM   10  N11 UNL     1       0.663   4.690  78.668  1.00  0.00    -0.062 NA
ENDROOT
BRANCH   6  11
HETATM   11  N5  UNL     1       0.038   5.778  83.200  1.00  0.00    -0.295 N 
HETATM   12  C7  UNL     1      -0.593   6.901  83.579  1.00  0.00     0.083 A 
HETATM   13  C8  UNL     1      -0.399   8.276  83.021  1.00  0.00     0.089 C 
HETATM   14  N6  UNL     1      -1.454   6.612  84.565  1.00  0.00    -0.338 N 
HETATM   15  C9  UNL     1      -1.380   5.296  84.823  1.00  0.00     0.147 A 
ATOM     16  H6  UNL     1      -2.062   7.279  85.039  1.00  0.00     0.167 HD
HETATM   17  C10 UNL     1      -2.015   4.457  85.712  1.00  0.00     0.277 A 
HETATM   18  C13 UNL     1      -0.438   4.780  83.960  1.00  0.00     0.145 A 
HETATM   19  O3  UNL     1      -2.864   4.963  86.480  1.00  0.00    -0.266 OA
HETATM   20  N7  UNL     1      -1.728   3.123  85.751  1.00  0.00    -0.307 N 
HETATM   21  C11 UNL     1      -0.807   2.644  84.898  1.00  0.00     0.142 A 
ATOM     22  H7  UNL     1      -2.200   2.506  86.411  1.00  0.00     0.170 HD
HETATM   23  N9  UNL     1      -0.187   3.479  84.027  1.00  0.00    -0.326 N 
ATOM     24  H9  UNL     1       0.508   3.086  83.393  1.00  0.00     0.169 HD
BRANCH  21  25
HETATM   25  C12 UNL     1      -0.498   1.194  84.945  1.00  0.00     0.385 C 
BRANCH  25  26
HETATM   26  N8  UNL     1      -0.116   0.759  83.619  1.00  0.00    -0.046 N 
ATOM     27  H83 UNL     1      -0.878   0.293  83.126  1.00  0.00     0.277 HD
ATOM     28  H82 UNL     1       0.012   1.539  82.974  1.00  0.00     0.277 HD
ATOM     29  H81 UNL     1       0.716   0.174  83.694  1.00  0.00     0.277 HD
ENDBRANCH  25  26
BRANCH  25  30
HETATM   30  O4  UNL     1       0.479   0.890  85.889  1.00  0.00    -0.364 OA
ATOM     31  H4  UNL     1       1.164   0.336  85.535  1.00  0.00     0.212 HD
ENDBRANCH  25  30
ENDBRANCH  21  25
ENDBRANCH   6  11
BRANCH   5  32
HETATM   32  N4  UNL     1       2.870   5.214  83.668  1.00  0.00    -0.056 N 
ATOM     33  H43 UNL     1       3.542   4.518  83.990  1.00  0.00     0.276 HD
ATOM     34  H42 UNL     1       3.533   5.979  83.542  1.00  0.00     0.276 HD
ATOM     35  H41 UNL     1       2.139   5.418  84.350  1.00  0.00     0.276 HD
ENDBRANCH   5  32
BRANCH   1  36
HETATM   36  C3  UNL     1       4.785   6.122  79.166  1.00  0.00     0.182 C 
BRANCH  36  37
HETATM   37  N1  UNL     1       5.417   5.674  77.941  1.00  0.00    -0.348 N 
HETATM   38  C2  UNL     1       5.980   4.375  77.807  1.00  0.00     0.214 C 
HETATM   39  C1  UNL     1       6.615   3.940  76.561  1.00  0.00     0.117 C 
HETATM   40  O1  UNL     1       5.931   3.580  78.777  1.00  0.00    -0.274 OA
ATOM     41  H1  UNL     1       5.460   6.314  77.147  1.00  0.00     0.163 HD
ENDBRANCH  36  37
BRANCH  36  42
HETATM   42  C15 UNL     1       4.974   7.635  79.194  1.00  0.00     0.009 C 
HETATM   43  C16 UNL     1       5.086   8.142  80.617  1.00  0.00     0.012 C 
HETATM   44  C17 UNL     1       6.192   8.089  78.439  1.00  0.00     0.012 C 
ENDBRANCH  36  42
ENDBRANCH   1  36
TORSDOF 8
ENDMDL
MODEL 2
REMARK VINA RESULT: -6.650762612      3.398      8.058
REMARK  8 active torsions:
REMARK  status: ('A' for Active; 'I' for Inactive)
REMARK       I    between atoms: C2_2  and  N1_4 
REMARK    1  A    between atoms: N1_4  and  C3_6 
REMARK    2  A    between atoms: C3_6  and  C4_7 
REMARK    3  A    between atoms: C3_6  and  C15_42 
REMARK       I    between atoms: C4_7  and  N2_9 
REMARK    4  A    between atoms: C5_11  and  N4_12 
REMARK    5  A    between atoms: C6_16  and  N5_17 
REMARK    6  A    between atoms: C11_27  and  C12_28 
REMARK    7  A    between atoms: C12_28  and  N8_29 
REMARK    8  A    between atoms: C12_28  and  O4_33 
ROOT
HETATM    1  C4  UNL     1      -0.637   4.511  83.685  1.00  0.00     0.265 C 
HETATM    2  O2  UNL     1      -1.849   4.840  83.683  1.00  0.00    -0.269 OA
HETATM    3  N2  UNL     1       0.391   5.509  83.544  1.00  0.00    -0.195 N 
HETATM    4  N3  UNL     1       1.723   5.190  83.556  1.00  0.00    -0.091 NA
HETATM    5  C5  UNL     1       2.602   6.243  83.099  1.00  0.00     0.338 C 
HETATM    6  C6  UNL     1       1.870   6.993  82.035  1.00  0.00     0.242 C 
HETATM    7  N10 UNL     1       0.722   7.620  82.647  1.00  0.00    -0.338 N 
ATOM      8  H10 UNL     1       0.498   8.603  82.495  1.00  0.00     0.164 HD
HETATM    9  C14 UNL     1      -0.004   6.864  83.397  1.00  0.00     0.211 C 
HETATM   10  N11 UNL     1      -1.177   7.373  84.059  1.00  0.00    -0.062 NA
ENDROOT
BRANCH   6  11
HETATM   11  N5  UNL     1       2.623   7.983  81.357  1.00  0.00    -0.295 N 
HETATM   12  C7  UNL     1       2.736   8.045  80.020  1.00  0.00     0.083 A 
HETATM   13  C8  UNL     1       2.117   7.122  79.019  1.00  0.00     0.089 C 
HETATM   14  N6  UNL     1       3.511   9.089  79.692  1.00  0.00    -0.338 N 
HETATM   15  C9  UNL     1       3.899   9.703  80.821  1.00  0.00     0.147 A 
ATOM     16  H6  UNL     1       3.764   9.368  78.744  1.00  0.00     0.167 HD
HETATM   17  C10 UNL     1       4.684  10.803  81.092  1.00  0.00     0.277 A 
HETATM   18  C13 UNL     1       3.336   9.000  81.864  1.00  0.00     0.145 A 
HETATM   19  O3  UNL     1       5.178  11.416  80.119  1.00  0.00    -0.266 OA
HETATM   20  N7  UNL     1       4.913  11.207  82.375  1.00  0.00    -0.307 N 
HETATM   21  C11 UNL     1       4.351  10.505  83.374  1.00  0.00     0.142 A 
ATOM     22  H7  UNL     1       5.495  12.021  82.572  1.00  0.00     0.170 HD
HETATM   23  N9  UNL     1       3.581   9.424  83.097  1.00  0.00    -0.326 N 
ATOM     24  H9  UNL     1       3.168   8.911  83.876  1.00  0.00     0.169 HD
BRANCH  21  25
HETATM   25  C12 UNL     1       4.603  10.948  84.767  1.00  0.00     0.385 C 
BRANCH  25  26
HETATM   26  N8  UNL     1       4.499  12.391  84.819  1.00  0.00    -0.046 N 
ATOM     27  H83 UNL     1       4.320  12.803  83.904  1.00  0.00     0.277 HD
ATOM     28  H82 UNL     1       3.648  12.705  85.284  1.00  0.00     0.277 HD
ATOM     29  H81 UNL     1       5.342  12.763  85.257  1.00  0.00     0.277 HD
ENDBRANCH  25  26
BRANCH  25  30
HETATM   30  O4  UNL     1       3.749  10.336  85.681  1.00  0.00    -0.364 OA
ATOM     31  H4  UNL     1       4.205  10.043  86.461  1.00  0.00     0.212 HD
ENDBRANCH  25  30
ENDBRANCH  21  25
ENDBRANCH   6  11
BRANCH   5  32
HETATM   32  N4  UNL     1       3.783   5.572  82.540  1.00  0.00    -0.056 N 
ATOM     33  H43 UNL     1       4.407   5.190  83.250  1.00  0.00     0.276 HD
ATOM     34  H42 UNL     1       3.568   4.690  82.076  1.00  0.00     0.276 HD
ATOM     35  H41 UNL     1       4.232   6.254  81.929  1.00  0.00     0.276 HD
ENDBRANCH   5  32
BRANCH   1  36
HETATM   36  C3  UNL     1      -0.320   3.071  83.835  1.00  0.00     0.182 C 
BRANCH  36  37
HETATM   37  N1  UNL     1      -1.226   2.521  84.824  1.00  0.00    -0.348 N 
HETATM   38  C2  UNL     1      -0.773   1.716  85.905  1.00  0.00     0.214 C 
HETATM   39  C1  UNL     1      -1.704   1.168  86.894  1.00  0.00     0.117 C 
HETATM   40  O1  UNL     1       0.452   1.468  86.017  1.00  0.00    -0.274 OA
ATOM     41  H1  UNL     1      -2.224   2.719  84.741  1.00  0.00     0.163 HD
ENDBRANCH  36  37
BRANCH  36  42
HETATM   42  C15 UNL     1      -0.677   2.380  82.524  1.00  0.00     0.009 C 
HETATM   43  C16 UNL     1      -0.253   3.217  81.335  1.00  0.00     0.012 C 
HETATM   44  C17 UNL     1      -0.048   1.021  82.386  1.00  0.00     0.012 C 
ENDBRANCH  36  42
ENDBRANCH   1  36
TORSDOF 8
ENDMDL
MODEL 3
REMARK VINA RESULT: -6.643312640      3.702      5.756
REMARK  8 active torsions:
REMARK  status: ('A' for Active; 'I' for Inactive)
REMARK       I    between atoms: C2_2  and  N1_4 
REMARK    1  A    between atoms: N1_4  and  C3_6 
REMARK    2  A    between atoms: C3_6  and  C4_7 
REMARK    3  A    between atoms: C3_6  and  C15_42 
REMARK       I    between atoms: C4_7  and  N2_9 
REMARK    4  A    between atoms: C5_11  and  N4_12 
REMARK    5  A    between atoms: C6_16  and  N5_17 
REMARK    6  A    between atoms: C11_27  and  C12_28 
REMARK    7  A    between atoms: C12_28  and  N8_29 
REMARK    8  A    between atoms: C12_28  and  O4_33 
ROOT
HETATM    1  C4  UNL     1       3.554   9.241  83.428  1.00  0.00     0.265 C 
HETATM    2  O2  UNL     1       4.627   9.522  82.837  1.00  0.00    -0.269 OA
HETATM    3  N2  UNL     1       2.935   7.955  83.248  1.00  0.00    -0.195 N 
HETATM    4  N3  UNL     1       1.773   7.609  83.886  1.00  0.00    -0.091 NA
HETATM    5  C5  UNL     1       1.128   6.424  83.367  1.00  0.00     0.338 C 
HETATM    6  C6  UNL     1       1.384   6.394  81.896  1.00  0.00     0.242 C 
HETATM    7  N10 UNL     1       2.806   6.235  81.700  1.00  0.00    -0.338 N 
ATOM      8  H10 UNL     1       3.188   5.541  81.058  1.00  0.00     0.164 HD
HETATM    9  C14 UNL     1       3.564   7.022  82.382  1.00  0.00     0.211 C 
HETATM   10  N11 UNL     1       4.998   6.962  82.270  1.00  0.00    -0.062 NA
ENDROOT
BRANCH   6  11
HETATM   11  N5  UNL     1       0.707   5.377  81.179  1.00  0.00    -0.295 N 
HETATM   12  C7  UNL     1       0.375   5.477  79.881  1.00  0.00     0.083 A 
HETATM   13  C8  UNL     1       0.640   6.633  78.970  1.00  0.00     0.089 C 
HETATM   14  N6  UNL     1      -0.253   4.356  79.500  1.00  0.00    -0.338 N 
HETATM   15  C9  UNL     1      -0.325   3.528  80.554  1.00  0.00     0.147 A 
ATOM     16  H6  UNL     1      -0.615   4.164  78.565  1.00  0.00     0.167 HD
HETATM   17  C10 UNL     1      -0.849   2.268  80.749  1.00  0.00     0.277 A 
HETATM   18  C13 UNL     1       0.280   4.179  81.607  1.00  0.00     0.145 A 
HETATM   19  O3  UNL     1      -1.391   1.709  79.770  1.00  0.00    -0.266 OA
HETATM   20  N7  UNL     1      -0.776   1.655  81.966  1.00  0.00    -0.307 N 
HETATM   21  C11 UNL     1      -0.179   2.311  82.976  1.00  0.00     0.142 A 
ATOM     22  H7  UNL     1      -1.166   0.723  82.106  1.00  0.00     0.170 HD
HETATM   23  N9  UNL     1       0.332   3.550  82.774  1.00  0.00    -0.326 N 
ATOM     24  H9  UNL     1       0.779   4.023  83.559  1.00  0.00     0.169 HD
BRANCH  21  25
HETATM   25  C12 UNL     1      -0.103   1.639  84.297  1.00  0.00     0.385 C 
BRANCH  25  26
HETATM   26  N8  UNL     1      -0.916   2.379  85.238  1.00  0.00    -0.046 N 
ATOM     27  H83 UNL     1      -1.825   1.943  85.397  1.00  0.00     0.277 HD
ATOM     28  H82 UNL     1      -0.563   2.317  86.193  1.00  0.00     0.277 HD
ATOM     29  H81 UNL     1      -0.996   3.342  84.914  1.00  0.00     0.277 HD
ENDBRANCH  25  26
BRANCH  25  30
HETATM   30  O4  UNL     1      -0.477   0.300  84.232  1.00  0.00    -0.364 OA
ATOM     31  H4  UNL     1      -0.892   0.080  83.407  1.00  0.00     0.212 HD
ENDBRANCH  25  30
ENDBRANCH  21  25
ENDBRANCH   6  11
BRANCH   5  32
HETATM   32  N4  UNL     1      -0.306   6.592  83.639  1.00  0.00    -0.056 N 
ATOM     33  H43 UNL     1      -0.898   5.950  83.112  1.00  0.00     0.276 HD
ATOM     34  H42 UNL     1      -0.583   6.279  84.570  1.00  0.00     0.276 HD
ATOM     35  H41 UNL     1      -0.514   7.574  83.462  1.00  0.00     0.276 HD
ENDBRANCH   5  32
BRANCH   1  36
HETATM   36  C3  UNL     1       2.966  10.282  84.304  1.00  0.00     0.182 C 
BRANCH  36  37
HETATM   37  N1  UNL     1       4.051  11.103  84.803  1.00  0.00    -0.348 N 
HETATM   38  C2  UNL     1       4.527  11.005  86.140  1.00  0.00     0.214 C 
HETATM   39  C1  UNL     1       5.624  11.843  86.626  1.00  0.00     0.117 C 
HETATM   40  O1  UNL     1       3.996  10.179  86.923  1.00  0.00    -0.274 OA
ATOM     41  H1  UNL     1       4.489  11.776  84.173  1.00  0.00     0.163 HD
ENDBRANCH  36  37
BRANCH  36  42
HETATM   42  C15 UNL     1       2.125  11.203  83.428  1.00  0.00     0.009 C 
HETATM   43  C16 UNL     1       0.647  11.021  83.707  1.00  0.00     0.012 C 
HETATM   44  C17 UNL     1       2.459  12.658  83.614  1.00  0.00     0.012 C 
ENDBRANCH  36  42
ENDBRANCH   1  36
TORSDOF 8
ENDMDL
MODEL 4
REMARK VINA RESULT: -6.626799330      2.196      8.085
REMARK  8 active torsions:
REMARK  status: ('A' for Active; 'I' for Inactive)
REMARK       I    between atoms: C2_2  and  N1_4 
REMARK    1  A    between atoms: N1_4  and  C3_6 
REMARK    2  A    between atoms: C3_6  and  C4_7 
REMARK    3  A    between atoms: C3_6  and  C15_42 
REMARK       I    between atoms: C4_7  and  N2_9 
REMARK    4  A    between atoms: C5_11  and  N4_12 
REMARK    5  A    between atoms: C6_16  and  N5_17 
REMARK    6  A    between atoms: C11_27  and  C12_28 
REMARK    7  A    between atoms: C12_28  and  N8_29 
REMARK    8  A    between atoms: C12_28  and  O4_33 
ROOT
HETATM    1  C4  UNL     1      -0.332   4.365  83.357  1.00  0.00     0.265 C 
HETATM    2  O2  UNL     1      -1.496   4.839  83.382  1.00  0.00    -0.269 OA
HETATM    3  N2  UNL     1       0.795   5.211  83.067  1.00  0.00    -0.195 N 
HETATM    4  N3  UNL     1       2.079   4.733  83.046  1.00  0.00    -0.091 NA
HETATM    5  C5  UNL     1       3.046   5.623  82.443  1.00  0.00     0.338 C 
HETATM    6  C6  UNL     1       2.344   6.356  81.347  1.00  0.00     0.242 C 
HETATM    7  N10 UNL     1       1.317   7.173  81.949  1.00  0.00    -0.338 N 
ATOM      8  H10 UNL     1       1.202   8.157  81.711  1.00  0.00     0.164 HD
HETATM    9  C14 UNL     1       0.554   6.585  82.805  1.00  0.00     0.211 C 
HETATM   10  N11 UNL     1      -0.508   7.293  83.471  1.00  0.00    -0.062 NA
ENDROOT
BRANCH   6  11
HETATM   11  N5  UNL     1       3.165   7.177  80.537  1.00  0.00    -0.295 N 
HETATM   12  C7  UNL     1       3.715   8.328  80.960  1.00  0.00     0.083 A 
HETATM   13  C8  UNL     1       3.576   8.949  82.314  1.00  0.00     0.089 C 
HETATM   14  N6  UNL     1       4.433   8.865  79.964  1.00  0.00    -0.338 N 
HETATM   15  C9  UNL     1       4.348   8.059  78.894  1.00  0.00     0.147 A 
ATOM     16  H6  UNL     1       4.955   9.740  80.011  1.00  0.00     0.167 HD
HETATM   17  C10 UNL     1       4.867   8.102  77.618  1.00  0.00     0.277 A 
HETATM   18  C13 UNL     1       3.548   6.999  79.263  1.00  0.00     0.145 A 
HETATM   19  O3  UNL     1       5.589   9.079  77.319  1.00  0.00    -0.266 OA
HETATM   20  N7  UNL     1       4.603   7.112  76.716  1.00  0.00    -0.307 N 
HETATM   21  C11 UNL     1       3.821   6.090  77.101  1.00  0.00     0.142 A 
ATOM     22  H7  UNL     1       4.988   7.148  75.772  1.00  0.00     0.170 HD
HETATM   23  N9  UNL     1       3.314   6.057  78.359  1.00  0.00    -0.326 N 
ATOM     24  H9  UNL     1       2.724   5.269  78.622  1.00  0.00     0.169 HD
BRANCH  21  25
HETATM   25  C12 UNL     1       3.537   5.017  76.116  1.00  0.00     0.385 C 
BRANCH  25  26
HETATM   26  N8  UNL     1       3.550   5.594  74.789  1.00  0.00    -0.046 N 
ATOM     27  H83 UNL     1       2.758   5.290  74.223  1.00  0.00     0.277 HD
ATOM     28  H82 UNL     1       3.344   6.593  74.794  1.00  0.00     0.277 HD
ATOM     29  H81 UNL     1       4.446   5.382  74.350  1.00  0.00     0.277 HD
ENDBRANCH  25  26
BRANCH  25  30
HETATM   30  O4  UNL     1       4.424   3.950  76.225  1.00  0.00    -0.364 OA
ATOM     31  H4  UNL     1       4.500   3.633  77.117  1.00  0.00     0.212 HD
ENDBRANCH  25  30
ENDBRANCH  21  25
ENDBRANCH   6  11
BRANCH   5  32
HETATM   32  N4  UNL     1       4.104   4.763  81.897  1.00  0.00    -0.056 N 
ATOM     33  H43 UNL     1       4.020   3.787  82.178  1.00  0.00     0.276 HD
ATOM     34  H42 UNL     1       4.024   4.610  80.891  1.00  0.00     0.276 HD
ATOM     35  H41 UNL     1       4.987   5.192  82.174  1.00  0.00     0.276 HD
ENDBRANCH   5  32
BRANCH   1  36
HETATM   36  C3  UNL     1      -0.178   2.917  83.634  1.00  0.00     0.182 C 
BRANCH  36  37
HETATM   37  N1  UNL     1      -1.109   2.569  84.690  1.00  0.00    -0.348 N 
HETATM   38  C2  UNL     1      -0.751   1.713  85.767  1.00  0.00     0.214 C 
HETATM   39  C1  UNL     1      -1.704   1.372  86.824  1.00  0.00     0.117 C 
HETATM   40  O1  UNL     1       0.411   1.238  85.816  1.00  0.00    -0.274 OA
ATOM     41  H1  UNL     1      -2.054   2.952  84.658  1.00  0.00     0.163 HD
ENDBRANCH  36  37
BRANCH  36  42
HETATM   42  C15 UNL     1      -0.655   2.157  82.401  1.00  0.00     0.009 C 
HETATM   43  C16 UNL     1      -0.389   2.948  81.138  1.00  0.00     0.012 C 
HETATM   44  C17 UNL     1      -0.005   0.809  82.255  1.00  0.00     0.012 C 
ENDBRANCH  36  42
ENDBRANCH   1  36
TORSDOF 8
ENDMDL
MODEL 5
REMARK VINA RESULT: -6.622773481      3.208      7.846
REMARK  8 active torsions:
REMARK  status: ('A' for Active; 'I' for Inactive)
REMARK       I    between atoms: C2_2  and  N1_4 
REMARK    1  A    between atoms: N1_4  and  C3_6 
REMARK    2  A    between atoms: C3_6  and  C4_7 
REMARK    3  A    between atoms: C3_6  and  C15_42 
REMARK       I    between atoms: C4_7  and  N2_9 
REMARK    4  A    between atoms: C5_11  and  N4_12 
REMARK    5  A    between atoms: C6_16  and  N5_17 
REMARK    6  A    between atoms: C11_27  and  C12_28 
REMARK    7  A    between atoms: C12_28  and  N8_29 
REMARK    8  A    between atoms: C12_28  and  O4_33 
ROOT
HETATM    1  C4  UNL     1      -1.588   5.016  83.974  1.00  0.00     0.265 C 
HETATM    2  O2  UNL     1      -2.650   5.625  83.691  1.00  0.00    -0.269 OA
HETATM    3  N2  UNL     1      -0.317   5.686  83.895  1.00  0.00    -0.195 N 
HETATM    4  N3  UNL     1       0.859   5.059  84.210  1.00  0.00    -0.091 NA
HETATM    5  C5  UNL     1       2.051   5.760  83.787  1.00  0.00     0.338 C 
HETATM    6  C6  UNL     1       1.720   6.452  82.505  1.00  0.00     0.242 C 
HETATM    7  N10 UNL     1       0.710   7.444  82.788  1.00  0.00    -0.338 N 
ATOM      8  H10 UNL     1       0.789   8.405  82.457  1.00  0.00     0.164 HD
HETATM    9  C14 UNL     1      -0.299   7.044  83.482  1.00  0.00     0.211 C 
HETATM   10  N11 UNL     1      -1.373   7.940  83.826  1.00  0.00    -0.062 NA
ENDROOT
BRANCH   6  11
HETATM   11  N5  UNL     1       2.808   7.081  81.852  1.00  0.00    -0.295 N 
HETATM   12  C7  UNL     1       3.272   6.705  80.649  1.00  0.00     0.083 A 
HETATM   13  C8  UNL     1       2.755   5.594  79.791  1.00  0.00     0.089 C 
HETATM   14  N6  UNL     1       4.301   7.493  80.307  1.00  0.00    -0.338 N 
HETATM   15  C9  UNL     1       4.503   8.382  81.293  1.00  0.00     0.147 A 
ATOM     16  H6  UNL     1       4.840   7.428  79.444  1.00  0.00     0.167 HD
HETATM   17  C10 UNL     1       5.400   9.409  81.488  1.00  0.00     0.277 A 
HETATM   18  C13 UNL     1       3.560   8.114  82.262  1.00  0.00     0.145 A 
HETATM   19  O3  UNL     1       6.242   9.621  80.587  1.00  0.00    -0.266 OA
HETATM   20  N7  UNL     1       5.369  10.167  82.623  1.00  0.00    -0.307 N 
HETATM   21  C11 UNL     1       4.439   9.887  83.551  1.00  0.00     0.142 A 
ATOM     22  H7  UNL     1       6.036  10.926  82.764  1.00  0.00     0.170 HD
HETATM   23  N9  UNL     1       3.561   8.873  83.350  1.00  0.00    -0.326 N 
ATOM     24  H9  UNL     1       2.867   8.684  84.073  1.00  0.00     0.169 HD
BRANCH  21  25
HETATM   25  C12 UNL     1       4.410  10.714  84.783  1.00  0.00     0.385 C 
BRANCH  25  26
HETATM   26  N8  UNL     1       4.007  12.057  84.428  1.00  0.00    -0.046 N 
ATOM     27  H83 UNL     1       4.171  12.267  83.444  1.00  0.00     0.277 HD
ATOM     28  H82 UNL     1       2.994  12.176  84.431  1.00  0.00     0.277 HD
ATOM     29  H81 UNL     1       4.478  12.714  85.051  1.00  0.00     0.277 HD
ENDBRANCH  25  26
BRANCH  25  30
HETATM   30  O4  UNL     1       3.587  10.171  85.766  1.00  0.00    -0.364 OA
ATOM     31  H4  UNL     1       2.665  10.269  85.560  1.00  0.00     0.212 HD
ENDBRANCH  25  30
ENDBRANCH  21  25
ENDBRANCH   6  11
BRANCH   5  32
HETATM   32  N4  UNL     1       3.073   4.727  83.569  1.00  0.00    -0.056 N 
ATOM     33  H43 UNL     1       3.941   4.901  84.075  1.00  0.00     0.276 HD
ATOM     34  H42 UNL     1       2.849   3.834  84.009  1.00  0.00     0.276 HD
ATOM     35  H41 UNL     1       3.198   4.663  82.559  1.00  0.00     0.276 HD
ENDBRANCH   5  32
BRANCH   1  36
HETATM   36  C3  UNL     1      -1.704   3.597  84.387  1.00  0.00     0.182 C 
BRANCH  36  37
HETATM   37  N1  UNL     1      -0.607   2.869  83.778  1.00  0.00    -0.348 N 
HETATM   38  C2  UNL     1      -0.631   2.458  82.417  1.00  0.00     0.214 C 
HETATM   39  C1  UNL     1       0.486   1.724  81.819  1.00  0.00     0.117 C 
HETATM   40  O1  UNL     1      -1.631   2.731  81.708  1.00  0.00    -0.274 OA
ATOM     41  H1  UNL     1       0.210   2.645  84.346  1.00  0.00     0.163 HD
ENDBRANCH  36  37
BRANCH  36  42
HETATM   42  C15 UNL     1      -1.454   3.530  85.889  1.00  0.00     0.009 C 
HETATM   43  C16 UNL     1      -2.751   3.337  86.648  1.00  0.00     0.012 C 
HETATM   44  C17 UNL     1      -0.514   2.424  86.280  1.00  0.00     0.012 C 
ENDBRANCH  36  42
ENDBRANCH   1  36
TORSDOF 8
ENDMDL
