MODEL 1
REMARK VINA RESULT: -7.163939211      0.000      0.000
REMARK  9 active torsions:
REMARK  status: ('A' for Active; 'I' for Inactive)
REMARK    1  A    between atoms: C2_2  and  C3_3 
REMARK    2  A    between atoms: C3_3  and  N1_4 
REMARK    3  A    between atoms: C3_3  and  C4_8 
REMARK    4  A    between atoms: C4_8  and  N2_10 
REMARK    5  A    between atoms: C5_14  and  C6_15 
REMARK       I    between atoms: C6_15  and  N5_17 
REMARK    6  A    between atoms: C8_24  and  S2_25 
REMARK    7  A    between atoms: S2_25  and  N8_26 
REMARK    8  A    between atoms: C9_32  and  N9_33 
REMARK    9  A    between atoms: C10_35  and  C11_36 
ROOT
HETATM    1  N2  UNL     1       0.363   4.713  84.082  1.00  0.00    -0.212 N 
HETATM    2  N3  UNL     1       1.159   5.699  84.461  1.00  0.00    -0.012 NA
HETATM    3  N4  UNL     1       2.234   5.768  83.674  1.00  0.00    -0.275 N 
ATOM      4  H4  UNL     1       2.992   6.444  83.762  1.00  0.00     0.184 HD
HETATM    5  C5  UNL     1       2.155   4.800  82.743  1.00  0.00     0.160 A 
HETATM    6  C9  UNL     1       0.972   4.143  83.012  1.00  0.00     0.160 A 
ENDROOT
BRANCH   5   7
HETATM    7  C6  UNL     1       3.089   4.482  81.671  1.00  0.00     0.279 C 
HETATM    8  O1  UNL     1       3.487   3.300  81.523  1.00  0.00    -0.265 OA
HETATM    9  N5  UNL     1       3.559   5.479  80.790  1.00  0.00    -0.300 N 
HETATM   10  C7  UNL     1       2.855   5.670  79.698  1.00  0.00     0.169 A 
ATOM     11  H5  UNL     1       4.400   6.021  80.990  1.00  0.00     0.171 HD
HETATM   12  N6  UNL     1       1.745   5.058  79.283  1.00  0.00    -0.278 N 
HETATM   13  S3  UNL     1       3.128   6.788  78.414  1.00  0.00    -0.020 SA
HETATM   14  N7  UNL     1       1.228   5.408  78.180  1.00  0.00    -0.281 N 
ATOM     15  H6  UNL     1       1.319   4.320  79.844  1.00  0.00     0.189 HD
HETATM   16  C8  UNL     1       1.782   6.365  77.454  1.00  0.00     0.208 A 
ATOM     17  H7  UNL     1       0.380   4.949  77.849  1.00  0.00     0.188 HD
BRANCH  16  18
HETATM   18  S2  UNL     1       1.209   6.986  75.898  1.00  0.00     0.280 S 
HETATM   19  O2  UNL     1       1.702   6.134  74.776  1.00  0.00    -0.199 OA
HETATM   20  O3  UNL     1       1.761   8.374  75.761  1.00  0.00    -0.199 OA
BRANCH  18  21
HETATM   21  N8  UNL     1      -0.518   7.006  75.991  1.00  0.00    -0.323 N 
ATOM     22  H82 UNL     1      -1.092   6.469  76.641  1.00  0.00     0.169 HD
ATOM     23  H81 UNL     1      -0.836   7.656  75.272  1.00  0.00     0.169 HD
ENDBRANCH  18  21
ENDBRANCH  16  18
ENDBRANCH   5   7
BRANCH   6  24
HETATM   24  N9  UNL     1       0.425   3.046  82.321  1.00  0.00    -0.346 N 
HETATM   25  C10 UNL     1      -0.451   3.158  81.379  1.00  0.00     0.134 C 
ATOM     26  H9  UNL     1       0.737   2.110  82.579  1.00  0.00     0.167 HD
BRANCH  25  27
HETATM   27  C11 UNL     1      -0.956   1.957  80.725  1.00  0.00     0.125 C 
HETATM   28  N10 UNL     1      -0.563   0.785  81.083  1.00  0.00    -0.387 N 
ATOM     29 2H10 UNL     1       0.117   0.720  81.840  1.00  0.00     0.157 HD
ATOM     30 1H10 UNL     1      -0.917  -0.055  80.626  1.00  0.00     0.157 HD
HETATM   31  N11 UNL     1      -1.905   2.047  79.670  1.00  0.00    -0.082 NA
ENDBRANCH  25  27
ENDBRANCH   6  24
BRANCH   1  32
HETATM   32  C4  UNL     1      -0.873   4.332  84.678  1.00  0.00     0.131 C 
HETATM   33  S1  UNL     1      -2.205   5.267  84.565  1.00  0.00    -0.061 SA
BRANCH  32  34
HETATM   34  C3  UNL     1      -0.981   3.056  85.431  1.00  0.00     0.245 C 
BRANCH  34  35
HETATM   35  C2  UNL     1      -2.017   3.157  86.538  1.00  0.00     0.035 C 
HETATM   36  C1  UNL     1      -2.704   1.824  86.718  1.00  0.00     0.007 C 
ENDBRANCH  34  35
BRANCH  34  37
HETATM   37  N1  UNL     1       0.292   2.586  85.897  1.00  0.00    -0.069 N 
ATOM     38  H13 UNL     1       0.866   3.360  86.231  1.00  0.00     0.275 HD
ATOM     39  H12 UNL     1       0.191   2.065  86.768  1.00  0.00     0.275 HD
ATOM     40  H11 UNL     1       0.793   2.036  85.200  1.00  0.00     0.275 HD
ENDBRANCH  34  37
ENDBRANCH  32  34
ENDBRANCH   1  32
TORSDOF 9
ENDMDL
MODEL 2
REMARK VINA RESULT: -6.703515898      3.247      8.234
REMARK  9 active torsions:
REMARK  status: ('A' for Active; 'I' for Inactive)
REMARK    1  A    between atoms: C2_2  and  C3_3 
REMARK    2  A    between atoms: C3_3  and  N1_4 
REMARK    3  A    between atoms: C3_3  and  C4_8 
REMARK    4  A    between atoms: C4_8  and  N2_10 
REMARK    5  A    between atoms: C5_14  and  C6_15 
REMARK       I    between atoms: C6_15  and  N5_17 
REMARK    6  A    between atoms: C8_24  and  S2_25 
REMARK    7  A    between atoms: S2_25  and  N8_26 
REMARK    8  A    between atoms: C9_32  and  N9_33 
REMARK    9  A    between atoms: C10_35  and  C11_36 
ROOT
HETATM    1  N2  UNL     1       3.786   4.887  80.753  1.00  0.00    -0.212 N 
HETATM    2  N3  UNL     1       3.812   4.078  81.799  1.00  0.00    -0.012 NA
HETATM    3  N4  UNL     1       2.574   3.770  82.188  1.00  0.00    -0.275 N 
ATOM      4  H4  UNL     1       2.332   3.161  82.970  1.00  0.00     0.184 HD
HETATM    5  C5  UNL     1       1.696   4.391  81.381  1.00  0.00     0.160 A 
HETATM    6  C9  UNL     1       2.474   5.091  80.482  1.00  0.00     0.160 A 
ENDROOT
BRANCH   5   7
HETATM    7  C6  UNL     1       0.240   4.358  81.413  1.00  0.00     0.279 C 
HETATM    8  O1  UNL     1      -0.394   3.890  80.435  1.00  0.00    -0.265 OA
HETATM    9  N5  UNL     1      -0.479   4.845  82.526  1.00  0.00    -0.300 N 
HETATM   10  C7  UNL     1      -0.749   3.974  83.471  1.00  0.00     0.169 A 
ATOM     11  H5  UNL     1      -0.772   5.819  82.593  1.00  0.00     0.171 HD
HETATM   12  N6  UNL     1      -0.445   2.676  83.545  1.00  0.00    -0.278 N 
HETATM   13  S3  UNL     1      -1.597   4.210  84.953  1.00  0.00    -0.020 SA
HETATM   14  N7  UNL     1      -0.812   2.019  84.565  1.00  0.00    -0.281 N 
ATOM     15  H6  UNL     1       0.073   2.221  82.793  1.00  0.00     0.189 HD
HETATM   16  C8  UNL     1      -1.484   2.611  85.538  1.00  0.00     0.208 A 
ATOM     17  H7  UNL     1      -0.588   1.027  84.635  1.00  0.00     0.188 HD
BRANCH  16  18
HETATM   18  S2  UNL     1      -2.076   1.862  87.029  1.00  0.00     0.280 S 
HETATM   19  O2  UNL     1      -1.244   0.676  87.390  1.00  0.00    -0.199 OA
HETATM   20  O3  UNL     1      -3.486   1.427  86.759  1.00  0.00    -0.199 OA
BRANCH  18  21
HETATM   21  N8  UNL     1      -2.023   3.091  88.244  1.00  0.00    -0.323 N 
ATOM     22  H82 UNL     1      -1.223   3.318  88.835  1.00  0.00     0.169 HD
ATOM     23  H81 UNL     1      -2.942   3.532  88.246  1.00  0.00     0.169 HD
ENDBRANCH  18  21
ENDBRANCH  16  18
ENDBRANCH   5   7
BRANCH   6  24
HETATM   24  N9  UNL     1       2.034   5.909  79.423  1.00  0.00    -0.346 N 
HETATM   25  C10 UNL     1       1.757   5.464  78.243  1.00  0.00     0.134 C 
ATOM     26  H9  UNL     1       1.929   6.908  79.598  1.00  0.00     0.167 HD
BRANCH  25  27
HETATM   27  C11 UNL     1       1.310   6.395  77.214  1.00  0.00     0.125 C 
HETATM   28  N10 UNL     1       0.585   6.002  76.227  1.00  0.00    -0.387 N 
ATOM     29 2H10 UNL     1       0.331   5.015  76.184  1.00  0.00     0.157 HD
ATOM     30 1H10 UNL     1       0.271   6.653  75.507  1.00  0.00     0.157 HD
HETATM   31  N11 UNL     1       1.663   7.771  77.276  1.00  0.00    -0.082 NA
ENDBRANCH  25  27
ENDBRANCH   6  24
BRANCH   1  32
HETATM   32  C4  UNL     1       4.907   5.429  80.063  1.00  0.00     0.131 C 
HETATM   33  S1  UNL     1       5.492   4.744  78.701  1.00  0.00    -0.061 SA
BRANCH  32  34
HETATM   34  C3  UNL     1       5.584   6.650  80.572  1.00  0.00     0.245 C 
BRANCH  34  35
HETATM   35  C2  UNL     1       6.617   7.160  79.581  1.00  0.00     0.035 C 
HETATM   36  C1  UNL     1       6.282   8.575  79.176  1.00  0.00     0.007 C 
ENDBRANCH  34  35
BRANCH  34  37
HETATM   37  N1  UNL     1       6.115   6.471  81.892  1.00  0.00    -0.069 N 
ATOM     38  H13 UNL     1       5.876   5.550  82.259  1.00  0.00     0.275 HD
ATOM     39  H12 UNL     1       7.131   6.382  81.868  1.00  0.00     0.275 HD
ATOM     40  H11 UNL     1       5.829   7.206  82.540  1.00  0.00     0.275 HD
ENDBRANCH  34  37
ENDBRANCH  32  34
ENDBRANCH   1  32
TORSDOF 9
ENDMDL
MODEL 3
REMARK VINA RESULT: -6.666145129      3.923      7.468
REMARK  9 active torsions:
REMARK  status: ('A' for Active; 'I' for Inactive)
REMARK    1  A    between atoms: C2_2  and  C3_3 
REMARK    2  A    between atoms: C3_3  and  N1_4 
REMARK    3  A    between atoms: C3_3  and  C4_8 
REMARK    4  A    between atoms: C4_8  and  N2_10 
REMARK    5  A    between atoms: C5_14  and  C6_15 
REMARK       I    between atoms: C6_15  and  N5_17 
REMARK    6  A    between atoms: C8_24  and  S2_25 
REMARK    7  A    between atoms: S2_25  and  N8_26 
REMARK    8  A    between atoms: C9_32  and  N9_33 
REMARK    9  A    between atoms: C10_35  and  C11_36 
ROOT
HETATM    1  N2  UNL     1      -0.051   8.620  80.262  1.00  0.00    -0.212 N 
HETATM    2  N3  UNL     1      -0.992   8.288  79.394  1.00  0.00    -0.012 NA
HETATM    3  N4  UNL     1      -0.878   7.006  79.043  1.00  0.00    -0.275 N 
ATOM      4  H4  UNL     1      -1.486   6.514  78.388  1.00  0.00     0.184 HD
HETATM    5  C5  UNL     1       0.168   6.467  79.694  1.00  0.00     0.160 A 
HETATM    6  C9  UNL     1       0.680   7.495  80.458  1.00  0.00     0.160 A 
ENDROOT
BRANCH   5   7
HETATM    7  C6  UNL     1       0.681   5.105  79.634  1.00  0.00     0.279 C 
HETATM    8  O1  UNL     1       1.854   4.898  79.235  1.00  0.00    -0.265 OA
HETATM    9  N5  UNL     1      -0.117   4.004  80.016  1.00  0.00    -0.300 N 
HETATM   10  C7  UNL     1      -0.045   3.644  81.277  1.00  0.00     0.169 A 
ATOM     11  H5  UNL     1      -0.715   3.516  79.350  1.00  0.00     0.171 HD
HETATM   12  N6  UNL     1       0.676   4.164  82.271  1.00  0.00    -0.278 N 
HETATM   13  S3  UNL     1      -0.868   2.363  82.086  1.00  0.00    -0.020 SA
HETATM   14  N7  UNL     1       0.588   3.648  83.426  1.00  0.00    -0.281 N 
ATOM     15  H6  UNL     1       1.289   4.963  82.105  1.00  0.00     0.189 HD
HETATM   16  C8  UNL     1      -0.206   2.612  83.639  1.00  0.00     0.208 A 
ATOM     17  H7  UNL     1       1.134   4.034  84.196  1.00  0.00     0.188 HD
BRANCH  16  18
HETATM   18  S2  UNL     1      -0.458   1.764  85.172  1.00  0.00     0.280 S 
HETATM   19  O2  UNL     1       0.708   1.962  86.083  1.00  0.00    -0.199 OA
HETATM   20  O3  UNL     1      -0.598   0.308  84.838  1.00  0.00    -0.199 OA
BRANCH  18  21
HETATM   21  N8  UNL     1      -1.923   2.395  85.841  1.00  0.00    -0.323 N 
ATOM     22  H82 UNL     1      -2.010   2.914  86.716  1.00  0.00     0.169 HD
ATOM     23  H81 UNL     1      -2.666   2.144  85.190  1.00  0.00     0.169 HD
ENDBRANCH  18  21
ENDBRANCH  16  18
ENDBRANCH   5   7
BRANCH   6  24
HETATM   24  N9  UNL     1       1.786   7.448  81.327  1.00  0.00    -0.346 N 
HETATM   25  C10 UNL     1       2.995   7.715  80.961  1.00  0.00     0.134 C 
ATOM     26  H9  UNL     1       1.624   7.189  82.300  1.00  0.00     0.167 HD
BRANCH  25  27
HETATM   27  C11 UNL     1       4.073   7.637  81.940  1.00  0.00     0.125 C 
HETATM   28  N10 UNL     1       4.655   6.520  82.205  1.00  0.00    -0.387 N 
ATOM     29 2H10 UNL     1       4.338   5.687  81.709  1.00  0.00     0.157 HD
ATOM     30 1H10 UNL     1       5.409   6.465  82.890  1.00  0.00     0.157 HD
HETATM   31  N11 UNL     1       4.514   8.798  82.631  1.00  0.00    -0.082 NA
ENDBRANCH  25  27
ENDBRANCH   6  24
BRANCH   1  32
HETATM   32  C4  UNL     1       0.149   9.897  80.861  1.00  0.00     0.131 C 
HETATM   33  S1  UNL     1       1.130  11.016  80.192  1.00  0.00    -0.061 SA
BRANCH  32  34
HETATM   34  C3  UNL     1      -0.541  10.246  82.130  1.00  0.00     0.245 C 
BRANCH  34  35
HETATM   35  C2  UNL     1       0.453  10.418  83.267  1.00  0.00     0.035 C 
HETATM   36  C1  UNL     1       0.419  11.842  83.766  1.00  0.00     0.007 C 
ENDBRANCH  34  35
BRANCH  34  37
HETATM   37  N1  UNL     1      -1.601   9.334  82.446  1.00  0.00    -0.069 N 
ATOM     38  H13 UNL     1      -2.226   9.212  81.650  1.00  0.00     0.275 HD
ATOM     39  H12 UNL     1      -1.248   8.380  82.529  1.00  0.00     0.275 HD
ATOM     40  H11 UNL     1      -2.122   9.602  83.280  1.00  0.00     0.275 HD
ENDBRANCH  34  37
ENDBRANCH  32  34
ENDBRANCH   1  32
TORSDOF 9
ENDMDL
MODEL 4
REMARK VINA RESULT: -6.573028779      3.360      7.576
REMARK  9 active torsions:
REMARK  status: ('A' for Active; 'I' for Inactive)
REMARK    1  A    between atoms: C2_2  and  C3_3 
REMARK    2  A    between atoms: C3_3  and  N1_4 
REMARK    3  A    between atoms: C3_3  and  C4_8 
REMARK    4  A    between atoms: C4_8  and  N2_10 
REMARK    5  A    between atoms: C5_14  and  C6_15 
REMARK       I    between atoms: C6_15  and  N5_17 
REMARK    6  A    between atoms: C8_24  and  S2_25 
REMARK    7  A    between atoms: S2_25  and  N8_26 
REMARK    8  A    between atoms: C9_32  and  N9_33 
REMARK    9  A    between atoms: C10_35  and  C11_36 
ROOT
HETATM    1  N2  UNL     1       1.877   6.383  81.229  1.00  0.00    -0.212 N 
HETATM    2  N3  UNL     1       2.060   7.543  81.838  1.00  0.00    -0.012 NA
HETATM    3  N4  UNL     1       0.959   7.906  82.498  1.00  0.00    -0.275 N 
ATOM      4  H4  UNL     1       0.850   8.760  83.046  1.00  0.00     0.184 HD
HETATM    5  C5  UNL     1       0.015   6.964  82.324  1.00  0.00     0.160 A 
HETATM    6  C9  UNL     1       0.607   6.011  81.523  1.00  0.00     0.160 A 
ENDROOT
BRANCH   5   7
HETATM    7  C6  UNL     1      -1.344   6.921  82.848  1.00  0.00     0.279 C 
HETATM    8  O1  UNL     1      -2.318   7.012  82.061  1.00  0.00    -0.265 OA
HETATM    9  N5  UNL     1      -1.591   6.779  84.231  1.00  0.00    -0.300 N 
HETATM   10  C7  UNL     1      -1.713   5.549  84.676  1.00  0.00     0.169 A 
ATOM     11  H5  UNL     1      -1.671   7.586  84.849  1.00  0.00     0.171 HD
HETATM   12  N6  UNL     1      -1.638   4.393  84.016  1.00  0.00    -0.278 N 
HETATM   13  S3  UNL     1      -2.014   5.004  86.284  1.00  0.00    -0.020 SA
HETATM   14  N7  UNL     1      -1.789   3.310  84.658  1.00  0.00    -0.281 N 
ATOM     15  H6  UNL     1      -1.463   4.380  83.011  1.00  0.00     0.189 HD
HETATM   16  C8  UNL     1      -2.017   3.329  85.960  1.00  0.00     0.208 A 
ATOM     17  H7  UNL     1      -1.736   2.418  84.166  1.00  0.00     0.188 HD
BRANCH  16  18
HETATM   18  S2  UNL     1      -2.252   1.929  87.018  1.00  0.00     0.280 S 
HETATM   19  O2  UNL     1      -1.270   0.853  86.695  1.00  0.00    -0.199 OA
HETATM   20  O3  UNL     1      -3.646   1.434  86.769  1.00  0.00    -0.199 OA
BRANCH  18  21
HETATM   21  N8  UNL     1      -2.075   2.509  88.638  1.00  0.00    -0.323 N 
ATOM     22  H82 UNL     1      -1.653   2.001  89.416  1.00  0.00     0.169 HD
ATOM     23  H81 UNL     1      -2.473   3.448  88.651  1.00  0.00     0.169 HD
ENDBRANCH  18  21
ENDBRANCH  16  18
ENDBRANCH   5   7
BRANCH   6  24
HETATM   24  N9  UNL     1       0.036   4.815  81.049  1.00  0.00    -0.346 N 
HETATM   25  C10 UNL     1       0.110   3.689  81.676  1.00  0.00     0.134 C 
ATOM     26  H9  UNL     1      -0.463   4.838  80.160  1.00  0.00     0.167 HD
BRANCH  25  27
HETATM   27  C11 UNL     1      -0.515   2.505  81.099  1.00  0.00     0.125 C 
HETATM   28  N10 UNL     1      -0.384   1.347  81.643  1.00  0.00    -0.387 N 
ATOM     29 2H10 UNL     1       0.174   1.279  82.494  1.00  0.00     0.157 HD
ATOM     30 1H10 UNL     1      -0.822   0.519  81.239  1.00  0.00     0.157 HD
HETATM   31  N11 UNL     1      -1.293   2.599  79.912  1.00  0.00    -0.082 NA
ENDBRANCH  25  27
ENDBRANCH   6  24
BRANCH   1  32
HETATM   32  C4  UNL     1       2.823   5.678  80.430  1.00  0.00     0.131 C 
HETATM   33  S1  UNL     1       2.674   5.582  78.807  1.00  0.00    -0.061 SA
BRANCH  32  34
HETATM   34  C3  UNL     1       3.985   5.003  81.063  1.00  0.00     0.245 C 
BRANCH  34  35
HETATM   35  C2  UNL     1       5.070   4.704  80.042  1.00  0.00     0.035 C 
HETATM   36  C1  UNL     1       6.418   5.093  80.601  1.00  0.00     0.007 C 
ENDBRANCH  34  35
BRANCH  34  37
HETATM   37  N1  UNL     1       3.599   3.850  81.825  1.00  0.00    -0.069 N 
ATOM     38  H13 UNL     1       3.136   3.161  81.233  1.00  0.00     0.275 HD
ATOM     39  H12 UNL     1       4.417   3.308  82.104  1.00  0.00     0.275 HD
ATOM     40  H11 UNL     1       3.023   4.082  82.633  1.00  0.00     0.275 HD
ENDBRANCH  34  37
ENDBRANCH  32  34
ENDBRANCH   1  32
TORSDOF 9
ENDMDL
MODEL 5
REMARK VINA RESULT: -6.572100401      2.962      3.794
REMARK  9 active torsions:
REMARK  status: ('A' for Active; 'I' for Inactive)
REMARK    1  A    between atoms: C2_2  and  C3_3 
REMARK    2  A    between atoms: C3_3  and  N1_4 
REMARK    3  A    between atoms: C3_3  and  C4_8 
REMARK    4  A    between atoms: C4_8  and  N2_10 
REMARK    5  A    between atoms: C5_14  and  C6_15 
REMARK       I    between atoms: C6_15  and  N5_17 
REMARK    6  A    between atoms: C8_24  and  S2_25 
REMARK    7  A    between atoms: S2_25  and  N8_26 
REMARK    8  A    between atoms: C9_32  and  N9_33 
REMARK    9  A    between atoms: C10_35  and  C11_36 
ROOT
HETATM    1  N2  UNL     1      -0.927   3.722  83.652  1.00  0.00    -0.212 N 
HETATM    2  N3  UNL     1      -2.089   4.281  83.948  1.00  0.00    -0.012 NA
HETATM    3  N4  UNL     1      -2.046   5.597  83.733  1.00  0.00    -0.275 N 
ATOM      4  H4  UNL     1      -2.817   6.248  83.885  1.00  0.00     0.184 HD
HETATM    5  C5  UNL     1      -0.823   5.926  83.283  1.00  0.00     0.160 A 
HETATM    6  C9  UNL     1      -0.128   4.736  83.237  1.00  0.00     0.160 A 
ENDROOT
BRANCH   5   7
HETATM    7  C6  UNL     1      -0.305   7.237  82.913  1.00  0.00     0.279 C 
HETATM    8  O1  UNL     1       0.864   7.558  83.239  1.00  0.00    -0.265 OA
HETATM    9  N5  UNL     1      -1.094   8.160  82.193  1.00  0.00    -0.300 N 
HETATM   10  C7  UNL     1      -1.008   8.101  80.884  1.00  0.00     0.169 A 
ATOM     11  H5  UNL     1      -1.697   8.834  82.663  1.00  0.00     0.171 HD
HETATM   12  N6  UNL     1      -0.278   7.293  80.114  1.00  0.00    -0.278 N 
HETATM   13  S3  UNL     1      -1.816   9.061  79.700  1.00  0.00    -0.020 SA
HETATM   14  N7  UNL     1      -0.351   7.416  78.854  1.00  0.00    -0.281 N 
ATOM     15  H6  UNL     1       0.329   6.587  80.531  1.00  0.00     0.189 HD
HETATM   16  C8  UNL     1      -1.139   8.331  78.315  1.00  0.00     0.208 A 
ATOM     17  H7  UNL     1       0.201   6.805  78.252  1.00  0.00     0.188 HD
BRANCH  16  18
HETATM   18  S2  UNL     1      -1.371   8.649  76.588  1.00  0.00     0.280 S 
HETATM   19  O2  UNL     1      -1.034  10.066  76.263  1.00  0.00    -0.199 OA
HETATM   20  O3  UNL     1      -2.820   8.394  76.297  1.00  0.00    -0.199 OA
BRANCH  18  21
HETATM   21  N8  UNL     1      -0.357   7.528  75.747  1.00  0.00    -0.323 N 
ATOM     22  H82 UNL     1       0.659   7.579  75.668  1.00  0.00     0.169 HD
ATOM     23  H81 UNL     1      -0.977   6.820  75.355  1.00  0.00     0.169 HD
ENDBRANCH  18  21
ENDBRANCH  16  18
ENDBRANCH   5   7
BRANCH   6  24
HETATM   24  N9  UNL     1       1.204   4.536  82.831  1.00  0.00    -0.346 N 
HETATM   25  C10 UNL     1       1.592   4.585  81.600  1.00  0.00     0.134 C 
ATOM     26  H9  UNL     1       1.903   4.342  83.548  1.00  0.00     0.167 HD
BRANCH  25  27
HETATM   27  C11 UNL     1       2.999   4.363  81.284  1.00  0.00     0.125 C 
HETATM   28  N10 UNL     1       3.765   3.700  82.076  1.00  0.00    -0.387 N 
ATOM     29 2H10 UNL     1       3.359   3.333  82.937  1.00  0.00     0.157 HD
ATOM     30 1H10 UNL     1       4.748   3.544  81.855  1.00  0.00     0.157 HD
HETATM   31  N11 UNL     1       3.563   4.874  80.083  1.00  0.00    -0.082 NA
ENDBRANCH  25  27
ENDBRANCH   6  24
BRANCH   1  32
HETATM   32  C4  UNL     1      -0.591   2.341  83.754  1.00  0.00     0.131 C 
HETATM   33  S1  UNL     1      -0.079   1.484  82.463  1.00  0.00    -0.061 SA
BRANCH  32  34
HETATM   34  C3  UNL     1      -0.702   1.636  85.057  1.00  0.00     0.245 C 
BRANCH  34  35
HETATM   35  C2  UNL     1      -0.480   2.591  86.219  1.00  0.00     0.035 C 
HETATM   36  C1  UNL     1      -1.632   2.490  87.190  1.00  0.00     0.007 C 
ENDBRANCH  34  35
BRANCH  34  37
HETATM   37  N1  UNL     1       0.132   0.472  85.122  1.00  0.00    -0.069 N 
ATOM     38  H13 UNL     1       0.823   0.477  84.372  1.00  0.00     0.275 HD
ATOM     39  H12 UNL     1       0.758   0.516  85.926  1.00  0.00     0.275 HD
ATOM     40  H11 UNL     1      -0.399  -0.399  85.121  1.00  0.00     0.275 HD
ENDBRANCH  34  37
ENDBRANCH  32  34
ENDBRANCH   1  32
TORSDOF 9
ENDMDL
