MODEL 1
REMARK VINA RESULT: -4.205783122      0.000      0.000
REMARK  1 active torsions:
REMARK  status: ('A' for Active; 'I' for Inactive)
REMARK    1  A    between atoms: N1_1  and  C1_5 
ROOT
HETATM    1  C1  UNL     1      -0.508   1.925  85.148  1.00  0.00     0.143 A 
HETATM    2  C2  UNL     1      -0.549   1.664  83.724  1.00  0.00     0.042 C 
HETATM    3  C3  UNL     1      -0.745   2.697  82.713  1.00  0.00     0.033 C 
HETATM    4  C4  UNL     1       0.413   3.665  82.782  1.00  0.00     0.273 C 
HETATM    5  N2  UNL     1       0.559   4.480  83.805  1.00  0.00     0.103 N 
HETATM    6  C5  UNL     1      -0.033   5.346  84.674  1.00  0.00     0.266 A 
HETATM    7  C6  UNL     1      -1.501   5.546  84.817  1.00  0.00     0.112 C 
HETATM    8  S1  UNL     1      -2.447   4.058  85.059  1.00  0.00    -0.159 SA
HETATM    9  C7  UNL     1      -1.404   2.860  85.875  1.00  0.00     0.092 A 
HETATM   10  C8  UNL     1       0.043   3.062  85.789  1.00  0.00     0.074 A 
HETATM   11  C9  UNL     1       0.640   4.202  85.148  1.00  0.00     0.265 A 
ENDROOT
BRANCH   1  12
HETATM   12  N1  UNL     1      -0.373   0.607  85.836  1.00  0.00    -0.069 N 
ATOM     13  H13 UNL     1      -0.464  -0.186  85.200  1.00  0.00     0.275 HD
ATOM     14  H12 UNL     1       0.578   0.416  86.150  1.00  0.00     0.275 HD
ATOM     15  H11 UNL     1      -1.055   0.590  86.595  1.00  0.00     0.275 HD
ENDBRANCH   1  12
TORSDOF 1
ENDMDL
MODEL 2
REMARK VINA RESULT: -4.124964466      1.814      3.853
REMARK  1 active torsions:
REMARK  status: ('A' for Active; 'I' for Inactive)
REMARK    1  A    between atoms: N1_1  and  C1_5 
ROOT
HETATM    1  C1  UNL     1       0.599   5.976  84.357  1.00  0.00     0.143 A 
HETATM    2  C2  UNL     1      -0.700   6.612  84.431  1.00  0.00     0.042 C 
HETATM    3  C3  UNL     1      -1.964   5.902  84.269  1.00  0.00     0.033 C 
HETATM    4  C4  UNL     1      -2.093   4.887  85.380  1.00  0.00     0.273 C 
HETATM    5  N2  UNL     1      -1.323   3.820  85.420  1.00  0.00     0.103 N 
HETATM    6  C5  UNL     1      -0.760   2.787  84.732  1.00  0.00     0.266 A 
HETATM    7  C6  UNL     1      -0.766   2.640  83.250  1.00  0.00     0.112 C 
HETATM    8  S1  UNL     1      -0.184   4.060  82.348  1.00  0.00    -0.159 SA
HETATM    9  C7  UNL     1       0.989   4.932  83.374  1.00  0.00     0.092 A 
HETATM   10  C8  UNL     1       0.937   4.678  84.815  1.00  0.00     0.074 A 
HETATM   11  C9  UNL     1       0.047   3.720  85.412  1.00  0.00     0.265 A 
ENDROOT
BRANCH   1  12
HETATM   12  N1  UNL     1       1.627   7.050  84.492  1.00  0.00    -0.069 N 
ATOM     13  H13 UNL     1       1.796   7.551  83.620  1.00  0.00     0.275 HD
ATOM     14  H12 UNL     1       1.302   7.845  85.042  1.00  0.00     0.275 HD
ATOM     15  H11 UNL     1       2.468   6.617  84.875  1.00  0.00     0.275 HD
ENDBRANCH   1  12
TORSDOF 1
ENDMDL
MODEL 3
REMARK VINA RESULT: -4.114334604      1.826      2.869
REMARK  1 active torsions:
REMARK  status: ('A' for Active; 'I' for Inactive)
REMARK    1  A    between atoms: N1_1  and  C1_5 
ROOT
HETATM    1  C1  UNL     1      -0.558   2.190  84.064  1.00  0.00     0.143 A 
HETATM    2  C2  UNL     1      -0.556   1.652  85.409  1.00  0.00     0.042 C 
HETATM    3  C3  UNL     1      -0.692   2.467  86.612  1.00  0.00     0.033 C 
HETATM    4  C4  UNL     1      -2.044   3.140  86.588  1.00  0.00     0.273 C 
HETATM    5  N2  UNL     1      -2.312   4.097  85.725  1.00  0.00     0.103 N 
HETATM    6  C5  UNL     1      -1.890   5.237  85.111  1.00  0.00     0.266 A 
HETATM    7  C6  UNL     1      -0.509   5.790  85.184  1.00  0.00     0.112 C 
HETATM    8  S1  UNL     1       0.787   4.639  84.782  1.00  0.00    -0.159 SA
HETATM    9  C7  UNL     1       0.131   3.435  83.638  1.00  0.00     0.092 A 
HETATM   10  C8  UNL     1      -1.324   3.282  83.587  1.00  0.00     0.074 A 
HETATM   11  C9  UNL     1      -2.226   4.098  84.354  1.00  0.00     0.265 A 
ENDROOT
BRANCH   1  12
HETATM   12  N1  UNL     1      -0.316   1.051  83.131  1.00  0.00    -0.069 N 
ATOM     13  H13 UNL     1       0.671   0.922  82.907  1.00  0.00     0.275 HD
ATOM     14  H12 UNL     1      -0.474   0.140  83.564  1.00  0.00     0.275 HD
ATOM     15  H11 UNL     1      -0.896   1.207  82.306  1.00  0.00     0.275 HD
ENDBRANCH   1  12
TORSDOF 1
ENDMDL
MODEL 4
REMARK VINA RESULT: -3.876591139      1.407      1.613
REMARK  1 active torsions:
REMARK  status: ('A' for Active; 'I' for Inactive)
REMARK    1  A    between atoms: N1_1  and  C1_5 
ROOT
HETATM    1  C1  UNL     1      -0.714   3.202  84.604  1.00  0.00     0.143 A 
HETATM    2  C2  UNL     1      -0.702   2.658  83.262  1.00  0.00     0.042 C 
HETATM    3  C3  UNL     1      -0.282   3.408  82.083  1.00  0.00     0.033 C 
HETATM    4  C4  UNL     1       1.173   3.780  82.241  1.00  0.00     0.273 C 
HETATM    5  N2  UNL     1       1.555   4.670  83.132  1.00  0.00     0.103 N 
HETATM    6  C5  UNL     1       1.329   5.883  83.710  1.00  0.00     0.266 A 
HETATM    7  C6  UNL     1       0.110   6.714  83.508  1.00  0.00     0.112 C 
HETATM    8  S1  UNL     1      -1.433   5.870  83.776  1.00  0.00    -0.159 SA
HETATM    9  C7  UNL     1      -1.160   4.571  84.970  1.00  0.00     0.092 A 
HETATM   10  C8  UNL     1       0.218   4.114  85.159  1.00  0.00     0.074 A 
HETATM   11  C9  UNL     1       1.341   4.708  84.488  1.00  0.00     0.265 A 
ENDROOT
BRANCH   1  12
HETATM   12  N1  UNL     1      -1.280   2.154  85.502  1.00  0.00    -0.069 N 
ATOM     13  H13 UNL     1      -0.996   1.209  85.242  1.00  0.00     0.275 HD
ATOM     14  H12 UNL     1      -0.868   2.163  86.436  1.00  0.00     0.275 HD
ATOM     15  H11 UNL     1      -2.293   2.278  85.512  1.00  0.00     0.275 HD
ENDBRANCH   1  12
TORSDOF 1
ENDMDL
MODEL 5
REMARK VINA RESULT: -3.869551869      2.161      3.235
REMARK  1 active torsions:
REMARK  status: ('A' for Active; 'I' for Inactive)
REMARK    1  A    between atoms: N1_1  and  C1_5 
ROOT
HETATM    1  C1  UNL     1      -0.245   3.350  83.045  1.00  0.00     0.143 A 
HETATM    2  C2  UNL     1      -0.782   3.058  84.357  1.00  0.00     0.042 C 
HETATM    3  C3  UNL     1      -0.745   3.990  85.479  1.00  0.00     0.033 C 
HETATM    4  C4  UNL     1      -1.554   5.212  85.117  1.00  0.00     0.273 C 
HETATM    5  N2  UNL     1      -1.136   6.059  84.201  1.00  0.00     0.103 N 
HETATM    6  C5  UNL     1      -0.093   6.773  83.692  1.00  0.00     0.266 A 
HETATM    7  C6  UNL     1       1.332   6.611  84.091  1.00  0.00     0.112 C 
HETATM    8  S1  UNL     1       1.948   4.943  84.033  1.00  0.00    -0.159 SA
HETATM    9  C7  UNL     1       1.037   4.054  82.781  1.00  0.00     0.092 A 
HETATM   10  C8  UNL     1      -0.260   4.601  82.380  1.00  0.00     0.074 A 
HETATM   11  C9  UNL     1      -0.782   5.839  82.892  1.00  0.00     0.265 A 
ENDROOT
BRANCH   1  12
HETATM   12  N1  UNL     1      -0.406   2.120  82.215  1.00  0.00    -0.069 N 
ATOM     13  H13 UNL     1      -0.848   1.353  82.722  1.00  0.00     0.275 HD
ATOM     14  H12 UNL     1      -1.113   2.221  81.486  1.00  0.00     0.275 HD
ATOM     15  H11 UNL     1       0.515   1.880  81.848  1.00  0.00     0.275 HD
ENDBRANCH   1  12
TORSDOF 1
ENDMDL
