MODEL 1
REMARK VINA RESULT: -5.231844687      0.000      0.000
REMARK  1 active torsions:
REMARK  status: ('A' for Active; 'I' for Inactive)
REMARK    1  A    between atoms: N2_4  and  N3_6 
ROOT
HETATM    1  N3  UNL     1      -0.436   2.771  83.354  1.00  0.00    -0.326 N 
HETATM    2  C3  UNL     1       0.638   3.756  83.246  1.00  0.00     0.142 C 
HETATM    3  C4  UNL     1       0.546   4.701  84.411  1.00  0.00     0.022 C 
HETATM    4  C5  UNL     1      -0.015   3.905  85.593  1.00  0.00     0.016 C 
HETATM    5  C6  UNL     1      -1.479   3.677  85.294  1.00  0.00     0.025 C 
HETATM    6  C7  UNL     1      -2.240   2.905  86.320  1.00  0.00     0.245 C 
HETATM    7  N4  UNL     1      -2.433   4.157  87.049  1.00  0.00    -0.073 N 
ATOM      8  H41 UNL     1      -1.840   4.404  87.841  1.00  0.00     0.277 HD
ATOM      9  H42 UNL     1      -3.247   4.300  87.646  1.00  0.00     0.277 HD
HETATM   10  C8  UNL     1      -2.305   4.844  85.768  1.00  0.00     0.245 C 
HETATM   11  C9  UNL     1      -1.714   3.251  83.878  1.00  0.00     0.155 C 
ENDROOT
BRANCH   1  12
HETATM   12  N2  UNL     1      -0.210   1.462  82.968  1.00  0.00    -0.294 N 
HETATM   13  C2  UNL     1      -0.703   1.002  81.874  1.00  0.00     0.103 C 
HETATM   14  C1  UNL     1      -0.456  -0.403  81.468  1.00  0.00     0.086 C 
HETATM   15  N1  UNL     1      -1.490   1.841  81.047  1.00  0.00    -0.087 NA
ATOM     16  H2  UNL     1       0.355   0.854  83.560  1.00  0.00     0.187 HD
ENDBRANCH   1  12
TORSDOF 1
ENDMDL
MODEL 2
REMARK VINA RESULT: -5.003324281      2.658      3.781
REMARK  1 active torsions:
REMARK  status: ('A' for Active; 'I' for Inactive)
REMARK    1  A    between atoms: N2_4  and  N3_6 
ROOT
HETATM    1  N3  UNL     1      -1.278   4.164  85.307  1.00  0.00    -0.326 N 
HETATM    2  C3  UNL     1      -2.186   5.069  86.009  1.00  0.00     0.142 C 
HETATM    3  C4  UNL     1      -2.862   4.312  87.118  1.00  0.00     0.022 C 
HETATM    4  C5  UNL     1      -1.871   3.251  87.607  1.00  0.00     0.016 C 
HETATM    5  C6  UNL     1      -1.817   2.193  86.528  1.00  0.00     0.025 C 
HETATM    6  C7  UNL     1      -0.898   1.046  86.789  1.00  0.00     0.245 C 
HETATM    7  N4  UNL     1      -1.974   0.419  87.554  1.00  0.00    -0.073 N 
ATOM      8  H41 UNL     1      -2.002   0.479  88.572  1.00  0.00     0.277 HD
ATOM      9  H42 UNL     1      -2.042  -0.595  87.636  1.00  0.00     0.277 HD
HETATM   10  C8  UNL     1      -2.909   1.175  86.728  1.00  0.00     0.245 C 
HETATM   11  C9  UNL     1      -1.723   2.780  85.155  1.00  0.00     0.155 C 
ENDROOT
BRANCH   1  12
HETATM   12  N2  UNL     1      -0.071   4.637  84.826  1.00  0.00    -0.294 N 
HETATM   13  C2  UNL     1       0.003   5.218  83.682  1.00  0.00     0.103 C 
HETATM   14  C1  UNL     1       1.302   5.722  83.174  1.00  0.00     0.086 C 
HETATM   15  N1  UNL     1      -1.165   5.378  82.896  1.00  0.00    -0.087 NA
ATOM     16  H2  UNL     1       0.773   4.524  85.388  1.00  0.00     0.187 HD
ENDBRANCH   1  12
TORSDOF 1
ENDMDL
MODEL 3
REMARK VINA RESULT: -4.915920315      2.552      4.493
REMARK  1 active torsions:
REMARK  status: ('A' for Active; 'I' for Inactive)
REMARK    1  A    between atoms: N2_4  and  N3_6 
ROOT
HETATM    1  N3  UNL     1      -1.442   4.060  85.598  1.00  0.00    -0.326 N 
HETATM    2  C3  UNL     1      -1.980   5.404  85.802  1.00  0.00     0.142 C 
HETATM    3  C4  UNL     1      -1.294   6.348  84.855  1.00  0.00     0.022 C 
HETATM    4  C5  UNL     1      -0.950   5.550  83.595  1.00  0.00     0.016 C 
HETATM    5  C6  UNL     1       0.196   4.639  83.970  1.00  0.00     0.025 C 
HETATM    6  C7  UNL     1       0.702   3.749  82.883  1.00  0.00     0.245 C 
HETATM    7  N4  UNL     1       1.539   4.858  82.431  1.00  0.00    -0.073 N 
ATOM      8  H41 UNL     1       1.253   5.453  81.653  1.00  0.00     0.277 HD
ATOM      9  H42 UNL     1       2.421   4.691  81.946  1.00  0.00     0.277 HD
HETATM   10  C8  UNL     1       1.514   5.349  83.804  1.00  0.00     0.245 C 
HETATM   11  C9  UNL     1      -0.016   3.967  85.290  1.00  0.00     0.155 C 
ENDROOT
BRANCH   1  12
HETATM   12  N2  UNL     1      -2.277   2.963  85.701  1.00  0.00    -0.294 N 
HETATM   13  C2  UNL     1      -2.557   2.452  86.847  1.00  0.00     0.103 C 
HETATM   14  C1  UNL     1      -3.453   1.274  86.949  1.00  0.00     0.086 C 
HETATM   15  N1  UNL     1      -2.007   3.015  88.025  1.00  0.00    -0.087 NA
ATOM     16  H2  UNL     1      -2.675   2.552  84.857  1.00  0.00     0.187 HD
ENDBRANCH   1  12
TORSDOF 1
ENDMDL
MODEL 4
REMARK VINA RESULT: -4.864984383      2.064      4.245
REMARK  1 active torsions:
REMARK  status: ('A' for Active; 'I' for Inactive)
REMARK    1  A    between atoms: N2_4  and  N3_6 
ROOT
HETATM    1  N3  UNL     1      -0.448   3.111  84.698  1.00  0.00    -0.326 N 
HETATM    2  C3  UNL     1       0.140   4.356  85.188  1.00  0.00     0.142 C 
HETATM    3  C4  UNL     1       0.500   5.218  84.010  1.00  0.00     0.022 C 
HETATM    4  C5  UNL     1      -0.516   4.917  82.905  1.00  0.00     0.016 C 
HETATM    5  C6  UNL     1      -0.169   3.545  82.373  1.00  0.00     0.025 C 
HETATM    6  C7  UNL     1      -1.043   3.033  81.276  1.00  0.00     0.245 C 
HETATM    7  N4  UNL     1      -0.208   3.772  80.331  1.00  0.00    -0.073 N 
ATOM      8  H41 UNL     1      -0.494   4.685  79.976  1.00  0.00     0.277 HD
ATOM      9  H42 UNL     1      -0.099   3.458  79.367  1.00  0.00     0.277 HD
HETATM   10  C8  UNL     1       0.879   3.643  81.296  1.00  0.00     0.245 C 
HETATM   11  C9  UNL     1       0.116   2.562  83.466  1.00  0.00     0.155 C 
ENDROOT
BRANCH   1  12
HETATM   12  N2  UNL     1      -1.483   2.518  85.397  1.00  0.00    -0.294 N 
HETATM   13  C2  UNL     1      -1.257   1.566  86.231  1.00  0.00     0.103 C 
HETATM   14  C1  UNL     1      -2.373   0.936  86.976  1.00  0.00     0.086 C 
HETATM   15  N1  UNL     1       0.069   1.114  86.442  1.00  0.00    -0.087 NA
ATOM     16  H2  UNL     1      -2.440   2.840  85.248  1.00  0.00     0.187 HD
ENDBRANCH   1  12
TORSDOF 1
ENDMDL
MODEL 5
REMARK VINA RESULT: -4.846356766      1.925      3.108
REMARK  1 active torsions:
REMARK  status: ('A' for Active; 'I' for Inactive)
REMARK    1  A    between atoms: N2_4  and  N3_6 
ROOT
HETATM    1  N3  UNL     1      -0.673   3.322  84.180  1.00  0.00    -0.326 N 
HETATM    2  C3  UNL     1      -1.815   3.251  85.089  1.00  0.00     0.142 C 
HETATM    3  C4  UNL     1      -2.201   4.647  85.492  1.00  0.00     0.022 C 
HETATM    4  C5  UNL     1      -1.872   5.563  84.310  1.00  0.00     0.016 C 
HETATM    5  C6  UNL     1      -0.366   5.681  84.271  1.00  0.00     0.025 C 
HETATM    6  C7  UNL     1       0.192   6.534  83.181  1.00  0.00     0.245 C 
HETATM    7  N4  UNL     1      -0.024   7.695  84.042  1.00  0.00    -0.073 N 
ATOM      8  H41 UNL     1      -0.845   8.290  83.931  1.00  0.00     0.277 HD
ATOM      9  H42 UNL     1       0.559   8.527  83.963  1.00  0.00     0.277 HD
HETATM   10  C8  UNL     1       0.102   6.789  85.179  1.00  0.00     0.245 C 
HETATM   11  C9  UNL     1       0.317   4.362  84.455  1.00  0.00     0.155 C 
ENDROOT
BRANCH   1  12
HETATM   12  N2  UNL     1      -0.575   2.430  83.128  1.00  0.00    -0.294 N 
HETATM   13  C2  UNL     1      -0.419   1.172  83.341  1.00  0.00     0.103 C 
HETATM   14  C1  UNL     1      -0.314   0.222  82.207  1.00  0.00     0.086 C 
HETATM   15  N1  UNL     1      -0.346   0.685  84.670  1.00  0.00    -0.087 NA
ATOM     16  H2  UNL     1      -0.626   2.775  82.170  1.00  0.00     0.187 HD
ENDBRANCH   1  12
TORSDOF 1
ENDMDL
