MODEL 1
REMARK VINA RESULT: -7.056050510      0.000      0.000
REMARK  7 active torsions:
REMARK  status: ('A' for Active; 'I' for Inactive)
REMARK    1  A    between atoms: C2_2  and  C3_3 
REMARK    2  A    between atoms: C3_3  and  C4_4 
REMARK    3  A    between atoms: C4_4  and  C5_5 
REMARK    4  A    between atoms: C5_5  and  C7_7 
REMARK    5  A    between atoms: C7_7  and  O1_8 
REMARK    6  A    between atoms: O1_8  and  O2_9 
REMARK    7  A    between atoms: C15_22  and  O5_23 
ROOT
HETATM    1  C7  UNL     1     -51.689  -0.699 -22.037  1.00  0.00     0.229 C 
HETATM    2  O3  UNL     1     -52.785   0.125 -22.424  1.00  0.00    -0.319 OA
HETATM    3  C8  UNL     1     -52.709   0.175 -23.802  1.00  0.00     0.280 C 
HETATM    4  O4  UNL     1     -53.861   0.588 -24.457  1.00  0.00    -0.308 OA
HETATM    5  C9  UNL     1     -54.309  -0.093 -25.608  1.00  0.00     0.113 C 
HETATM    6  C10 UNL     1     -55.609   0.364 -26.173  1.00  0.00     0.097 C 
HETATM    7  N1  UNL     1     -53.642  -1.057 -26.152  1.00  0.00    -0.365 N 
ATOM      8  H1  UNL     1     -53.982  -1.538 -26.985  1.00  0.00     0.162 HD
HETATM    9  C11 UNL     1     -52.364  -1.433 -25.512  1.00  0.00     0.039 C 
HETATM   10  C12 UNL     1     -51.422  -0.305 -25.993  1.00  0.00     0.039 C 
HETATM   11  C13 UNL     1     -51.774  -2.669 -26.042  1.00  0.00     0.034 C 
HETATM   12  C14 UNL     1     -52.330  -3.961 -25.668  1.00  0.00     0.037 C 
HETATM   13  C15 UNL     1     -52.458  -4.395 -24.286  1.00  0.00     0.152 C 
HETATM   14  C16 UNL     1     -51.373  -4.078 -23.313  1.00  0.00     0.080 C 
HETATM   15  C17 UNL     1     -49.995  -4.142 -23.873  1.00  0.00     0.048 C 
HETATM   16  C18 UNL     1     -51.420  -5.221 -22.264  1.00  0.00     0.048 C 
HETATM   17  O6  UNL     1     -51.665  -2.962 -22.567  1.00  0.00    -0.367 OA
HETATM   18  C19 UNL     1     -51.565  -1.743 -23.124  1.00  0.00     0.199 C 
HETATM   19  C20 UNL     1     -52.626  -1.344 -24.070  1.00  0.00     0.104 C 
ENDROOT
BRANCH   1  20
HETATM   20  C5  UNL     1     -52.114  -1.227 -20.696  1.00  0.00     0.050 C 
HETATM   21  C6  UNL     1     -51.043  -1.393 -19.686  1.00  0.00     0.015 C 
BRANCH  20  22
HETATM   22  C4  UNL     1     -53.049  -0.134 -20.139  1.00  0.00     0.010 C 
BRANCH  22  23
HETATM   23  C3  UNL     1     -52.356   0.658 -19.060  1.00  0.00     0.000 C 
BRANCH  23  24
HETATM   24  C2  UNL     1     -53.070   1.990 -18.962  1.00  0.00    -0.005 C 
HETATM   25  C1  UNL     1     -53.717   2.370 -20.275  1.00  0.00     0.005 C 
ENDBRANCH  23  24
ENDBRANCH  22  23
ENDBRANCH  20  22
ENDBRANCH   1  20
BRANCH   1  26
HETATM   26  O1  UNL     1     -50.545   0.090 -21.903  1.00  0.00    -0.200 OA
BRANCH  26  27
HETATM   27  O2  UNL     1     -49.469  -0.509 -22.304  1.00  0.00    -0.247 OA
ATOM     28  H2  UNL     1     -49.404  -0.558 -23.250  1.00  0.00     0.253 HD
ENDBRANCH  26  27
ENDBRANCH   1  26
BRANCH  13  29
HETATM   29  O5  UNL     1     -52.632  -5.810 -24.337  1.00  0.00    -0.393 OA
ATOM     30  H5  UNL     1     -53.400  -5.996 -23.809  1.00  0.00     0.210 HD
ENDBRANCH  13  29
TORSDOF 7
ENDMDL
MODEL 2
REMARK VINA RESULT: -6.981284063      1.914      2.331
REMARK  7 active torsions:
REMARK  status: ('A' for Active; 'I' for Inactive)
REMARK    1  A    between atoms: C2_2  and  C3_3 
REMARK    2  A    between atoms: C3_3  and  C4_4 
REMARK    3  A    between atoms: C4_4  and  C5_5 
REMARK    4  A    between atoms: C5_5  and  C7_7 
REMARK    5  A    between atoms: C7_7  and  O1_8 
REMARK    6  A    between atoms: O1_8  and  O2_9 
REMARK    7  A    between atoms: C15_22  and  O5_23 
ROOT
HETATM    1  C7  UNL     1     -50.841  -1.296 -22.382  1.00  0.00     0.229 C 
HETATM    2  O3  UNL     1     -51.748  -0.867 -23.393  1.00  0.00    -0.319 OA
HETATM    3  C8  UNL     1     -51.173  -1.291 -24.575  1.00  0.00     0.280 C 
HETATM    4  O4  UNL     1     -52.018  -1.344 -25.675  1.00  0.00    -0.308 OA
HETATM    5  C9  UNL     1     -51.985  -2.454 -26.545  1.00  0.00     0.113 C 
HETATM    6  C10 UNL     1     -53.003  -2.460 -27.633  1.00  0.00     0.097 C 
HETATM    7  N1  UNL     1     -51.130  -3.414 -26.419  1.00  0.00    -0.365 N 
ATOM      8  H1  UNL     1     -51.122  -4.208 -27.060  1.00  0.00     0.162 HD
HETATM    9  C11 UNL     1     -50.163  -3.310 -25.306  1.00  0.00     0.039 C 
HETATM   10  C12 UNL     1     -49.154  -2.276 -25.856  1.00  0.00     0.039 C 
HETATM   11  C13 UNL     1     -49.374  -4.529 -25.088  1.00  0.00     0.034 C 
HETATM   12  C14 UNL     1     -49.980  -5.683 -24.441  1.00  0.00     0.037 C 
HETATM   13  C15 UNL     1     -50.591  -5.620 -23.123  1.00  0.00     0.152 C 
HETATM   14  C16 UNL     1     -49.952  -4.796 -22.057  1.00  0.00     0.080 C 
HETATM   15  C17 UNL     1     -48.463  -4.809 -22.066  1.00  0.00     0.048 C 
HETATM   16  C18 UNL     1     -50.339  -5.486 -20.721  1.00  0.00     0.048 C 
HETATM   17  O6  UNL     1     -50.539  -3.558 -21.945  1.00  0.00    -0.367 OA
HETATM   18  C19 UNL     1     -50.287  -2.616 -22.870  1.00  0.00     0.199 C 
HETATM   19  C20 UNL     1     -50.940  -2.768 -24.184  1.00  0.00     0.104 C 
ENDROOT
BRANCH   1  20
HETATM   20  C5  UNL     1     -51.709  -1.385 -21.159  1.00  0.00     0.050 C 
HETATM   21  C6  UNL     1     -51.066  -1.041 -19.869  1.00  0.00     0.015 C 
BRANCH  20  22
HETATM   22  C4  UNL     1     -52.793  -0.311 -21.385  1.00  0.00     0.010 C 
BRANCH  22  23
HETATM   23  C3  UNL     1     -52.729   0.742 -20.309  1.00  0.00     0.000 C 
BRANCH  23  24
HETATM   24  C2  UNL     1     -53.625   1.881 -20.752  1.00  0.00    -0.005 C 
HETATM   25  C1  UNL     1     -54.226   1.616 -22.114  1.00  0.00     0.005 C 
ENDBRANCH  23  24
ENDBRANCH  22  23
ENDBRANCH  20  22
ENDBRANCH   1  20
BRANCH   1  26
HETATM   26  O1  UNL     1     -49.856  -0.322 -22.203  1.00  0.00    -0.200 OA
BRANCH  26  27
HETATM   27  O2  UNL     1     -48.659  -0.812 -22.190  1.00  0.00    -0.247 OA
ATOM     28  H2  UNL     1     -48.042  -0.295 -22.694  1.00  0.00     0.253 HD
ENDBRANCH  26  27
ENDBRANCH   1  26
BRANCH  13  29
HETATM   29  O5  UNL     1     -50.681  -6.970 -22.670  1.00  0.00    -0.393 OA
ATOM     30  H5  UNL     1     -50.826  -6.919 -21.732  1.00  0.00     0.210 HD
ENDBRANCH  13  29
TORSDOF 7
ENDMDL
MODEL 3
REMARK VINA RESULT: -6.587219137      2.141      2.839
REMARK  7 active torsions:
REMARK  status: ('A' for Active; 'I' for Inactive)
REMARK    1  A    between atoms: C2_2  and  C3_3 
REMARK    2  A    between atoms: C3_3  and  C4_4 
REMARK    3  A    between atoms: C4_4  and  C5_5 
REMARK    4  A    between atoms: C5_5  and  C7_7 
REMARK    5  A    between atoms: C7_7  and  O1_8 
REMARK    6  A    between atoms: O1_8  and  O2_9 
REMARK    7  A    between atoms: C15_22  and  O5_23 
ROOT
HETATM    1  C7  UNL     1     -50.004  -1.257 -22.181  1.00  0.00     0.229 C 
HETATM    2  O3  UNL     1     -50.946  -0.857 -23.171  1.00  0.00    -0.319 OA
HETATM    3  C8  UNL     1     -50.580  -1.561 -24.301  1.00  0.00     0.280 C 
HETATM    4  O4  UNL     1     -51.543  -1.654 -25.296  1.00  0.00    -0.308 OA
HETATM    5  C9  UNL     1     -51.776  -2.882 -25.950  1.00  0.00     0.113 C 
HETATM    6  C10 UNL     1     -52.901  -2.899 -26.926  1.00  0.00     0.097 C 
HETATM    7  N1  UNL     1     -51.065  -3.937 -25.725  1.00  0.00    -0.365 N 
ATOM      8  H1  UNL     1     -51.249  -4.817 -26.209  1.00  0.00     0.162 HD
HETATM    9  C11 UNL     1     -49.973  -3.813 -24.737  1.00  0.00     0.039 C 
HETATM   10  C12 UNL     1     -48.890  -3.068 -25.551  1.00  0.00     0.039 C 
HETATM   11  C13 UNL     1     -49.356  -5.094 -24.370  1.00  0.00     0.034 C 
HETATM   12  C14 UNL     1     -50.049  -6.007 -23.474  1.00  0.00     0.037 C 
HETATM   13  C15 UNL     1     -50.490  -5.625 -22.141  1.00  0.00     0.152 C 
HETATM   14  C16 UNL     1     -49.618  -4.753 -21.302  1.00  0.00     0.080 C 
HETATM   15  C17 UNL     1     -48.158  -5.017 -21.437  1.00  0.00     0.048 C 
HETATM   16  C18 UNL     1     -49.948  -5.138 -19.835  1.00  0.00     0.048 C 
HETATM   17  O6  UNL     1     -49.996  -3.434 -21.367  1.00  0.00    -0.367 OA
HETATM   18  C19 UNL     1     -49.713  -2.714 -22.466  1.00  0.00     0.199 C 
HETATM   19  C20 UNL     1     -50.527  -2.971 -23.670  1.00  0.00     0.104 C 
ENDROOT
BRANCH   1  20
HETATM   20  C5  UNL     1     -50.730  -0.996 -20.892  1.00  0.00     0.050 C 
HETATM   21  C6  UNL     1     -49.912  -0.483 -19.769  1.00  0.00     0.015 C 
BRANCH  20  22
HETATM   22  C4  UNL     1     -51.721   0.134 -21.239  1.00  0.00     0.010 C 
BRANCH  22  23
HETATM   23  C3  UNL     1     -52.924   0.083 -20.332  1.00  0.00     0.000 C 
BRANCH  23  24
HETATM   24  C2  UNL     1     -53.102   1.473 -19.756  1.00  0.00    -0.005 C 
HETATM   25  C1  UNL     1     -52.728   1.518 -18.291  1.00  0.00     0.005 C 
ENDBRANCH  23  24
ENDBRANCH  22  23
ENDBRANCH  20  22
ENDBRANCH   1  20
BRANCH   1  26
HETATM   26  O1  UNL     1     -48.871  -0.446 -22.268  1.00  0.00    -0.200 OA
BRANCH  26  27
HETATM   27  O2  UNL     1     -47.770  -1.123 -22.345  1.00  0.00    -0.247 OA
ATOM     28  H2  UNL     1     -47.090  -0.790 -21.772  1.00  0.00     0.253 HD
ENDBRANCH  26  27
ENDBRANCH   1  26
BRANCH  13  29
HETATM   29  O5  UNL     1     -50.728  -6.846 -21.444  1.00  0.00    -0.393 OA
ATOM     30  H5  UNL     1     -51.109  -7.439 -22.082  1.00  0.00     0.210 HD
ENDBRANCH  13  29
TORSDOF 7
ENDMDL
MODEL 4
REMARK VINA RESULT: -6.553628546      2.432      4.013
REMARK  7 active torsions:
REMARK  status: ('A' for Active; 'I' for Inactive)
REMARK    1  A    between atoms: C2_2  and  C3_3 
REMARK    2  A    between atoms: C3_3  and  C4_4 
REMARK    3  A    between atoms: C4_4  and  C5_5 
REMARK    4  A    between atoms: C5_5  and  C7_7 
REMARK    5  A    between atoms: C7_7  and  O1_8 
REMARK    6  A    between atoms: O1_8  and  O2_9 
REMARK    7  A    between atoms: C15_22  and  O5_23 
ROOT
HETATM    1  C7  UNL     1     -50.901  -0.842 -20.821  1.00  0.00     0.229 C 
HETATM    2  O3  UNL     1     -51.905  -1.161 -21.779  1.00  0.00    -0.319 OA
HETATM    3  C8  UNL     1     -51.259  -1.957 -22.705  1.00  0.00     0.280 C 
HETATM    4  O4  UNL     1     -52.078  -2.714 -23.530  1.00  0.00    -0.308 OA
HETATM    5  C9  UNL     1     -51.770  -4.065 -23.794  1.00  0.00     0.113 C 
HETATM    6  C10 UNL     1     -52.769  -4.815 -24.606  1.00  0.00     0.097 C 
HETATM    7  N1  UNL     1     -50.691  -4.631 -23.365  1.00  0.00    -0.365 N 
ATOM      8  H1  UNL     1     -50.486  -5.610 -23.566  1.00  0.00     0.162 HD
HETATM    9  C11 UNL     1     -49.768  -3.797 -22.568  1.00  0.00     0.039 C 
HETATM   10  C12 UNL     1     -49.073  -2.954 -23.662  1.00  0.00     0.039 C 
HETATM   11  C13 UNL     1     -48.683  -4.554 -21.930  1.00  0.00     0.034 C 
HETATM   12  C14 UNL     1     -48.955  -5.363 -20.751  1.00  0.00     0.037 C 
HETATM   13  C15 UNL     1     -49.539  -4.817 -19.535  1.00  0.00     0.152 C 
HETATM   14  C16 UNL     1     -49.121  -3.466 -19.063  1.00  0.00     0.080 C 
HETATM   15  C17 UNL     1     -47.681  -3.150 -19.272  1.00  0.00     0.048 C 
HETATM   16  C18 UNL     1     -49.291  -3.503 -17.520  1.00  0.00     0.048 C 
HETATM   17  O6  UNL     1     -50.010  -2.491 -19.447  1.00  0.00    -0.367 OA
HETATM   18  C19 UNL     1     -50.029  -2.074 -20.725  1.00  0.00     0.199 C 
HETATM   19  C20 UNL     1     -50.641  -2.975 -21.720  1.00  0.00     0.104 C 
ENDROOT
BRANCH   1  20
HETATM   20  C5  UNL     1     -51.695  -0.529 -19.584  1.00  0.00     0.050 C 
HETATM   21  C6  UNL     1     -51.091   0.443 -18.644  1.00  0.00     0.015 C 
BRANCH  20  22
HETATM   22  C4  UNL     1     -52.975   0.147 -20.118  1.00  0.00     0.010 C 
BRANCH  22  23
HETATM   23  C3  UNL     1     -53.077   1.564 -19.613  1.00  0.00     0.000 C 
BRANCH  23  24
HETATM   24  C2  UNL     1     -53.788   2.364 -20.685  1.00  0.00    -0.005 C 
HETATM   25  C1  UNL     1     -54.155   1.500 -21.871  1.00  0.00     0.005 C 
ENDBRANCH  23  24
ENDBRANCH  22  23
ENDBRANCH  20  22
ENDBRANCH   1  20
BRANCH   1  26
HETATM   26  O1  UNL     1     -50.203   0.291 -21.244  1.00  0.00    -0.200 OA
BRANCH  26  27
HETATM   27  O2  UNL     1     -48.919   0.134 -21.210  1.00  0.00    -0.247 OA
ATOM     28  H2  UNL     1     -48.656  -0.778 -21.235  1.00  0.00     0.253 HD
ENDBRANCH  26  27
ENDBRANCH   1  26
BRANCH  13  29
HETATM   29  O5  UNL     1     -49.265  -5.769 -18.509  1.00  0.00    -0.393 OA
ATOM     30  H5  UNL     1     -48.524  -5.423 -18.025  1.00  0.00     0.210 HD
ENDBRANCH  13  29
TORSDOF 7
ENDMDL
MODEL 5
REMARK VINA RESULT: -6.551465370      2.762      5.051
REMARK  7 active torsions:
REMARK  status: ('A' for Active; 'I' for Inactive)
REMARK    1  A    between atoms: C2_2  and  C3_3 
REMARK    2  A    between atoms: C3_3  and  C4_4 
REMARK    3  A    between atoms: C4_4  and  C5_5 
REMARK    4  A    between atoms: C5_5  and  C7_7 
REMARK    5  A    between atoms: C7_7  and  O1_8 
REMARK    6  A    between atoms: O1_8  and  O2_9 
REMARK    7  A    between atoms: C15_22  and  O5_23 
ROOT
HETATM    1  C7  UNL     1     -50.755  -1.575 -22.115  1.00  0.00     0.229 C 
HETATM    2  O3  UNL     1     -49.577  -1.556 -21.316  1.00  0.00    -0.319 OA
HETATM    3  C8  UNL     1     -48.957  -2.761 -21.586  1.00  0.00     0.280 C 
HETATM    4  O4  UNL     1     -47.615  -2.843 -21.242  1.00  0.00    -0.308 OA
HETATM    5  C9  UNL     1     -46.687  -3.427 -22.128  1.00  0.00     0.113 C 
HETATM    6  C10 UNL     1     -45.259  -3.371 -21.708  1.00  0.00     0.097 C 
HETATM    7  N1  UNL     1     -47.039  -3.981 -23.241  1.00  0.00    -0.365 N 
ATOM      8  H1  UNL     1     -46.351  -4.399 -23.870  1.00  0.00     0.162 HD
HETATM    9  C11 UNL     1     -48.481  -3.983 -23.563  1.00  0.00     0.039 C 
HETATM   10  C12 UNL     1     -49.010  -5.116 -22.654  1.00  0.00     0.039 C 
HETATM   11  C13 UNL     1     -48.784  -4.424 -24.931  1.00  0.00     0.034 C 
HETATM   12  C14 UNL     1     -48.544  -3.531 -26.055  1.00  0.00     0.037 C 
HETATM   13  C15 UNL     1     -49.137  -2.206 -26.152  1.00  0.00     0.152 C 
HETATM   14  C16 UNL     1     -50.546  -1.998 -25.710  1.00  0.00     0.080 C 
HETATM   15  C17 UNL     1     -51.467  -3.129 -26.011  1.00  0.00     0.048 C 
HETATM   16  C18 UNL     1     -51.076  -0.824 -26.577  1.00  0.00     0.048 C 
HETATM   17  O6  UNL     1     -50.613  -1.494 -24.434  1.00  0.00    -0.367 OA
HETATM   18  C19 UNL     1     -50.370  -2.299 -23.385  1.00  0.00     0.199 C 
HETATM   19  C20 UNL     1     -48.964  -2.666 -23.129  1.00  0.00     0.104 C 
ENDROOT
BRANCH   1  20
HETATM   20  C5  UNL     1     -51.074  -0.117 -22.289  1.00  0.00     0.050 C 
HETATM   21  C6  UNL     1     -52.482   0.215 -22.609  1.00  0.00     0.015 C 
BRANCH  20  22
HETATM   22  C4  UNL     1     -50.805   0.497 -20.899  1.00  0.00     0.010 C 
BRANCH  22  23
HETATM   23  C3  UNL     1     -52.072   1.074 -20.320  1.00  0.00     0.000 C 
BRANCH  23  24
HETATM   24  C2  UNL     1     -52.043   0.797 -18.831  1.00  0.00    -0.005 C 
HETATM   25  C1  UNL     1     -50.793   0.044 -18.431  1.00  0.00     0.005 C 
ENDBRANCH  23  24
ENDBRANCH  22  23
ENDBRANCH  20  22
ENDBRANCH   1  20
BRANCH   1  26
HETATM   26  O1  UNL     1     -51.780  -2.211 -21.411  1.00  0.00    -0.200 OA
BRANCH  26  27
HETATM   27  O2  UNL     1     -52.294  -3.207 -22.059  1.00  0.00    -0.247 OA
ATOM     28  H2  UNL     1     -52.715  -3.841 -21.490  1.00  0.00     0.253 HD
ENDBRANCH  26  27
ENDBRANCH   1  26
BRANCH  13  29
HETATM   29  O5  UNL     1     -49.023  -1.828 -27.523  1.00  0.00    -0.393 OA
ATOM     30  H5  UNL     1     -48.233  -2.248 -27.843  1.00  0.00     0.210 HD
ENDBRANCH  13  29
TORSDOF 7
ENDMDL
