MODEL 1
REMARK VINA RESULT: -4.513481461      0.000      0.000
REMARK  4 active torsions:
REMARK  status: ('A' for Active; 'I' for Inactive)
REMARK    1  A    between atoms: C2_2  and  C4_4 
REMARK    2  A    between atoms: C4_4  and  O1_6 
REMARK    3  A    between atoms: O1_6  and  C6_7 
REMARK    4  A    between atoms: C8_10  and  O3_11 
ROOT
HETATM    1  C6  UNL     1      11.466  -9.557 -24.637  1.00  0.00     0.154 C 
HETATM    2  C7  UNL     1      12.717  -9.468 -23.788  1.00  0.00     0.203 C 
HETATM    3  O2  UNL     1      12.584  -8.398 -22.948  1.00  0.00    -0.358 OA
HETATM    4  C8  UNL     1      11.615  -7.548 -23.484  1.00  0.00     0.263 C 
HETATM    5  C9  UNL     1      10.581  -8.543 -23.970  1.00  0.00     0.068 C 
HETATM    6  C10 UNL     1       9.582  -7.925 -24.905  1.00  0.00     0.017 C 
ENDROOT
BRANCH   1   7
HETATM    7  O1  UNL     1      11.718  -9.283 -25.969  1.00  0.00    -0.378 OA
BRANCH   7   8
HETATM    8  C4  UNL     1      11.555 -10.394 -26.787  1.00  0.00     0.121 C 
HETATM    9  C5  UNL     1      11.075 -11.611 -26.045  1.00  0.00     0.040 C 
BRANCH   8  10
HETATM   10  C2  UNL     1      10.698 -10.086 -27.996  1.00  0.00     0.006 C 
HETATM   11  C1  UNL     1       9.259 -10.445 -27.692  1.00  0.00     0.012 C 
HETATM   12  C3  UNL     1      10.800  -8.646 -28.417  1.00  0.00     0.012 C 
ENDBRANCH   8  10
ENDBRANCH   7   8
ENDBRANCH   1   7
BRANCH   4  13
HETATM   13  O3  UNL     1      12.093  -6.868 -24.603  1.00  0.00    -0.371 OA
ATOM     14  H3  UNL     1      11.600  -6.072 -24.765  1.00  0.00     0.212 HD
ENDBRANCH   4  13
TORSDOF 4
ENDMDL
MODEL 2
REMARK VINA RESULT: -4.391639112      2.988      4.846
REMARK  4 active torsions:
REMARK  status: ('A' for Active; 'I' for Inactive)
REMARK    1  A    between atoms: C2_2  and  C4_4 
REMARK    2  A    between atoms: C4_4  and  O1_6 
REMARK    3  A    between atoms: O1_6  and  C6_7 
REMARK    4  A    between atoms: C8_10  and  O3_11 
ROOT
HETATM    1  C6  UNL     1       8.379  -8.036 -25.719  1.00  0.00     0.154 C 
HETATM    2  C7  UNL     1       7.556  -9.281 -25.461  1.00  0.00     0.203 C 
HETATM    3  O2  UNL     1       6.235  -8.937 -25.528  1.00  0.00    -0.358 OA
HETATM    4  C8  UNL     1       6.140  -7.557 -25.342  1.00  0.00     0.263 C 
HETATM    5  C9  UNL     1       7.320  -7.064 -26.153  1.00  0.00     0.068 C 
HETATM    6  C10 UNL     1       7.670  -5.636 -25.851  1.00  0.00     0.017 C 
ENDROOT
BRANCH   1   7
HETATM    7  O1  UNL     1       9.078  -7.631 -24.596  1.00  0.00    -0.378 OA
BRANCH   7   8
HETATM    8  C4  UNL     1      10.454  -7.752 -24.746  1.00  0.00     0.121 C 
HETATM    9  C5  UNL     1      11.179  -6.439 -24.643  1.00  0.00     0.040 C 
BRANCH   8  10
HETATM   10  C2  UNL     1      11.035  -8.800 -23.821  1.00  0.00     0.006 C 
HETATM   11  C1  UNL     1      11.811  -9.812 -24.638  1.00  0.00     0.012 C 
HETATM   12  C3  UNL     1      11.915  -8.201 -22.760  1.00  0.00     0.012 C 
ENDBRANCH   8  10
ENDBRANCH   7   8
ENDBRANCH   1   7
BRANCH   4  13
HETATM   13  O3  UNL     1       6.373  -7.202 -24.014  1.00  0.00    -0.371 OA
ATOM     14  H3  UNL     1       5.743  -6.561 -23.707  1.00  0.00     0.212 HD
ENDBRANCH   4  13
TORSDOF 4
ENDMDL
MODEL 3
REMARK VINA RESULT: -4.319771871      0.960      1.806
REMARK  4 active torsions:
REMARK  status: ('A' for Active; 'I' for Inactive)
REMARK    1  A    between atoms: C2_2  and  C4_4 
REMARK    2  A    between atoms: C4_4  and  O1_6 
REMARK    3  A    between atoms: O1_6  and  C6_7 
REMARK    4  A    between atoms: C8_10  and  O3_11 
ROOT
HETATM    1  C6  UNL     1      11.479  -9.516 -24.666  1.00  0.00     0.154 C 
HETATM    2  C7  UNL     1      12.711  -9.457 -23.786  1.00  0.00     0.203 C 
HETATM    3  O2  UNL     1      12.562  -8.412 -22.919  1.00  0.00    -0.358 OA
HETATM    4  C8  UNL     1      11.608  -7.543 -23.452  1.00  0.00     0.263 C 
HETATM    5  C9  UNL     1      10.583  -8.519 -23.990  1.00  0.00     0.068 C 
HETATM    6  C10 UNL     1       9.608  -7.871 -24.930  1.00  0.00     0.017 C 
ENDROOT
BRANCH   1   7
HETATM    7  O1  UNL     1      11.764  -9.205 -25.983  1.00  0.00    -0.378 OA
BRANCH   7   8
HETATM    8  C4  UNL     1      11.549 -10.272 -26.846  1.00  0.00     0.121 C 
HETATM    9  C5  UNL     1      10.872  -9.871 -28.128  1.00  0.00     0.040 C 
BRANCH   8  10
HETATM   10  C2  UNL     1      12.815 -11.065 -27.092  1.00  0.00     0.006 C 
HETATM   11  C1  UNL     1      12.644 -12.464 -26.537  1.00  0.00     0.012 C 
HETATM   12  C3  UNL     1      13.179 -11.123 -28.550  1.00  0.00     0.012 C 
ENDBRANCH   8  10
ENDBRANCH   7   8
ENDBRANCH   1   7
BRANCH   4  13
HETATM   13  O3  UNL     1      12.114  -6.832 -24.539  1.00  0.00    -0.371 OA
ATOM     14  H3  UNL     1      12.061  -5.894 -24.399  1.00  0.00     0.212 HD
ENDBRANCH   4  13
TORSDOF 4
ENDMDL
MODEL 4
REMARK VINA RESULT: -4.311647095      1.577      2.911
REMARK  4 active torsions:
REMARK  status: ('A' for Active; 'I' for Inactive)
REMARK    1  A    between atoms: C2_2  and  C4_4 
REMARK    2  A    between atoms: C4_4  and  O1_6 
REMARK    3  A    between atoms: O1_6  and  C6_7 
REMARK    4  A    between atoms: C8_10  and  O3_11 
ROOT
HETATM    1  C6  UNL     1      11.690  -8.967 -25.111  1.00  0.00     0.154 C 
HETATM    2  C7  UNL     1      11.326  -7.516 -24.874  1.00  0.00     0.203 C 
HETATM    3  O2  UNL     1      11.708  -7.186 -23.604  1.00  0.00    -0.358 OA
HETATM    4  C8  UNL     1      11.844  -8.368 -22.875  1.00  0.00     0.263 C 
HETATM    5  C9  UNL     1      12.511  -9.271 -23.891  1.00  0.00     0.068 C 
HETATM    6  C10 UNL     1      12.464 -10.718 -23.494  1.00  0.00     0.017 C 
ENDROOT
BRANCH   1   7
HETATM    7  O1  UNL     1      10.572  -9.770 -25.242  1.00  0.00    -0.378 OA
BRANCH   7   8
HETATM    8  C4  UNL     1       9.556  -9.163 -25.971  1.00  0.00     0.121 C 
HETATM    9  C5  UNL     1       9.545  -9.563 -27.420  1.00  0.00     0.040 C 
BRANCH   8  10
HETATM   10  C2  UNL     1       8.203  -9.346 -25.316  1.00  0.00     0.006 C 
HETATM   11  C1  UNL     1       7.424  -8.051 -25.410  1.00  0.00     0.012 C 
HETATM   12  C3  UNL     1       7.419 -10.472 -25.931  1.00  0.00     0.012 C 
ENDBRANCH   8  10
ENDBRANCH   7   8
ENDBRANCH   1   7
BRANCH   4  13
HETATM   13  O3  UNL     1      10.605  -8.929 -22.572  1.00  0.00    -0.371 OA
ATOM     14  H3  UNL     1      10.624  -9.876 -22.637  1.00  0.00     0.212 HD
ENDBRANCH   4  13
TORSDOF 4
ENDMDL
MODEL 5
REMARK VINA RESULT: -4.277584872      1.366      2.538
REMARK  4 active torsions:
REMARK  status: ('A' for Active; 'I' for Inactive)
REMARK    1  A    between atoms: C2_2  and  C4_4 
REMARK    2  A    between atoms: C4_4  and  O1_6 
REMARK    3  A    between atoms: O1_6  and  C6_7 
REMARK    4  A    between atoms: C8_10  and  O3_11 
ROOT
HETATM    1  C6  UNL     1      11.734  -8.979 -25.144  1.00  0.00     0.154 C 
HETATM    2  C7  UNL     1      11.341  -7.530 -24.941  1.00  0.00     0.203 C 
HETATM    3  O2  UNL     1      11.656  -7.182 -23.658  1.00  0.00    -0.358 OA
HETATM    4  C8  UNL     1      11.771  -8.354 -22.909  1.00  0.00     0.263 C 
HETATM    5  C9  UNL     1      12.499  -9.259 -23.882  1.00  0.00     0.068 C 
HETATM    6  C10 UNL     1      12.451 -10.703 -23.472  1.00  0.00     0.017 C 
ENDROOT
BRANCH   1   7
HETATM    7  O1  UNL     1      10.634  -9.798 -25.321  1.00  0.00    -0.378 OA
BRANCH   7   8
HETATM    8  C4  UNL     1      10.498 -10.240 -26.631  1.00  0.00     0.121 C 
HETATM    9  C5  UNL     1      11.807 -10.337 -27.363  1.00  0.00     0.040 C 
BRANCH   8  10
HETATM   10  C2  UNL     1       9.699 -11.523 -26.715  1.00  0.00     0.006 C 
HETATM   11  C1  UNL     1      10.471 -12.637 -26.038  1.00  0.00     0.012 C 
HETATM   12  C3  UNL     1       8.333 -11.387 -26.102  1.00  0.00     0.012 C 
ENDBRANCH   8  10
ENDBRANCH   7   8
ENDBRANCH   1   7
BRANCH   4  13
HETATM   13  O3  UNL     1      10.526  -8.928 -22.662  1.00  0.00    -0.371 OA
ATOM     14  H3  UNL     1       9.859  -8.581 -23.242  1.00  0.00     0.212 HD
ENDBRANCH   4  13
TORSDOF 4
ENDMDL
