MODEL 1
REMARK VINA RESULT: -4.887751808      0.000      0.000
REMARK  4 active torsions:
REMARK  status: ('A' for Active; 'I' for Inactive)
REMARK    1  A    between atoms: O1_2  and  C2_3 
REMARK    2  A    between atoms: C2_3  and  C4_5 
REMARK    3  A    between atoms: C7_8  and  C8_9 
REMARK    4  A    between atoms: C8_9  and  O2_12 
ROOT
HETATM    1  C4  UNL     1      11.188  -8.226 -24.827  1.00  0.00     0.150 C 
HETATM    2  C5  UNL     1      11.540  -6.772 -24.755  1.00  0.00     0.037 C 
HETATM    3  C6  UNL     1      10.180  -6.110 -25.008  1.00  0.00     0.037 C 
HETATM    4  C7  UNL     1       9.441  -7.257 -25.642  1.00  0.00     0.155 C 
HETATM    5  O3  UNL     1       9.787  -8.308 -24.795  1.00  0.00    -0.375 OA
ENDROOT
BRANCH   4   6
HETATM    6  C8  UNL     1       7.963  -7.034 -25.728  1.00  0.00     0.076 C 
HETATM    7  C9  UNL     1       7.441  -7.817 -26.911  1.00  0.00     0.048 C 
HETATM    8  C10 UNL     1       7.552  -5.607 -25.809  1.00  0.00     0.048 C 
BRANCH   6   9
HETATM    9  O2  UNL     1       7.387  -7.605 -24.586  1.00  0.00    -0.388 OA
ATOM     10  H2  UNL     1       6.504  -7.263 -24.513  1.00  0.00     0.210 HD
ENDBRANCH   6   9
ENDBRANCH   4   6
BRANCH   1  11
HETATM   11  C2  UNL     1      11.804  -9.042 -23.721  1.00  0.00     0.145 C 
HETATM   12  C3  UNL     1      11.918  -8.297 -22.431  1.00  0.00     0.042 C 
BRANCH  11  13
HETATM   13  O1  UNL     1      13.050  -9.470 -24.163  1.00  0.00    -0.389 OA
HETATM   14  C1  UNL     1      12.994 -10.817 -24.570  1.00  0.00     0.202 C 
ENDBRANCH  11  13
ENDBRANCH   1  11
TORSDOF 4
ENDMDL
MODEL 2
REMARK VINA RESULT: -4.625206003      1.506      2.790
REMARK  4 active torsions:
REMARK  status: ('A' for Active; 'I' for Inactive)
REMARK    1  A    between atoms: O1_2  and  C2_3 
REMARK    2  A    between atoms: C2_3  and  C4_5 
REMARK    3  A    between atoms: C7_8  and  C8_9 
REMARK    4  A    between atoms: C8_9  and  O2_12 
ROOT
HETATM    1  C4  UNL     1      12.572  -9.971 -24.492  1.00  0.00     0.150 C 
HETATM    2  C5  UNL     1      12.760  -9.240 -23.199  1.00  0.00     0.037 C 
HETATM    3  C6  UNL     1      11.623  -8.212 -23.255  1.00  0.00     0.037 C 
HETATM    4  C7  UNL     1      11.326  -8.226 -24.731  1.00  0.00     0.155 C 
HETATM    5  O3  UNL     1      11.316  -9.593 -24.996  1.00  0.00    -0.375 OA
ENDROOT
BRANCH   4   6
HETATM    6  C8  UNL     1      10.037  -7.550 -25.081  1.00  0.00     0.076 C 
HETATM    7  C9  UNL     1       9.603  -8.050 -26.439  1.00  0.00     0.048 C 
HETATM    8  C10 UNL     1      10.083  -6.064 -25.048  1.00  0.00     0.048 C 
BRANCH   6   9
HETATM    9  O2  UNL     1       9.072  -7.991 -24.165  1.00  0.00    -0.388 OA
ATOM     10  H2  UNL     1       8.855  -8.888 -24.393  1.00  0.00     0.210 HD
ENDBRANCH   6   9
ENDBRANCH   4   6
BRANCH   1  11
HETATM   11  C2  UNL     1      12.670 -11.467 -24.350  1.00  0.00     0.145 C 
HETATM   12  C3  UNL     1      13.993 -12.015 -24.777  1.00  0.00     0.042 C 
BRANCH  11  13
HETATM   13  O1  UNL     1      11.636 -12.026 -25.090  1.00  0.00    -0.389 OA
HETATM   14  C1  UNL     1      12.133 -12.611 -26.271  1.00  0.00     0.202 C 
ENDBRANCH  11  13
ENDBRANCH   1  11
TORSDOF 4
ENDMDL
MODEL 3
REMARK VINA RESULT: -4.618496123      2.258      4.066
REMARK  4 active torsions:
REMARK  status: ('A' for Active; 'I' for Inactive)
REMARK    1  A    between atoms: O1_2  and  C2_3 
REMARK    2  A    between atoms: C2_3  and  C4_5 
REMARK    3  A    between atoms: C7_8  and  C8_9 
REMARK    4  A    between atoms: C8_9  and  O2_12 
ROOT
HETATM    1  C4  UNL     1      12.261 -11.094 -25.712  1.00  0.00     0.150 C 
HETATM    2  C5  UNL     1      11.747 -10.283 -26.862  1.00  0.00     0.037 C 
HETATM    3  C6  UNL     1      11.280  -9.005 -26.157  1.00  0.00     0.037 C 
HETATM    4  C7  UNL     1      11.163  -9.509 -24.743  1.00  0.00     0.155 C 
HETATM    5  O3  UNL     1      12.349 -10.228 -24.610  1.00  0.00    -0.375 OA
ENDROOT
BRANCH   4   6
HETATM    6  C8  UNL     1      11.023  -8.413 -23.733  1.00  0.00     0.076 C 
HETATM    7  C9  UNL     1      10.961  -7.099 -24.477  1.00  0.00     0.048 C 
HETATM    8  C10 UNL     1      12.083  -8.388 -22.691  1.00  0.00     0.048 C 
BRANCH   6   9
HETATM    9  O2  UNL     1       9.780  -8.577 -23.108  1.00  0.00    -0.388 OA
ATOM     10  H2  UNL     1       9.947  -8.784 -22.196  1.00  0.00     0.210 HD
ENDBRANCH   6   9
ENDBRANCH   4   6
BRANCH   1  11
HETATM   11  C2  UNL     1      13.587 -11.750 -25.992  1.00  0.00     0.145 C 
HETATM   12  C3  UNL     1      13.471 -12.977 -26.836  1.00  0.00     0.042 C 
BRANCH  11  13
HETATM   13  O1  UNL     1      14.176 -12.039 -24.768  1.00  0.00    -0.389 OA
HETATM   14  C1  UNL     1      15.456 -12.597 -24.954  1.00  0.00     0.202 C 
ENDBRANCH  11  13
ENDBRANCH   1  11
TORSDOF 4
ENDMDL
MODEL 4
REMARK VINA RESULT: -4.567078962      2.572      4.524
REMARK  4 active torsions:
REMARK  status: ('A' for Active; 'I' for Inactive)
REMARK    1  A    between atoms: O1_2  and  C2_3 
REMARK    2  A    between atoms: C2_3  and  C4_5 
REMARK    3  A    between atoms: C7_8  and  C8_9 
REMARK    4  A    between atoms: C8_9  and  O2_12 
ROOT
HETATM    1  C4  UNL     1      12.136 -11.011 -26.039  1.00  0.00     0.150 C 
HETATM    2  C5  UNL     1      12.959 -11.433 -24.861  1.00  0.00     0.037 C 
HETATM    3  C6  UNL     1      12.681 -10.300 -23.866  1.00  0.00     0.037 C 
HETATM    4  C7  UNL     1      12.171  -9.240 -24.806  1.00  0.00     0.155 C 
HETATM    5  O3  UNL     1      11.293  -9.977 -25.599  1.00  0.00    -0.375 OA
ENDROOT
BRANCH   4   6
HETATM    6  C8  UNL     1      11.509  -8.095 -24.104  1.00  0.00     0.076 C 
HETATM    7  C9  UNL     1      11.843  -8.194 -22.634  1.00  0.00     0.048 C 
HETATM    8  C10 UNL     1      10.040  -8.002 -24.313  1.00  0.00     0.048 C 
BRANCH   6   9
HETATM    9  O2  UNL     1      12.106  -6.917 -24.571  1.00  0.00    -0.388 OA
ATOM     10  H2  UNL     1      13.042  -7.073 -24.615  1.00  0.00     0.210 HD
ENDBRANCH   6   9
ENDBRANCH   4   6
BRANCH   1  11
HETATM   11  C2  UNL     1      11.340 -12.137 -26.643  1.00  0.00     0.145 C 
HETATM   12  C3  UNL     1      10.277 -11.670 -27.584  1.00  0.00     0.042 C 
BRANCH  11  13
HETATM   13  O1  UNL     1      10.794 -12.871 -25.597  1.00  0.00    -0.389 OA
HETATM   14  C1  UNL     1       9.560 -13.431 -25.978  1.00  0.00     0.202 C 
ENDBRANCH  11  13
ENDBRANCH   1  11
TORSDOF 4
ENDMDL
MODEL 5
REMARK VINA RESULT: -4.549168626      1.448      4.989
REMARK  4 active torsions:
REMARK  status: ('A' for Active; 'I' for Inactive)
REMARK    1  A    between atoms: O1_2  and  C2_3 
REMARK    2  A    between atoms: C2_3  and  C4_5 
REMARK    3  A    between atoms: C7_8  and  C8_9 
REMARK    4  A    between atoms: C8_9  and  O2_12 
ROOT
HETATM    1  C4  UNL     1      10.335  -8.298 -24.434  1.00  0.00     0.150 C 
HETATM    2  C5  UNL     1      11.526  -7.919 -23.609  1.00  0.00     0.037 C 
HETATM    3  C6  UNL     1      12.483  -9.083 -23.893  1.00  0.00     0.037 C 
HETATM    4  C7  UNL     1      11.509 -10.109 -24.407  1.00  0.00     0.155 C 
HETATM    5  O3  UNL     1      10.740  -9.342 -25.281  1.00  0.00    -0.375 OA
ENDROOT
BRANCH   4   6
HETATM    6  C8  UNL     1      12.173 -11.273 -25.074  1.00  0.00     0.076 C 
HETATM    7  C9  UNL     1      13.293 -11.747 -24.178  1.00  0.00     0.048 C 
HETATM    8  C10 UNL     1      12.667 -11.004 -26.451  1.00  0.00     0.048 C 
BRANCH   6   9
HETATM    9  O2  UNL     1      11.236 -12.313 -25.128  1.00  0.00    -0.388 OA
ATOM     10  H2  UNL     1      11.688 -13.085 -25.448  1.00  0.00     0.210 HD
ENDBRANCH   6   9
ENDBRANCH   4   6
BRANCH   1  11
HETATM   11  C2  UNL     1       9.767  -7.149 -25.224  1.00  0.00     0.145 C 
HETATM   12  C3  UNL     1      10.458  -5.851 -24.956  1.00  0.00     0.042 C 
BRANCH  11  13
HETATM   13  O1  UNL     1       8.413  -7.066 -24.926  1.00  0.00    -0.389 OA
HETATM   14  C1  UNL     1       7.744  -6.277 -25.881  1.00  0.00     0.202 C 
ENDBRANCH  11  13
ENDBRANCH   1  11
TORSDOF 4
ENDMDL
