MODEL 1
REMARK VINA RESULT: -7.205929358      0.000      0.000
REMARK  3 active torsions:
REMARK  status: ('A' for Active; 'I' for Inactive)
REMARK    1  A    between atoms: C6_6  and  C8_8 
REMARK    2  A    between atoms: C11_15  and  C12_16 
REMARK    3  A    between atoms: C12_16  and  N1_17 
ROOT
HETATM    1  C1  UNL     1      52.089  82.277  76.197  1.00  0.00     0.016 C 
HETATM    2  C2  UNL     1      50.903  81.996  77.089  1.00  0.00    -0.029 C 
HETATM    3  C3  UNL     1      49.830  83.030  76.832  1.00  0.00     0.016 C 
HETATM    4  C4  UNL     1      51.396  82.030  78.526  1.00  0.00     0.011 C 
HETATM    5  C5  UNL     1      50.417  81.278  79.364  1.00  0.00     0.022 C 
HETATM    6  C6  UNL     1      50.468  79.778  79.153  1.00  0.00     0.091 C 
HETATM    7  C7  UNL     1      51.687  79.274  79.928  1.00  0.00     0.028 C 
HETATM    8  C9  UNL     1      50.581  79.475  77.705  1.00  0.00     0.131 C 
HETATM    9  C10 UNL     1      49.741  78.335  77.222  1.00  0.00     0.054 C 
HETATM   10  F4  UNL     1      51.912  79.123  77.432  1.00  0.00    -0.241 F 
HETATM   11  C11 UNL     1      50.313  80.669  76.864  1.00  0.00     0.122 C 
ENDROOT
BRANCH   6  12
HETATM   12  C8  UNL     1      49.257  79.220  79.834  1.00  0.00     0.398 C 
HETATM   13  F1  UNL     1      49.414  79.511  81.200  1.00  0.00    -0.170 F 
HETATM   14  F2  UNL     1      49.162  77.851  79.766  1.00  0.00    -0.170 F 
HETATM   15  F3  UNL     1      48.088  79.859  79.463  1.00  0.00    -0.170 F 
ENDBRANCH   6  12
BRANCH  11  16
HETATM   16  C12 UNL     1      49.495  80.575  75.825  1.00  0.00    -0.069 C 
BRANCH  16  17
HETATM   17  N1  UNL     1      49.053  80.495  74.620  1.00  0.00    -0.369 N 
ATOM     18  H12 UNL     1      49.809  81.038  74.202  1.00  0.00     0.165 HD
ATOM     19  H11 UNL     1      48.474  80.263  73.813  1.00  0.00     0.165 HD
ENDBRANCH  16  17
ENDBRANCH  11  16
TORSDOF 3
ENDMDL
MODEL 2
REMARK VINA RESULT: -6.603697985      2.655      4.003
REMARK  3 active torsions:
REMARK  status: ('A' for Active; 'I' for Inactive)
REMARK    1  A    between atoms: C6_6  and  C8_8 
REMARK    2  A    between atoms: C11_15  and  C12_16 
REMARK    3  A    between atoms: C12_16  and  N1_17 
ROOT
HETATM    1  C1  UNL     1      51.330  81.788  79.707  1.00  0.00     0.016 C 
HETATM    2  C2  UNL     1      51.079  80.355  79.305  1.00  0.00    -0.029 C 
HETATM    3  C3  UNL     1      51.703  79.434  80.329  1.00  0.00     0.016 C 
HETATM    4  C4  UNL     1      51.675  80.157  77.922  1.00  0.00     0.011 C 
HETATM    5  C5  UNL     1      51.021  78.967  77.306  1.00  0.00     0.022 C 
HETATM    6  C6  UNL     1      49.584  79.214  76.890  1.00  0.00     0.091 C 
HETATM    7  C7  UNL     1      49.645  79.998  75.577  1.00  0.00     0.028 C 
HETATM    8  C9  UNL     1      48.876  79.977  77.946  1.00  0.00     0.131 C 
HETATM    9  C10 UNL     1      47.481  79.522  78.238  1.00  0.00     0.054 C 
HETATM   10  F4  UNL     1      48.773  81.314  77.530  1.00  0.00    -0.241 F 
HETATM   11  C11 UNL     1      49.650  80.023  79.213  1.00  0.00     0.122 C 
ENDROOT
BRANCH   6  12
HETATM   12  C8  UNL     1      49.006  77.871  76.569  1.00  0.00     0.398 C 
HETATM   13  F1  UNL     1      49.741  77.386  75.473  1.00  0.00    -0.170 F 
HETATM   14  F2  UNL     1      47.703  77.915  76.138  1.00  0.00    -0.170 F 
HETATM   15  F3  UNL     1      49.208  76.943  77.575  1.00  0.00    -0.170 F 
ENDBRANCH   6  12
BRANCH  11  16
HETATM   16  C12 UNL     1      49.049  79.757  80.364  1.00  0.00    -0.069 C 
BRANCH  16  17
HETATM   17  N1  UNL     1      48.514  79.121  81.346  1.00  0.00    -0.369 N 
ATOM     18  H12 UNL     1      49.104  78.293  81.260  1.00  0.00     0.165 HD
ATOM     19  H11 UNL     1      47.914  78.885  82.137  1.00  0.00     0.165 HD
ENDBRANCH  16  17
ENDBRANCH  11  16
TORSDOF 3
ENDMDL
MODEL 3
REMARK VINA RESULT: -6.521458569      2.597      4.483
REMARK  3 active torsions:
REMARK  status: ('A' for Active; 'I' for Inactive)
REMARK    1  A    between atoms: C6_6  and  C8_8 
REMARK    2  A    between atoms: C11_15  and  C12_16 
REMARK    3  A    between atoms: C12_16  and  N1_17 
ROOT
HETATM    1  C1  UNL     1      48.136  77.963  79.264  1.00  0.00     0.016 C 
HETATM    2  C2  UNL     1      48.666  79.374  79.178  1.00  0.00    -0.029 C 
HETATM    3  C3  UNL     1      48.418  80.080  80.492  1.00  0.00     0.016 C 
HETATM    4  C4  UNL     1      47.959  80.059  78.021  1.00  0.00     0.011 C 
HETATM    5  C5  UNL     1      48.792  81.221  77.597  1.00  0.00     0.022 C 
HETATM    6  C6  UNL     1      50.061  80.823  76.871  1.00  0.00     0.091 C 
HETATM    7  C7  UNL     1      49.645  80.460  75.444  1.00  0.00     0.028 C 
HETATM    8  C9  UNL     1      50.699  79.675  77.560  1.00  0.00     0.131 C 
HETATM    9  C10 UNL     1      52.188  79.750  77.685  1.00  0.00     0.054 C 
HETATM   10  F4  UNL     1      50.426  78.512  76.823  1.00  0.00    -0.241 F 
HETATM   11  C11 UNL     1      50.108  79.433  78.901  1.00  0.00     0.122 C 
ENDROOT
BRANCH   6  12
HETATM   12  C8  UNL     1      50.895  82.063  76.780  1.00  0.00     0.398 C 
HETATM   13  F1  UNL     1      49.991  83.124  76.596  1.00  0.00    -0.170 F 
HETATM   14  F2  UNL     1      51.720  82.099  75.682  1.00  0.00    -0.170 F 
HETATM   15  F3  UNL     1      51.557  82.355  77.959  1.00  0.00    -0.170 F 
ENDBRANCH   6  12
BRANCH  11  16
HETATM   16  C12 UNL     1      50.900  79.248  79.948  1.00  0.00    -0.069 C 
BRANCH  16  17
HETATM   17  N1  UNL     1      51.329  79.173  81.158  1.00  0.00    -0.369 N 
ATOM     18  H12 UNL     1      51.668  80.134  81.202  1.00  0.00     0.165 HD
ATOM     19  H11 UNL     1      51.557  78.814  82.086  1.00  0.00     0.165 HD
ENDBRANCH  16  17
ENDBRANCH  11  16
TORSDOF 3
ENDMDL
MODEL 4
REMARK VINA RESULT: -6.448499145      2.577      4.039
REMARK  3 active torsions:
REMARK  status: ('A' for Active; 'I' for Inactive)
REMARK    1  A    between atoms: C6_6  and  C8_8 
REMARK    2  A    between atoms: C11_15  and  C12_16 
REMARK    3  A    between atoms: C12_16  and  N1_17 
ROOT
HETATM    1  C1  UNL     1      50.980  81.759  79.879  1.00  0.00     0.016 C 
HETATM    2  C2  UNL     1      50.969  80.385  79.251  1.00  0.00    -0.029 C 
HETATM    3  C3  UNL     1      51.845  79.459  80.065  1.00  0.00     0.016 C 
HETATM    4  C4  UNL     1      51.467  80.532  77.823  1.00  0.00     0.011 C 
HETATM    5  C5  UNL     1      50.997  79.347  77.049  1.00  0.00     0.022 C 
HETATM    6  C6  UNL     1      49.508  79.363  76.764  1.00  0.00     0.091 C 
HETATM    7  C7  UNL     1      49.302  80.339  75.604  1.00  0.00     0.028 C 
HETATM    8  C9  UNL     1      48.766  79.791  77.974  1.00  0.00     0.131 C 
HETATM    9  C10 UNL     1      47.514  79.024  78.262  1.00  0.00     0.054 C 
HETATM   10  F4  UNL     1      48.375  81.128  77.800  1.00  0.00    -0.241 F 
HETATM   11  C11 UNL     1      49.627  79.791  79.184  1.00  0.00     0.122 C 
ENDROOT
BRANCH   6  12
HETATM   12  C8  UNL     1      49.168  77.998  76.250  1.00  0.00     0.398 C 
HETATM   13  F1  UNL     1      47.764  77.947  76.191  1.00  0.00    -0.170 F 
HETATM   14  F2  UNL     1      49.530  76.979  77.097  1.00  0.00    -0.170 F 
HETATM   15  F3  UNL     1      49.590  77.790  74.949  1.00  0.00    -0.170 F 
ENDBRANCH   6  12
BRANCH  11  16
HETATM   16  C12 UNL     1      49.192  79.232  80.304  1.00  0.00    -0.069 C 
BRANCH  16  17
HETATM   17  N1  UNL     1      48.571  79.041  81.415  1.00  0.00    -0.369 N 
ATOM     18  H12 UNL     1      47.672  78.821  80.988  1.00  0.00     0.165 HD
ATOM     19  H11 UNL     1      48.370  78.962  82.412  1.00  0.00     0.165 HD
ENDBRANCH  16  17
ENDBRANCH  11  16
TORSDOF 3
ENDMDL
MODEL 5
REMARK VINA RESULT: -6.342118605      2.488      4.105
REMARK  3 active torsions:
REMARK  status: ('A' for Active; 'I' for Inactive)
REMARK    1  A    between atoms: C6_6  and  C8_8 
REMARK    2  A    between atoms: C11_15  and  C12_16 
REMARK    3  A    between atoms: C12_16  and  N1_17 
ROOT
HETATM    1  C1  UNL     1      51.346  81.684  80.284  1.00  0.00     0.016 C 
HETATM    2  C2  UNL     1      51.357  80.461  79.398  1.00  0.00    -0.029 C 
HETATM    3  C3  UNL     1      52.572  79.623  79.722  1.00  0.00     0.016 C 
HETATM    4  C4  UNL     1      51.363  80.942  77.956  1.00  0.00     0.011 C 
HETATM    5  C5  UNL     1      50.869  79.826  77.098  1.00  0.00     0.022 C 
HETATM    6  C6  UNL     1      49.381  79.572  77.236  1.00  0.00     0.091 C 
HETATM    7  C7  UNL     1      48.680  80.658  76.417  1.00  0.00     0.028 C 
HETATM    8  C9  UNL     1      48.988  79.628  78.665  1.00  0.00     0.131 C 
HETATM    9  C10 UNL     1      48.020  78.577  79.105  1.00  0.00     0.054 C 
HETATM   10  F4  UNL     1      48.360  80.862  78.900  1.00  0.00    -0.241 F 
HETATM   11  C11 UNL     1      50.168  79.614  79.567  1.00  0.00     0.122 C 
ENDROOT
BRANCH   6  12
HETATM   12  C8  UNL     1      49.116  78.268  76.548  1.00  0.00     0.398 C 
HETATM   13  F1  UNL     1      49.611  78.415  75.240  1.00  0.00    -0.170 F 
HETATM   14  F2  UNL     1      47.782  77.980  76.398  1.00  0.00    -0.170 F 
HETATM   15  F3  UNL     1      49.836  77.218  77.088  1.00  0.00    -0.170 F 
ENDBRANCH   6  12
BRANCH  11  16
HETATM   16  C12 UNL     1      50.190  78.800  80.613  1.00  0.00    -0.069 C 
BRANCH  16  17
HETATM   17  N1  UNL     1      50.586  77.946  81.489  1.00  0.00    -0.369 N 
ATOM     18  H12 UNL     1      51.366  77.592  80.935  1.00  0.00     0.165 HD
ATOM     19  H11 UNL     1      50.650  77.392  82.344  1.00  0.00     0.165 HD
ENDBRANCH  16  17
ENDBRANCH  11  16
TORSDOF 3
ENDMDL
