MODEL 1
REMARK VINA RESULT: -6.530223878      0.000      0.000
REMARK  1 active torsions:
REMARK  status: ('A' for Active; 'I' for Inactive)
REMARK    1  A    between atoms: C7_7  and  C9_9 
ROOT
HETATM    1  C1  UNL     1     -28.671 -13.262  19.834  1.00  0.00     0.037 C 
HETATM    2  C2  UNL     1     -29.878 -13.817  20.607  1.00  0.00     0.019 C 
HETATM    3  C3  UNL     1     -29.350 -14.065  22.034  1.00  0.00     0.037 C 
HETATM    4  C4  UNL     1     -30.290 -15.125  20.069  1.00  0.00     0.030 C 
HETATM    5  C5  UNL     1     -31.714 -15.312  19.718  1.00  0.00     0.005 C 
HETATM    6  C6  UNL     1     -32.639 -14.213  20.125  1.00  0.00     0.039 C 
HETATM    7  C7  UNL     1     -32.008 -12.857  19.957  1.00  0.00     0.121 C 
HETATM    8  C8  UNL     1     -32.990 -11.849  20.586  1.00  0.00     0.047 C 
HETATM    9  N1  UNL     1     -30.826 -12.790  20.700  1.00  0.00    -0.398 N 
ATOM     10  H1  UNL     1     -30.653 -11.992  21.312  1.00  0.00     0.155 HD
ENDROOT
BRANCH   7  11
HETATM   11  C9  UNL     1     -31.905 -12.423  18.523  1.00  0.00     0.411 C 
HETATM   12  F1  UNL     1     -31.968 -13.565  17.732  1.00  0.00    -0.168 F 
HETATM   13  F2  UNL     1     -30.768 -11.757  18.210  1.00  0.00    -0.168 F 
HETATM   14  F3  UNL     1     -33.029 -11.643  18.258  1.00  0.00    -0.168 F 
ENDBRANCH   7  11
TORSDOF 1
ENDMDL
MODEL 2
REMARK VINA RESULT: -6.473595518      0.216      1.051
REMARK  1 active torsions:
REMARK  status: ('A' for Active; 'I' for Inactive)
REMARK    1  A    between atoms: C7_7  and  C9_9 
ROOT
HETATM    1  C1  UNL     1     -28.587 -13.255  20.012  1.00  0.00     0.037 C 
HETATM    2  C2  UNL     1     -29.838 -13.833  20.691  1.00  0.00     0.019 C 
HETATM    3  C3  UNL     1     -29.396 -14.136  22.136  1.00  0.00     0.037 C 
HETATM    4  C4  UNL     1     -30.221 -15.118  20.081  1.00  0.00     0.030 C 
HETATM    5  C5  UNL     1     -31.622 -15.285  19.639  1.00  0.00     0.005 C 
HETATM    6  C6  UNL     1     -32.567 -14.197  20.031  1.00  0.00     0.039 C 
HETATM    7  C7  UNL     1     -31.924 -12.839  19.953  1.00  0.00     0.121 C 
HETATM    8  C8  UNL     1     -32.939 -11.850  20.559  1.00  0.00     0.047 C 
HETATM    9  N1  UNL     1     -30.787 -12.806  20.766  1.00  0.00    -0.398 N 
ATOM     10  H1  UNL     1     -30.649 -12.032  21.417  1.00  0.00     0.155 HD
ENDROOT
BRANCH   7  11
HETATM   11  C9  UNL     1     -31.734 -12.353  18.545  1.00  0.00     0.411 C 
HETATM   12  F1  UNL     1     -32.855 -11.605  18.203  1.00  0.00    -0.168 F 
HETATM   13  F2  UNL     1     -31.582 -13.330  17.619  1.00  0.00    -0.168 F 
HETATM   14  F3  UNL     1     -30.629 -11.504  18.559  1.00  0.00    -0.168 F 
ENDBRANCH   7  11
TORSDOF 1
ENDMDL
MODEL 3
REMARK VINA RESULT: -6.353167349      2.102      3.852
REMARK  1 active torsions:
REMARK  status: ('A' for Active; 'I' for Inactive)
REMARK    1  A    between atoms: C7_7  and  C9_9 
ROOT
HETATM    1  C1  UNL     1     -33.024 -12.857  20.953  1.00  0.00     0.037 C 
HETATM    2  C2  UNL     1     -32.164 -11.931  20.079  1.00  0.00     0.019 C 
HETATM    3  C3  UNL     1     -32.833 -10.547  20.196  1.00  0.00     0.037 C 
HETATM    4  C4  UNL     1     -32.239 -12.326  18.662  1.00  0.00     0.030 C 
HETATM    5  C5  UNL     1     -30.970 -12.522  17.929  1.00  0.00     0.005 C 
HETATM    6  C6  UNL     1     -29.728 -12.112  18.649  1.00  0.00     0.039 C 
HETATM    7  C7  UNL     1     -29.793 -12.442  20.116  1.00  0.00     0.121 C 
HETATM    8  C8  UNL     1     -28.546 -11.801  20.754  1.00  0.00     0.047 C 
HETATM    9  N1  UNL     1     -30.908 -11.825  20.690  1.00  0.00    -0.398 N 
ATOM     10  H1  UNL     1     -30.806 -11.295  21.556  1.00  0.00     0.155 HD
ENDROOT
BRANCH   7  11
HETATM   11  C9  UNL     1     -29.638 -13.908  20.402  1.00  0.00     0.411 C 
HETATM   12  F1  UNL     1     -28.304 -14.239  20.196  1.00  0.00    -0.168 F 
HETATM   13  F2  UNL     1     -30.397 -14.723  19.630  1.00  0.00    -0.168 F 
HETATM   14  F3  UNL     1     -29.931 -14.087  21.753  1.00  0.00    -0.168 F 
ENDBRANCH   7  11
TORSDOF 1
ENDMDL
MODEL 4
REMARK VINA RESULT: -6.059857062      1.696      2.772
REMARK  1 active torsions:
REMARK  status: ('A' for Active; 'I' for Inactive)
REMARK    1  A    between atoms: C7_7  and  C9_9 
ROOT
HETATM    1  C1  UNL     1     -29.275 -13.796  20.974  1.00  0.00     0.037 C 
HETATM    2  C2  UNL     1     -29.942 -12.499  20.492  1.00  0.00     0.019 C 
HETATM    3  C3  UNL     1     -28.814 -11.448  20.504  1.00  0.00     0.037 C 
HETATM    4  C4  UNL     1     -30.963 -12.044  21.452  1.00  0.00     0.030 C 
HETATM    5  C5  UNL     1     -32.314 -11.737  20.934  1.00  0.00     0.005 C 
HETATM    6  C6  UNL     1     -32.460 -11.733  19.448  1.00  0.00     0.039 C 
HETATM    7  C7  UNL     1     -31.651 -12.824  18.801  1.00  0.00     0.121 C 
HETATM    8  C8  UNL     1     -31.746 -12.582  17.281  1.00  0.00     0.047 C 
HETATM    9  N1  UNL     1     -30.305 -12.686  19.151  1.00  0.00    -0.398 N 
ATOM     10  H1  UNL     1     -29.584 -12.721  18.429  1.00  0.00     0.155 HD
ENDROOT
BRANCH   7  11
HETATM   11  C9  UNL     1     -32.239 -14.192  18.991  1.00  0.00     0.411 C 
HETATM   12  F1  UNL     1     -33.194 -14.383  17.999  1.00  0.00    -0.168 F 
HETATM   13  F2  UNL     1     -32.833 -14.395  20.191  1.00  0.00    -0.168 F 
HETATM   14  F3  UNL     1     -31.206 -15.105  18.786  1.00  0.00    -0.168 F 
ENDBRANCH   7  11
TORSDOF 1
ENDMDL
MODEL 5
REMARK VINA RESULT: -6.018998978      2.301      3.665
REMARK  1 active torsions:
REMARK  status: ('A' for Active; 'I' for Inactive)
REMARK    1  A    between atoms: C7_7  and  C9_9 
ROOT
HETATM    1  C1  UNL     1     -32.714 -11.250  21.285  1.00  0.00     0.037 C 
HETATM    2  C2  UNL     1     -32.635 -12.050  19.975  1.00  0.00     0.019 C 
HETATM    3  C3  UNL     1     -33.724 -11.435  19.073  1.00  0.00     0.037 C 
HETATM    4  C4  UNL     1     -33.006 -13.458  20.196  1.00  0.00     0.030 C 
HETATM    5  C5  UNL     1     -32.081 -14.503  19.706  1.00  0.00     0.005 C 
HETATM    6  C6  UNL     1     -30.946 -14.029  18.859  1.00  0.00     0.039 C 
HETATM    7  C7  UNL     1     -30.390 -12.719  19.347  1.00  0.00     0.121 C 
HETATM    8  C8  UNL     1     -29.370 -12.265  18.284  1.00  0.00     0.047 C 
HETATM    9  N1  UNL     1     -31.403 -11.756  19.377  1.00  0.00    -0.398 N 
ATOM     10  H1  UNL     1     -31.244 -10.838  18.962  1.00  0.00     0.155 HD
ENDROOT
BRANCH   7  11
HETATM   11  C9  UNL     1     -29.576 -12.851  20.602  1.00  0.00     0.411 C 
HETATM   12  F1  UNL     1     -28.455 -13.615  20.300  1.00  0.00    -0.168 F 
HETATM   13  F2  UNL     1     -30.218 -13.440  21.639  1.00  0.00    -0.168 F 
HETATM   14  F3  UNL     1     -29.152 -11.568  20.943  1.00  0.00    -0.168 F 
ENDBRANCH   7  11
TORSDOF 1
ENDMDL
