MODEL 1
REMARK VINA RESULT: -8.175192835      0.000      0.000
REMARK  1 active torsions:
REMARK  status: ('A' for Active; 'I' for Inactive)
REMARK    1  A    between atoms: C7_7  and  C8_8 
ROOT
HETATM    1  C1  UNL     1      30.737  67.112  42.512  1.00  0.00     0.049 C 
HETATM    2  C2  UNL     1      31.705  66.114  43.020  1.00  0.00    -0.051 A 
HETATM    3  C3  UNL     1      33.057  66.225  42.670  1.00  0.00     0.007 A 
HETATM    4  C4  UNL     1      34.015  65.336  43.102  1.00  0.00     0.001 A 
HETATM    5  C5  UNL     1      33.630  64.290  43.913  1.00  0.00     0.001 A 
HETATM    6  C6  UNL     1      32.314  64.147  44.278  1.00  0.00     0.013 A 
HETATM    7  C7  UNL     1      31.379  65.060  43.825  1.00  0.00    -0.020 A 
ENDROOT
BRANCH   7   8
HETATM    8  C8  UNL     1      29.983  64.860  44.247  1.00  0.00    -0.025 A 
HETATM    9  C9  UNL     1      28.966  65.591  44.659  1.00  0.00     0.012 A 
HETATM   10  C10 UNL     1      28.142  64.399  44.780  1.00  0.00     0.002 A 
HETATM   11  C11 UNL     1      29.139  63.664  44.374  1.00  0.00     0.012 A 
ENDBRANCH   7   8
TORSDOF 1
ENDMDL
MODEL 2
REMARK VINA RESULT: -8.103642732      3.103      4.549
REMARK  1 active torsions:
REMARK  status: ('A' for Active; 'I' for Inactive)
REMARK    1  A    between atoms: C7_7  and  C8_8 
ROOT
HETATM    1  C1  UNL     1      29.114  67.072  43.699  1.00  0.00     0.049 C 
HETATM    2  C2  UNL     1      29.067  66.028  44.748  1.00  0.00    -0.051 A 
HETATM    3  C3  UNL     1      28.666  64.728  44.410  1.00  0.00     0.007 A 
HETATM    4  C4  UNL     1      28.598  63.705  45.328  1.00  0.00     0.001 A 
HETATM    5  C5  UNL     1      28.939  63.968  46.638  1.00  0.00     0.001 A 
HETATM    6  C6  UNL     1      29.336  65.229  47.009  1.00  0.00     0.013 A 
HETATM    7  C7  UNL     1      29.393  66.232  46.058  1.00  0.00    -0.020 A 
ENDROOT
BRANCH   7   8
HETATM    8  C8  UNL     1      29.826  67.564  46.510  1.00  0.00    -0.025 A 
HETATM    9  C9  UNL     1      30.929  68.287  46.524  1.00  0.00     0.012 A 
HETATM   10  C10 UNL     1      30.222  69.377  47.177  1.00  0.00     0.002 A 
HETATM   11  C11 UNL     1      29.124  68.674  47.170  1.00  0.00     0.012 A 
ENDBRANCH   7   8
TORSDOF 1
ENDMDL
MODEL 3
REMARK VINA RESULT: -8.099596008      0.954      4.036
REMARK  1 active torsions:
REMARK  status: ('A' for Active; 'I' for Inactive)
REMARK    1  A    between atoms: C7_7  and  C8_8 
ROOT
HETATM    1  C1  UNL     1      31.045  67.585  44.310  1.00  0.00     0.049 C 
HETATM    2  C2  UNL     1      30.380  66.263  44.337  1.00  0.00    -0.051 A 
HETATM    3  C3  UNL     1      29.048  66.170  44.760  1.00  0.00     0.007 A 
HETATM    4  C4  UNL     1      28.363  64.977  44.812  1.00  0.00     0.001 A 
HETATM    5  C5  UNL     1      29.014  63.822  44.432  1.00  0.00     0.001 A 
HETATM    6  C6  UNL     1      30.321  63.872  44.012  1.00  0.00     0.013 A 
HETATM    7  C7  UNL     1      30.976  65.090  43.972  1.00  0.00    -0.020 A 
ENDROOT
BRANCH   7   8
HETATM    8  C8  UNL     1      32.375  65.086  43.513  1.00  0.00    -0.025 A 
HETATM    9  C9  UNL     1      33.055  65.404  42.428  1.00  0.00     0.012 A 
HETATM   10  C10 UNL     1      34.296  65.009  43.074  1.00  0.00     0.002 A 
HETATM   11  C11 UNL     1      33.637  64.691  44.154  1.00  0.00     0.012 A 
ENDBRANCH   7   8
TORSDOF 1
ENDMDL
MODEL 4
REMARK VINA RESULT: -8.089111087      1.463      4.393
REMARK  1 active torsions:
REMARK  status: ('A' for Active; 'I' for Inactive)
REMARK    1  A    between atoms: C7_7  and  C8_8 
ROOT
HETATM    1  C1  UNL     1      32.004  65.650  46.838  1.00  0.00     0.049 C 
HETATM    2  C2  UNL     1      30.917  65.019  46.056  1.00  0.00    -0.051 A 
HETATM    3  C3  UNL     1      29.697  64.727  46.682  1.00  0.00     0.007 A 
HETATM    4  C4  UNL     1      28.641  64.142  46.022  1.00  0.00     0.001 A 
HETATM    5  C5  UNL     1      28.786  63.828  44.687  1.00  0.00     0.001 A 
HETATM    6  C6  UNL     1      29.966  64.098  44.038  1.00  0.00     0.013 A 
HETATM    7  C7  UNL     1      31.006  64.687  44.735  1.00  0.00    -0.020 A 
ENDROOT
BRANCH   7   8
HETATM    8  C8  UNL     1      32.247  64.956  43.991  1.00  0.00    -0.025 A 
HETATM    9  C9  UNL     1      32.688  65.810  43.088  1.00  0.00     0.012 A 
HETATM   10  C10 UNL     1      33.989  65.161  43.089  1.00  0.00     0.002 A 
HETATM   11  C11 UNL     1      33.567  64.309  43.981  1.00  0.00     0.012 A 
ENDBRANCH   7   8
TORSDOF 1
ENDMDL
MODEL 5
REMARK VINA RESULT: -7.965101182      1.010      2.465
REMARK  1 active torsions:
REMARK  status: ('A' for Active; 'I' for Inactive)
REMARK    1  A    between atoms: C7_7  and  C8_8 
ROOT
HETATM    1  C1  UNL     1      32.195  63.745  43.773  1.00  0.00     0.049 C 
HETATM    2  C2  UNL     1      31.651  65.039  43.302  1.00  0.00    -0.051 A 
HETATM    3  C3  UNL     1      32.356  65.773  42.338  1.00  0.00     0.007 A 
HETATM    4  C4  UNL     1      31.914  66.982  41.851  1.00  0.00     0.001 A 
HETATM    5  C5  UNL     1      30.728  67.496  42.332  1.00  0.00     0.001 A 
HETATM    6  C6  UNL     1      30.009  66.807  43.277  1.00  0.00     0.013 A 
HETATM    7  C7  UNL     1      30.484  65.594  43.742  1.00  0.00    -0.020 A 
ENDROOT
BRANCH   7   8
HETATM    8  C8  UNL     1      29.673  64.898  44.754  1.00  0.00    -0.025 A 
HETATM    9  C9  UNL     1      29.538  64.882  46.066  1.00  0.00     0.012 A 
HETATM   10  C10 UNL     1      28.503  63.868  45.961  1.00  0.00     0.002 A 
HETATM   11  C11 UNL     1      28.625  63.872  44.663  1.00  0.00     0.012 A 
ENDBRANCH   7   8
TORSDOF 1
ENDMDL
