MODEL 1
REMARK VINA RESULT: -9.606507174      0.000      0.000
REMARK  18 active torsions:
REMARK  status: ('A' for Active; 'I' for Inactive)
REMARK    1  A    between atoms: N1_1  and  C1_5 
REMARK    2  A    between atoms: C1_5  and  C2_6 
REMARK    3  A    between atoms: C1_5  and  C12_38 
REMARK       I    between atoms: C2_6  and  N2_8 
REMARK    4  A    between atoms: N2_8  and  S1_10 
REMARK    5  A    between atoms: S1_10  and  O4_13 
REMARK    6  A    between atoms: O4_13  and  C3_14 
REMARK    7  A    between atoms: C3_14  and  N3_15 
REMARK    8  A    between atoms: C4_18  and  N5_19 
REMARK    9  A    between atoms: N5_19  and  C5_21 
REMARK   10  A    between atoms: C5_21  and  O5_22 
REMARK   11  A    between atoms: C5_21  and  C6_24 
REMARK   12  A    between atoms: C8_27  and  O7_28 
REMARK   13  A    between atoms: C10_31  and  O8_32 
REMARK   14  A    between atoms: C11_34  and  N6_35 
REMARK       I    between atoms: C12_38  and  N7_40 
REMARK   15  A    between atoms: C17_46  and  N8_47 
REMARK   16  A    between atoms: C18_50  and  C19_51 
REMARK   17  A    between atoms: C19_51  and  O14_52 
REMARK   18  A    between atoms: C19_51  and  O15_54 
ROOT
HETATM    1  S1  UNL     1     -29.197  52.201 -26.362  1.00  0.00     0.369 S 
HETATM    2  O2  UNL     1     -30.056  50.910 -26.569  1.00  0.00    -0.175 OA
HETATM    3  O3  UNL     1     -27.851  51.705 -25.883  1.00  0.00    -0.175 OA
ENDROOT
BRANCH   1   4
HETATM    4  N2  UNL     1     -29.983  53.072 -25.105  1.00  0.00    -0.229 N 
HETATM    5  C2  UNL     1     -30.032  52.639 -23.758  1.00  0.00     0.272 C 
HETATM    6  O1  UNL     1     -29.479  51.570 -23.432  1.00  0.00    -0.270 OA
ATOM      7  H2  UNL     1     -30.440  53.952 -25.344  1.00  0.00     0.183 HD
BRANCH   5   8
HETATM    8  C1  UNL     1     -30.757  53.480 -22.752  1.00  0.00     0.366 C 
BRANCH   8   9
HETATM    9  N1  UNL     1     -31.483  52.526 -21.847  1.00  0.00    -0.058 N 
ATOM     10  H13 UNL     1     -31.068  51.594 -21.826  1.00  0.00     0.275 HD
ATOM     11  H12 UNL     1     -31.364  52.738 -20.856  1.00  0.00     0.275 HD
ATOM     12  H11 UNL     1     -32.457  52.529 -22.149  1.00  0.00     0.275 HD
ENDBRANCH   8   9
BRANCH   8  13
HETATM   13  C12 UNL     1     -31.730  54.419 -23.294  1.00  0.00     0.261 C 
HETATM   14  O11 UNL     1     -32.894  53.951 -23.548  1.00  0.00    -0.270 OA
HETATM   15  N7  UNL     1     -31.440  55.790 -23.530  1.00  0.00    -0.324 N 
HETATM   16  C13 UNL     1     -30.130  56.279 -23.293  1.00  0.00     0.154 C 
HETATM   17  C18 UNL     1     -32.559  56.618 -23.920  1.00  0.00     0.172 C 
HETATM   18  S2  UNL     1     -29.198  56.966 -24.690  1.00  0.00    -0.143 SA
HETATM   19  C15 UNL     1     -30.085  57.593 -22.559  1.00  0.00     0.030 C 
HETATM   20  C14 UNL     1     -28.951  58.192 -23.382  1.00  0.00     0.083 C 
HETATM   21  C16 UNL     1     -31.310  58.426 -22.646  1.00  0.00     0.042 C 
HETATM   22  C17 UNL     1     -32.605  57.724 -22.884  1.00  0.00     0.184 C 
BRANCH  22  23
HETATM   23  N8  UNL     1     -33.599  58.694 -23.323  1.00  0.00    -0.148 N 
HETATM   24  O12 UNL     1     -33.270  59.801 -23.788  1.00  0.00    -0.536 OA
HETATM   25  O13 UNL     1     -34.929  58.331 -23.196  1.00  0.00    -0.536 OA
ENDBRANCH  22  23
BRANCH  17  26
HETATM   26  C19 UNL     1     -32.596  57.124 -25.311  1.00  0.00     0.278 C 
BRANCH  26  27
HETATM   27  O14 UNL     1     -33.852  57.629 -25.707  1.00  0.00    -0.369 OA
ATOM     28  H14 UNL     1     -34.418  56.983 -26.115  1.00  0.00     0.212 HD
ENDBRANCH  26  27
BRANCH  26  29
HETATM   29  O15 UNL     1     -32.005  56.348 -26.284  1.00  0.00    -0.369 OA
ATOM     30  H15 UNL     1     -31.712  56.786 -27.075  1.00  0.00     0.212 HD
ENDBRANCH  26  29
ENDBRANCH  17  26
ENDBRANCH   8  13
ENDBRANCH   5   8
ENDBRANCH   1   4
BRANCH   1  31
HETATM   31  O4  UNL     1     -29.072  52.989 -27.760  1.00  0.00    -0.209 OA
BRANCH  31  32
HETATM   32  C3  UNL     1     -29.155  54.280 -27.996  1.00  0.00     0.276 C 
BRANCH  32  33
HETATM   33  N3  UNL     1     -29.828  54.721 -29.196  1.00  0.00    -0.218 N 
HETATM   34  N4  UNL     1     -30.814  55.629 -29.132  1.00  0.00    -0.273 N 
HETATM   35  C4  UNL     1     -31.314  55.876 -30.359  1.00  0.00     0.156 A 
ATOM     36  H4  UNL     1     -31.139  56.072 -28.273  1.00  0.00     0.189 HD
HETATM   37  C10 UNL     1     -30.576  55.056 -31.217  1.00  0.00     0.164 A 
HETATM   38  C11 UNL     1     -29.644  54.340 -30.454  1.00  0.00     0.233 A 
BRANCH  35  39
HETATM   39  N5  UNL     1     -32.265  56.697 -30.649  1.00  0.00    -0.343 N 
ATOM     40  H5  UNL     1     -32.073  57.699 -30.654  1.00  0.00     0.164 HD
BRANCH  39  41
HETATM   41  C5  UNL     1     -33.589  56.237 -30.964  1.00  0.00     0.255 C 
BRANCH  41  42
HETATM   42  O5  UNL     1     -33.662  55.952 -32.339  1.00  0.00    -0.372 OA
ATOM     43  H5  UNL     1     -34.451  56.343 -32.697  1.00  0.00     0.212 HD
ENDBRANCH  41  42
BRANCH  41  44
HETATM   44  C6  UNL     1     -34.604  57.313 -30.719  1.00  0.00     0.017 A 
HETATM   45  C7  UNL     1     -35.808  57.152 -30.084  1.00  0.00     0.156 A 
HETATM   46  O6  UNL     1     -36.418  58.308 -30.053  1.00  0.00    -0.300 OA
HETATM   47  C8  UNL     1     -35.679  59.234 -30.636  1.00  0.00     0.183 A 
HETATM   48  C9  UNL     1     -34.519  58.645 -31.074  1.00  0.00     0.077 A 
BRANCH  47  49
HETATM   49  O7  UNL     1     -36.035  60.588 -30.777  1.00  0.00    -0.341 OA
ATOM     50  H7  UNL     1     -35.772  61.152 -31.495  1.00  0.00     0.220 HD
ENDBRANCH  47  49
ENDBRANCH  41  44
ENDBRANCH  39  41
ENDBRANCH  35  39
BRANCH  37  51
HETATM   51  O8  UNL     1     -30.757  54.989 -32.565  1.00  0.00    -0.354 OA
ATOM     52  H8  UNL     1     -30.647  54.201 -33.084  1.00  0.00     0.218 HD
ENDBRANCH  37  51
BRANCH  38  53
HETATM   53  N6  UNL     1     -28.700  53.443 -31.012  1.00  0.00    -0.093 N 
HETATM   54  O9  UNL     1     -28.937  52.224 -31.177  1.00  0.00    -0.530 OA
HETATM   55  O10 UNL     1     -27.445  53.856 -31.413  1.00  0.00    -0.530 OA
ENDBRANCH  38  53
ENDBRANCH  32  33
ENDBRANCH  31  32
ENDBRANCH   1  31
TORSDOF 18
ENDMDL
MODEL 2
REMARK VINA RESULT: -9.596967027      3.262      5.618
REMARK  18 active torsions:
REMARK  status: ('A' for Active; 'I' for Inactive)
REMARK    1  A    between atoms: N1_1  and  C1_5 
REMARK    2  A    between atoms: C1_5  and  C2_6 
REMARK    3  A    between atoms: C1_5  and  C12_38 
REMARK       I    between atoms: C2_6  and  N2_8 
REMARK    4  A    between atoms: N2_8  and  S1_10 
REMARK    5  A    between atoms: S1_10  and  O4_13 
REMARK    6  A    between atoms: O4_13  and  C3_14 
REMARK    7  A    between atoms: C3_14  and  N3_15 
REMARK    8  A    between atoms: C4_18  and  N5_19 
REMARK    9  A    between atoms: N5_19  and  C5_21 
REMARK   10  A    between atoms: C5_21  and  O5_22 
REMARK   11  A    between atoms: C5_21  and  C6_24 
REMARK   12  A    between atoms: C8_27  and  O7_28 
REMARK   13  A    between atoms: C10_31  and  O8_32 
REMARK   14  A    between atoms: C11_34  and  N6_35 
REMARK       I    between atoms: C12_38  and  N7_40 
REMARK   15  A    between atoms: C17_46  and  N8_47 
REMARK   16  A    between atoms: C18_50  and  C19_51 
REMARK   17  A    between atoms: C19_51  and  O14_52 
REMARK   18  A    between atoms: C19_51  and  O15_54 
ROOT
HETATM    1  S1  UNL     1     -29.135  52.147 -26.646  1.00  0.00     0.369 S 
HETATM    2  O2  UNL     1     -30.295  51.215 -26.165  1.00  0.00    -0.175 OA
HETATM    3  O3  UNL     1     -27.921  51.700 -25.863  1.00  0.00    -0.175 OA
ENDROOT
BRANCH   1   4
HETATM    4  N2  UNL     1     -29.595  53.732 -26.163  1.00  0.00    -0.229 N 
HETATM    5  C2  UNL     1     -28.673  54.748 -25.815  1.00  0.00     0.272 C 
HETATM    6  O1  UNL     1     -27.449  54.512 -25.854  1.00  0.00    -0.270 OA
ATOM      7  H2  UNL     1     -30.590  53.952 -26.126  1.00  0.00     0.183 HD
BRANCH   5   8
HETATM    8  C1  UNL     1     -29.195  56.089 -25.399  1.00  0.00     0.366 C 
BRANCH   8   9
HETATM    9  N1  UNL     1     -28.001  56.891 -24.963  1.00  0.00    -0.058 N 
ATOM     10  H13 UNL     1     -28.034  57.163 -23.980  1.00  0.00     0.275 HD
ATOM     11  H12 UNL     1     -27.142  56.342 -24.913  1.00  0.00     0.275 HD
ATOM     12  H11 UNL     1     -27.939  57.684 -25.601  1.00  0.00     0.275 HD
ENDBRANCH   8   9
BRANCH   8  13
HETATM   13  C12 UNL     1     -30.160  56.084 -24.308  1.00  0.00     0.261 C 
HETATM   14  O11 UNL     1     -30.084  55.107 -23.484  1.00  0.00    -0.270 OA
HETATM   15  N7  UNL     1     -31.139  57.098 -24.131  1.00  0.00    -0.324 N 
HETATM   16  C13 UNL     1     -31.243  58.144 -25.083  1.00  0.00     0.154 C 
HETATM   17  C18 UNL     1     -31.915  57.027 -22.913  1.00  0.00     0.172 C 
HETATM   18  S2  UNL     1     -32.796  58.324 -26.002  1.00  0.00    -0.143 SA
HETATM   19  C15 UNL     1     -31.389  59.516 -24.479  1.00  0.00     0.030 C 
HETATM   20  C14 UNL     1     -32.424  60.016 -25.479  1.00  0.00     0.083 C 
HETATM   21  C16 UNL     1     -31.917  59.560 -23.092  1.00  0.00     0.042 C 
HETATM   22  C17 UNL     1     -31.692  58.363 -22.231  1.00  0.00     0.184 C 
BRANCH  22  23
HETATM   23  N8  UNL     1     -32.591  58.424 -21.086  1.00  0.00    -0.148 N 
HETATM   24  O12 UNL     1     -32.348  57.807 -20.033  1.00  0.00    -0.536 OA
HETATM   25  O13 UNL     1     -33.733  59.195 -21.224  1.00  0.00    -0.536 OA
ENDBRANCH  22  23
BRANCH  17  26
HETATM   26  C19 UNL     1     -33.345  56.661 -23.021  1.00  0.00     0.278 C 
BRANCH  26  27
HETATM   27  O14 UNL     1     -33.919  56.215 -21.812  1.00  0.00    -0.369 OA
ATOM     28  H14 UNL     1     -34.862  56.322 -21.768  1.00  0.00     0.212 HD
ENDBRANCH  26  27
BRANCH  26  29
HETATM   29  O15 UNL     1     -33.724  55.896 -24.103  1.00  0.00    -0.369 OA
ATOM     30  H15 UNL     1     -33.651  54.952 -24.018  1.00  0.00     0.212 HD
ENDBRANCH  26  29
ENDBRANCH  17  26
ENDBRANCH   8  13
ENDBRANCH   5   8
ENDBRANCH   1   4
BRANCH   1  31
HETATM   31  O4  UNL     1     -28.918  51.955 -28.230  1.00  0.00    -0.209 OA
BRANCH  31  32
HETATM   32  C3  UNL     1     -29.689  52.335 -29.226  1.00  0.00     0.276 C 
BRANCH  32  33
HETATM   33  N3  UNL     1     -29.066  52.778 -30.451  1.00  0.00    -0.218 N 
HETATM   34  N4  UNL     1     -27.960  52.175 -30.913  1.00  0.00    -0.273 N 
HETATM   35  C4  UNL     1     -27.538  52.761 -32.051  1.00  0.00     0.156 A 
ATOM     36  H4  UNL     1     -27.502  51.381 -30.465  1.00  0.00     0.189 HD
HETATM   37  C10 UNL     1     -28.455  53.789 -32.285  1.00  0.00     0.164 A 
HETATM   38  C11 UNL     1     -29.410  53.774 -31.259  1.00  0.00     0.233 A 
BRANCH  35  39
HETATM   39  N5  UNL     1     -26.508  52.425 -32.751  1.00  0.00    -0.343 N 
ATOM     40  H5  UNL     1     -25.712  53.061 -32.801  1.00  0.00     0.164 HD
BRANCH  39  41
HETATM   41  C5  UNL     1     -26.452  51.178 -33.461  1.00  0.00     0.255 C 
BRANCH  41  42
HETATM   42  O5  UNL     1     -25.228  51.094 -34.148  1.00  0.00    -0.372 OA
ATOM     43  H5  UNL     1     -25.391  50.806 -35.039  1.00  0.00     0.212 HD
ENDBRANCH  41  42
BRANCH  41  44
HETATM   44  C6  UNL     1     -27.516  51.112 -34.516  1.00  0.00     0.017 A 
HETATM   45  C7  UNL     1     -27.613  51.931 -35.610  1.00  0.00     0.156 A 
HETATM   46  O6  UNL     1     -28.661  51.573 -36.304  1.00  0.00    -0.300 OA
HETATM   47  C8  UNL     1     -29.270  50.554 -35.726  1.00  0.00     0.183 A 
HETATM   48  C9  UNL     1     -28.575  50.230 -34.587  1.00  0.00     0.077 A 
BRANCH  47  49
HETATM   49  O7  UNL     1     -30.430  49.920 -36.208  1.00  0.00    -0.341 OA
ATOM     50  H7  UNL     1     -31.203  49.726 -35.691  1.00  0.00     0.220 HD
ENDBRANCH  47  49
ENDBRANCH  41  44
ENDBRANCH  39  41
ENDBRANCH  35  39
BRANCH  37  51
HETATM   51  O8  UNL     1     -28.402  54.644 -33.344  1.00  0.00    -0.354 OA
ATOM     52  H8  UNL     1     -28.445  54.376 -34.255  1.00  0.00     0.218 HD
ENDBRANCH  37  51
BRANCH  38  53
HETATM   53  N6  UNL     1     -30.516  54.657 -31.207  1.00  0.00    -0.093 N 
HETATM   54  O9  UNL     1     -30.400  55.899 -31.330  1.00  0.00    -0.530 OA
HETATM   55  O10 UNL     1     -31.806  54.206 -31.015  1.00  0.00    -0.530 OA
ENDBRANCH  38  53
ENDBRANCH  32  33
ENDBRANCH  31  32
ENDBRANCH   1  31
TORSDOF 18
ENDMDL
MODEL 3
REMARK VINA RESULT: -9.442618479      2.970      5.275
REMARK  18 active torsions:
REMARK  status: ('A' for Active; 'I' for Inactive)
REMARK    1  A    between atoms: N1_1  and  C1_5 
REMARK    2  A    between atoms: C1_5  and  C2_6 
REMARK    3  A    between atoms: C1_5  and  C12_38 
REMARK       I    between atoms: C2_6  and  N2_8 
REMARK    4  A    between atoms: N2_8  and  S1_10 
REMARK    5  A    between atoms: S1_10  and  O4_13 
REMARK    6  A    between atoms: O4_13  and  C3_14 
REMARK    7  A    between atoms: C3_14  and  N3_15 
REMARK    8  A    between atoms: C4_18  and  N5_19 
REMARK    9  A    between atoms: N5_19  and  C5_21 
REMARK   10  A    between atoms: C5_21  and  O5_22 
REMARK   11  A    between atoms: C5_21  and  C6_24 
REMARK   12  A    between atoms: C8_27  and  O7_28 
REMARK   13  A    between atoms: C10_31  and  O8_32 
REMARK   14  A    between atoms: C11_34  and  N6_35 
REMARK       I    between atoms: C12_38  and  N7_40 
REMARK   15  A    between atoms: C17_46  and  N8_47 
REMARK   16  A    between atoms: C18_50  and  C19_51 
REMARK   17  A    between atoms: C19_51  and  O14_52 
REMARK   18  A    between atoms: C19_51  and  O15_54 
ROOT
HETATM    1  S1  UNL     1     -30.883  55.700 -24.914  1.00  0.00     0.369 S 
HETATM    2  O2  UNL     1     -31.402  56.076 -26.341  1.00  0.00    -0.175 OA
HETATM    3  O3  UNL     1     -31.426  54.314 -24.650  1.00  0.00    -0.175 OA
ENDROOT
BRANCH   1   4
HETATM    4  N2  UNL     1     -31.620  56.833 -23.850  1.00  0.00    -0.229 N 
HETATM    5  C2  UNL     1     -31.310  58.214 -23.833  1.00  0.00     0.272 C 
HETATM    6  O1  UNL     1     -30.460  58.667 -24.625  1.00  0.00    -0.270 OA
ATOM      7  H2  UNL     1     -32.322  56.489 -23.195  1.00  0.00     0.183 HD
BRANCH   5   8
HETATM    8  C1  UNL     1     -32.013  59.102 -22.852  1.00  0.00     0.366 C 
BRANCH   8   9
HETATM    9  N1  UNL     1     -30.996  60.105 -22.386  1.00  0.00    -0.058 N 
ATOM     10  H13 UNL     1     -30.387  59.750 -21.648  1.00  0.00     0.275 HD
ATOM     11  H12 UNL     1     -30.266  60.291 -23.074  1.00  0.00     0.275 HD
ATOM     12  H11 UNL     1     -31.518  60.938 -22.114  1.00  0.00     0.275 HD
ENDBRANCH   8   9
BRANCH   8  13
HETATM   13  C12 UNL     1     -32.566  58.438 -21.679  1.00  0.00     0.261 C 
HETATM   14  O11 UNL     1     -31.741  58.157 -20.741  1.00  0.00    -0.270 OA
HETATM   15  N7  UNL     1     -33.943  58.117 -21.544  1.00  0.00    -0.324 N 
HETATM   16  C13 UNL     1     -34.833  58.388 -22.615  1.00  0.00     0.154 C 
HETATM   17  C18 UNL     1     -34.353  57.604 -20.256  1.00  0.00     0.172 C 
HETATM   18  S2  UNL     1     -35.702  56.997 -23.389  1.00  0.00    -0.143 SA
HETATM   19  C15 UNL     1     -36.131  59.022 -22.193  1.00  0.00     0.030 C 
HETATM   20  C14 UNL     1     -37.012  58.220 -23.143  1.00  0.00     0.083 C 
HETATM   21  C16 UNL     1     -36.529  58.805 -20.780  1.00  0.00     0.042 C 
HETATM   22  C17 UNL     1     -35.442  58.551 -19.790  1.00  0.00     0.184 C 
BRANCH  22  23
HETATM   23  N8  UNL     1     -36.023  57.986 -18.579  1.00  0.00    -0.148 N 
HETATM   24  O12 UNL     1     -37.217  57.636 -18.530  1.00  0.00    -0.536 OA
HETATM   25  O13 UNL     1     -35.189  57.861 -17.481  1.00  0.00    -0.536 OA
ENDBRANCH  22  23
BRANCH  17  26
HETATM   26  C19 UNL     1     -34.746  56.180 -20.169  1.00  0.00     0.278 C 
BRANCH  26  27
HETATM   27  O14 UNL     1     -33.884  55.302 -20.858  1.00  0.00    -0.369 OA
ATOM     28  H14 UNL     1     -33.291  54.817 -20.294  1.00  0.00     0.212 HD
ENDBRANCH  26  27
BRANCH  26  29
HETATM   29  O15 UNL     1     -36.076  55.876 -20.358  1.00  0.00    -0.369 OA
ATOM     30  H15 UNL     1     -36.521  56.295 -21.086  1.00  0.00     0.212 HD
ENDBRANCH  26  29
ENDBRANCH  17  26
ENDBRANCH   8  13
ENDBRANCH   5   8
ENDBRANCH   1   4
BRANCH   1  31
HETATM   31  O4  UNL     1     -29.273  55.713 -24.911  1.00  0.00    -0.209 OA
BRANCH  31  32
HETATM   32  C3  UNL     1     -28.434  54.885 -25.496  1.00  0.00     0.276 C 
BRANCH  32  33
HETATM   33  N3  UNL     1     -28.729  54.436 -26.836  1.00  0.00    -0.218 N 
HETATM   34  N4  UNL     1     -28.812  55.313 -27.848  1.00  0.00    -0.273 N 
HETATM   35  C4  UNL     1     -29.117  54.683 -29.000  1.00  0.00     0.156 A 
ATOM     36  H4  UNL     1     -28.665  56.318 -27.757  1.00  0.00     0.189 HD
HETATM   37  C10 UNL     1     -29.225  53.334 -28.652  1.00  0.00     0.164 A 
HETATM   38  C11 UNL     1     -28.973  53.209 -27.279  1.00  0.00     0.233 A 
BRANCH  35  39
HETATM   39  N5  UNL     1     -29.269  55.232 -30.157  1.00  0.00    -0.343 N 
ATOM     40  H5  UNL     1     -28.492  55.222 -30.818  1.00  0.00     0.164 HD
BRANCH  39  41
HETATM   41  C5  UNL     1     -30.504  55.857 -30.540  1.00  0.00     0.255 C 
BRANCH  41  42
HETATM   42  O5  UNL     1     -31.402  55.803 -29.459  1.00  0.00    -0.372 OA
ATOM     43  H5  UNL     1     -31.431  56.653 -29.036  1.00  0.00     0.212 HD
ENDBRANCH  41  42
BRANCH  41  44
HETATM   44  C6  UNL     1     -31.165  55.103 -31.655  1.00  0.00     0.017 A 
HETATM   45  C7  UNL     1     -30.564  54.177 -32.466  1.00  0.00     0.156 A 
HETATM   46  O6  UNL     1     -31.451  53.730 -33.315  1.00  0.00    -0.300 OA
HETATM   47  C8  UNL     1     -32.618  54.314 -33.111  1.00  0.00     0.183 A 
HETATM   48  C9  UNL     1     -32.481  55.193 -32.066  1.00  0.00     0.077 A 
BRANCH  47  49
HETATM   49  O7  UNL     1     -33.791  54.065 -33.847  1.00  0.00    -0.341 OA
ATOM     50  H7  UNL     1     -34.048  53.221 -34.199  1.00  0.00     0.220 HD
ENDBRANCH  47  49
ENDBRANCH  41  44
ENDBRANCH  39  41
ENDBRANCH  35  39
BRANCH  37  51
HETATM   51  O8  UNL     1     -29.526  52.334 -29.526  1.00  0.00    -0.354 OA
ATOM     52  H8  UNL     1     -28.895  51.908 -30.094  1.00  0.00     0.218 HD
ENDBRANCH  37  51
BRANCH  38  53
HETATM   53  N6  UNL     1     -28.956  51.967 -26.597  1.00  0.00    -0.093 N 
HETATM   54  O9  UNL     1     -27.991  51.594 -25.890  1.00  0.00    -0.530 OA
HETATM   55  O10 UNL     1     -30.009  51.077 -26.669  1.00  0.00    -0.530 OA
ENDBRANCH  38  53
ENDBRANCH  32  33
ENDBRANCH  31  32
ENDBRANCH   1  31
TORSDOF 18
ENDMDL
MODEL 4
REMARK VINA RESULT: -9.435123613      2.753      6.591
REMARK  18 active torsions:
REMARK  status: ('A' for Active; 'I' for Inactive)
REMARK    1  A    between atoms: N1_1  and  C1_5 
REMARK    2  A    between atoms: C1_5  and  C2_6 
REMARK    3  A    between atoms: C1_5  and  C12_38 
REMARK       I    between atoms: C2_6  and  N2_8 
REMARK    4  A    between atoms: N2_8  and  S1_10 
REMARK    5  A    between atoms: S1_10  and  O4_13 
REMARK    6  A    between atoms: O4_13  and  C3_14 
REMARK    7  A    between atoms: C3_14  and  N3_15 
REMARK    8  A    between atoms: C4_18  and  N5_19 
REMARK    9  A    between atoms: N5_19  and  C5_21 
REMARK   10  A    between atoms: C5_21  and  O5_22 
REMARK   11  A    between atoms: C5_21  and  C6_24 
REMARK   12  A    between atoms: C8_27  and  O7_28 
REMARK   13  A    between atoms: C10_31  and  O8_32 
REMARK   14  A    between atoms: C11_34  and  N6_35 
REMARK       I    between atoms: C12_38  and  N7_40 
REMARK   15  A    between atoms: C17_46  and  N8_47 
REMARK   16  A    between atoms: C18_50  and  C19_51 
REMARK   17  A    between atoms: C19_51  and  O14_52 
REMARK   18  A    between atoms: C19_51  and  O15_54 
ROOT
HETATM    1  S1  UNL     1     -34.922  58.126 -30.427  1.00  0.00     0.369 S 
HETATM    2  O2  UNL     1     -35.387  59.396 -31.212  1.00  0.00    -0.175 OA
HETATM    3  O3  UNL     1     -36.198  57.464 -29.958  1.00  0.00    -0.175 OA
ENDROOT
BRANCH   1   4
HETATM    4  N2  UNL     1     -34.040  58.725 -29.077  1.00  0.00    -0.229 N 
HETATM    5  C2  UNL     1     -34.635  59.399 -27.984  1.00  0.00     0.272 C 
HETATM    6  O1  UNL     1     -35.869  59.582 -27.968  1.00  0.00    -0.270 OA
ATOM      7  H2  UNL     1     -33.030  58.585 -29.063  1.00  0.00     0.183 HD
BRANCH   5   8
HETATM    8  C1  UNL     1     -33.761  59.884 -26.869  1.00  0.00     0.366 C 
BRANCH   8   9
HETATM    9  N1  UNL     1     -32.719  60.764 -27.500  1.00  0.00    -0.058 N 
ATOM     10  H13 UNL     1     -31.827  60.291 -27.650  1.00  0.00     0.275 HD
ATOM     11  H12 UNL     1     -32.912  60.983 -28.477  1.00  0.00     0.275 HD
ATOM     12  H11 UNL     1     -32.643  61.590 -26.906  1.00  0.00     0.275 HD
ENDBRANCH   8   9
BRANCH   8  13
HETATM   13  C12 UNL     1     -33.077  58.850 -26.103  1.00  0.00     0.261 C 
HETATM   14  O11 UNL     1     -32.789  57.773 -26.732  1.00  0.00    -0.270 OA
HETATM   15  N7  UNL     1     -32.725  59.000 -24.735  1.00  0.00    -0.324 N 
HETATM   16  C13 UNL     1     -33.099  60.179 -24.041  1.00  0.00     0.154 C 
HETATM   17  C18 UNL     1     -31.913  57.946 -24.169  1.00  0.00     0.172 C 
HETATM   18  S2  UNL     1     -34.206  60.026 -22.613  1.00  0.00    -0.143 SA
HETATM   19  C15 UNL     1     -32.006  60.766 -23.188  1.00  0.00     0.030 C 
HETATM   20  C14 UNL     1     -32.906  61.133 -22.014  1.00  0.00     0.083 C 
HETATM   21  C16 UNL     1     -30.935  59.828 -22.772  1.00  0.00     0.042 C 
HETATM   22  C17 UNL     1     -30.674  58.648 -23.646  1.00  0.00     0.184 C 
BRANCH  22  23
HETATM   23  N8  UNL     1     -29.898  57.665 -22.902  1.00  0.00    -0.148 N 
HETATM   24  O12 UNL     1     -29.960  57.588 -21.661  1.00  0.00    -0.536 OA
HETATM   25  O13 UNL     1     -29.080  56.824 -23.636  1.00  0.00    -0.536 OA
ENDBRANCH  22  23
BRANCH  17  26
HETATM   26  C19 UNL     1     -32.537  57.050 -23.171  1.00  0.00     0.278 C 
BRANCH  26  27
HETATM   27  O14 UNL     1     -31.814  55.863 -22.929  1.00  0.00    -0.369 OA
ATOM     28  H14 UNL     1     -31.849  55.564 -22.027  1.00  0.00     0.212 HD
ENDBRANCH  26  27
BRANCH  26  29
HETATM   29  O15 UNL     1     -33.894  56.832 -23.275  1.00  0.00    -0.369 OA
ATOM     30  H15 UNL     1     -34.372  56.658 -22.472  1.00  0.00     0.212 HD
ENDBRANCH  26  29
ENDBRANCH  17  26
ENDBRANCH   8  13
ENDBRANCH   5   8
ENDBRANCH   1   4
BRANCH   1  31
HETATM   31  O4  UNL     1     -34.087  57.165 -31.413  1.00  0.00    -0.209 OA
BRANCH  31  32
HETATM   32  C3  UNL     1     -33.737  55.908 -31.247  1.00  0.00     0.276 C 
BRANCH  32  33
HETATM   33  N3  UNL     1     -32.363  55.611 -30.917  1.00  0.00    -0.218 N 
HETATM   34  N4  UNL     1     -31.816  56.078 -29.785  1.00  0.00    -0.273 N 
HETATM   35  C4  UNL     1     -30.524  55.702 -29.689  1.00  0.00     0.156 A 
ATOM     36  H4  UNL     1     -32.309  56.640 -29.091  1.00  0.00     0.189 HD
HETATM   37  C10 UNL     1     -30.282  54.959 -30.848  1.00  0.00     0.164 A 
HETATM   38  C11 UNL     1     -31.462  54.917 -31.603  1.00  0.00     0.233 A 
BRANCH  35  39
HETATM   39  N5  UNL     1     -29.714  55.981 -28.726  1.00  0.00    -0.343 N 
ATOM     40  H5  UNL     1     -28.784  56.337 -28.947  1.00  0.00     0.164 HD
BRANCH  39  41
HETATM   41  C5  UNL     1     -30.085  55.802 -27.351  1.00  0.00     0.255 C 
BRANCH  41  42
HETATM   42  O5  UNL     1     -29.791  56.978 -26.638  1.00  0.00    -0.372 OA
ATOM     43  H5  UNL     1     -29.920  56.819 -25.710  1.00  0.00     0.212 HD
ENDBRANCH  41  42
BRANCH  41  44
HETATM   44  C6  UNL     1     -29.266  54.722 -26.709  1.00  0.00     0.017 A 
HETATM   45  C7  UNL     1     -28.000  54.866 -26.207  1.00  0.00     0.156 A 
HETATM   46  O6  UNL     1     -27.611  53.715 -25.724  1.00  0.00    -0.300 OA
HETATM   47  C8  UNL     1     -28.559  52.808 -25.880  1.00  0.00     0.183 A 
HETATM   48  C9  UNL     1     -29.627  53.405 -26.502  1.00  0.00     0.077 A 
BRANCH  47  49
HETATM   49  O7  UNL     1     -28.472  51.464 -25.473  1.00  0.00    -0.341 OA
ATOM     50  H7  UNL     1     -29.177  50.830 -25.521  1.00  0.00     0.220 HD
ENDBRANCH  47  49
ENDBRANCH  41  44
ENDBRANCH  39  41
ENDBRANCH  35  39
BRANCH  37  51
HETATM   51  O8  UNL     1     -29.088  54.385 -31.160  1.00  0.00    -0.354 OA
ATOM     52  H8  UNL     1     -28.887  53.980 -31.996  1.00  0.00     0.218 HD
ENDBRANCH  37  51
BRANCH  38  53
HETATM   53  N6  UNL     1     -31.585  54.208 -32.824  1.00  0.00    -0.093 N 
HETATM   54  O9  UNL     1     -30.646  53.541 -33.319  1.00  0.00    -0.530 OA
HETATM   55  O10 UNL     1     -32.756  54.204 -33.554  1.00  0.00    -0.530 OA
ENDBRANCH  38  53
ENDBRANCH  32  33
ENDBRANCH  31  32
ENDBRANCH   1  31
TORSDOF 18
ENDMDL
MODEL 5
REMARK VINA RESULT: -9.273637884      2.683      5.186
REMARK  18 active torsions:
REMARK  status: ('A' for Active; 'I' for Inactive)
REMARK    1  A    between atoms: N1_1  and  C1_5 
REMARK    2  A    between atoms: C1_5  and  C2_6 
REMARK    3  A    between atoms: C1_5  and  C12_38 
REMARK       I    between atoms: C2_6  and  N2_8 
REMARK    4  A    between atoms: N2_8  and  S1_10 
REMARK    5  A    between atoms: S1_10  and  O4_13 
REMARK    6  A    between atoms: O4_13  and  C3_14 
REMARK    7  A    between atoms: C3_14  and  N3_15 
REMARK    8  A    between atoms: C4_18  and  N5_19 
REMARK    9  A    between atoms: N5_19  and  C5_21 
REMARK   10  A    between atoms: C5_21  and  O5_22 
REMARK   11  A    between atoms: C5_21  and  C6_24 
REMARK   12  A    between atoms: C8_27  and  O7_28 
REMARK   13  A    between atoms: C10_31  and  O8_32 
REMARK   14  A    between atoms: C11_34  and  N6_35 
REMARK       I    between atoms: C12_38  and  N7_40 
REMARK   15  A    between atoms: C17_46  and  N8_47 
REMARK   16  A    between atoms: C18_50  and  C19_51 
REMARK   17  A    between atoms: C19_51  and  O14_52 
REMARK   18  A    between atoms: C19_51  and  O15_54 
ROOT
HETATM    1  S1  UNL     1     -29.117  52.075 -26.443  1.00  0.00     0.369 S 
HETATM    2  O2  UNL     1     -30.002  50.789 -26.539  1.00  0.00    -0.175 OA
HETATM    3  O3  UNL     1     -27.808  51.608 -25.848  1.00  0.00    -0.175 OA
ENDROOT
BRANCH   1   4
HETATM    4  N2  UNL     1     -29.932  53.105 -25.333  1.00  0.00    -0.229 N 
HETATM    5  C2  UNL     1     -30.059  52.830 -23.950  1.00  0.00     0.272 C 
HETATM    6  O1  UNL     1     -29.557  51.789 -23.479  1.00  0.00    -0.270 OA
ATOM      7  H2  UNL     1     -30.348  53.964 -25.692  1.00  0.00     0.183 HD
BRANCH   5   8
HETATM    8  C1  UNL     1     -30.801  53.799 -23.083  1.00  0.00     0.366 C 
BRANCH   8   9
HETATM    9  N1  UNL     1     -31.586  52.974 -22.102  1.00  0.00    -0.058 N 
ATOM     10  H13 UNL     1     -31.808  53.473 -21.241  1.00  0.00     0.275 HD
ATOM     11  H12 UNL     1     -32.547  52.799 -22.398  1.00  0.00     0.275 HD
ATOM     12  H11 UNL     1     -31.047  52.121 -21.948  1.00  0.00     0.275 HD
ENDBRANCH   8   9
BRANCH   8  13
HETATM   13  C12 UNL     1     -31.729  54.686 -23.773  1.00  0.00     0.261 C 
HETATM   14  O11 UNL     1     -32.824  54.161 -24.178  1.00  0.00    -0.270 OA
HETATM   15  N7  UNL     1     -31.469  56.065 -23.992  1.00  0.00    -0.324 N 
HETATM   16  C13 UNL     1     -30.228  56.617 -23.584  1.00  0.00     0.154 C 
HETATM   17  C18 UNL     1     -32.557  56.836 -24.550  1.00  0.00     0.172 C 
HETATM   18  S2  UNL     1     -29.140  57.328 -24.849  1.00  0.00    -0.143 SA
HETATM   19  C15 UNL     1     -30.344  57.940 -22.875  1.00  0.00     0.030 C 
HETATM   20  C14 UNL     1     -29.132  58.580 -23.543  1.00  0.00     0.083 C 
HETATM   21  C16 UNL     1     -31.580  58.715 -23.149  1.00  0.00     0.042 C 
HETATM   22  C17 UNL     1     -32.796  57.952 -23.551  1.00  0.00     0.184 C 
BRANCH  22  23
HETATM   23  N8  UNL     1     -33.760  58.869 -24.144  1.00  0.00    -0.148 N 
HETATM   24  O12 UNL     1     -34.850  58.469 -24.595  1.00  0.00    -0.536 OA
HETATM   25  O13 UNL     1     -33.408  60.207 -24.190  1.00  0.00    -0.536 OA
ENDBRANCH  22  23
BRANCH  17  26
HETATM   26  C19 UNL     1     -32.421  57.322 -25.942  1.00  0.00     0.278 C 
BRANCH  26  27
HETATM   27  O14 UNL     1     -31.810  56.400 -26.817  1.00  0.00    -0.369 OA
ATOM     28  H14 UNL     1     -31.572  56.766 -27.661  1.00  0.00     0.212 HD
ENDBRANCH  26  27
BRANCH  26  29
HETATM   29  O15 UNL     1     -31.962  58.609 -26.122  1.00  0.00    -0.369 OA
ATOM     30  H15 UNL     1     -31.126  58.834 -25.729  1.00  0.00     0.212 HD
ENDBRANCH  26  29
ENDBRANCH  17  26
ENDBRANCH   8  13
ENDBRANCH   5   8
ENDBRANCH   1   4
BRANCH   1  31
HETATM   31  O4  UNL     1     -28.909  52.692 -27.915  1.00  0.00    -0.209 OA
BRANCH  31  32
HETATM   32  C3  UNL     1     -29.641  52.528 -28.996  1.00  0.00     0.276 C 
BRANCH  32  33
HETATM   33  N3  UNL     1     -29.100  52.946 -30.268  1.00  0.00    -0.218 N 
HETATM   34  N4  UNL     1     -28.082  52.277 -30.831  1.00  0.00    -0.273 N 
HETATM   35  C4  UNL     1     -27.722  52.851 -31.996  1.00  0.00     0.156 A 
ATOM     36  H4  UNL     1     -27.642  51.448 -30.432  1.00  0.00     0.189 HD
HETATM   37  C10 UNL     1     -28.584  53.941 -32.139  1.00  0.00     0.164 A 
HETATM   38  C11 UNL     1     -29.444  53.975 -31.033  1.00  0.00     0.233 A 
BRANCH  35  39
HETATM   39  N5  UNL     1     -26.783  52.457 -32.787  1.00  0.00    -0.343 N 
ATOM     40  H5  UNL     1     -26.036  53.107 -33.035  1.00  0.00     0.164 HD
BRANCH  39  41
HETATM   41  C5  UNL     1     -26.761  51.127 -33.329  1.00  0.00     0.255 C 
BRANCH  41  42
HETATM   42  O5  UNL     1     -25.492  50.877 -33.883  1.00  0.00    -0.372 OA
ATOM     43  H5  UNL     1     -24.854  50.819 -33.182  1.00  0.00     0.212 HD
ENDBRANCH  41  42
BRANCH  41  44
HETATM   44  C6  UNL     1     -27.732  50.993 -34.464  1.00  0.00     0.017 A 
HETATM   45  C7  UNL     1     -27.855  51.854 -35.522  1.00  0.00     0.156 A 
HETATM   46  O6  UNL     1     -28.800  51.412 -36.310  1.00  0.00    -0.300 OA
HETATM   47  C8  UNL     1     -29.315  50.296 -35.828  1.00  0.00     0.183 A 
HETATM   48  C9  UNL     1     -28.666  49.994 -34.656  1.00  0.00     0.077 A 
BRANCH  47  49
HETATM   49  O7  UNL     1     -30.351  49.555 -36.425  1.00  0.00    -0.341 OA
ATOM     50  H7  UNL     1     -31.275  49.643 -36.224  1.00  0.00     0.220 HD
ENDBRANCH  47  49
ENDBRANCH  41  44
ENDBRANCH  39  41
ENDBRANCH  35  39
BRANCH  37  51
HETATM   51  O8  UNL     1     -28.566  54.806 -33.190  1.00  0.00    -0.354 OA
ATOM     52  H8  UNL     1     -28.929  54.619 -34.048  1.00  0.00     0.218 HD
ENDBRANCH  37  51
BRANCH  38  53
HETATM   53  N6  UNL     1     -30.479  54.930 -30.875  1.00  0.00    -0.093 N 
HETATM   54  O9  UNL     1     -30.912  55.624 -31.824  1.00  0.00    -0.530 OA
HETATM   55  O10 UNL     1     -31.082  55.162 -29.656  1.00  0.00    -0.530 OA
ENDBRANCH  38  53
ENDBRANCH  32  33
ENDBRANCH  31  32
ENDBRANCH   1  31
TORSDOF 18
ENDMDL
