MODEL 1
REMARK VINA RESULT: -8.327311596      0.000      0.000
REMARK  9 active torsions:
REMARK  status: ('A' for Active; 'I' for Inactive)
REMARK    1  A    between atoms: N1_2  and  C2_3 
REMARK    2  A    between atoms: N1_2  and  C4_7 
REMARK    3  A    between atoms: C2_3  and  C3_4 
REMARK    4  A    between atoms: C3_4  and  O1_5 
REMARK    5  A    between atoms: C6_14  and  S1_15 
REMARK    6  A    between atoms: C8_19  and  C9_20 
REMARK    7  A    between atoms: C9_20  and  O4_21 
REMARK    8  A    between atoms: C9_20  and  N4_23 
REMARK    9  A    between atoms: N4_23  and  C10_24 
ROOT
HETATM    1  C4  UNL     1      15.779  -1.662  -1.534  1.00  0.00     0.682 A 
HETATM    2  N2  UNL     1      16.620  -1.746  -2.570  1.00  0.00    -0.175 N 
ATOM      3  H2  UNL     1      17.475  -1.197  -2.485  1.00  0.00     0.186 HD
HETATM    4  C5  UNL     1      16.504  -2.419  -3.656  1.00  0.00     0.139 A 
HETATM    5  N3  UNL     1      17.146  -2.593  -4.703  1.00  0.00    -0.384 N 
ATOM      6  H31 UNL     1      17.054  -3.128  -5.567  1.00  0.00     0.157 HD
ATOM      7  H32 UNL     1      18.015  -2.058  -4.682  1.00  0.00     0.157 HD
HETATM    8  C6  UNL     1      15.230  -3.202  -3.686  1.00  0.00     0.135 A 
HETATM    9  C8  UNL     1      14.328  -3.174  -2.668  1.00  0.00     0.139 A 
HETATM   10  N9  UNL     1      14.632  -2.392  -1.605  1.00  0.00    -0.185 N 
ATOM     11  H9  UNL     1      13.975  -2.348  -0.826  1.00  0.00     0.184 HD
ENDROOT
BRANCH   9  12
HETATM   12  C9  UNL     1      13.071  -3.850  -2.698  1.00  0.00     0.247 C 
BRANCH  12  13
HETATM   13  O4  UNL     1      13.385  -5.105  -1.985  1.00  0.00    -0.334 OA
ATOM     14  H4  UNL     1      13.734  -4.781  -1.163  1.00  0.00     0.220 HD
ENDBRANCH  12  13
BRANCH  12  15
HETATM   15  N4  UNL     1      11.849  -4.057  -2.920  1.00  0.00    -0.342 NA
BRANCH  15  16
HETATM   16  C10 UNL     1      10.699  -4.277  -3.155  1.00  0.00     0.287 C 
HETATM   17  N5  UNL     1      10.099  -4.693  -4.392  1.00  0.00    -0.244 N 
HETATM   18  N6  UNL     1       8.748  -4.941  -4.218  1.00  0.00    -0.005 NA
ATOM     19  H5  UNL     1      10.598  -4.790  -5.276  1.00  0.00     0.188 HD
HETATM   20  N7  UNL     1       8.452  -4.779  -2.889  1.00  0.00    -0.005 NA
HETATM   21  N8  UNL     1       9.537  -4.205  -2.237  1.00  0.00    -0.244 N 
ATOM     22  H8  UNL     1       9.534  -3.806  -1.298  1.00  0.00     0.188 HD
ENDBRANCH  15  16
ENDBRANCH  12  15
ENDBRANCH   9  12
BRANCH   8  23
HETATM   23  S1  UNL     1      15.171  -4.199  -5.115  1.00  0.00     0.177 S 
HETATM   24  C7  UNL     1      14.303  -3.216  -6.411  1.00  0.00     0.167 C 
HETATM   25  O2  UNL     1      16.451  -4.546  -5.736  1.00  0.00    -0.223 OA
HETATM   26  O3  UNL     1      14.296  -5.382  -4.854  1.00  0.00    -0.223 OA
ENDBRANCH   8  23
BRANCH   1  27
HETATM   27  N1  UNL     1      16.034  -0.740  -0.484  1.00  0.00    -0.220 N 
HETATM   28  C1  UNL     1      15.917  -1.263   0.875  1.00  0.00     0.168 C 
BRANCH  27  29
HETATM   29  C2  UNL     1      16.449   0.632  -0.631  1.00  0.00     0.166 C 
BRANCH  29  30
HETATM   30  C3  UNL     1      17.973   0.723  -0.530  1.00  0.00     0.184 C 
BRANCH  30  31
HETATM   31  O1  UNL     1      18.484   0.613  -1.803  1.00  0.00    -0.399 OA
ATOM     32  H1  UNL     1      19.247   0.049  -1.761  1.00  0.00     0.209 HD
ENDBRANCH  30  31
ENDBRANCH  29  30
ENDBRANCH  27  29
ENDBRANCH   1  27
TORSDOF 9
ENDMDL
MODEL 2
REMARK VINA RESULT: -7.730549650      2.212      6.447
REMARK  9 active torsions:
REMARK  status: ('A' for Active; 'I' for Inactive)
REMARK    1  A    between atoms: N1_2  and  C2_3 
REMARK    2  A    between atoms: N1_2  and  C4_7 
REMARK    3  A    between atoms: C2_3  and  C3_4 
REMARK    4  A    between atoms: C3_4  and  O1_5 
REMARK    5  A    between atoms: C6_14  and  S1_15 
REMARK    6  A    between atoms: C8_19  and  C9_20 
REMARK    7  A    between atoms: C9_20  and  O4_21 
REMARK    8  A    between atoms: C9_20  and  N4_23 
REMARK    9  A    between atoms: N4_23  and  C10_24 
ROOT
HETATM    1  C4  UNL     1      11.349  -3.983  -3.830  1.00  0.00     0.682 A 
HETATM    2  N2  UNL     1      11.818  -4.094  -5.077  1.00  0.00    -0.175 N 
ATOM      3  H2  UNL     1      11.143  -4.409  -5.772  1.00  0.00     0.186 HD
HETATM    4  C5  UNL     1      12.998  -3.862  -5.522  1.00  0.00     0.139 A 
HETATM    5  N3  UNL     1      13.604  -3.933  -6.603  1.00  0.00    -0.384 N 
ATOM      6  H31 UNL     1      14.543  -3.749  -6.957  1.00  0.00     0.157 HD
ATOM      7  H32 UNL     1      12.979  -4.253  -7.343  1.00  0.00     0.157 HD
HETATM    8  C6  UNL     1      13.915  -3.393  -4.437  1.00  0.00     0.135 A 
HETATM    9  C8  UNL     1      13.510  -3.248  -3.147  1.00  0.00     0.139 A 
HETATM   10  N9  UNL     1      12.218  -3.552  -2.875  1.00  0.00    -0.185 N 
ATOM     11  H9  UNL     1      11.883  -3.455  -1.916  1.00  0.00     0.184 HD
ENDROOT
BRANCH   9  12
HETATM   12  C9  UNL     1      14.376  -2.874  -2.076  1.00  0.00     0.247 C 
BRANCH  12  13
HETATM   13  O4  UNL     1      15.038  -4.156  -1.761  1.00  0.00    -0.334 OA
ATOM     14  H4  UNL     1      15.366  -3.995  -0.884  1.00  0.00     0.220 HD
ENDBRANCH  12  13
BRANCH  12  15
HETATM   15  N4  UNL     1      14.964  -2.144  -1.235  1.00  0.00    -0.342 NA
BRANCH  15  16
HETATM   16  C10 UNL     1      15.528  -1.428  -0.464  1.00  0.00     0.287 C 
HETATM   17  N5  UNL     1      15.549  -1.493   0.971  1.00  0.00    -0.244 N 
HETATM   18  N6  UNL     1      16.408  -0.539   1.489  1.00  0.00    -0.005 NA
ATOM     19  H5  UNL     1      15.006  -2.150   1.531  1.00  0.00     0.188 HD
HETATM   20  N7  UNL     1      17.016   0.102   0.440  1.00  0.00    -0.005 NA
HETATM   21  N8  UNL     1      16.395  -0.259  -0.749  1.00  0.00    -0.244 N 
ATOM     22  H8  UNL     1      16.513   0.197  -1.654  1.00  0.00     0.188 HD
ENDBRANCH  15  16
ENDBRANCH  12  15
ENDBRANCH   9  12
BRANCH   8  23
HETATM   23  S1  UNL     1      15.468  -2.968  -5.105  1.00  0.00     0.177 S 
HETATM   24  C7  UNL     1      16.291  -4.547  -5.580  1.00  0.00     0.167 C 
HETATM   25  O2  UNL     1      15.468  -2.185  -6.343  1.00  0.00    -0.223 OA
HETATM   26  O3  UNL     1      16.321  -2.377  -4.029  1.00  0.00    -0.223 OA
ENDBRANCH   8  23
BRANCH   1  27
HETATM   27  N1  UNL     1      10.036  -4.430  -3.522  1.00  0.00    -0.220 N 
HETATM   28  C1  UNL     1       9.902  -5.259  -2.327  1.00  0.00     0.168 C 
BRANCH  27  29
HETATM   29  C2  UNL     1       8.828  -4.099  -4.236  1.00  0.00     0.166 C 
BRANCH  29  30
HETATM   30  C3  UNL     1       8.895  -2.649  -4.717  1.00  0.00     0.184 C 
BRANCH  30  31
HETATM   31  O1  UNL     1       9.162  -2.666  -6.067  1.00  0.00    -0.399 OA
ATOM     32  H1  UNL     1      10.081  -2.456  -6.183  1.00  0.00     0.209 HD
ENDBRANCH  30  31
ENDBRANCH  29  30
ENDBRANCH  27  29
ENDBRANCH   1  27
TORSDOF 9
ENDMDL
MODEL 3
REMARK VINA RESULT: -7.640805122      2.073      6.388
REMARK  9 active torsions:
REMARK  status: ('A' for Active; 'I' for Inactive)
REMARK    1  A    between atoms: N1_2  and  C2_3 
REMARK    2  A    between atoms: N1_2  and  C4_7 
REMARK    3  A    between atoms: C2_3  and  C3_4 
REMARK    4  A    between atoms: C3_4  and  O1_5 
REMARK    5  A    between atoms: C6_14  and  S1_15 
REMARK    6  A    between atoms: C8_19  and  C9_20 
REMARK    7  A    between atoms: C9_20  and  O4_21 
REMARK    8  A    between atoms: C9_20  and  N4_23 
REMARK    9  A    between atoms: N4_23  and  C10_24 
ROOT
HETATM    1  C4  UNL     1      11.427  -3.586  -4.440  1.00  0.00     0.682 A 
HETATM    2  N2  UNL     1      12.024  -3.766  -5.622  1.00  0.00    -0.175 N 
ATOM      3  H2  UNL     1      11.402  -4.000  -6.396  1.00  0.00     0.186 HD
HETATM    4  C5  UNL     1      13.268  -3.687  -5.922  1.00  0.00     0.139 A 
HETATM    5  N3  UNL     1      13.985  -3.843  -6.923  1.00  0.00    -0.384 N 
ATOM      6  H31 UNL     1      14.975  -3.780  -7.162  1.00  0.00     0.157 HD
ATOM      7  H32 UNL     1      13.417  -4.088  -7.735  1.00  0.00     0.157 HD
HETATM    8  C6  UNL     1      14.101  -3.327  -4.733  1.00  0.00     0.135 A 
HETATM    9  C8  UNL     1      13.566  -3.121  -3.499  1.00  0.00     0.139 A 
HETATM   10  N9  UNL     1      12.223  -3.260  -3.386  1.00  0.00    -0.185 N 
ATOM     11  H9  UNL     1      11.792  -3.113  -2.473  1.00  0.00     0.184 HD
ENDROOT
BRANCH   9  12
HETATM   12  C9  UNL     1      14.339  -2.850  -2.331  1.00  0.00     0.247 C 
BRANCH  12  13
HETATM   13  O4  UNL     1      14.534  -4.204  -1.775  1.00  0.00    -0.334 OA
ATOM     14  H4  UNL     1      13.771  -4.299  -1.218  1.00  0.00     0.220 HD
ENDBRANCH  12  13
BRANCH  12  15
HETATM   15  N4  UNL     1      14.988  -2.196  -1.473  1.00  0.00    -0.342 NA
BRANCH  15  16
HETATM   16  C10 UNL     1      15.615  -1.553  -0.685  1.00  0.00     0.287 C 
HETATM   17  N5  UNL     1      16.652  -0.590  -0.932  1.00  0.00    -0.244 N 
HETATM   18  N6  UNL     1      17.051   0.010   0.249  1.00  0.00    -0.005 NA
ATOM     19  H5  UNL     1      17.040  -0.379  -1.852  1.00  0.00     0.188 HD
HETATM   20  N7  UNL     1      16.257  -0.468   1.260  1.00  0.00    -0.005 NA
HETATM   21  N8  UNL     1      15.505  -1.539   0.794  1.00  0.00    -0.244 N 
ATOM     22  H8  UNL     1      14.973  -2.197   1.365  1.00  0.00     0.188 HD
ENDBRANCH  15  16
ENDBRANCH  12  15
ENDBRANCH   9  12
BRANCH   8  23
HETATM   23  S1  UNL     1      15.763  -3.105  -5.208  1.00  0.00     0.177 S 
HETATM   24  C7  UNL     1      16.726  -4.463  -4.416  1.00  0.00     0.167 C 
HETATM   25  O2  UNL     1      16.071  -3.241  -6.633  1.00  0.00    -0.223 OA
HETATM   26  O3  UNL     1      16.282  -1.839  -4.606  1.00  0.00    -0.223 OA
ENDBRANCH   8  23
BRANCH   1  27
HETATM   27  N1  UNL     1      10.041  -3.863  -4.293  1.00  0.00    -0.220 N 
HETATM   28  C1  UNL     1       9.125  -2.826  -4.761  1.00  0.00     0.168 C 
BRANCH  27  29
HETATM   29  C2  UNL     1       9.459  -5.080  -3.786  1.00  0.00     0.166 C 
BRANCH  29  30
HETATM   30  C3  UNL     1       9.348  -5.002  -2.262  1.00  0.00     0.184 C 
BRANCH  30  31
HETATM   31  O1  UNL     1      10.526  -5.477  -1.731  1.00  0.00    -0.399 OA
ATOM     32  H1  UNL     1      10.428  -6.413  -1.600  1.00  0.00     0.209 HD
ENDBRANCH  30  31
ENDBRANCH  29  30
ENDBRANCH  27  29
ENDBRANCH   1  27
TORSDOF 9
ENDMDL
MODEL 4
REMARK VINA RESULT: -7.622352884      2.013      6.335
REMARK  9 active torsions:
REMARK  status: ('A' for Active; 'I' for Inactive)
REMARK    1  A    between atoms: N1_2  and  C2_3 
REMARK    2  A    between atoms: N1_2  and  C4_7 
REMARK    3  A    between atoms: C2_3  and  C3_4 
REMARK    4  A    between atoms: C3_4  and  O1_5 
REMARK    5  A    between atoms: C6_14  and  S1_15 
REMARK    6  A    between atoms: C8_19  and  C9_20 
REMARK    7  A    between atoms: C9_20  and  O4_21 
REMARK    8  A    between atoms: C9_20  and  N4_23 
REMARK    9  A    between atoms: N4_23  and  C10_24 
ROOT
HETATM    1  C4  UNL     1      11.370  -3.579  -4.374  1.00  0.00     0.682 A 
HETATM    2  N2  UNL     1      11.945  -3.779  -5.565  1.00  0.00    -0.175 N 
ATOM      3  H2  UNL     1      11.307  -4.015  -6.325  1.00  0.00     0.186 HD
HETATM    4  C5  UNL     1      13.185  -3.717  -5.887  1.00  0.00     0.139 A 
HETATM    5  N3  UNL     1      13.882  -3.891  -6.898  1.00  0.00    -0.384 N 
ATOM      6  H31 UNL     1      14.869  -3.842  -7.155  1.00  0.00     0.157 HD
ATOM      7  H32 UNL     1      13.298  -4.140  -7.697  1.00  0.00     0.157 HD
HETATM    8  C6  UNL     1      14.041  -3.352  -4.716  1.00  0.00     0.135 A 
HETATM    9  C8  UNL     1      13.531  -3.126  -3.476  1.00  0.00     0.139 A 
HETATM   10  N9  UNL     1      12.188  -3.248  -3.338  1.00  0.00    -0.185 N 
ATOM     11  H9  UNL     1      11.774  -3.087  -2.420  1.00  0.00     0.184 HD
ENDROOT
BRANCH   9  12
HETATM   12  C9  UNL     1      14.326  -2.849  -2.324  1.00  0.00     0.247 C 
BRANCH  12  13
HETATM   13  O4  UNL     1      14.634  -4.208  -1.835  1.00  0.00    -0.334 OA
ATOM     14  H4  UNL     1      14.936  -4.033  -0.952  1.00  0.00     0.220 HD
ENDBRANCH  12  13
BRANCH  12  15
HETATM   15  N4  UNL     1      14.961  -2.187  -1.461  1.00  0.00    -0.342 NA
BRANCH  15  16
HETATM   16  C10 UNL     1      15.586  -1.550  -0.668  1.00  0.00     0.287 C 
HETATM   17  N5  UNL     1      16.603  -0.564  -0.910  1.00  0.00    -0.244 N 
HETATM   18  N6  UNL     1      17.008   0.019   0.278  1.00  0.00    -0.005 NA
ATOM     19  H5  UNL     1      16.976  -0.328  -1.829  1.00  0.00     0.188 HD
HETATM   20  N7  UNL     1      16.235  -0.492   1.290  1.00  0.00    -0.005 NA
HETATM   21  N8  UNL     1      15.495  -1.567   0.811  1.00  0.00    -0.244 N 
ATOM     22  H8  UNL     1      14.982  -2.245   1.376  1.00  0.00     0.188 HD
ENDBRANCH  15  16
ENDBRANCH  12  15
ENDBRANCH   9  12
BRANCH   8  23
HETATM   23  S1  UNL     1      15.698  -3.153  -5.222  1.00  0.00     0.177 S 
HETATM   24  C7  UNL     1      15.679  -1.995  -6.656  1.00  0.00     0.167 C 
HETATM   25  O2  UNL     1      16.612  -2.518  -4.270  1.00  0.00    -0.223 OA
HETATM   26  O3  UNL     1      16.208  -4.451  -5.760  1.00  0.00    -0.223 OA
ENDBRANCH   8  23
BRANCH   1  27
HETATM   27  N1  UNL     1       9.985  -3.839  -4.201  1.00  0.00    -0.220 N 
HETATM   28  C1  UNL     1       9.074  -2.770  -4.601  1.00  0.00     0.168 C 
BRANCH  27  29
HETATM   29  C2  UNL     1       9.396  -5.066  -3.728  1.00  0.00     0.166 C 
BRANCH  29  30
HETATM   30  C3  UNL     1       9.342  -5.055  -2.199  1.00  0.00     0.184 C 
BRANCH  30  31
HETATM   31  O1  UNL     1      10.560  -5.493  -1.732  1.00  0.00    -0.399 OA
ATOM     32  H1  UNL     1      10.626  -5.247  -0.818  1.00  0.00     0.209 HD
ENDBRANCH  30  31
ENDBRANCH  29  30
ENDBRANCH  27  29
ENDBRANCH   1  27
TORSDOF 9
ENDMDL
MODEL 5
REMARK VINA RESULT: -7.405362078      1.445      1.790
REMARK  9 active torsions:
REMARK  status: ('A' for Active; 'I' for Inactive)
REMARK    1  A    between atoms: N1_2  and  C2_3 
REMARK    2  A    between atoms: N1_2  and  C4_7 
REMARK    3  A    between atoms: C2_3  and  C3_4 
REMARK    4  A    between atoms: C3_4  and  O1_5 
REMARK    5  A    between atoms: C6_14  and  S1_15 
REMARK    6  A    between atoms: C8_19  and  C9_20 
REMARK    7  A    between atoms: C9_20  and  O4_21 
REMARK    8  A    between atoms: C9_20  and  N4_23 
REMARK    9  A    between atoms: N4_23  and  C10_24 
ROOT
HETATM    1  C4  UNL     1      16.765  -1.180  -2.220  1.00  0.00     0.682 A 
HETATM    2  N2  UNL     1      17.365  -1.224  -3.414  1.00  0.00    -0.175 N 
ATOM      3  H2  UNL     1      18.172  -0.611  -3.521  1.00  0.00     0.186 HD
HETATM    4  C5  UNL     1      17.068  -1.927  -4.444  1.00  0.00     0.139 A 
HETATM    5  N3  UNL     1      17.479  -2.076  -5.606  1.00  0.00    -0.384 N 
ATOM      6  H31 UNL     1      17.242  -2.635  -6.426  1.00  0.00     0.157 HD
ATOM      7  H32 UNL     1      18.287  -1.478  -5.779  1.00  0.00     0.157 HD
HETATM    8  C6  UNL     1      15.883  -2.804  -4.191  1.00  0.00     0.135 A 
HETATM    9  C8  UNL     1      15.224  -2.821  -3.001  1.00  0.00     0.139 A 
HETATM   10  N9  UNL     1      15.691  -1.995  -2.034  1.00  0.00    -0.185 N 
ATOM     11  H9  UNL     1      15.218  -1.982  -1.130  1.00  0.00     0.184 HD
ENDROOT
BRANCH   9  12
HETATM   12  C9  UNL     1      14.048  -3.589  -2.752  1.00  0.00     0.247 C 
BRANCH  12  13
HETATM   13  O4  UNL     1      14.609  -4.815  -2.149  1.00  0.00    -0.334 OA
ATOM     14  H4  UNL     1      15.406  -4.489  -1.751  1.00  0.00     0.220 HD
ENDBRANCH  12  13
BRANCH  12  15
HETATM   15  N4  UNL     1      12.826  -3.887  -2.690  1.00  0.00    -0.342 NA
BRANCH  15  16
HETATM   16  C10 UNL     1      11.660  -4.141  -2.650  1.00  0.00     0.287 C 
HETATM   17  N5  UNL     1      10.542  -3.267  -2.875  1.00  0.00    -0.244 N 
HETATM   18  N6  UNL     1       9.354  -3.976  -2.836  1.00  0.00    -0.005 NA
ATOM     19  H5  UNL     1      10.614  -2.263  -3.041  1.00  0.00     0.188 HD
HETATM   20  N7  UNL     1       9.654  -5.304  -2.670  1.00  0.00    -0.005 NA
HETATM   21  N8  UNL     1      11.004  -5.441  -2.369  1.00  0.00    -0.244 N 
ATOM     22  H8  UNL     1      11.461  -6.283  -2.017  1.00  0.00     0.188 HD
ENDBRANCH  15  16
ENDBRANCH  12  15
ENDBRANCH   9  12
BRANCH   8  23
HETATM   23  S1  UNL     1      15.592  -3.834  -5.567  1.00  0.00     0.177 S 
HETATM   24  C7  UNL     1      14.270  -3.024  -6.565  1.00  0.00     0.167 C 
HETATM   25  O2  UNL     1      16.695  -4.002  -6.516  1.00  0.00    -0.223 OA
HETATM   26  O3  UNL     1      15.008  -5.128  -5.099  1.00  0.00    -0.223 OA
ENDBRANCH   8  23
BRANCH   1  27
HETATM   27  N1  UNL     1      17.170  -0.218  -1.256  1.00  0.00    -0.220 N 
HETATM   28  C1  UNL     1      18.449   0.442  -1.504  1.00  0.00     0.168 C 
BRANCH  27  29
HETATM   29  C2  UNL     1      16.421   0.205  -0.099  1.00  0.00     0.166 C 
BRANCH  29  30
HETATM   30  C3  UNL     1      16.435  -0.902   0.957  1.00  0.00     0.184 C 
BRANCH  30  31
HETATM   31  O1  UNL     1      15.193  -1.495   0.961  1.00  0.00    -0.399 OA
ATOM     32  H1  UNL     1      15.288  -2.368   0.600  1.00  0.00     0.209 HD
ENDBRANCH  30  31
ENDBRANCH  29  30
ENDBRANCH  27  29
ENDBRANCH   1  27
TORSDOF 9
ENDMDL
