MODEL 1
REMARK VINA RESULT: -6.718547399      0.000      0.000
REMARK  9 active torsions:
REMARK  status: ('A' for Active; 'I' for Inactive)
REMARK    1  A    between atoms: O1_2  and  C2_3 
REMARK    2  A    between atoms: C2_3  and  C3_4 
REMARK    3  A    between atoms: N2_8  and  O3_9 
REMARK    4  A    between atoms: O3_9  and  S1_10 
REMARK    5  A    between atoms: C6_16  and  C7_17 
REMARK    6  A    between atoms: C8_21  and  O8_22 
REMARK    7  A    between atoms: C8_21  and  C9_24 
REMARK    8  A    between atoms: C9_24  and  O9_25 
REMARK    9  A    between atoms: C9_24  and  O10_27 
ROOT
HETATM    1  C2  UNL     1      12.271  -4.484   7.918  1.00  0.00     0.193 C 
HETATM    2  C4  UNL     1      11.910  -3.536   9.138  1.00  0.00     0.212 C 
HETATM    3  N2  UNL     1      10.882  -4.263   9.841  1.00  0.00    -0.202 N 
HETATM    4  C5  UNL     1       9.878  -4.908   9.103  1.00  0.00     0.257 C 
HETATM    5  O7  UNL     1       8.873  -5.348   9.702  1.00  0.00    -0.270 OA
HETATM    6  C6  UNL     1       9.934  -5.104   7.628  1.00  0.00     0.161 C 
HETATM    7  C8  UNL     1      11.087  -4.310   7.021  1.00  0.00     0.165 C 
ENDROOT
BRANCH   7   8
HETATM    8  O8  UNL     1      10.612  -2.972   7.070  1.00  0.00    -0.380 OA
ATOM      9  H8  UNL     1      10.120  -2.819   7.868  1.00  0.00     0.211 HD
ENDBRANCH   7   8
BRANCH   7  10
HETATM   10  C9  UNL     1      11.228  -4.734   5.606  1.00  0.00     0.293 C 
BRANCH  10  11
HETATM   11  O9  UNL     1      11.333  -3.588   4.763  1.00  0.00    -0.368 OA
ATOM     12  H9  UNL     1      12.209  -3.225   4.818  1.00  0.00     0.212 HD
ENDBRANCH  10  11
BRANCH  10  13
HETATM   13  O10 UNL     1      12.401  -5.438   5.314  1.00  0.00    -0.368 OA
ATOM     14  H10 UNL     1      12.806  -5.218   4.484  1.00  0.00     0.212 HD
ENDBRANCH  10  13
ENDBRANCH   7  10
BRANCH   1  15
HETATM   15  O1  UNL     1      12.311  -5.699   8.469  1.00  0.00    -0.371 OA
HETATM   16  C1  UNL     1      13.351  -6.515   8.530  1.00  0.00     0.203 C 
ENDBRANCH   1  15
BRANCH   1  17
HETATM   17  C3  UNL     1      13.506  -3.882   7.429  1.00  0.00     0.271 C 
HETATM   18  N1  UNL     1      14.756  -4.424   7.760  1.00  0.00    -0.059 NA
HETATM   19  O2  UNL     1      13.472  -2.867   6.704  1.00  0.00    -0.273 OA
ENDBRANCH   1  17
BRANCH   6  20
HETATM   20  C7  UNL     1       8.610  -4.662   7.104  1.00  0.00     0.070 C 
HETATM   21  N3  UNL     1       7.996  -3.723   7.722  1.00  0.00    -0.410 N 
ATOM     22  H32 UNL     1       8.417  -3.299   8.549  1.00  0.00     0.155 HD
ATOM     23  H31 UNL     1       7.090  -3.420   7.364  1.00  0.00     0.155 HD
ENDBRANCH   6  20
BRANCH   3  24
HETATM   24  O3  UNL     1      10.956  -4.275  11.191  1.00  0.00    -0.127 OA
BRANCH  24  25
HETATM   25  S1  UNL     1      10.523  -2.810  11.862  1.00  0.00     0.274 S 
HETATM   26  O4  UNL     1      11.708  -1.918  12.103  1.00  0.00    -0.571 OA
HETATM   27  O5  UNL     1       9.860  -3.127  13.198  1.00  0.00    -0.571 OA
HETATM   28  O6  UNL     1       9.347  -2.056  10.925  1.00  0.00    -0.571 OA
ENDBRANCH  24  25
ENDBRANCH   3  24
TORSDOF 9
ENDMDL
MODEL 2
REMARK VINA RESULT: -6.461055244      2.688      5.049
REMARK  9 active torsions:
REMARK  status: ('A' for Active; 'I' for Inactive)
REMARK    1  A    between atoms: O1_2  and  C2_3 
REMARK    2  A    between atoms: C2_3  and  C3_4 
REMARK    3  A    between atoms: N2_8  and  O3_9 
REMARK    4  A    between atoms: O3_9  and  S1_10 
REMARK    5  A    between atoms: C6_16  and  C7_17 
REMARK    6  A    between atoms: C8_21  and  O8_22 
REMARK    7  A    between atoms: C8_21  and  C9_24 
REMARK    8  A    between atoms: C9_24  and  O9_25 
REMARK    9  A    between atoms: C9_24  and  O10_27 
ROOT
HETATM    1  C2  UNL     1      10.751  -4.918   8.344  1.00  0.00     0.193 C 
HETATM    2  C4  UNL     1      11.798  -6.071   8.042  1.00  0.00     0.212 C 
HETATM    3  N2  UNL     1      13.073  -5.399   8.106  1.00  0.00    -0.202 N 
HETATM    4  C5  UNL     1      13.203  -4.129   7.521  1.00  0.00     0.257 C 
HETATM    5  O7  UNL     1      14.345  -3.642   7.380  1.00  0.00    -0.270 OA
HETATM    6  C6  UNL     1      12.050  -3.314   7.051  1.00  0.00     0.161 C 
HETATM    7  C8  UNL     1      10.763  -4.136   7.069  1.00  0.00     0.165 C 
ENDROOT
BRANCH   7   8
HETATM    8  O8  UNL     1      10.923  -4.999   5.952  1.00  0.00    -0.380 OA
ATOM      9  H8  UNL     1      10.731  -4.540   5.143  1.00  0.00     0.211 HD
ENDBRANCH   7   8
BRANCH   7  10
HETATM   10  C9  UNL     1       9.634  -3.207   6.822  1.00  0.00     0.293 C 
BRANCH  10  11
HETATM   11  O9  UNL     1       9.867  -1.969   7.492  1.00  0.00    -0.368 OA
ATOM     12  H9  UNL     1       9.628  -1.245   6.926  1.00  0.00     0.212 HD
ENDBRANCH  10  11
BRANCH  10  13
HETATM   13  O10 UNL     1       9.476  -2.810   5.490  1.00  0.00    -0.368 OA
ATOM     14  H10 UNL     1       8.596  -2.543   5.252  1.00  0.00     0.212 HD
ENDBRANCH  10  13
ENDBRANCH   7  10
BRANCH   1  15
HETATM   15  O1  UNL     1      11.310  -4.246   9.353  1.00  0.00    -0.371 OA
HETATM   16  C1  UNL     1      10.714  -3.808  10.449  1.00  0.00     0.203 C 
ENDBRANCH   1  15
BRANCH   1  17
HETATM   17  C3  UNL     1       9.531  -5.680   8.585  1.00  0.00     0.271 C 
HETATM   18  N1  UNL     1       8.513  -5.174   9.405  1.00  0.00    -0.059 NA
HETATM   19  O2  UNL     1       9.373  -6.802   8.064  1.00  0.00    -0.273 OA
ENDBRANCH   1  17
BRANCH   6  20
HETATM   20  C7  UNL     1      12.404  -2.856   5.677  1.00  0.00     0.070 C 
HETATM   21  N3  UNL     1      12.241  -1.619   5.390  1.00  0.00    -0.410 N 
ATOM     22  H32 UNL     1      11.877  -0.977   6.094  1.00  0.00     0.155 HD
ATOM     23  H31 UNL     1      12.484  -1.305   4.450  1.00  0.00     0.155 HD
ENDBRANCH   6  20
BRANCH   3  24
HETATM   24  O3  UNL     1      14.076  -6.049   8.737  1.00  0.00    -0.127 OA
BRANCH  24  25
HETATM   25  S1  UNL     1      14.906  -7.076   7.717  1.00  0.00     0.274 S 
HETATM   26  O4  UNL     1      14.117  -7.422   6.486  1.00  0.00    -0.571 OA
HETATM   27  O5  UNL     1      15.172  -8.350   8.511  1.00  0.00    -0.571 OA
HETATM   28  O6  UNL     1      16.416  -6.439   7.340  1.00  0.00    -0.571 OA
ENDBRANCH  24  25
ENDBRANCH   3  24
TORSDOF 9
ENDMDL
MODEL 3
REMARK VINA RESULT: -6.292506258      2.050      3.238
REMARK  9 active torsions:
REMARK  status: ('A' for Active; 'I' for Inactive)
REMARK    1  A    between atoms: O1_2  and  C2_3 
REMARK    2  A    between atoms: C2_3  and  C3_4 
REMARK    3  A    between atoms: N2_8  and  O3_9 
REMARK    4  A    between atoms: O3_9  and  S1_10 
REMARK    5  A    between atoms: C6_16  and  C7_17 
REMARK    6  A    between atoms: C8_21  and  O8_22 
REMARK    7  A    between atoms: C8_21  and  C9_24 
REMARK    8  A    between atoms: C9_24  and  O9_25 
REMARK    9  A    between atoms: C9_24  and  O10_27 
ROOT
HETATM    1  C2  UNL     1      11.586  -4.543   7.470  1.00  0.00     0.193 C 
HETATM    2  C4  UNL     1      11.500  -3.367   8.530  1.00  0.00     0.212 C 
HETATM    3  N2  UNL     1      10.319  -2.638   8.137  1.00  0.00    -0.202 N 
HETATM    4  C5  UNL     1      10.087  -2.403   6.773  1.00  0.00     0.257 C 
HETATM    5  O7  UNL     1       9.195  -1.594   6.442  1.00  0.00    -0.270 OA
HETATM    6  C6  UNL     1      10.848  -3.067   5.679  1.00  0.00     0.161 C 
HETATM    7  C8  UNL     1      12.046  -3.829   6.240  1.00  0.00     0.165 C 
ENDROOT
BRANCH   7   8
HETATM    8  O8  UNL     1      12.956  -2.790   6.573  1.00  0.00    -0.380 OA
ATOM      9  H8  UNL     1      13.350  -2.424   5.790  1.00  0.00     0.211 HD
ENDBRANCH   7   8
BRANCH   7  10
HETATM   10  C9  UNL     1      12.611  -4.649   5.140  1.00  0.00     0.293 C 
BRANCH  10  11
HETATM   11  O9  UNL     1      13.758  -5.360   5.603  1.00  0.00    -0.368 OA
ATOM     12  H9  UNL     1      14.114  -5.891   4.901  1.00  0.00     0.212 HD
ENDBRANCH  10  11
BRANCH  10  13
HETATM   13  O10 UNL     1      11.779  -5.675   4.680  1.00  0.00    -0.368 OA
ATOM     14  H10 UNL     1      11.274  -5.465   3.903  1.00  0.00     0.212 HD
ENDBRANCH  10  13
ENDBRANCH   7  10
BRANCH   1  15
HETATM   15  O1  UNL     1      10.322  -4.961   7.367  1.00  0.00    -0.371 OA
HETATM   16  C1  UNL     1       9.859  -6.177   7.610  1.00  0.00     0.203 C 
ENDBRANCH   1  15
BRANCH   1  17
HETATM   17  C3  UNL     1      12.578  -5.421   8.079  1.00  0.00     0.271 C 
HETATM   18  N1  UNL     1      13.858  -4.951   8.404  1.00  0.00    -0.059 NA
HETATM   19  O2  UNL     1      12.304  -6.614   8.320  1.00  0.00    -0.273 OA
ENDBRANCH   1  17
BRANCH   6  20
HETATM   20  C7  UNL     1      11.261  -1.978   4.748  1.00  0.00     0.070 C 
HETATM   21  N3  UNL     1      11.613  -0.853   5.247  1.00  0.00    -0.410 N 
ATOM     22  H32 UNL     1      11.606  -0.722   6.259  1.00  0.00     0.155 HD
ATOM     23  H31 UNL     1      11.895  -0.109   4.610  1.00  0.00     0.155 HD
ENDBRANCH   6  20
BRANCH   3  24
HETATM   24  O3  UNL     1       9.499  -2.223   9.128  1.00  0.00    -0.127 OA
BRANCH  24  25
HETATM   25  S1  UNL     1       8.293  -3.330   9.457  1.00  0.00     0.274 S 
HETATM   26  O4  UNL     1       7.595  -3.802   8.213  1.00  0.00    -0.571 OA
HETATM   27  O5  UNL     1       7.286  -2.616  10.351  1.00  0.00    -0.571 OA
HETATM   28  O6  UNL     1       8.899  -4.609  10.365  1.00  0.00    -0.571 OA
ENDBRANCH  24  25
ENDBRANCH   3  24
TORSDOF 9
ENDMDL
MODEL 4
REMARK VINA RESULT: -6.188566730      1.746      2.682
REMARK  9 active torsions:
REMARK  status: ('A' for Active; 'I' for Inactive)
REMARK    1  A    between atoms: O1_2  and  C2_3 
REMARK    2  A    between atoms: C2_3  and  C3_4 
REMARK    3  A    between atoms: N2_8  and  O3_9 
REMARK    4  A    between atoms: O3_9  and  S1_10 
REMARK    5  A    between atoms: C6_16  and  C7_17 
REMARK    6  A    between atoms: C8_21  and  O8_22 
REMARK    7  A    between atoms: C8_21  and  C9_24 
REMARK    8  A    between atoms: C9_24  and  O9_25 
REMARK    9  A    between atoms: C9_24  and  O10_27 
ROOT
HETATM    1  C2  UNL     1      11.909  -4.718   7.462  1.00  0.00     0.193 C 
HETATM    2  C4  UNL     1      11.827  -3.631   8.614  1.00  0.00     0.212 C 
HETATM    3  N2  UNL     1      10.555  -2.988   8.388  1.00  0.00    -0.202 N 
HETATM    4  C5  UNL     1      10.173  -2.681   7.073  1.00  0.00     0.257 C 
HETATM    5  O7  UNL     1       9.187  -1.937   6.887  1.00  0.00    -0.270 OA
HETATM    6  C6  UNL     1      10.879  -3.194   5.866  1.00  0.00     0.161 C 
HETATM    7  C8  UNL     1      12.185  -3.881   6.255  1.00  0.00     0.165 C 
ENDROOT
BRANCH   7   8
HETATM    8  O8  UNL     1      13.032  -2.788   6.585  1.00  0.00    -0.380 OA
ATOM      9  H8  UNL     1      12.702  -2.326   7.347  1.00  0.00     0.211 HD
ENDBRANCH   7   8
BRANCH   7  10
HETATM   10  C9  UNL     1      12.708  -4.566   5.048  1.00  0.00     0.293 C 
BRANCH  10  11
HETATM   11  O9  UNL     1      14.009  -5.090   5.312  1.00  0.00    -0.368 OA
ATOM     12  H9  UNL     1      13.965  -6.035   5.401  1.00  0.00     0.212 HD
ENDBRANCH  10  11
BRANCH  10  13
HETATM   13  O10 UNL     1      11.993  -5.703   4.656  1.00  0.00    -0.368 OA
ATOM     14  H10 UNL     1      11.393  -5.570   3.933  1.00  0.00     0.212 HD
ENDBRANCH  10  13
ENDBRANCH   7  10
BRANCH   1  15
HETATM   15  O1  UNL     1      10.681  -5.242   7.441  1.00  0.00    -0.371 OA
HETATM   16  C1  UNL     1      10.167  -6.110   8.297  1.00  0.00     0.203 C 
ENDBRANCH   1  15
BRANCH   1  17
HETATM   17  C3  UNL     1      13.026  -5.541   7.909  1.00  0.00     0.271 C 
HETATM   18  N1  UNL     1      14.289  -4.980   8.148  1.00  0.00    -0.059 NA
HETATM   19  O2  UNL     1      12.878  -6.768   8.085  1.00  0.00    -0.273 OA
ENDBRANCH   1  17
BRANCH   6  20
HETATM   20  C7  UNL     1      11.105  -2.010   4.989  1.00  0.00     0.070 C 
HETATM   21  N3  UNL     1      11.291  -0.872   5.543  1.00  0.00    -0.410 N 
ATOM     22  H32 UNL     1      11.283  -0.794   6.560  1.00  0.00     0.155 HD
ATOM     23  H31 UNL     1      11.446  -0.061   4.943  1.00  0.00     0.155 HD
ENDBRANCH   6  20
BRANCH   3  24
HETATM   24  O3  UNL     1       9.803  -2.721   9.477  1.00  0.00    -0.127 OA
BRANCH  24  25
HETATM   25  S1  UNL     1      10.661  -2.892  10.899  1.00  0.00     0.274 S 
HETATM   26  O4  UNL     1      10.644  -4.305  11.410  1.00  0.00    -0.571 OA
HETATM   27  O5  UNL     1       9.987  -1.986  11.922  1.00  0.00    -0.571 OA
HETATM   28  O6  UNL     1      12.226  -2.306  10.716  1.00  0.00    -0.571 OA
ENDBRANCH  24  25
ENDBRANCH   3  24
TORSDOF 9
ENDMDL
MODEL 5
REMARK VINA RESULT: -6.164899313      2.327      3.450
REMARK  9 active torsions:
REMARK  status: ('A' for Active; 'I' for Inactive)
REMARK    1  A    between atoms: O1_2  and  C2_3 
REMARK    2  A    between atoms: C2_3  and  C3_4 
REMARK    3  A    between atoms: N2_8  and  O3_9 
REMARK    4  A    between atoms: O3_9  and  S1_10 
REMARK    5  A    between atoms: C6_16  and  C7_17 
REMARK    6  A    between atoms: C8_21  and  O8_22 
REMARK    7  A    between atoms: C8_21  and  C9_24 
REMARK    8  A    between atoms: C9_24  and  O9_25 
REMARK    9  A    between atoms: C9_24  and  O10_27 
ROOT
HETATM    1  C2  UNL     1      11.410  -4.557   7.796  1.00  0.00     0.193 C 
HETATM    2  C4  UNL     1      10.549  -3.426   8.500  1.00  0.00     0.212 C 
HETATM    3  N2  UNL     1       9.515  -3.135   7.537  1.00  0.00    -0.202 N 
HETATM    4  C5  UNL     1       9.856  -3.046   6.178  1.00  0.00     0.257 C 
HETATM    5  O7  UNL     1       9.020  -2.583   5.374  1.00  0.00    -0.270 OA
HETATM    6  C6  UNL     1      11.171  -3.475   5.627  1.00  0.00     0.161 C 
HETATM    7  C8  UNL     1      12.154  -3.786   6.753  1.00  0.00     0.165 C 
ENDROOT
BRANCH   7   8
HETATM    8  O8  UNL     1      12.502  -2.495   7.235  1.00  0.00    -0.380 OA
ATOM      9  H8  UNL     1      12.978  -2.007   6.574  1.00  0.00     0.211 HD
ENDBRANCH   7   8
BRANCH   7  10
HETATM   10  C9  UNL     1      13.345  -4.426   6.144  1.00  0.00     0.293 C 
BRANCH  10  11
HETATM   11  O9  UNL     1      14.460  -4.320   7.029  1.00  0.00    -0.368 OA
ATOM     12  H9  UNL     1      15.223  -4.017   6.553  1.00  0.00     0.212 HD
ENDBRANCH  10  11
BRANCH  10  13
HETATM   13  O10 UNL     1      13.239  -5.807   5.947  1.00  0.00    -0.368 OA
ATOM     14  H10 UNL     1      13.779  -6.155   5.248  1.00  0.00     0.212 HD
ENDBRANCH  10  13
ENDBRANCH   7  10
BRANCH   1  15
HETATM   15  O1  UNL     1      10.489  -5.364   7.264  1.00  0.00    -0.371 OA
HETATM   16  C1  UNL     1       9.784  -6.292   7.889  1.00  0.00     0.203 C 
ENDBRANCH   1  15
BRANCH   1  17
HETATM   17  C3  UNL     1      12.228  -5.041   8.902  1.00  0.00     0.271 C 
HETATM   18  N1  UNL     1      13.120  -6.108   8.730  1.00  0.00    -0.059 NA
HETATM   19  O2  UNL     1      12.146  -4.511  10.029  1.00  0.00    -0.273 OA
ENDBRANCH   1  17
BRANCH   6  20
HETATM   20  C7  UNL     1      11.640  -2.353   4.765  1.00  0.00     0.070 C 
HETATM   21  N3  UNL     1      11.419  -1.154   5.156  1.00  0.00    -0.410 N 
ATOM     22  H32 UNL     1      10.934  -0.989   6.038  1.00  0.00     0.155 HD
ATOM     23  H31 UNL     1      11.741  -0.386   4.566  1.00  0.00     0.155 HD
ENDBRANCH   6  20
BRANCH   3  24
HETATM   24  O3  UNL     1       8.263  -2.964   8.017  1.00  0.00    -0.127 OA
BRANCH  24  25
HETATM   25  S1  UNL     1       8.061  -1.476   8.745  1.00  0.00     0.274 S 
HETATM   26  O4  UNL     1       8.502  -1.477  10.181  1.00  0.00    -0.571 OA
HETATM   27  O5  UNL     1       6.570  -1.166   8.684  1.00  0.00    -0.571 OA
HETATM   28  O6  UNL     1       8.824  -0.274   7.851  1.00  0.00    -0.571 OA
ENDBRANCH  24  25
ENDBRANCH   3  24
TORSDOF 9
ENDMDL
