MODEL 1
REMARK VINA RESULT: -8.520505940      0.000      0.000
REMARK  5 active torsions:
REMARK  status: ('A' for Active; 'I' for Inactive)
REMARK    1  A    between atoms: O1_2  and  C2_3 
REMARK       I    between atoms: N1_11  and  C9_12 
REMARK    2  A    between atoms: C9_12  and  C10_14 
REMARK    3  A    between atoms: C10_14  and  C11_15 
REMARK    4  A    between atoms: C11_15  and  C12_16 
REMARK    5  A    between atoms: C12_16  and  N2_17 
ROOT
HETATM    1  C2  UNL     1      -0.953   9.026  41.538  1.00  0.00     0.195 A 
HETATM    2  C3  UNL     1      -2.202   9.394  41.402  1.00  0.00     0.017 A 
HETATM    3  C4  UNL     1      -2.731  10.480  40.533  1.00  0.00     0.054 C 
HETATM    4  C5  UNL     1      -3.076   8.563  42.261  1.00  0.00     0.101 A 
HETATM    5  C6  UNL     1      -4.376   8.649  42.293  1.00  0.00     0.167 C 
HETATM    6  O2  UNL     1      -5.161   9.534  41.506  1.00  0.00    -0.293 OA
HETATM    7  C7  UNL     1      -6.425   8.880  41.272  1.00  0.00     0.254 C 
HETATM    8  C8  UNL     1      -6.365   7.588  42.063  1.00  0.00     0.203 C 
HETATM    9  N1  UNL     1      -5.346   7.951  43.065  1.00  0.00    -0.293 N 
HETATM   10  C9  UNL     1      -5.363   7.752  44.455  1.00  0.00     0.226 C 
HETATM   11  O3  UNL     1      -4.592   8.224  45.307  1.00  0.00    -0.273 OA
HETATM   12  N3  UNL     1      -7.463   9.755  41.714  1.00  0.00    -0.077 NA
HETATM   13  N4  UNL     1      -8.649   9.551  41.020  1.00  0.00    -0.014 NA
HETATM   14  N5  UNL     1      -8.579   9.990  39.697  1.00  0.00    -0.010 NA
HETATM   15  N6  UNL     1      -7.471   9.437  39.062  1.00  0.00    -0.252 N 
ATOM     16  H6  UNL     1      -7.311   9.590  38.066  1.00  0.00     0.187 HD
HETATM   17  C13 UNL     1      -6.566   8.656  39.829  1.00  0.00     0.289 C 
HETATM   18  O4  UNL     1      -5.879   7.764  39.276  1.00  0.00    -0.267 OA
HETATM   19  C14 UNL     1      -2.143   7.659  42.909  1.00  0.00     0.305 A 
HETATM   20  O5  UNL     1      -2.376   6.755  43.726  1.00  0.00    -0.259 OA
HETATM   21  O6  UNL     1      -0.860   7.995  42.425  1.00  0.00    -0.250 OA
ENDROOT
BRANCH  10  22
HETATM   22  C10 UNL     1      -6.448   6.856  44.987  1.00  0.00     0.105 C 
BRANCH  22  23
HETATM   23  C11 UNL     1      -5.840   5.858  45.944  1.00  0.00     0.036 C 
BRANCH  23  24
HETATM   24  C12 UNL     1      -6.887   4.796  46.176  1.00  0.00     0.230 C 
BRANCH  24  25
HETATM   25  N2  UNL     1      -7.786   5.208  47.222  1.00  0.00    -0.079 N 
ATOM     26  H23 UNL     1      -7.572   4.754  48.110  1.00  0.00     0.274 HD
ATOM     27  H22 UNL     1      -7.625   6.174  47.504  1.00  0.00     0.274 HD
ATOM     28  H21 UNL     1      -8.752   5.049  46.936  1.00  0.00     0.274 HD
ENDBRANCH  24  25
ENDBRANCH  23  24
ENDBRANCH  22  23
ENDBRANCH  10  22
BRANCH   1  29
HETATM   29  O1  UNL     1       0.075   9.666  40.825  1.00  0.00    -0.335 OA
HETATM   30  C1  UNL     1       1.341   9.029  40.839  1.00  0.00     0.212 C 
ENDBRANCH   1  29
TORSDOF 5
ENDMDL
MODEL 2
REMARK VINA RESULT: -8.481052148      2.704      6.445
REMARK  5 active torsions:
REMARK  status: ('A' for Active; 'I' for Inactive)
REMARK    1  A    between atoms: O1_2  and  C2_3 
REMARK       I    between atoms: N1_11  and  C9_12 
REMARK    2  A    between atoms: C9_12  and  C10_14 
REMARK    3  A    between atoms: C10_14  and  C11_15 
REMARK    4  A    between atoms: C11_15  and  C12_16 
REMARK    5  A    between atoms: C12_16  and  N2_17 
ROOT
HETATM    1  C2  UNL     1      -5.716   6.041  45.670  1.00  0.00     0.195 A 
HETATM    2  C3  UNL     1      -4.746   6.751  45.152  1.00  0.00     0.017 A 
HETATM    3  C4  UNL     1      -3.398   6.993  45.732  1.00  0.00     0.054 C 
HETATM    4  C5  UNL     1      -5.168   7.320  43.851  1.00  0.00     0.101 A 
HETATM    5  C6  UNL     1      -4.397   8.018  43.066  1.00  0.00     0.167 C 
HETATM    6  O2  UNL     1      -3.035   8.332  43.319  1.00  0.00    -0.293 OA
HETATM    7  C7  UNL     1      -2.381   8.432  42.037  1.00  0.00     0.254 C 
HETATM    8  C8  UNL     1      -3.479   8.252  41.007  1.00  0.00     0.203 C 
HETATM    9  N1  UNL     1      -4.649   8.645  41.814  1.00  0.00    -0.293 N 
HETATM   10  C9  UNL     1      -5.708   9.504  41.476  1.00  0.00     0.226 C 
HETATM   11  O3  UNL     1      -6.583   9.971  42.222  1.00  0.00    -0.273 OA
HETATM   12  N3  UNL     1      -1.751   9.710  41.961  1.00  0.00    -0.077 NA
HETATM   13  N4  UNL     1      -0.641   9.697  41.126  1.00  0.00    -0.014 NA
HETATM   14  N5  UNL     1       0.431   8.987  41.669  1.00  0.00    -0.010 NA
HETATM   15  N6  UNL     1       0.022   7.714  42.057  1.00  0.00    -0.252 N 
ATOM     16  H6  UNL     1       0.698   7.033  42.403  1.00  0.00     0.187 HD
HETATM   17  C13 UNL     1      -1.356   7.385  41.962  1.00  0.00     0.289 C 
HETATM   18  O4  UNL     1      -1.708   6.190  41.812  1.00  0.00    -0.267 OA
HETATM   19  C14 UNL     1      -6.526   6.828  43.698  1.00  0.00     0.305 A 
HETATM   20  O5  UNL     1      -7.321   7.016  42.765  1.00  0.00    -0.259 OA
HETATM   21  O6  UNL     1      -6.801   6.053  44.845  1.00  0.00    -0.250 OA
ENDROOT
BRANCH  10  22
HETATM   22  C10 UNL     1      -5.797   9.914  40.031  1.00  0.00     0.105 C 
BRANCH  22  23
HETATM   23  C11 UNL     1      -6.749   8.986  39.313  1.00  0.00     0.036 C 
BRANCH  23  24
HETATM   24  C12 UNL     1      -6.039   8.529  38.062  1.00  0.00     0.230 C 
BRANCH  24  25
HETATM   25  N2  UNL     1      -6.727   9.018  36.896  1.00  0.00    -0.079 N 
ATOM     26  H23 UNL     1      -6.418   9.955  36.635  1.00  0.00     0.274 HD
ATOM     27  H22 UNL     1      -6.442   8.526  36.051  1.00  0.00     0.274 HD
ATOM     28  H21 UNL     1      -7.736   8.976  37.042  1.00  0.00     0.274 HD
ENDBRANCH  24  25
ENDBRANCH  23  24
ENDBRANCH  22  23
ENDBRANCH  10  22
BRANCH   1  29
HETATM   29  O1  UNL     1      -5.562   5.397  46.909  1.00  0.00    -0.335 OA
HETATM   30  C1  UNL     1      -5.387   3.991  46.869  1.00  0.00     0.212 C 
ENDBRANCH   1  29
TORSDOF 5
ENDMDL
MODEL 3
REMARK VINA RESULT: -8.253005507      2.711      5.945
REMARK  5 active torsions:
REMARK  status: ('A' for Active; 'I' for Inactive)
REMARK    1  A    between atoms: O1_2  and  C2_3 
REMARK       I    between atoms: N1_11  and  C9_12 
REMARK    2  A    between atoms: C9_12  and  C10_14 
REMARK    3  A    between atoms: C10_14  and  C11_15 
REMARK    4  A    between atoms: C11_15  and  C12_16 
REMARK    5  A    between atoms: C12_16  and  N2_17 
ROOT
HETATM    1  C2  UNL     1      -5.388   7.410  44.578  1.00  0.00     0.195 A 
HETATM    2  C3  UNL     1      -5.411   7.284  43.275  1.00  0.00     0.017 A 
HETATM    3  C4  UNL     1      -6.569   6.884  42.430  1.00  0.00     0.054 C 
HETATM    4  C5  UNL     1      -4.081   7.599  42.707  1.00  0.00     0.101 A 
HETATM    5  C6  UNL     1      -3.810   7.624  41.432  1.00  0.00     0.167 C 
HETATM    6  O2  UNL     1      -4.741   7.372  40.389  1.00  0.00    -0.293 OA
HETATM    7  C7  UNL     1      -4.324   8.158  39.254  1.00  0.00     0.254 C 
HETATM    8  C8  UNL     1      -3.023   8.814  39.671  1.00  0.00     0.203 C 
HETATM    9  N1  UNL     1      -2.598   7.882  40.733  1.00  0.00    -0.293 N 
HETATM   10  C9  UNL     1      -1.336   7.307  40.950  1.00  0.00     0.226 C 
HETATM   11  O3  UNL     1      -1.037   6.387  41.729  1.00  0.00    -0.273 OA
HETATM   12  N3  UNL     1      -4.171   7.278  38.140  1.00  0.00    -0.077 NA
HETATM   13  N4  UNL     1      -4.383   7.926  36.930  1.00  0.00    -0.014 NA
HETATM   14  N5  UNL     1      -5.722   8.259  36.726  1.00  0.00    -0.010 NA
HETATM   15  N6  UNL     1      -6.216   8.966  37.819  1.00  0.00    -0.252 N 
ATOM     16  H6  UNL     1      -7.158   9.357  37.804  1.00  0.00     0.187 HD
HETATM   17  C13 UNL     1      -5.381   9.131  38.956  1.00  0.00     0.289 C 
HETATM   18  O4  UNL     1      -5.540  10.116  39.716  1.00  0.00    -0.267 OA
HETATM   19  C14 UNL     1      -3.289   7.928  43.878  1.00  0.00     0.305 A 
HETATM   20  O5  UNL     1      -2.098   8.272  43.941  1.00  0.00    -0.259 OA
HETATM   21  O6  UNL     1      -4.146   7.793  44.991  1.00  0.00    -0.250 OA
ENDROOT
BRANCH  10  22
HETATM   22  C10 UNL     1      -0.199   7.870  40.143  1.00  0.00     0.105 C 
BRANCH  22  23
HETATM   23  C11 UNL     1       0.738   8.617  41.064  1.00  0.00     0.036 C 
BRANCH  23  24
HETATM   24  C12 UNL     1       0.997   9.955  40.417  1.00  0.00     0.230 C 
BRANCH  24  25
HETATM   25  N2  UNL     1       2.386  10.069  40.056  1.00  0.00    -0.079 N 
ATOM     26  H23 UNL     1       2.840   9.158  39.991  1.00  0.00     0.274 HD
ATOM     27  H22 UNL     1       2.505  10.366  39.088  1.00  0.00     0.274 HD
ATOM     28  H21 UNL     1       2.868  10.690  40.708  1.00  0.00     0.274 HD
ENDBRANCH  24  25
ENDBRANCH  23  24
ENDBRANCH  22  23
ENDBRANCH  10  22
BRANCH   1  29
HETATM   29  O1  UNL     1      -6.534   7.164  45.352  1.00  0.00    -0.335 OA
HETATM   30  C1  UNL     1      -6.619   5.886  45.959  1.00  0.00     0.212 C 
ENDBRANCH   1  29
TORSDOF 5
ENDMDL
MODEL 4
REMARK VINA RESULT: -8.139365906      3.253      6.950
REMARK  5 active torsions:
REMARK  status: ('A' for Active; 'I' for Inactive)
REMARK    1  A    between atoms: O1_2  and  C2_3 
REMARK       I    between atoms: N1_11  and  C9_12 
REMARK    2  A    between atoms: C9_12  and  C10_14 
REMARK    3  A    between atoms: C10_14  and  C11_15 
REMARK    4  A    between atoms: C11_15  and  C12_16 
REMARK    5  A    between atoms: C12_16  and  N2_17 
ROOT
HETATM    1  C2  UNL     1      -6.386   7.033  44.001  1.00  0.00     0.195 A 
HETATM    2  C3  UNL     1      -5.308   7.642  43.577  1.00  0.00     0.017 A 
HETATM    3  C4  UNL     1      -4.276   8.325  44.403  1.00  0.00     0.054 C 
HETATM    4  C5  UNL     1      -5.230   7.573  42.100  1.00  0.00     0.101 A 
HETATM    5  C6  UNL     1      -4.237   8.033  41.391  1.00  0.00     0.167 C 
HETATM    6  O2  UNL     1      -3.073   8.656  41.914  1.00  0.00    -0.293 OA
HETATM    7  C7  UNL     1      -1.992   8.360  41.006  1.00  0.00     0.254 C 
HETATM    8  C8  UNL     1      -2.627   7.602  39.856  1.00  0.00     0.203 C 
HETATM    9  N1  UNL     1      -4.021   8.066  39.985  1.00  0.00    -0.293 N 
HETATM   10  C9  UNL     1      -4.896   8.524  38.987  1.00  0.00     0.226 C 
HETATM   11  O3  UNL     1      -5.996   9.083  39.129  1.00  0.00    -0.273 OA
HETATM   12  N3  UNL     1      -1.406   9.597  40.600  1.00  0.00    -0.077 NA
HETATM   13  N4  UNL     1      -0.066   9.453  40.265  1.00  0.00    -0.014 NA
HETATM   14  N5  UNL     1       0.744   9.214  41.376  1.00  0.00    -0.010 NA
HETATM   15  N6  UNL     1       0.247   8.143  42.114  1.00  0.00    -0.252 N 
ATOM     16  H6  UNL     1       0.760   7.781  42.918  1.00  0.00     0.187 HD
HETATM   17  C13 UNL     1      -0.991   7.565  41.725  1.00  0.00     0.289 C 
HETATM   18  O4  UNL     1      -1.237   6.366  41.995  1.00  0.00    -0.267 OA
HETATM   19  C14 UNL     1      -6.423   6.830  41.738  1.00  0.00     0.305 A 
HETATM   20  O5  UNL     1      -6.820   6.495  40.611  1.00  0.00    -0.259 OA
HETATM   21  O6  UNL     1      -7.088   6.529  42.947  1.00  0.00    -0.250 OA
ENDROOT
BRANCH  10  22
HETATM   22  C10 UNL     1      -4.453   8.314  37.565  1.00  0.00     0.105 C 
BRANCH  22  23
HETATM   23  C11 UNL     1      -5.339   7.273  36.920  1.00  0.00     0.036 C 
BRANCH  23  24
HETATM   24  C12 UNL     1      -5.214   7.470  35.429  1.00  0.00     0.230 C 
BRANCH  24  25
HETATM   25  N2  UNL     1      -4.016   8.207  35.127  1.00  0.00    -0.079 N 
ATOM     26  H23 UNL     1      -3.895   8.345  34.123  1.00  0.00     0.274 HD
ATOM     27  H22 UNL     1      -4.088   9.185  35.405  1.00  0.00     0.274 HD
ATOM     28  H21 UNL     1      -3.207   7.749  35.548  1.00  0.00     0.274 HD
ENDBRANCH  24  25
ENDBRANCH  23  24
ENDBRANCH  22  23
ENDBRANCH  10  22
BRANCH   1  29
HETATM   29  O1  UNL     1      -6.688   6.961  45.372  1.00  0.00    -0.335 OA
HETATM   30  C1  UNL     1      -6.474   5.708  45.998  1.00  0.00     0.212 C 
ENDBRANCH   1  29
TORSDOF 5
ENDMDL
MODEL 5
REMARK VINA RESULT: -8.101754384      3.144      5.805
REMARK  5 active torsions:
REMARK  status: ('A' for Active; 'I' for Inactive)
REMARK    1  A    between atoms: O1_2  and  C2_3 
REMARK       I    between atoms: N1_11  and  C9_12 
REMARK    2  A    between atoms: C9_12  and  C10_14 
REMARK    3  A    between atoms: C10_14  and  C11_15 
REMARK    4  A    between atoms: C11_15  and  C12_16 
REMARK    5  A    between atoms: C12_16  and  N2_17 
ROOT
HETATM    1  C2  UNL     1      -5.967   8.617  37.070  1.00  0.00     0.195 A 
HETATM    2  C3  UNL     1      -4.912   8.349  37.797  1.00  0.00     0.017 A 
HETATM    3  C4  UNL     1      -3.625   7.762  37.335  1.00  0.00     0.054 C 
HETATM    4  C5  UNL     1      -5.160   8.714  39.210  1.00  0.00     0.101 A 
HETATM    5  C6  UNL     1      -4.274   8.624  40.162  1.00  0.00     0.167 C 
HETATM    6  O2  UNL     1      -2.934   8.182  39.999  1.00  0.00    -0.293 OA
HETATM    7  C7  UNL     1      -2.139   8.873  40.983  1.00  0.00     0.254 C 
HETATM    8  C8  UNL     1      -3.124   9.680  41.805  1.00  0.00     0.203 C 
HETATM    9  N1  UNL     1      -4.356   8.909  41.554  1.00  0.00    -0.293 N 
HETATM   10  C9  UNL     1      -5.327   8.471  42.469  1.00  0.00     0.226 C 
HETATM   11  O3  UNL     1      -6.256   7.669  42.276  1.00  0.00    -0.273 OA
HETATM   12  N3  UNL     1      -1.442   7.894  41.755  1.00  0.00    -0.077 NA
HETATM   13  N4  UNL     1      -0.249   8.387  42.268  1.00  0.00    -0.014 NA
HETATM   14  N5  UNL     1       0.721   8.580  41.284  1.00  0.00    -0.010 NA
HETATM   15  N6  UNL     1       0.209   9.356  40.247  1.00  0.00    -0.252 N 
ATOM     16  H6  UNL     1       0.808   9.661  39.480  1.00  0.00     0.187 HD
HETATM   17  C13 UNL     1      -1.165   9.714  40.280  1.00  0.00     0.289 C 
HETATM   18  O4  UNL     1      -1.556  10.758  39.705  1.00  0.00    -0.267 OA
HETATM   19  C14 UNL     1      -6.515   9.235  39.187  1.00  0.00     0.305 A 
HETATM   20  O5  UNL     1      -7.193   9.684  40.124  1.00  0.00    -0.259 OA
HETATM   21  O6  UNL     1      -6.953   9.147  37.848  1.00  0.00    -0.250 OA
ENDROOT
BRANCH  10  22
HETATM   22  C10 UNL     1      -5.237   9.040  43.859  1.00  0.00     0.105 C 
BRANCH  22  23
HETATM   23  C11 UNL     1      -4.849   7.939  44.819  1.00  0.00     0.036 C 
BRANCH  23  24
HETATM   24  C12 UNL     1      -3.390   8.147  45.140  1.00  0.00     0.230 C 
BRANCH  24  25
HETATM   25  N2  UNL     1      -2.583   7.213  44.400  1.00  0.00    -0.079 N 
ATOM     26  H23 UNL     1      -2.085   7.662  43.631  1.00  0.00     0.274 HD
ATOM     27  H22 UNL     1      -1.776   6.897  44.936  1.00  0.00     0.274 HD
ATOM     28  H21 UNL     1      -3.157   6.432  44.078  1.00  0.00     0.274 HD
ENDBRANCH  24  25
ENDBRANCH  23  24
ENDBRANCH  22  23
ENDBRANCH  10  22
BRANCH   1  29
HETATM   29  O1  UNL     1      -5.982   8.358  35.689  1.00  0.00    -0.335 OA
HETATM   30  C1  UNL     1      -7.011   8.984  34.943  1.00  0.00     0.212 C 
ENDBRANCH   1  29
TORSDOF 5
ENDMDL
