MODEL 1
REMARK VINA RESULT: -5.360238462      0.000      0.000
REMARK  9 active torsions:
REMARK  status: ('A' for Active; 'I' for Inactive)
REMARK    1  A    between atoms: C2_2  and  O1_3 
REMARK    2  A    between atoms: O1_3  and  C3_4 
REMARK    3  A    between atoms: C3_4  and  N1_5 
REMARK    4  A    between atoms: C6_10  and  N3_11 
REMARK    5  A    between atoms: N3_11  and  N4_13 
REMARK    6  A    between atoms: N6_19  and  C8_21 
REMARK    7  A    between atoms: C8_21  and  N7_22 
REMARK    8  A    between atoms: C8_21  and  O2_26 
REMARK    9  A    between atoms: O2_26  and  N8_27 
ROOT
HETATM    1  N1  UNL     1     -16.742  41.243  26.952  1.00  0.00    -0.282 N 
HETATM    2  C4  UNL     1     -16.024  40.392  27.739  1.00  0.00     0.192 A 
HETATM    3  N2  UNL     1     -16.319  39.138  27.360  1.00  0.00    -0.346 N 
ATOM      4  H2  UNL     1     -15.931  38.290  27.771  1.00  0.00     0.167 HD
HETATM    5  C5  UNL     1     -17.194  39.179  26.369  1.00  0.00     0.124 A 
HETATM    6  C6  UNL     1     -17.713  38.049  25.749  1.00  0.00     0.152 C 
HETATM    7  N5  UNL     1     -18.842  38.026  25.017  1.00  0.00    -0.323 N 
ATOM      8  H5  UNL     1     -19.147  37.100  24.717  1.00  0.00     0.169 HD
HETATM    9  C7  UNL     1     -19.635  39.056  24.619  1.00  0.00     0.150 C 
HETATM   10  N6  UNL     1     -20.865  38.822  24.377  1.00  0.00    -0.323 N 
ATOM     11  H6  UNL     1     -21.424  39.622  24.081  1.00  0.00     0.165 HD
HETATM   12  C9  UNL     1     -19.243  40.367  24.445  1.00  0.00     0.147 C 
HETATM   13  N9  UNL     1     -19.769  41.097  23.548  1.00  0.00    -0.378 N 
ATOM     14  H9  UNL     1     -19.414  42.052  23.498  1.00  0.00     0.160 HD
HETATM   15  C10 UNL     1     -20.784  40.774  22.603  1.00  0.00     0.148 C 
HETATM   16  N10 UNL     1     -18.279  41.012  25.174  1.00  0.00    -0.323 N 
ATOM     17  H10 UNL     1     -18.169  42.007  24.975  1.00  0.00     0.169 HD
HETATM   18  C11 UNL     1     -17.474  40.527  26.096  1.00  0.00     0.146 A 
ENDROOT
BRANCH  10  19
HETATM   19  C8  UNL     1     -21.550  37.576  24.470  1.00  0.00     0.451 C 
BRANCH  19  20
HETATM   20  N7  UNL     1     -22.946  37.833  24.083  1.00  0.00    -0.033 N 
ATOM     21  H73 UNL     1     -23.225  37.346  23.231  1.00  0.00     0.279 HD
ATOM     22  H72 UNL     1     -23.624  37.395  24.708  1.00  0.00     0.279 HD
ATOM     23  H71 UNL     1     -23.051  38.845  24.021  1.00  0.00     0.279 HD
ENDBRANCH  19  20
BRANCH  19  24
HETATM   24  O2  UNL     1     -21.536  37.068  25.790  1.00  0.00    -0.232 OA
BRANCH  24  25
HETATM   25  N8  UNL     1     -22.436  37.733  26.545  1.00  0.00    -0.307 N 
ATOM     26  H82 UNL     1     -23.368  38.000  26.227  1.00  0.00     0.184 HD
ATOM     27  H81 UNL     1     -22.042  37.922  27.466  1.00  0.00     0.184 HD
ENDBRANCH  24  25
ENDBRANCH  19  24
ENDBRANCH  10  19
BRANCH   6  28
HETATM   28  N3  UNL     1     -17.056  36.972  25.898  1.00  0.00    -0.290 N 
ATOM     29  H3  UNL     1     -16.146  36.926  25.440  1.00  0.00     0.188 HD
BRANCH  28  30
HETATM   30  N4  UNL     1     -17.441  35.864  26.609  1.00  0.00    -0.344 N 
ATOM     31  H42 UNL     1     -18.211  36.009  27.262  1.00  0.00     0.176 HD
ATOM     32  H41 UNL     1     -17.040  34.928  26.550  1.00  0.00     0.176 HD
ENDBRANCH  28  30
ENDBRANCH   6  28
BRANCH   1  33
HETATM   33  C3  UNL     1     -16.677  42.658  27.108  1.00  0.00     0.235 C 
BRANCH  33  34
HETATM   34  O1  UNL     1     -15.751  43.291  26.311  1.00  0.00    -0.346 OA
BRANCH  34  35
HETATM   35  C2  UNL     1     -16.169  44.425  25.674  1.00  0.00     0.171 C 
HETATM   36  C1  UNL     1     -15.123  45.507  25.967  1.00  0.00     0.034 C 
ENDBRANCH  34  35
ENDBRANCH  33  34
ENDBRANCH   1  33
TORSDOF 9
ENDMDL
MODEL 2
REMARK VINA RESULT: -5.318826416      2.661      3.646
REMARK  9 active torsions:
REMARK  status: ('A' for Active; 'I' for Inactive)
REMARK    1  A    between atoms: C2_2  and  O1_3 
REMARK    2  A    between atoms: O1_3  and  C3_4 
REMARK    3  A    between atoms: C3_4  and  N1_5 
REMARK    4  A    between atoms: C6_10  and  N3_11 
REMARK    5  A    between atoms: N3_11  and  N4_13 
REMARK    6  A    between atoms: N6_19  and  C8_21 
REMARK    7  A    between atoms: C8_21  and  N7_22 
REMARK    8  A    between atoms: C8_21  and  O2_26 
REMARK    9  A    between atoms: O2_26  and  N8_27 
ROOT
HETATM    1  N1  UNL     1     -18.059  39.800  25.833  1.00  0.00    -0.282 N 
HETATM    2  C4  UNL     1     -17.178  39.508  26.832  1.00  0.00     0.192 A 
HETATM    3  N2  UNL     1     -16.934  38.188  26.789  1.00  0.00    -0.346 N 
ATOM      4  H2  UNL     1     -16.311  37.682  27.417  1.00  0.00     0.167 HD
HETATM    5  C5  UNL     1     -17.631  37.650  25.802  1.00  0.00     0.124 A 
HETATM    6  C6  UNL     1     -17.609  36.297  25.489  1.00  0.00     0.152 C 
HETATM    7  N5  UNL     1     -18.548  35.663  24.763  1.00  0.00    -0.323 N 
ATOM      8  H5  UNL     1     -18.445  34.649  24.710  1.00  0.00     0.169 HD
HETATM    9  C7  UNL     1     -19.612  36.175  24.091  1.00  0.00     0.150 C 
HETATM   10  N6  UNL     1     -20.625  35.427  23.890  1.00  0.00    -0.323 N 
ATOM     11  H6  UNL     1     -21.402  35.849  23.381  1.00  0.00     0.165 HD
HETATM   12  C9  UNL     1     -19.720  37.454  23.587  1.00  0.00     0.147 C 
HETATM   13  N9  UNL     1     -20.366  37.688  22.518  1.00  0.00    -0.378 N 
ATOM     14  H9  UNL     1     -20.390  38.665  22.227  1.00  0.00     0.160 HD
HETATM   15  C10 UNL     1     -21.061  36.782  21.667  1.00  0.00     0.148 C 
HETATM   16  N10 UNL     1     -19.165  38.577  24.143  1.00  0.00    -0.323 N 
ATOM     17  H10 UNL     1     -19.411  39.458  23.692  1.00  0.00     0.169 HD
HETATM   18  C11 UNL     1     -18.358  38.676  25.179  1.00  0.00     0.146 A 
ENDROOT
BRANCH  10  19
HETATM   19  C8  UNL     1     -20.802  34.070  24.291  1.00  0.00     0.451 C 
BRANCH  19  20
HETATM   20  N7  UNL     1     -22.105  33.640  23.761  1.00  0.00    -0.033 N 
ATOM     21  H73 UNL     1     -22.753  34.413  23.607  1.00  0.00     0.279 HD
ATOM     22  H72 UNL     1     -22.060  33.317  22.794  1.00  0.00     0.279 HD
ATOM     23  H71 UNL     1     -22.465  32.935  24.406  1.00  0.00     0.279 HD
ENDBRANCH  19  20
BRANCH  19  24
HETATM   24  O2  UNL     1     -20.824  33.941  25.699  1.00  0.00    -0.232 OA
BRANCH  24  25
HETATM   25  N8  UNL     1     -20.240  32.778  26.060  1.00  0.00    -0.307 N 
ATOM     26  H82 UNL     1     -20.750  31.927  26.294  1.00  0.00     0.184 HD
ATOM     27  H81 UNL     1     -19.226  32.888  26.061  1.00  0.00     0.184 HD
ENDBRANCH  24  25
ENDBRANCH  19  24
ENDBRANCH  10  19
BRANCH   6  28
HETATM   28  N3  UNL     1     -16.621  35.632  25.931  1.00  0.00    -0.290 N 
ATOM     29  H3  UNL     1     -16.483  35.637  26.941  1.00  0.00     0.188 HD
BRANCH  28  30
HETATM   30  N4  UNL     1     -15.721  34.906  25.193  1.00  0.00    -0.344 N 
ATOM     31  H42 UNL     1     -15.807  35.000  24.181  1.00  0.00     0.176 HD
ATOM     32  H41 UNL     1     -14.987  34.294  25.551  1.00  0.00     0.176 HD
ENDBRANCH  28  30
ENDBRANCH   6  28
BRANCH   1  33
HETATM   33  C3  UNL     1     -18.547  41.120  25.613  1.00  0.00     0.235 C 
BRANCH  33  34
HETATM   34  O1  UNL     1     -19.918  41.239  25.592  1.00  0.00    -0.346 OA
BRANCH  34  35
HETATM   35  C2  UNL     1     -20.551  41.213  26.802  1.00  0.00     0.171 C 
HETATM   36  C1  UNL     1     -21.546  40.047  26.755  1.00  0.00     0.034 C 
ENDBRANCH  34  35
ENDBRANCH  33  34
ENDBRANCH   1  33
TORSDOF 9
ENDMDL
MODEL 3
REMARK VINA RESULT: -5.317143034      1.093      1.593
REMARK  9 active torsions:
REMARK  status: ('A' for Active; 'I' for Inactive)
REMARK    1  A    between atoms: C2_2  and  O1_3 
REMARK    2  A    between atoms: O1_3  and  C3_4 
REMARK    3  A    between atoms: C3_4  and  N1_5 
REMARK    4  A    between atoms: C6_10  and  N3_11 
REMARK    5  A    between atoms: N3_11  and  N4_13 
REMARK    6  A    between atoms: N6_19  and  C8_21 
REMARK    7  A    between atoms: C8_21  and  N7_22 
REMARK    8  A    between atoms: C8_21  and  O2_26 
REMARK    9  A    between atoms: O2_26  and  N8_27 
ROOT
HETATM    1  N1  UNL     1     -16.759  40.964  26.687  1.00  0.00    -0.282 N 
HETATM    2  C4  UNL     1     -15.981  40.163  27.469  1.00  0.00     0.192 A 
HETATM    3  N2  UNL     1     -16.295  38.888  27.188  1.00  0.00    -0.346 N 
ATOM      4  H2  UNL     1     -15.873  38.067  27.619  1.00  0.00     0.167 HD
HETATM    5  C5  UNL     1     -17.240  38.868  26.262  1.00  0.00     0.124 A 
HETATM    6  C6  UNL     1     -17.795  37.703  25.751  1.00  0.00     0.152 C 
HETATM    7  N5  UNL     1     -18.974  37.634  25.105  1.00  0.00    -0.323 N 
ATOM      8  H5  UNL     1     -19.294  36.691  24.884  1.00  0.00     0.169 HD
HETATM    9  C7  UNL     1     -19.800  38.637  24.706  1.00  0.00     0.150 C 
HETATM   10  N6  UNL     1     -21.043  38.387  24.568  1.00  0.00    -0.323 N 
ATOM     11  H6  UNL     1     -21.627  39.166  24.266  1.00  0.00     0.165 HD
HETATM   12  C9  UNL     1     -19.430  39.935  24.425  1.00  0.00     0.147 C 
HETATM   13  N9  UNL     1     -20.024  40.610  23.527  1.00  0.00    -0.378 N 
ATOM     14  H9  UNL     1     -19.679  41.560  23.394  1.00  0.00     0.160 HD
HETATM   15  C10 UNL     1     -21.103  40.229  22.679  1.00  0.00     0.148 C 
HETATM   16  N10 UNL     1     -18.419  40.625  25.043  1.00  0.00    -0.323 N 
ATOM     17  H10 UNL     1     -18.330  41.606  24.777  1.00  0.00     0.169 HD
HETATM   18  C11 UNL     1     -17.546  40.197  25.931  1.00  0.00     0.146 A 
ENDROOT
BRANCH  10  19
HETATM   19  C8  UNL     1     -21.713  37.147  24.784  1.00  0.00     0.451 C 
BRANCH  19  20
HETATM   20  N7  UNL     1     -23.026  37.257  24.131  1.00  0.00    -0.033 N 
ATOM     21  H73 UNL     1     -23.754  36.716  24.597  1.00  0.00     0.279 HD
ATOM     22  H72 UNL     1     -23.457  38.175  24.245  1.00  0.00     0.279 HD
ATOM     23  H71 UNL     1     -22.890  36.994  23.155  1.00  0.00     0.279 HD
ENDBRANCH  19  20
BRANCH  19  24
HETATM   24  O2  UNL     1     -21.915  36.896  26.161  1.00  0.00    -0.232 OA
BRANCH  24  25
HETATM   25  N8  UNL     1     -22.723  37.844  26.684  1.00  0.00    -0.307 N 
ATOM     26  H82 UNL     1     -23.268  38.505  26.129  1.00  0.00     0.184 HD
ATOM     27  H81 UNL     1     -22.702  37.793  27.701  1.00  0.00     0.184 HD
ENDBRANCH  24  25
ENDBRANCH  19  24
ENDBRANCH  10  19
BRANCH   6  28
HETATM   28  N3  UNL     1     -17.123  36.638  25.915  1.00  0.00    -0.290 N 
ATOM     29  H3  UNL     1     -16.225  36.586  25.434  1.00  0.00     0.188 HD
BRANCH  28  30
HETATM   30  N4  UNL     1     -17.476  35.549  26.672  1.00  0.00    -0.344 N 
ATOM     31  H42 UNL     1     -18.268  35.690  27.299  1.00  0.00     0.176 HD
ATOM     32  H41 UNL     1     -17.032  34.630  26.668  1.00  0.00     0.176 HD
ENDBRANCH  28  30
ENDBRANCH   6  28
BRANCH   1  33
HETATM   33  C3  UNL     1     -16.692  42.386  26.754  1.00  0.00     0.235 C 
BRANCH  33  34
HETATM   34  O1  UNL     1     -17.906  43.023  26.877  1.00  0.00    -0.346 OA
BRANCH  34  35
HETATM   35  C2  UNL     1     -18.446  43.067  28.131  1.00  0.00     0.171 C 
HETATM   36  C1  UNL     1     -19.790  42.332  28.060  1.00  0.00     0.034 C 
ENDBRANCH  34  35
ENDBRANCH  33  34
ENDBRANCH   1  33
TORSDOF 9
ENDMDL
MODEL 4
REMARK VINA RESULT: -5.290464336      5.273      8.326
REMARK  9 active torsions:
REMARK  status: ('A' for Active; 'I' for Inactive)
REMARK    1  A    between atoms: C2_2  and  O1_3 
REMARK    2  A    between atoms: O1_3  and  C3_4 
REMARK    3  A    between atoms: C3_4  and  N1_5 
REMARK    4  A    between atoms: C6_10  and  N3_11 
REMARK    5  A    between atoms: N3_11  and  N4_13 
REMARK    6  A    between atoms: N6_19  and  C8_21 
REMARK    7  A    between atoms: C8_21  and  N7_22 
REMARK    8  A    between atoms: C8_21  and  O2_26 
REMARK    9  A    between atoms: O2_26  and  N8_27 
ROOT
HETATM    1  N1  UNL     1     -18.610  47.095  20.494  1.00  0.00    -0.282 N 
HETATM    2  C4  UNL     1     -18.544  46.132  19.532  1.00  0.00     0.192 A 
HETATM    3  N2  UNL     1     -18.394  44.948  20.148  1.00  0.00    -0.346 N 
ATOM      4  H2  UNL     1     -18.316  44.045  19.681  1.00  0.00     0.167 HD
HETATM    5  C5  UNL     1     -18.364  45.140  21.456  1.00  0.00     0.124 A 
HETATM    6  C6  UNL     1     -18.214  44.118  22.384  1.00  0.00     0.152 C 
HETATM    7  N5  UNL     1     -17.817  44.291  23.658  1.00  0.00    -0.323 N 
ATOM      8  H5  UNL     1     -17.654  43.432  24.183  1.00  0.00     0.169 HD
HETATM    9  C7  UNL     1     -17.603  45.442  24.347  1.00  0.00     0.150 C 
HETATM   10  N6  UNL     1     -16.791  45.424  25.331  1.00  0.00    -0.323 N 
ATOM     11  H6  UNL     1     -16.659  46.309  25.821  1.00  0.00     0.165 HD
HETATM   12  C9  UNL     1     -18.186  46.666  24.092  1.00  0.00     0.147 C 
HETATM   13  N9  UNL     1     -18.452  47.478  25.033  1.00  0.00    -0.378 N 
ATOM     14  H9  UNL     1     -18.881  48.357  24.744  1.00  0.00     0.160 HD
HETATM   15  C10 UNL     1     -18.238  47.336  26.434  1.00  0.00     0.148 C 
HETATM   16  N10 UNL     1     -18.541  47.135  22.854  1.00  0.00    -0.323 N 
ATOM     17  H10 UNL     1     -18.883  48.096  22.830  1.00  0.00     0.169 HD
HETATM   18  C11 UNL     1     -18.503  46.517  21.692  1.00  0.00     0.146 A 
ENDROOT
BRANCH  10  19
HETATM   19  C8  UNL     1     -16.046  44.315  25.826  1.00  0.00     0.451 C 
BRANCH  19  20
HETATM   20  N7  UNL     1     -16.486  44.096  27.212  1.00  0.00    -0.033 N 
ATOM     21  H73 UNL     1     -17.478  44.288  27.355  1.00  0.00     0.279 HD
ATOM     22  H72 UNL     1     -16.508  43.111  27.477  1.00  0.00     0.279 HD
ATOM     23  H71 UNL     1     -15.877  44.659  27.805  1.00  0.00     0.279 HD
ENDBRANCH  19  20
BRANCH  19  24
HETATM   24  O2  UNL     1     -14.656  44.581  25.833  1.00  0.00    -0.232 OA
BRANCH  24  25
HETATM   25  N8  UNL     1     -14.445  45.904  25.998  1.00  0.00    -0.307 N 
ATOM     26  H82 UNL     1     -15.146  46.559  26.345  1.00  0.00     0.184 HD
ATOM     27  H81 UNL     1     -13.491  46.138  25.725  1.00  0.00     0.184 HD
ENDBRANCH  24  25
ENDBRANCH  19  24
ENDBRANCH  10  19
BRANCH   6  28
HETATM   28  N3  UNL     1     -18.476  42.944  21.977  1.00  0.00    -0.290 N 
ATOM     29  H3  UNL     1     -18.273  42.744  20.998  1.00  0.00     0.188 HD
BRANCH  28  30
HETATM   30  N4  UNL     1     -19.005  41.915  22.715  1.00  0.00    -0.344 N 
ATOM     31  H42 UNL     1     -18.595  40.997  22.543  1.00  0.00     0.176 HD
ATOM     32  H41 UNL     1     -19.754  41.978  23.405  1.00  0.00     0.176 HD
ENDBRANCH  28  30
ENDBRANCH   6  28
BRANCH   1  33
HETATM   33  C3  UNL     1     -18.748  48.477  20.177  1.00  0.00     0.235 C 
BRANCH  33  34
HETATM   34  O1  UNL     1     -18.314  49.346  21.153  1.00  0.00    -0.346 OA
BRANCH  34  35
HETATM   35  C2  UNL     1     -18.711  50.647  21.029  1.00  0.00     0.171 C 
HETATM   36  C1  UNL     1     -17.970  51.221  19.816  1.00  0.00     0.034 C 
ENDBRANCH  34  35
ENDBRANCH  33  34
ENDBRANCH   1  33
TORSDOF 9
ENDMDL
MODEL 5
REMARK VINA RESULT: -5.277585838      2.402      3.017
REMARK  9 active torsions:
REMARK  status: ('A' for Active; 'I' for Inactive)
REMARK    1  A    between atoms: C2_2  and  O1_3 
REMARK    2  A    between atoms: O1_3  and  C3_4 
REMARK    3  A    between atoms: C3_4  and  N1_5 
REMARK    4  A    between atoms: C6_10  and  N3_11 
REMARK    5  A    between atoms: N3_11  and  N4_13 
REMARK    6  A    between atoms: N6_19  and  C8_21 
REMARK    7  A    between atoms: C8_21  and  N7_22 
REMARK    8  A    between atoms: C8_21  and  O2_26 
REMARK    9  A    between atoms: O2_26  and  N8_27 
ROOT
HETATM    1  N1  UNL     1     -18.061  39.729  25.770  1.00  0.00    -0.282 N 
HETATM    2  C4  UNL     1     -17.200  39.441  26.787  1.00  0.00     0.192 A 
HETATM    3  N2  UNL     1     -16.968  38.119  26.765  1.00  0.00    -0.346 N 
ATOM      4  H2  UNL     1     -16.360  37.615  27.410  1.00  0.00     0.167 HD
HETATM    5  C5  UNL     1     -17.652  37.575  25.772  1.00  0.00     0.124 A 
HETATM    6  C6  UNL     1     -17.637  36.219  25.476  1.00  0.00     0.152 C 
HETATM    7  N5  UNL     1     -18.569  35.583  24.741  1.00  0.00    -0.323 N 
ATOM      8  H5  UNL     1     -18.475  34.569  24.702  1.00  0.00     0.169 HD
HETATM    9  C7  UNL     1     -19.617  36.097  24.044  1.00  0.00     0.150 C 
HETATM   10  N6  UNL     1     -20.633  35.355  23.835  1.00  0.00    -0.323 N 
ATOM     11  H6  UNL     1     -21.397  35.779  23.308  1.00  0.00     0.165 HD
HETATM   12  C9  UNL     1     -19.704  37.371  23.523  1.00  0.00     0.147 C 
HETATM   13  N9  UNL     1     -20.330  37.598  22.440  1.00  0.00    -0.378 N 
ATOM     14  H9  UNL     1     -20.339  38.571  22.137  1.00  0.00     0.160 HD
HETATM   15  C10 UNL     1     -21.019  36.687  21.589  1.00  0.00     0.148 C 
HETATM   16  N10 UNL     1     -19.149  38.496  24.076  1.00  0.00    -0.323 N 
ATOM     17  H10 UNL     1     -19.379  39.374  23.610  1.00  0.00     0.169 HD
HETATM   18  C11 UNL     1     -18.359  38.600  25.124  1.00  0.00     0.146 A 
ENDROOT
BRANCH  10  19
HETATM   19  C8  UNL     1     -20.829  34.005  24.249  1.00  0.00     0.451 C 
BRANCH  19  20
HETATM   20  N7  UNL     1     -22.123  33.578  23.695  1.00  0.00    -0.033 N 
ATOM     21  H73 UNL     1     -22.036  33.071  22.814  1.00  0.00     0.279 HD
ATOM     22  H72 UNL     1     -22.562  32.828  24.230  1.00  0.00     0.279 HD
ATOM     23  H71 UNL     1     -22.702  34.415  23.624  1.00  0.00     0.279 HD
ENDBRANCH  19  20
BRANCH  19  24
HETATM   24  O2  UNL     1     -20.885  33.894  25.658  1.00  0.00    -0.232 OA
BRANCH  24  25
HETATM   25  N8  UNL     1     -20.296  32.743  26.049  1.00  0.00    -0.307 N 
ATOM     26  H82 UNL     1     -19.374  32.435  25.740  1.00  0.00     0.184 HD
ATOM     27  H81 UNL     1     -20.911  32.242  26.689  1.00  0.00     0.184 HD
ENDBRANCH  24  25
ENDBRANCH  19  24
ENDBRANCH  10  19
BRANCH   6  28
HETATM   28  N3  UNL     1     -16.663  35.550  25.943  1.00  0.00    -0.290 N 
ATOM     29  H3  UNL     1     -16.621  35.453  26.957  1.00  0.00     0.188 HD
BRANCH  28  30
HETATM   30  N4  UNL     1     -15.662  34.944  25.227  1.00  0.00    -0.344 N 
ATOM     31  H42 UNL     1     -15.867  34.776  24.242  1.00  0.00     0.176 HD
ATOM     32  H41 UNL     1     -14.749  34.651  25.578  1.00  0.00     0.176 HD
ENDBRANCH  28  30
ENDBRANCH   6  28
BRANCH   1  33
HETATM   33  C3  UNL     1     -18.533  41.050  25.526  1.00  0.00     0.235 C 
BRANCH  33  34
HETATM   34  O1  UNL     1     -18.312  41.947  26.547  1.00  0.00    -0.346 OA
BRANCH  34  35
HETATM   35  C2  UNL     1     -17.796  43.161  26.190  1.00  0.00     0.171 C 
HETATM   36  C1  UNL     1     -16.303  43.125  26.539  1.00  0.00     0.034 C 
ENDBRANCH  34  35
ENDBRANCH  33  34
ENDBRANCH   1  33
TORSDOF 9
ENDMDL
