MODEL 1
REMARK VINA RESULT: -6.737239499      0.000      0.000
REMARK  5 active torsions:
REMARK  status: ('A' for Active; 'I' for Inactive)
REMARK    1  A    between atoms: O1_1  and  C1_3 
REMARK    2  A    between atoms: C1_3  and  C2_4 
REMARK    3  A    between atoms: C1_3  and  C8_12 
REMARK    4  A    between atoms: C2_4  and  C3_5 
REMARK    5  A    between atoms: C3_5  and  N1_6 
ROOT
HETATM    1  C1  UNL     1      -4.289   0.980  15.535  1.00  0.00     0.123 C 
ENDROOT
BRANCH   1   2
HETATM    2  O1  UNL     1      -4.929  -0.249  15.491  1.00  0.00    -0.395 OA
ATOM      3  H1  UNL     1      -4.318  -0.973  15.564  1.00  0.00     0.210 HD
ENDBRANCH   1   2
BRANCH   1   4
HETATM    4  C2  UNL     1      -4.178   1.589  14.217  1.00  0.00     0.062 C 
BRANCH   4   5
HETATM    5  C3  UNL     1      -4.041   0.692  13.048  1.00  0.00     0.275 C 
BRANCH   5   6
HETATM    6  N1  UNL     1      -3.195   1.063  11.955  1.00  0.00     0.092 N 
HETATM    7  C4  UNL     1      -3.959   0.727  10.715  1.00  0.00     0.298 C 
HETATM    8  C5  UNL     1      -5.285   1.380  10.786  1.00  0.00     0.198 C 
HETATM    9  O2  UNL     1      -5.125   2.762  10.721  1.00  0.00    -0.388 OA
HETATM   10  C6  UNL     1      -3.809   3.148  10.766  1.00  0.00     0.198 C 
HETATM   11  C7  UNL     1      -3.065   2.536  11.937  1.00  0.00     0.298 C 
ENDBRANCH   5   6
ENDBRANCH   4   5
ENDBRANCH   1   4
BRANCH   1  12
HETATM   12  C8  UNL     1      -5.050   1.811  16.547  1.00  0.00     0.014 C 
HETATM   13  C9  UNL     1      -5.844   0.977  17.505  1.00  0.00     0.007 C 
HETATM   14  C10 UNL     1      -6.601   2.081  18.259  1.00  0.00     0.000 C 
HETATM   15  C11 UNL     1      -6.806   3.190  17.221  1.00  0.00     0.000 C 
HETATM   16  C12 UNL     1      -6.120   2.675  15.945  1.00  0.00     0.007 C 
ENDBRANCH   1  12
TORSDOF 5
ENDMDL
MODEL 2
REMARK VINA RESULT: -6.582365021      1.492      1.932
REMARK  5 active torsions:
REMARK  status: ('A' for Active; 'I' for Inactive)
REMARK    1  A    between atoms: O1_1  and  C1_3 
REMARK    2  A    between atoms: C1_3  and  C2_4 
REMARK    3  A    between atoms: C1_3  and  C8_12 
REMARK    4  A    between atoms: C2_4  and  C3_5 
REMARK    5  A    between atoms: C3_5  and  N1_6 
ROOT
HETATM    1  C1  UNL     1      -3.896   2.667  15.754  1.00  0.00     0.123 C 
ENDROOT
BRANCH   1   2
HETATM    2  O1  UNL     1      -2.999   1.634  15.974  1.00  0.00    -0.395 OA
ATOM      3  H1  UNL     1      -3.243   1.100  16.720  1.00  0.00     0.210 HD
ENDBRANCH   1   2
BRANCH   1   4
HETATM    4  C2  UNL     1      -4.099   2.928  14.336  1.00  0.00     0.062 C 
BRANCH   4   5
HETATM    5  C3  UNL     1      -3.721   1.867  13.376  1.00  0.00     0.275 C 
BRANCH   5   6
HETATM    6  N1  UNL     1      -4.699   1.334  12.476  1.00  0.00     0.092 N 
HETATM    7  C4  UNL     1      -4.672   2.223  11.274  1.00  0.00     0.298 C 
HETATM    8  C5  UNL     1      -3.281   2.304  10.777  1.00  0.00     0.198 C 
HETATM    9  O2  UNL     1      -2.889   1.060  10.288  1.00  0.00    -0.388 OA
HETATM   10  C6  UNL     1      -3.815   0.077  10.533  1.00  0.00     0.198 C 
HETATM   11  C7  UNL     1      -4.228   0.019  11.991  1.00  0.00     0.298 C 
ENDBRANCH   5   6
ENDBRANCH   4   5
ENDBRANCH   1   4
BRANCH   1  12
HETATM   12  C8  UNL     1      -5.155   2.295  16.509  1.00  0.00     0.014 C 
HETATM   13  C9  UNL     1      -5.431   0.823  16.489  1.00  0.00     0.007 C 
HETATM   14  C10 UNL     1      -6.810   0.799  17.167  1.00  0.00     0.000 C 
HETATM   15  C11 UNL     1      -7.468   2.121  16.757  1.00  0.00     0.000 C 
HETATM   16  C12 UNL     1      -6.414   2.844  15.902  1.00  0.00     0.007 C 
ENDBRANCH   1  12
TORSDOF 5
ENDMDL
MODEL 3
REMARK VINA RESULT: -6.560973425      1.271      1.725
REMARK  5 active torsions:
REMARK  status: ('A' for Active; 'I' for Inactive)
REMARK    1  A    between atoms: O1_1  and  C1_3 
REMARK    2  A    between atoms: C1_3  and  C2_4 
REMARK    3  A    between atoms: C1_3  and  C8_12 
REMARK    4  A    between atoms: C2_4  and  C3_5 
REMARK    5  A    between atoms: C3_5  and  N1_6 
ROOT
HETATM    1  C1  UNL     1      -4.402   1.106  15.083  1.00  0.00     0.123 C 
ENDROOT
BRANCH   1   2
HETATM    2  O1  UNL     1      -4.790  -0.219  15.209  1.00  0.00    -0.395 OA
ATOM      3  H1  UNL     1      -4.115  -0.753  15.611  1.00  0.00     0.210 HD
ENDBRANCH   1   2
BRANCH   1   4
HETATM    4  C2  UNL     1      -4.725   1.650  13.772  1.00  0.00     0.062 C 
BRANCH   4   5
HETATM    5  C3  UNL     1      -3.605   2.061  12.896  1.00  0.00     0.275 C 
BRANCH   5   6
HETATM    6  N1  UNL     1      -3.824   2.249  11.494  1.00  0.00     0.092 N 
HETATM    7  C4  UNL     1      -2.663   1.600  10.810  1.00  0.00     0.298 C 
HETATM    8  C5  UNL     1      -2.555   0.204  11.287  1.00  0.00     0.198 C 
HETATM    9  O2  UNL     1      -3.658  -0.524  10.849  1.00  0.00    -0.388 OA
HETATM   10  C6  UNL     1      -4.605   0.260  10.241  1.00  0.00     0.198 C 
HETATM   11  C7  UNL     1      -5.002   1.453  11.088  1.00  0.00     0.298 C 
ENDBRANCH   5   6
ENDBRANCH   4   5
ENDBRANCH   1   4
BRANCH   1  12
HETATM   12  C8  UNL     1      -5.041   1.842  16.242  1.00  0.00     0.014 C 
HETATM   13  C9  UNL     1      -5.719   0.922  17.211  1.00  0.00     0.007 C 
HETATM   14  C10 UNL     1      -6.385   1.953  18.137  1.00  0.00     0.000 C 
HETATM   15  C11 UNL     1      -6.708   3.142  17.226  1.00  0.00     0.000 C 
HETATM   16  C12 UNL     1      -6.174   2.742  15.841  1.00  0.00     0.007 C 
ENDBRANCH   1  12
TORSDOF 5
ENDMDL
MODEL 4
REMARK VINA RESULT: -6.510023905      1.778      2.241
REMARK  5 active torsions:
REMARK  status: ('A' for Active; 'I' for Inactive)
REMARK    1  A    between atoms: O1_1  and  C1_3 
REMARK    2  A    between atoms: C1_3  and  C2_4 
REMARK    3  A    between atoms: C1_3  and  C8_12 
REMARK    4  A    between atoms: C2_4  and  C3_5 
REMARK    5  A    between atoms: C3_5  and  N1_6 
ROOT
HETATM    1  C1  UNL     1      -3.891   2.345  15.476  1.00  0.00     0.123 C 
ENDROOT
BRANCH   1   2
HETATM    2  O1  UNL     1      -2.887   1.668  16.151  1.00  0.00    -0.395 OA
ATOM      3  H1  UNL     1      -3.232   1.097  16.827  1.00  0.00     0.210 HD
ENDBRANCH   1   2
BRANCH   1   4
HETATM    4  C2  UNL     1      -4.079   1.842  14.123  1.00  0.00     0.062 C 
BRANCH   4   5
HETATM    5  C3  UNL     1      -3.914   2.794  13.001  1.00  0.00     0.275 C 
BRANCH   5   6
HETATM    6  N1  UNL     1      -3.847   2.310  11.655  1.00  0.00     0.092 N 
HETATM    7  C4  UNL     1      -2.984   3.282  10.916  1.00  0.00     0.298 C 
HETATM    8  C5  UNL     1      -1.702   3.422  11.640  1.00  0.00     0.198 C 
HETATM    9  O2  UNL     1      -0.997   2.224  11.572  1.00  0.00    -0.388 OA
HETATM   10  C6  UNL     1      -1.725   1.210  11.002  1.00  0.00     0.198 C 
HETATM   11  C7  UNL     1      -3.087   1.041  11.647  1.00  0.00     0.298 C 
ENDBRANCH   5   6
ENDBRANCH   4   5
ENDBRANCH   1   4
BRANCH   1  12
HETATM   12  C8  UNL     1      -5.121   2.253  16.355  1.00  0.00     0.014 C 
HETATM   13  C9  UNL     1      -5.707   0.875  16.393  1.00  0.00     0.007 C 
HETATM   14  C10 UNL     1      -6.986   1.149  17.199  1.00  0.00     0.000 C 
HETATM   15  C11 UNL     1      -7.382   2.582  16.825  1.00  0.00     0.000 C 
HETATM   16  C12 UNL     1      -6.286   3.060  15.858  1.00  0.00     0.007 C 
ENDBRANCH   1  12
TORSDOF 5
ENDMDL
MODEL 5
REMARK VINA RESULT: -6.504338058      1.155      1.553
REMARK  5 active torsions:
REMARK  status: ('A' for Active; 'I' for Inactive)
REMARK    1  A    between atoms: O1_1  and  C1_3 
REMARK    2  A    between atoms: C1_3  and  C2_4 
REMARK    3  A    between atoms: C1_3  and  C8_12 
REMARK    4  A    between atoms: C2_4  and  C3_5 
REMARK    5  A    between atoms: C3_5  and  N1_6 
ROOT
HETATM    1  C1  UNL     1      -3.988   2.545  15.698  1.00  0.00     0.123 C 
ENDROOT
BRANCH   1   2
HETATM    2  O1  UNL     1      -3.067   1.637  16.198  1.00  0.00    -0.395 OA
ATOM      3  H1  UNL     1      -3.042   1.639  17.147  1.00  0.00     0.210 HD
ENDBRANCH   1   2
BRANCH   1   4
HETATM    4  C2  UNL     1      -3.727   2.883  14.306  1.00  0.00     0.062 C 
BRANCH   4   5
HETATM    5  C3  UNL     1      -3.781   1.793  13.306  1.00  0.00     0.275 C 
BRANCH   5   6
HETATM    6  N1  UNL     1      -3.035   1.901  12.089  1.00  0.00     0.092 N 
HETATM    7  C4  UNL     1      -3.876   1.250  11.037  1.00  0.00     0.298 C 
HETATM    8  C5  UNL     1      -5.219   1.871  11.056  1.00  0.00     0.198 C 
HETATM    9  O2  UNL     1      -5.124   3.197  10.641  1.00  0.00    -0.388 OA
HETATM   10  C6  UNL     1      -3.825   3.611  10.480  1.00  0.00     0.198 C 
HETATM   11  C7  UNL     1      -2.970   3.326  11.699  1.00  0.00     0.298 C 
ENDBRANCH   5   6
ENDBRANCH   4   5
ENDBRANCH   1   4
BRANCH   1  12
HETATM   12  C8  UNL     1      -5.352   1.938  15.950  1.00  0.00     0.014 C 
HETATM   13  C9  UNL     1      -6.401   2.966  16.245  1.00  0.00     0.007 C 
HETATM   14  C10 UNL     1      -7.580   2.051  16.608  1.00  0.00     0.000 C 
HETATM   15  C11 UNL     1      -6.933   0.818  17.249  1.00  0.00     0.000 C 
HETATM   16  C12 UNL     1      -5.419   1.080  17.181  1.00  0.00     0.007 C 
ENDBRANCH   1  12
TORSDOF 5
ENDMDL
