MODEL 1
REMARK VINA RESULT: -6.226518768      0.000      0.000
REMARK  3 active torsions:
REMARK  status: ('A' for Active; 'I' for Inactive)
REMARK    1  A    between atoms: C2_3  and  N2_4 
REMARK    2  A    between atoms: C2_3  and  C8_13 
REMARK       I    between atoms: N2_4  and  C3_6 
REMARK    3  A    between atoms: C3_6  and  C4_8 
ROOT
HETATM    1  N1  UNL     1      -4.031   0.590  16.318  1.00  0.00    -0.195 NA
HETATM    2  C1  UNL     1      -4.368   1.411  15.566  1.00  0.00     0.085 C 
HETATM    3  C2  UNL     1      -4.806   2.445  14.605  1.00  0.00     0.196 C 
ENDROOT
BRANCH   3   4
HETATM    4  N2  UNL     1      -3.902   2.559  13.507  1.00  0.00    -0.343 N 
HETATM    5  C3  UNL     1      -4.320   2.489  12.155  1.00  0.00     0.225 C 
HETATM    6  O1  UNL     1      -5.536   2.318  11.899  1.00  0.00    -0.273 OA
ATOM      7  H2  UNL     1      -2.910   2.698  13.704  1.00  0.00     0.163 HD
BRANCH   5   8
HETATM    8  C4  UNL     1      -3.372   2.608  11.027  1.00  0.00     0.103 C 
HETATM    9  C5  UNL     1      -2.653   1.325  10.779  1.00  0.00     0.042 C 
HETATM   10  C6  UNL     1      -1.176   1.715  10.752  1.00  0.00     0.168 C 
HETATM   11  O2  UNL     1      -1.136   2.776  11.675  1.00  0.00    -0.390 OA
HETATM   12  C7  UNL     1      -2.239   3.551  11.390  1.00  0.00     0.181 C 
ENDBRANCH   5   8
ENDBRANCH   3   4
BRANCH   3  13
HETATM   13  C8  UNL     1      -4.973   3.718  15.386  1.00  0.00     0.022 A 
HETATM   14  C9  UNL     1      -6.310   4.410  15.144  1.00  0.00     0.008 A 
HETATM   15  C10 UNL     1      -4.990   5.041  14.737  1.00  0.00     0.008 A 
ENDBRANCH   3  13
TORSDOF 3
ENDMDL
MODEL 2
REMARK VINA RESULT: -6.147141113      1.509      1.827
REMARK  3 active torsions:
REMARK  status: ('A' for Active; 'I' for Inactive)
REMARK    1  A    between atoms: C2_3  and  N2_4 
REMARK    2  A    between atoms: C2_3  and  C8_13 
REMARK       I    between atoms: N2_4  and  C3_6 
REMARK    3  A    between atoms: C3_6  and  C4_8 
ROOT
HETATM    1  N1  UNL     1      -4.674   0.950  16.919  1.00  0.00    -0.195 NA
HETATM    2  C1  UNL     1      -4.584   1.632  15.981  1.00  0.00     0.085 C 
HETATM    3  C2  UNL     1      -4.485   2.495  14.786  1.00  0.00     0.196 C 
ENDROOT
BRANCH   3   4
HETATM    4  N2  UNL     1      -4.083   1.755  13.633  1.00  0.00    -0.343 N 
HETATM    5  C3  UNL     1      -4.675   1.935  12.359  1.00  0.00     0.225 C 
HETATM    6  O1  UNL     1      -5.594   2.779  12.224  1.00  0.00    -0.273 OA
ATOM      7  H2  UNL     1      -3.338   1.066  13.731  1.00  0.00     0.163 HD
BRANCH   5   8
HETATM    8  C4  UNL     1      -4.250   1.161  11.173  1.00  0.00     0.103 C 
HETATM    9  C5  UNL     1      -4.329  -0.307  11.422  1.00  0.00     0.042 C 
HETATM   10  C6  UNL     1      -2.955  -0.837  11.015  1.00  0.00     0.168 C 
HETATM   11  O2  UNL     1      -2.114   0.238  11.353  1.00  0.00    -0.390 OA
HETATM   12  C7  UNL     1      -2.768   1.369  10.913  1.00  0.00     0.181 C 
ENDBRANCH   5   8
ENDBRANCH   3   4
BRANCH   3  13
HETATM   13  C8  UNL     1      -3.549   3.616  15.140  1.00  0.00     0.022 A 
HETATM   14  C9  UNL     1      -4.103   4.999  14.814  1.00  0.00     0.008 A 
HETATM   15  C10 UNL     1      -2.879   4.435  14.114  1.00  0.00     0.008 A 
ENDBRANCH   3  13
TORSDOF 3
ENDMDL
MODEL 3
REMARK VINA RESULT: -6.136803326      2.744      5.341
REMARK  3 active torsions:
REMARK  status: ('A' for Active; 'I' for Inactive)
REMARK    1  A    between atoms: C2_3  and  N2_4 
REMARK    2  A    between atoms: C2_3  and  C8_13 
REMARK       I    between atoms: N2_4  and  C3_6 
REMARK    3  A    between atoms: C3_6  and  C4_8 
ROOT
HETATM    1  N1  UNL     1      -5.180   2.304  11.387  1.00  0.00    -0.195 NA
HETATM    2  C1  UNL     1      -4.661   2.636  12.373  1.00  0.00     0.085 C 
HETATM    3  C2  UNL     1      -3.995   3.045  13.627  1.00  0.00     0.196 C 
ENDROOT
BRANCH   3   4
HETATM    4  N2  UNL     1      -4.846   2.863  14.759  1.00  0.00    -0.343 N 
HETATM    5  C3  UNL     1      -4.417   2.231  15.951  1.00  0.00     0.225 C 
HETATM    6  O1  UNL     1      -3.238   1.807  16.029  1.00  0.00    -0.273 OA
ATOM      7  H2  UNL     1      -5.807   3.203  14.706  1.00  0.00     0.163 HD
BRANCH   5   8
HETATM    8  C4  UNL     1      -5.309   2.048  17.116  1.00  0.00     0.103 C 
HETATM    9  C5  UNL     1      -5.981   0.717  17.086  1.00  0.00     0.042 C 
HETATM   10  C6  UNL     1      -7.465   1.035  17.267  1.00  0.00     0.168 C 
HETATM   11  O2  UNL     1      -7.578   2.280  16.622  1.00  0.00    -0.390 OA
HETATM   12  C7  UNL     1      -6.483   3.008  17.034  1.00  0.00     0.181 C 
ENDBRANCH   5   8
ENDBRANCH   3   4
BRANCH   3  13
HETATM   13  C8  UNL     1      -3.543   4.465  13.434  1.00  0.00     0.022 A 
HETATM   14  C9  UNL     1      -2.252   4.800  14.173  1.00  0.00     0.008 A 
HETATM   15  C10 UNL     1      -3.576   5.456  14.524  1.00  0.00     0.008 A 
ENDBRANCH   3  13
TORSDOF 3
ENDMDL
MODEL 4
REMARK VINA RESULT: -6.003656191      2.521      5.449
REMARK  3 active torsions:
REMARK  status: ('A' for Active; 'I' for Inactive)
REMARK    1  A    between atoms: C2_3  and  N2_4 
REMARK    2  A    between atoms: C2_3  and  C8_13 
REMARK       I    between atoms: N2_4  and  C3_6 
REMARK    3  A    between atoms: C3_6  and  C4_8 
ROOT
HETATM    1  N1  UNL     1      -2.794   4.900  12.667  1.00  0.00    -0.195 NA
HETATM    2  C1  UNL     1      -3.531   4.005  12.756  1.00  0.00     0.085 C 
HETATM    3  C2  UNL     1      -4.479   2.878  12.866  1.00  0.00     0.196 C 
ENDROOT
BRANCH   3   4
HETATM    4  N2  UNL     1      -4.726   2.529  14.229  1.00  0.00    -0.343 N 
HETATM    5  C3  UNL     1      -5.800   3.066  14.979  1.00  0.00     0.225 C 
HETATM    6  O1  UNL     1      -6.578   3.887  14.433  1.00  0.00    -0.273 OA
ATOM      7  H2  UNL     1      -4.100   1.863  14.682  1.00  0.00     0.163 HD
BRANCH   5   8
HETATM    8  C4  UNL     1      -6.043   2.696  16.389  1.00  0.00     0.103 C 
HETATM    9  C5  UNL     1      -5.067   1.672  16.861  1.00  0.00     0.042 C 
HETATM   10  C6  UNL     1      -5.936   0.571  17.470  1.00  0.00     0.168 C 
HETATM   11  O2  UNL     1      -7.088   0.627  16.665  1.00  0.00    -0.390 OA
HETATM   12  C7  UNL     1      -7.369   1.968  16.521  1.00  0.00     0.181 C 
ENDBRANCH   5   8
ENDBRANCH   3   4
BRANCH   3  13
HETATM   13  C8  UNL     1      -3.911   1.753  12.048  1.00  0.00     0.022 A 
HETATM   14  C9  UNL     1      -4.916   1.134  11.082  1.00  0.00     0.008 A 
HETATM   15  C10 UNL     1      -4.325   0.352  12.243  1.00  0.00     0.008 A 
ENDBRANCH   3  13
TORSDOF 3
ENDMDL
MODEL 5
REMARK VINA RESULT: -5.855260000      2.080      5.175
REMARK  3 active torsions:
REMARK  status: ('A' for Active; 'I' for Inactive)
REMARK    1  A    between atoms: C2_3  and  N2_4 
REMARK    2  A    between atoms: C2_3  and  C8_13 
REMARK       I    between atoms: N2_4  and  C3_6 
REMARK    3  A    between atoms: C3_6  and  C4_8 
ROOT
HETATM    1  N1  UNL     1      -0.883   2.810  10.599  1.00  0.00    -0.195 NA
HETATM    2  C1  UNL     1      -1.892   2.456  11.056  1.00  0.00     0.085 C 
HETATM    3  C2  UNL     1      -3.180   2.017  11.631  1.00  0.00     0.196 C 
ENDROOT
BRANCH   3   4
HETATM    4  N2  UNL     1      -3.258   2.304  13.027  1.00  0.00    -0.343 N 
HETATM    5  C3  UNL     1      -4.381   2.929  13.623  1.00  0.00     0.225 C 
HETATM    6  O1  UNL     1      -5.358   3.249  12.903  1.00  0.00    -0.273 OA
ATOM      7  H2  UNL     1      -2.470   2.049  13.622  1.00  0.00     0.163 HD
BRANCH   5   8
HETATM    8  C4  UNL     1      -4.448   3.221  15.071  1.00  0.00     0.103 C 
HETATM    9  C5  UNL     1      -4.087   2.025  15.887  1.00  0.00     0.042 C 
HETATM   10  C6  UNL     1      -5.238   1.882  16.883  1.00  0.00     0.168 C 
HETATM   11  O2  UNL     1      -6.334   2.347  16.133  1.00  0.00    -0.390 OA
HETATM   12  C7  UNL     1      -5.885   3.479  15.489  1.00  0.00     0.181 C 
ENDBRANCH   5   8
ENDBRANCH   3   4
BRANCH   3  13
HETATM   13  C8  UNL     1      -3.325   0.558  11.305  1.00  0.00     0.022 A 
HETATM   14  C9  UNL     1      -4.708   0.184  10.781  1.00  0.00     0.008 A 
HETATM   15  C10 UNL     1      -4.176  -0.345  12.102  1.00  0.00     0.008 A 
ENDBRANCH   3  13
TORSDOF 3
ENDMDL
