MODEL 1
REMARK VINA RESULT: -7.573456440      0.000      0.000
REMARK  6 active torsions:
REMARK  status: ('A' for Active; 'I' for Inactive)
REMARK    1  A    between atoms: C2_2  and  C4_4 
REMARK    2  A    between atoms: N1_7  and  C7_8 
REMARK    3  A    between atoms: C7_8  and  C8_9 
REMARK    4  A    between atoms: C8_9  and  C9_10 
REMARK    5  A    between atoms: C9_10  and  C10_11 
REMARK    6  A    between atoms: C11_12  and  C12_13 
ROOT
HETATM    1  C12 UNL     1      71.358  38.224   0.122  1.00  0.00     0.063 A 
HETATM    2  N2  UNL     1      71.360  37.807  -1.176  1.00  0.00    -0.350 N 
ATOM      3  H2  UNL     1      70.848  38.338  -1.880  1.00  0.00     0.166 HD
HETATM    4  C13 UNL     1      72.030  36.703  -1.531  1.00  0.00     0.182 A 
HETATM    5  N3  UNL     1      72.697  36.022  -0.591  1.00  0.00    -0.336 N 
ATOM      6  H3  UNL     1      73.206  35.183  -0.870  1.00  0.00     0.168 HD
HETATM    7  C14 UNL     1      72.729  36.387   0.698  1.00  0.00     0.139 A 
HETATM    8  C15 UNL     1      72.034  37.530   1.074  1.00  0.00     0.105 A 
HETATM    9  N4  UNL     1      72.197  37.730   2.394  1.00  0.00    -0.341 N 
ATOM     10  H4  UNL     1      71.798  38.494   2.940  1.00  0.00     0.167 HD
HETATM   11  C16 UNL     1      72.981  36.741   2.866  1.00  0.00     0.085 A 
HETATM   12  N5  UNL     1      73.295  35.936   1.825  1.00  0.00    -0.321 N 
HETATM   13  C17 UNL     1      74.150  34.807   2.086  1.00  0.00     0.132 C 
HETATM   14  C18 UNL     1      75.284  35.103   3.028  1.00  0.00     0.021 C 
HETATM   15  C19 UNL     1      74.992  36.139   4.056  1.00  0.00     0.009 C 
HETATM   16  C20 UNL     1      73.513  36.421   4.225  1.00  0.00     0.077 C 
ENDROOT
BRANCH   1  17
HETATM   17  C11 UNL     1      70.658  39.469   0.507  1.00  0.00     0.028 C 
HETATM   18  C10 UNL     1      70.311  40.261  -0.483  1.00  0.00    -0.024 C 
BRANCH  18  19
HETATM   19  C9  UNL     1      69.603  41.562  -0.355  1.00  0.00     0.029 C 
BRANCH  19  20
HETATM   20  C8  UNL     1      68.368  41.457  -1.292  1.00  0.00     0.034 C 
BRANCH  20  21
HETATM   21  C7  UNL     1      67.390  40.612  -0.570  1.00  0.00     0.272 C 
BRANCH  21  22
HETATM   22  N1  UNL     1      66.844  39.493  -1.262  1.00  0.00     0.088 N 
HETATM   23  C6  UNL     1      67.597  38.281  -1.106  1.00  0.00     0.272 C 
HETATM   24  C5  UNL     1      66.708  37.063  -0.956  1.00  0.00     0.035 C 
HETATM   25  C4  UNL     1      65.893  37.313   0.297  1.00  0.00    -0.008 C 
HETATM   26  C22 UNL     1      64.952  38.451  -0.036  1.00  0.00     0.035 C 
HETATM   27  C21 UNL     1      65.433  39.324  -1.145  1.00  0.00     0.272 C 
BRANCH  25  28
HETATM   28  C2  UNL     1      65.170  36.065   0.671  1.00  0.00    -0.019 C 
HETATM   29  C1  UNL     1      63.754  36.253   1.122  1.00  0.00     0.010 C 
HETATM   30  C3  UNL     1      65.900  35.240   1.697  1.00  0.00     0.010 C 
ENDBRANCH  25  28
ENDBRANCH  21  22
ENDBRANCH  20  21
ENDBRANCH  19  20
ENDBRANCH  18  19
ENDBRANCH   1  17
TORSDOF 6
ENDMDL
MODEL 2
REMARK VINA RESULT: -7.534966596      2.394      7.452
REMARK  6 active torsions:
REMARK  status: ('A' for Active; 'I' for Inactive)
REMARK    1  A    between atoms: C2_2  and  C4_4 
REMARK    2  A    between atoms: N1_7  and  C7_8 
REMARK    3  A    between atoms: C7_8  and  C8_9 
REMARK    4  A    between atoms: C8_9  and  C9_10 
REMARK    5  A    between atoms: C9_10  and  C10_11 
REMARK    6  A    between atoms: C11_12  and  C12_13 
ROOT
HETATM    1  C12 UNL     1      73.021  37.753  -0.999  1.00  0.00     0.063 A 
HETATM    2  N2  UNL     1      74.057  38.613  -0.785  1.00  0.00    -0.350 N 
ATOM      3  H2  UNL     1      75.018  38.282  -0.873  1.00  0.00     0.166 HD
HETATM    4  C13 UNL     1      73.820  39.890  -0.459  1.00  0.00     0.182 A 
HETATM    5  N3  UNL     1      72.551  40.303  -0.350  1.00  0.00    -0.336 N 
ATOM      6  H3  UNL     1      72.378  41.278  -0.103  1.00  0.00     0.168 HD
HETATM    7  C14 UNL     1      71.497  39.502  -0.550  1.00  0.00     0.139 A 
HETATM    8  C15 UNL     1      71.735  38.174  -0.886  1.00  0.00     0.105 A 
HETATM    9  N4  UNL     1      70.559  37.543  -1.052  1.00  0.00    -0.341 N 
ATOM     10  H4  UNL     1      70.433  36.562  -1.301  1.00  0.00     0.167 HD
HETATM   11  C16 UNL     1      69.577  38.439  -0.831  1.00  0.00     0.085 A 
HETATM   12  N5  UNL     1      70.163  39.620  -0.528  1.00  0.00    -0.321 N 
HETATM   13  C17 UNL     1      69.302  40.746  -0.266  1.00  0.00     0.132 C 
HETATM   14  C18 UNL     1      68.118  40.838  -1.188  1.00  0.00     0.021 C 
HETATM   15  C19 UNL     1      67.599  39.531  -1.677  1.00  0.00     0.009 C 
HETATM   16  C20 UNL     1      68.086  38.348  -0.865  1.00  0.00     0.077 C 
ENDROOT
BRANCH   1  17
HETATM   17  C11 UNL     1      73.282  36.354  -1.406  1.00  0.00     0.028 C 
HETATM   18  C10 UNL     1      74.476  35.885  -1.117  1.00  0.00    -0.024 C 
BRANCH  18  19
HETATM   19  C9  UNL     1      74.977  34.519  -1.421  1.00  0.00     0.029 C 
BRANCH  19  20
HETATM   20  C8  UNL     1      75.889  34.135  -0.224  1.00  0.00     0.034 C 
BRANCH  20  21
HETATM   21  C7  UNL     1      75.149  33.092   0.522  1.00  0.00     0.272 C 
BRANCH  21  22
HETATM   22  N1  UNL     1      74.713  33.405   1.842  1.00  0.00     0.088 N 
HETATM   23  C6  UNL     1      75.258  34.624   2.368  1.00  0.00     0.272 C 
HETATM   24  C5  UNL     1      74.242  35.414   3.167  1.00  0.00     0.035 C 
HETATM   25  C4  UNL     1      73.130  35.741   2.191  1.00  0.00    -0.008 C 
HETATM   26  C22 UNL     1      72.449  34.425   1.877  1.00  0.00     0.035 C 
HETATM   27  C21 UNL     1      73.319  33.232   2.089  1.00  0.00     0.272 C 
BRANCH  25  28
HETATM   28  C2  UNL     1      72.203  36.728   2.813  1.00  0.00    -0.019 C 
HETATM   29  C1  UNL     1      70.795  36.701   2.300  1.00  0.00     0.010 C 
HETATM   30  C3  UNL     1      72.714  38.142   2.752  1.00  0.00     0.010 C 
ENDBRANCH  25  28
ENDBRANCH  21  22
ENDBRANCH  20  21
ENDBRANCH  19  20
ENDBRANCH  18  19
ENDBRANCH   1  17
TORSDOF 6
ENDMDL
MODEL 3
REMARK VINA RESULT: -7.455089714      1.279      1.553
REMARK  6 active torsions:
REMARK  status: ('A' for Active; 'I' for Inactive)
REMARK    1  A    between atoms: C2_2  and  C4_4 
REMARK    2  A    between atoms: N1_7  and  C7_8 
REMARK    3  A    between atoms: C7_8  and  C8_9 
REMARK    4  A    between atoms: C8_9  and  C9_10 
REMARK    5  A    between atoms: C9_10  and  C10_11 
REMARK    6  A    between atoms: C11_12  and  C12_13 
ROOT
HETATM    1  C12 UNL     1      71.873  39.043  -0.522  1.00  0.00     0.063 A 
HETATM    2  N2  UNL     1      72.746  39.667  -1.362  1.00  0.00    -0.350 N 
ATOM      3  H2  UNL     1      72.530  40.598  -1.718  1.00  0.00     0.166 HD
HETATM    4  C13 UNL     1      73.887  39.065  -1.722  1.00  0.00     0.182 A 
HETATM    5  N3  UNL     1      74.151  37.843  -1.242  1.00  0.00    -0.336 N 
ATOM      6  H3  UNL     1      75.022  37.392  -1.520  1.00  0.00     0.168 HD
HETATM    7  C14 UNL     1      73.329  37.185  -0.414  1.00  0.00     0.139 A 
HETATM    8  C15 UNL     1      72.142  37.803  -0.038  1.00  0.00     0.105 A 
HETATM    9  N4  UNL     1      71.468  36.991   0.796  1.00  0.00    -0.341 N 
ATOM     10  H4  UNL     1      70.565  37.188   1.227  1.00  0.00     0.167 HD
HETATM   11  C16 UNL     1      72.198  35.871   0.960  1.00  0.00     0.085 A 
HETATM   12  N5  UNL     1      73.323  36.005   0.220  1.00  0.00    -0.321 N 
HETATM   13  C17 UNL     1      74.277  34.926   0.251  1.00  0.00     0.132 C 
HETATM   14  C18 UNL     1      74.478  34.327   1.616  1.00  0.00     0.021 C 
HETATM   15  C19 UNL     1      73.281  34.362   2.500  1.00  0.00     0.009 C 
HETATM   16  C20 UNL     1      71.989  34.622   1.753  1.00  0.00     0.077 C 
ENDROOT
BRANCH   1  17
HETATM   17  C11 UNL     1      70.636  39.727  -0.085  1.00  0.00     0.028 C 
HETATM   18  C10 UNL     1      70.398  40.893  -0.643  1.00  0.00    -0.024 C 
BRANCH  18  19
HETATM   19  C9  UNL     1      69.229  41.771  -0.371  1.00  0.00     0.029 C 
BRANCH  19  20
HETATM   20  C8  UNL     1      68.160  41.379  -1.429  1.00  0.00     0.034 C 
BRANCH  20  21
HETATM   21  C7  UNL     1      67.185  40.526  -0.712  1.00  0.00     0.272 C 
BRANCH  21  22
HETATM   22  N1  UNL     1      66.775  39.315  -1.342  1.00  0.00     0.088 N 
HETATM   23  C6  UNL     1      67.638  38.198  -1.082  1.00  0.00     0.272 C 
HETATM   24  C5  UNL     1      66.867  36.909  -0.875  1.00  0.00     0.035 C 
HETATM   25  C4  UNL     1      65.988  37.157   0.334  1.00  0.00    -0.008 C 
HETATM   26  C22 UNL     1      64.952  38.172  -0.103  1.00  0.00     0.035 C 
HETATM   27  C21 UNL     1      65.384  39.014  -1.255  1.00  0.00     0.272 C 
BRANCH  25  28
HETATM   28  C2  UNL     1      65.378  35.870   0.771  1.00  0.00    -0.019 C 
HETATM   29  C1  UNL     1      63.918  35.931   1.106  1.00  0.00     0.010 C 
HETATM   30  C3  UNL     1      66.110  35.223   1.915  1.00  0.00     0.010 C 
ENDBRANCH  25  28
ENDBRANCH  21  22
ENDBRANCH  20  21
ENDBRANCH  19  20
ENDBRANCH  18  19
ENDBRANCH   1  17
TORSDOF 6
ENDMDL
MODEL 4
REMARK VINA RESULT: -7.347233505      1.634      2.096
REMARK  6 active torsions:
REMARK  status: ('A' for Active; 'I' for Inactive)
REMARK    1  A    between atoms: C2_2  and  C4_4 
REMARK    2  A    between atoms: N1_7  and  C7_8 
REMARK    3  A    between atoms: C7_8  and  C8_9 
REMARK    4  A    between atoms: C8_9  and  C9_10 
REMARK    5  A    between atoms: C9_10  and  C10_11 
REMARK    6  A    between atoms: C11_12  and  C12_13 
ROOT
HETATM    1  C12 UNL     1      71.173  38.652   1.015  1.00  0.00     0.063 A 
HETATM    2  N2  UNL     1      70.353  37.585   1.231  1.00  0.00    -0.350 N 
ATOM      3  H2  UNL     1      69.490  37.492   0.696  1.00  0.00     0.166 HD
HETATM    4  C13 UNL     1      70.673  36.658   2.144  1.00  0.00     0.182 A 
HETATM    5  N3  UNL     1      71.812  36.799   2.834  1.00  0.00    -0.336 N 
ATOM      6  H3  UNL     1      72.050  36.089   3.526  1.00  0.00     0.168 HD
HETATM    7  C14 UNL     1      72.654  37.827   2.662  1.00  0.00     0.139 A 
HETATM    8  C15 UNL     1      72.326  38.794   1.719  1.00  0.00     0.105 A 
HETATM    9  N4  UNL     1      73.294  39.727   1.690  1.00  0.00    -0.341 N 
ATOM     10  H4  UNL     1      73.315  40.553   1.092  1.00  0.00     0.167 HD
HETATM   11  C16 UNL     1      74.231  39.376   2.592  1.00  0.00     0.085 A 
HETATM   12  N5  UNL     1      73.827  38.222   3.172  1.00  0.00    -0.321 N 
HETATM   13  C17 UNL     1      74.687  37.638   4.169  1.00  0.00     0.132 C 
HETATM   14  C18 UNL     1      76.151  37.704   3.829  1.00  0.00     0.021 C 
HETATM   15  C19 UNL     1      76.554  38.885   3.018  1.00  0.00     0.009 C 
HETATM   16  C20 UNL     1      75.523  39.995   3.015  1.00  0.00     0.077 C 
ENDROOT
BRANCH   1  17
HETATM   17  C11 UNL     1      70.844  39.650  -0.026  1.00  0.00     0.028 C 
HETATM   18  C10 UNL     1      69.999  40.593   0.330  1.00  0.00    -0.024 C 
BRANCH  18  19
HETATM   19  C9  UNL     1      69.513  41.703  -0.531  1.00  0.00     0.029 C 
BRANCH  19  20
HETATM   20  C8  UNL     1      68.648  41.028  -1.631  1.00  0.00     0.034 C 
BRANCH  20  21
HETATM   21  C7  UNL     1      67.529  40.375  -0.914  1.00  0.00     0.272 C 
BRANCH  21  22
HETATM   22  N1  UNL     1      66.978  39.192  -1.484  1.00  0.00     0.088 N 
HETATM   23  C6  UNL     1      67.719  37.998  -1.191  1.00  0.00     0.272 C 
HETATM   24  C5  UNL     1      66.817  36.811  -0.917  1.00  0.00     0.035 C 
HETATM   25  C4  UNL     1      65.996  37.202   0.295  1.00  0.00    -0.008 C 
HETATM   26  C22 UNL     1      65.068  38.306  -0.167  1.00  0.00     0.035 C 
HETATM   27  C21 UNL     1      65.564  39.048  -1.361  1.00  0.00     0.272 C 
BRANCH  25  28
HETATM   28  C2  UNL     1      65.259  36.008   0.796  1.00  0.00    -0.019 C 
HETATM   29  C1  UNL     1      63.844  36.258   1.223  1.00  0.00     0.010 C 
HETATM   30  C3  UNL     1      65.979  35.288   1.904  1.00  0.00     0.010 C 
ENDBRANCH  25  28
ENDBRANCH  21  22
ENDBRANCH  20  21
ENDBRANCH  19  20
ENDBRANCH  18  19
ENDBRANCH   1  17
TORSDOF 6
ENDMDL
MODEL 5
REMARK VINA RESULT: -7.263492285      1.576      2.383
REMARK  6 active torsions:
REMARK  status: ('A' for Active; 'I' for Inactive)
REMARK    1  A    between atoms: C2_2  and  C4_4 
REMARK    2  A    between atoms: N1_7  and  C7_8 
REMARK    3  A    between atoms: C7_8  and  C8_9 
REMARK    4  A    between atoms: C8_9  and  C9_10 
REMARK    5  A    between atoms: C9_10  and  C10_11 
REMARK    6  A    between atoms: C11_12  and  C12_13 
ROOT
HETATM    1  C12 UNL     1      71.398  38.527   0.450  1.00  0.00     0.063 A 
HETATM    2  N2  UNL     1      70.479  38.014   1.317  1.00  0.00    -0.350 N 
ATOM      3  H2  UNL     1      69.660  38.566   1.573  1.00  0.00     0.166 HD
HETATM    4  C13 UNL     1      70.647  36.791   1.836  1.00  0.00     0.182 A 
HETATM    5  N3  UNL     1      71.729  36.084   1.485  1.00  0.00    -0.336 N 
ATOM      6  H3  UNL     1      71.848  35.153   1.883  1.00  0.00     0.168 HD
HETATM    7  C14 UNL     1      72.661  36.539   0.637  1.00  0.00     0.139 A 
HETATM    8  C15 UNL     1      72.495  37.809   0.097  1.00  0.00     0.105 A 
HETATM    9  N4  UNL     1      73.522  38.074  -0.729  1.00  0.00    -0.341 N 
ATOM     10  H4  UNL     1      73.660  38.933  -1.261  1.00  0.00     0.167 HD
HETATM   11  C16 UNL     1      74.339  37.002  -0.728  1.00  0.00     0.085 A 
HETATM   12  N5  UNL     1      73.801  36.080   0.105  1.00  0.00    -0.321 N 
HETATM   13  C17 UNL     1      74.497  34.828   0.255  1.00  0.00     0.132 C 
HETATM   14  C18 UNL     1      75.054  34.280  -1.029  1.00  0.00     0.021 C 
HETATM   15  C19 UNL     1      75.463  35.307  -2.026  1.00  0.00     0.009 C 
HETATM   16  C20 UNL     1      75.619  36.693  -1.433  1.00  0.00     0.077 C 
ENDROOT
BRANCH   1  17
HETATM   17  C11 UNL     1      71.189  39.858  -0.161  1.00  0.00     0.028 C 
HETATM   18  C10 UNL     1      70.006  40.399   0.032  1.00  0.00    -0.024 C 
BRANCH  18  19
HETATM   19  C9  UNL     1      69.554  41.720  -0.477  1.00  0.00     0.029 C 
BRANCH  19  20
HETATM   20  C8  UNL     1      68.374  41.414  -1.439  1.00  0.00     0.034 C 
BRANCH  20  21
HETATM   21  C7  UNL     1      67.446  40.554  -0.670  1.00  0.00     0.272 C 
BRANCH  21  22
HETATM   22  N1  UNL     1      66.905  39.410  -1.325  1.00  0.00     0.088 N 
HETATM   23  C6  UNL     1      67.678  38.213  -1.149  1.00  0.00     0.272 C 
HETATM   24  C5  UNL     1      66.807  36.988  -0.956  1.00  0.00     0.035 C 
HETATM   25  C4  UNL     1      66.006  37.258   0.302  1.00  0.00    -0.008 C 
HETATM   26  C22 UNL     1      65.045  38.375  -0.047  1.00  0.00     0.035 C 
HETATM   27  C21 UNL     1      65.499  39.225  -1.185  1.00  0.00     0.272 C 
BRANCH  25  28
HETATM   28  C2  UNL     1      65.305  36.011   0.717  1.00  0.00    -0.019 C 
HETATM   29  C1  UNL     1      63.875  36.183   1.129  1.00  0.00     0.010 C 
HETATM   30  C3  UNL     1      66.032  35.252   1.795  1.00  0.00     0.010 C 
ENDBRANCH  25  28
ENDBRANCH  21  22
ENDBRANCH  20  21
ENDBRANCH  19  20
ENDBRANCH  18  19
ENDBRANCH   1  17
TORSDOF 6
ENDMDL
