MODEL 1
REMARK VINA RESULT: -6.199514712      0.000      0.000
REMARK  6 active torsions:
REMARK  status: ('A' for Active; 'I' for Inactive)
REMARK    1  A    between atoms: C2_2  and  C3_3 
REMARK    2  A    between atoms: C3_3  and  C4_4 
REMARK    3  A    between atoms: C3_3  and  C6_6 
REMARK    4  A    between atoms: C9_12  and  N3_13 
REMARK    5  A    between atoms: N4_19  and  C15_20 
REMARK    6  A    between atoms: C15_20  and  C16_21 
ROOT
HETATM    1  C6  UNL     1      71.175  38.045   0.588  1.00  0.00     0.112 A 
HETATM    2  N1  UNL     1      71.042  36.670   0.661  1.00  0.00    -0.330 N 
ATOM      3  H1  UNL     1      70.378  36.130   0.106  1.00  0.00     0.168 HD
HETATM    4  C7  UNL     1      71.870  36.148   1.525  1.00  0.00     0.160 A 
HETATM    5  C8  UNL     1      72.029  34.764   1.883  1.00  0.00     0.121 C 
HETATM    6  N2  UNL     1      72.136  33.645   2.165  1.00  0.00    -0.190 NA
HETATM    7  C9  UNL     1      72.621  37.201   2.087  1.00  0.00     0.145 A 
HETATM    8  N4  UNL     1      72.166  38.319   1.493  1.00  0.00    -0.314 N 
ENDROOT
BRANCH   7   9
HETATM    9  N3  UNL     1      73.639  36.952   3.059  1.00  0.00    -0.364 N 
HETATM   10  C10 UNL     1      74.977  36.523   2.779  1.00  0.00     0.125 C 
HETATM   11  C11 UNL     1      75.574  36.132   4.097  1.00  0.00     0.026 C 
HETATM   12  C12 UNL     1      74.884  37.114   5.054  1.00  0.00     0.001 C 
HETATM   13  C13 UNL     1      74.922  36.614   6.469  1.00  0.00     0.011 C 
HETATM   14  C14 UNL     1      73.489  37.145   4.469  1.00  0.00     0.128 C 
ENDBRANCH   7   9
BRANCH   1  15
HETATM   15  C3  UNL     1      70.401  38.831  -0.355  1.00  0.00    -0.036 C 
BRANCH  15  16
HETATM   16  C2  UNL     1      69.701  40.060   0.145  1.00  0.00     0.033 C 
HETATM   17  C1  UNL     1      70.041  41.275  -0.749  1.00  0.00     0.010 C 
ENDBRANCH  15  16
BRANCH  15  18
HETATM   18  C4  UNL     1      69.585  38.151  -1.397  1.00  0.00     0.033 C 
HETATM   19  C5  UNL     1      68.111  38.118  -1.135  1.00  0.00     0.010 C 
ENDBRANCH  15  18
ENDBRANCH   1  15
BRANCH   8  20
HETATM   20  C15 UNL     1      72.633  39.635   1.751  1.00  0.00     0.174 C 
BRANCH  20  21
HETATM   21  C16 UNL     1      74.017  40.037   1.425  1.00  0.00     0.176 C 
HETATM   22  C17 UNL     1      74.966  40.249   2.551  1.00  0.00     0.045 C 
HETATM   23  C18 UNL     1      76.314  40.335   1.878  1.00  0.00     0.033 C 
HETATM   24  C19 UNL     1      76.108  39.702   0.539  1.00  0.00     0.273 C 
HETATM   25  N5  UNL     1      74.731  39.287   0.459  1.00  0.00     0.099 N 
HETATM   26  C20 UNL     1      74.245  39.621  -0.856  1.00  0.00     0.273 C 
HETATM   27  C21 UNL     1      73.659  41.015  -0.753  1.00  0.00     0.033 C 
HETATM   28  C22 UNL     1      73.940  41.415   0.649  1.00  0.00     0.045 C 
ENDBRANCH  20  21
ENDBRANCH   8  20
TORSDOF 6
ENDMDL
MODEL 2
REMARK VINA RESULT: -6.040586282      0.425      1.251
REMARK  6 active torsions:
REMARK  status: ('A' for Active; 'I' for Inactive)
REMARK    1  A    between atoms: C2_2  and  C3_3 
REMARK    2  A    between atoms: C3_3  and  C4_4 
REMARK    3  A    between atoms: C3_3  and  C6_6 
REMARK    4  A    between atoms: C9_12  and  N3_13 
REMARK    5  A    between atoms: N4_19  and  C15_20 
REMARK    6  A    between atoms: C15_20  and  C16_21 
ROOT
HETATM    1  C6  UNL     1      70.841  38.292   0.910  1.00  0.00     0.112 A 
HETATM    2  N1  UNL     1      70.668  36.920   0.942  1.00  0.00    -0.330 N 
ATOM      3  H1  UNL     1      69.913  36.428   0.464  1.00  0.00     0.168 HD
HETATM    4  C7  UNL     1      71.587  36.332   1.659  1.00  0.00     0.160 A 
HETATM    5  C8  UNL     1      71.743  34.929   1.932  1.00  0.00     0.121 C 
HETATM    6  N2  UNL     1      71.845  33.795   2.148  1.00  0.00    -0.190 NA
HETATM    7  C9  UNL     1      72.448  37.334   2.154  1.00  0.00     0.145 A 
HETATM    8  N4  UNL     1      71.957  38.492   1.679  1.00  0.00    -0.314 N 
ENDROOT
BRANCH   7   9
HETATM    9  N3  UNL     1      73.581  37.007   2.962  1.00  0.00    -0.364 N 
HETATM   10  C10 UNL     1      74.840  36.520   2.482  1.00  0.00     0.125 C 
HETATM   11  C11 UNL     1      75.599  36.063   3.691  1.00  0.00     0.026 C 
HETATM   12  C12 UNL     1      75.108  37.050   4.759  1.00  0.00     0.001 C 
HETATM   13  C13 UNL     1      75.322  36.509   6.143  1.00  0.00     0.011 C 
HETATM   14  C14 UNL     1      73.646  37.167   4.384  1.00  0.00     0.128 C 
ENDBRANCH   7   9
BRANCH   1  15
HETATM   15  C3  UNL     1      69.974  39.146   0.119  1.00  0.00    -0.036 C 
BRANCH  15  16
HETATM   16  C2  UNL     1      69.451  38.621  -1.185  1.00  0.00     0.033 C 
HETATM   17  C1  UNL     1      68.007  38.096  -1.015  1.00  0.00     0.010 C 
ENDBRANCH  15  16
BRANCH  15  18
HETATM   18  C4  UNL     1      70.253  40.605   0.024  1.00  0.00     0.033 C 
HETATM   19  C5  UNL     1      69.082  41.456  -0.362  1.00  0.00     0.010 C 
ENDBRANCH  15  18
ENDBRANCH   1  15
BRANCH   8  20
HETATM   20  C15 UNL     1      72.505  39.779   1.924  1.00  0.00     0.174 C 
BRANCH  20  21
HETATM   21  C16 UNL     1      73.887  40.116   1.526  1.00  0.00     0.176 C 
HETATM   22  C17 UNL     1      74.918  40.213   2.594  1.00  0.00     0.045 C 
HETATM   23  C18 UNL     1      76.223  40.254   1.837  1.00  0.00     0.033 C 
HETATM   24  C19 UNL     1      75.892  39.704   0.486  1.00  0.00     0.273 C 
HETATM   25  N5  UNL     1      74.489  39.375   0.480  1.00  0.00     0.099 N 
HETATM   26  C20 UNL     1      73.942  39.804  -0.783  1.00  0.00     0.273 C 
HETATM   27  C21 UNL     1      73.452  41.223  -0.575  1.00  0.00     0.033 C 
HETATM   28  C22 UNL     1      73.846  41.534   0.823  1.00  0.00     0.045 C 
ENDBRANCH  20  21
ENDBRANCH   8  20
TORSDOF 6
ENDMDL
MODEL 3
REMARK VINA RESULT: -6.035139354      2.315      6.700
REMARK  6 active torsions:
REMARK  status: ('A' for Active; 'I' for Inactive)
REMARK    1  A    between atoms: C2_2  and  C3_3 
REMARK    2  A    between atoms: C3_3  and  C4_4 
REMARK    3  A    between atoms: C3_3  and  C6_6 
REMARK    4  A    between atoms: C9_12  and  N3_13 
REMARK    5  A    between atoms: N4_19  and  C15_20 
REMARK    6  A    between atoms: C15_20  and  C16_21 
ROOT
HETATM    1  C6  UNL     1      72.675  41.060  -0.206  1.00  0.00     0.112 A 
HETATM    2  N1  UNL     1      72.272  41.972  -1.164  1.00  0.00    -0.330 N 
ATOM      3  H1  UNL     1      72.891  42.657  -1.597  1.00  0.00     0.168 HD
HETATM    4  C7  UNL     1      71.003  41.849  -1.447  1.00  0.00     0.160 A 
HETATM    5  C8  UNL     1      70.220  42.612  -2.382  1.00  0.00     0.121 C 
HETATM    6  N2  UNL     1      69.605  43.244  -3.133  1.00  0.00    -0.190 NA
HETATM    7  C9  UNL     1      70.488  40.804  -0.653  1.00  0.00     0.145 A 
HETATM    8  N4  UNL     1      71.529  40.364   0.075  1.00  0.00    -0.314 N 
ENDROOT
BRANCH   7   9
HETATM    9  N3  UNL     1      69.119  40.404  -0.748  1.00  0.00    -0.364 N 
HETATM   10  C10 UNL     1      67.983  41.235  -0.481  1.00  0.00     0.125 C 
HETATM   11  C11 UNL     1      66.797  40.321  -0.440  1.00  0.00     0.026 C 
HETATM   12  C12 UNL     1      67.191  39.253  -1.470  1.00  0.00     0.001 C 
HETATM   13  C13 UNL     1      66.424  37.980  -1.257  1.00  0.00     0.011 C 
HETATM   14  C14 UNL     1      68.670  39.114  -1.179  1.00  0.00     0.128 C 
ENDBRANCH   7   9
BRANCH   1  15
HETATM   15  C3  UNL     1      74.060  40.969   0.217  1.00  0.00    -0.036 C 
BRANCH  15  16
HETATM   16  C2  UNL     1      74.548  41.918   1.271  1.00  0.00     0.033 C 
HETATM   17  C1  UNL     1      74.934  41.146   2.555  1.00  0.00     0.010 C 
ENDBRANCH  15  16
BRANCH  15  18
HETATM   18  C4  UNL     1      75.128  40.704  -0.785  1.00  0.00     0.033 C 
HETATM   19  C5  UNL     1      74.913  39.495  -1.643  1.00  0.00     0.010 C 
ENDBRANCH  15  18
ENDBRANCH   1  15
BRANCH   8  20
HETATM   20  C15 UNL     1      71.480  39.310   1.026  1.00  0.00     0.174 C 
BRANCH  20  21
HETATM   21  C16 UNL     1      72.014  37.968   0.716  1.00  0.00     0.176 C 
HETATM   22  C17 UNL     1      71.855  37.456  -0.672  1.00  0.00     0.045 C 
HETATM   23  C18 UNL     1      72.757  36.248  -0.719  1.00  0.00     0.033 C 
HETATM   24  C19 UNL     1      73.699  36.435   0.427  1.00  0.00     0.273 C 
HETATM   25  N5  UNL     1      73.350  37.670   1.082  1.00  0.00     0.099 N 
HETATM   26  C20 UNL     1      73.415  37.449   2.505  1.00  0.00     0.273 C 
HETATM   27  C21 UNL     1      72.029  37.009   2.932  1.00  0.00     0.033 C 
HETATM   28  C22 UNL     1      71.272  36.933   1.656  1.00  0.00     0.045 C 
ENDBRANCH  20  21
ENDBRANCH   8  20
TORSDOF 6
ENDMDL
MODEL 4
REMARK VINA RESULT: -6.025254835      1.920      4.997
REMARK  6 active torsions:
REMARK  status: ('A' for Active; 'I' for Inactive)
REMARK    1  A    between atoms: C2_2  and  C3_3 
REMARK    2  A    between atoms: C3_3  and  C4_4 
REMARK    3  A    between atoms: C3_3  and  C6_6 
REMARK    4  A    between atoms: C9_12  and  N3_13 
REMARK    5  A    between atoms: N4_19  and  C15_20 
REMARK    6  A    between atoms: C15_20  and  C16_21 
ROOT
HETATM    1  C6  UNL     1      70.530  39.964  -0.518  1.00  0.00     0.112 A 
HETATM    2  N1  UNL     1      70.997  41.126  -1.103  1.00  0.00    -0.330 N 
ATOM      3  H1  UNL     1      70.457  41.693  -1.758  1.00  0.00     0.168 HD
HETATM    4  C7  UNL     1      72.211  41.410  -0.717  1.00  0.00     0.160 A 
HETATM    5  C8  UNL     1      73.032  42.526  -1.105  1.00  0.00     0.121 C 
HETATM    6  N2  UNL     1      73.681  43.426  -1.437  1.00  0.00    -0.190 NA
HETATM    7  C9  UNL     1      72.619  40.403   0.182  1.00  0.00     0.145 A 
HETATM    8  N4  UNL     1      71.577  39.558   0.267  1.00  0.00    -0.314 N 
ENDROOT
BRANCH   7   9
HETATM    9  N3  UNL     1      73.905  40.441   0.806  1.00  0.00    -0.364 N 
HETATM   10  C10 UNL     1      74.172  40.863   2.149  1.00  0.00     0.125 C 
HETATM   11  C11 UNL     1      75.660  40.995   2.257  1.00  0.00     0.026 C 
HETATM   12  C12 UNL     1      76.141  39.887   1.309  1.00  0.00     0.001 C 
HETATM   13  C13 UNL     1      77.551  40.130   0.855  1.00  0.00     0.011 C 
HETATM   14  C14 UNL     1      75.125  40.010   0.194  1.00  0.00     0.128 C 
ENDBRANCH   7   9
BRANCH   1  15
HETATM   15  C3  UNL     1      69.178  39.488  -0.750  1.00  0.00    -0.036 C 
BRANCH  15  16
HETATM   16  C2  UNL     1      68.992  38.095  -1.273  1.00  0.00     0.033 C 
HETATM   17  C1  UNL     1      67.494  37.709  -1.254  1.00  0.00     0.010 C 
ENDBRANCH  15  16
BRANCH  15  18
HETATM   18  C4  UNL     1      68.156  40.405  -1.325  1.00  0.00     0.033 C 
HETATM   19  C5  UNL     1      67.579  41.401  -0.367  1.00  0.00     0.010 C 
ENDBRANCH  15  18
ENDBRANCH   1  15
BRANCH   8  20
HETATM   20  C15 UNL     1      71.535  38.383   1.063  1.00  0.00     0.174 C 
BRANCH  20  21
HETATM   21  C16 UNL     1      72.315  37.182   0.703  1.00  0.00     0.176 C 
HETATM   22  C17 UNL     1      72.386  36.798  -0.732  1.00  0.00     0.045 C 
HETATM   23  C18 UNL     1      73.479  35.758  -0.778  1.00  0.00     0.033 C 
HETATM   24  C19 UNL     1      74.254  35.971   0.483  1.00  0.00     0.273 C 
HETATM   25  N5  UNL     1      73.638  37.061   1.196  1.00  0.00     0.099 N 
HETATM   26  C20 UNL     1      73.594  36.705   2.593  1.00  0.00     0.273 C 
HETATM   27  C21 UNL     1      72.265  36.010   2.814  1.00  0.00     0.033 C 
HETATM   28  C22 UNL     1      71.665  35.950   1.457  1.00  0.00     0.045 C 
ENDBRANCH  20  21
ENDBRANCH   8  20
TORSDOF 6
ENDMDL
MODEL 5
REMARK VINA RESULT: -5.916219756      0.737      1.579
REMARK  6 active torsions:
REMARK  status: ('A' for Active; 'I' for Inactive)
REMARK    1  A    between atoms: C2_2  and  C3_3 
REMARK    2  A    between atoms: C3_3  and  C4_4 
REMARK    3  A    between atoms: C3_3  and  C6_6 
REMARK    4  A    between atoms: C9_12  and  N3_13 
REMARK    5  A    between atoms: N4_19  and  C15_20 
REMARK    6  A    between atoms: C15_20  and  C16_21 
ROOT
HETATM    1  C6  UNL     1      71.238  37.990   0.520  1.00  0.00     0.112 A 
HETATM    2  N1  UNL     1      71.042  36.625   0.624  1.00  0.00    -0.330 N 
ATOM      3  H1  UNL     1      70.335  36.108   0.102  1.00  0.00     0.168 HD
HETATM    4  C7  UNL     1      71.872  36.080   1.472  1.00  0.00     0.160 A 
HETATM    5  C8  UNL     1      71.977  34.696   1.851  1.00  0.00     0.121 C 
HETATM    6  N2  UNL     1      72.039  33.579   2.152  1.00  0.00    -0.190 NA
HETATM    7  C9  UNL     1      72.690  37.105   1.988  1.00  0.00     0.145 A 
HETATM    8  N4  UNL     1      72.270  38.233   1.388  1.00  0.00    -0.314 N 
ENDROOT
BRANCH   7   9
HETATM    9  N3  UNL     1      73.726  36.825   2.932  1.00  0.00    -0.364 N 
HETATM   10  C10 UNL     1      75.012  36.273   2.625  1.00  0.00     0.125 C 
HETATM   11  C11 UNL     1      75.633  35.905   3.939  1.00  0.00     0.026 C 
HETATM   12  C12 UNL     1      75.066  36.989   4.866  1.00  0.00     0.001 C 
HETATM   13  C13 UNL     1      75.126  36.563   6.304  1.00  0.00     0.011 C 
HETATM   14  C14 UNL     1      73.654  37.103   4.335  1.00  0.00     0.128 C 
ENDBRANCH   7   9
BRANCH   1  15
HETATM   15  C3  UNL     1      70.472  38.796  -0.413  1.00  0.00    -0.036 C 
BRANCH  15  16
HETATM   16  C2  UNL     1      69.897  40.095   0.070  1.00  0.00     0.033 C 
HETATM   17  C1  UNL     1      70.528  41.281  -0.697  1.00  0.00     0.010 C 
ENDBRANCH  15  16
BRANCH  15  18
HETATM   18  C4  UNL     1      69.547  38.140  -1.377  1.00  0.00     0.033 C 
HETATM   19  C5  UNL     1      68.097  38.192  -1.008  1.00  0.00     0.010 C 
ENDBRANCH  15  18
ENDBRANCH   1  15
BRANCH   8  20
HETATM   20  C15 UNL     1      72.807  39.529   1.605  1.00  0.00     0.174 C 
BRANCH  20  21
HETATM   21  C16 UNL     1      73.928  40.043   0.791  1.00  0.00     0.176 C 
HETATM   22  C17 UNL     1      74.088  39.516  -0.591  1.00  0.00     0.045 C 
HETATM   23  C18 UNL     1      75.091  40.449  -1.222  1.00  0.00     0.033 C 
HETATM   24  C19 UNL     1      75.060  41.673  -0.364  1.00  0.00     0.273 C 
HETATM   25  N5  UNL     1      74.101  41.445   0.687  1.00  0.00     0.099 N 
HETATM   26  C20 UNL     1      74.665  41.947   1.915  1.00  0.00     0.273 C 
HETATM   27  C21 UNL     1      75.406  40.787   2.549  1.00  0.00     0.033 C 
HETATM   28  C22 UNL     1      75.269  39.692   1.555  1.00  0.00     0.045 C 
ENDBRANCH  20  21
ENDBRANCH   8  20
TORSDOF 6
ENDMDL
