MODEL 1
REMARK VINA RESULT: -9.091859974      0.000      0.000
REMARK  6 active torsions:
REMARK  status: ('A' for Active; 'I' for Inactive)
REMARK       I    between atoms: C1_2  and  N1_3 
REMARK    1  A    between atoms: C1_2  and  C13_18 
REMARK    2  A    between atoms: N1_3  and  C2_5 
REMARK    3  A    between atoms: C5_8  and  C6_9 
REMARK    4  A    between atoms: C6_9  and  N2_10 
REMARK       I    between atoms: N2_10  and  C7_11 
REMARK    5  A    between atoms: C7_11  and  C8_13 
REMARK    6  A    between atoms: C20_26  and  C21_27 
ROOT
HETATM    1  O1  UNL     1      35.180  59.299  40.473  1.00  0.00    -0.268 OA
HETATM    2  C1  UNL     1      34.386  60.254  40.810  1.00  0.00     0.254 C 
HETATM    3  N1  UNL     1      33.754  60.120  42.048  1.00  0.00    -0.352 N 
ATOM      4  H1  UNL     1      33.134  60.870  42.351  1.00  0.00     0.163 HD
ENDROOT
BRANCH   2   5
HETATM    5  C13 UNL     1      34.268  61.340  39.854  1.00  0.00     0.062 A 
HETATM    6  C14 UNL     1      33.286  61.246  38.845  1.00  0.00     0.050 A 
HETATM    7 CL1  UNL     1      32.307  59.802  38.758  1.00  0.00    -0.083 Cl
HETATM    8  C15 UNL     1      33.124  62.272  37.962  1.00  0.00     0.028 A 
HETATM    9  C16 UNL     1      33.921  63.387  38.068  1.00  0.00     0.039 A 
HETATM   10  C17 UNL     1      34.878  63.481  39.052  1.00  0.00     0.076 A 
HETATM   11  C18 UNL     1      35.063  62.438  39.974  1.00  0.00    -0.006 A 
HETATM   12  O5  UNL     1      35.698  64.593  39.186  1.00  0.00    -0.350 OA
HETATM   13  C19 UNL     1      36.082  62.705  41.009  1.00  0.00     0.060 C 
HETATM   14  C20 UNL     1      37.327  63.179  40.234  1.00  0.00     0.115 C 
HETATM   15  C22 UNL     1      37.003  64.583  39.706  1.00  0.00     0.191 C 
BRANCH  14  16
HETATM   16  C21 UNL     1      38.516  63.170  41.069  1.00  0.00     0.179 C 
HETATM   17  O3  UNL     1      39.021  62.086  41.454  1.00  0.00    -0.648 OA
HETATM   18  O4  UNL     1      39.121  64.344  41.464  1.00  0.00    -0.648 OA
ENDBRANCH  14  16
ENDBRANCH   2   5
BRANCH   3  19
HETATM   19  C2  UNL     1      33.921  58.988  42.924  1.00  0.00     0.084 C 
HETATM   20  C3  UNL     1      33.804  59.449  44.373  1.00  0.00     0.026 C 
HETATM   21  C4  UNL     1      34.311  58.331  45.284  1.00  0.00     0.013 C 
HETATM   22  C5  UNL     1      34.055  57.000  44.666  1.00  0.00     0.038 C 
HETATM   23  C11 UNL     1      32.738  57.038  43.953  1.00  0.00     0.013 C 
HETATM   24  C12 UNL     1      32.971  57.867  42.678  1.00  0.00     0.026 C 
BRANCH  22  25
HETATM   25  C6  UNL     1      34.281  55.802  45.535  1.00  0.00     0.163 C 
BRANCH  25  26
HETATM   26  N2  UNL     1      35.418  55.666  46.248  1.00  0.00    -0.387 NA
HETATM   27  C7  UNL     1      36.591  55.524  46.982  1.00  0.00     0.295 C 
HETATM   28  O2  UNL     1      36.993  54.446  47.513  1.00  0.00    -0.257 OA
BRANCH  27  29
HETATM   29  C8  UNL     1      37.505  56.717  47.201  1.00  0.00     0.093 A 
HETATM   30  C9  UNL     1      36.931  57.879  47.957  1.00  0.00     0.016 A 
HETATM   31  C10 UNL     1      37.892  56.946  48.633  1.00  0.00     0.016 A 
ENDBRANCH  27  29
ENDBRANCH  25  26
ENDBRANCH  22  25
ENDBRANCH   3  19
TORSDOF 6
ENDMDL
MODEL 2
REMARK VINA RESULT: -9.053815421      3.719      5.804
REMARK  6 active torsions:
REMARK  status: ('A' for Active; 'I' for Inactive)
REMARK       I    between atoms: C1_2  and  N1_3 
REMARK    1  A    between atoms: C1_2  and  C13_18 
REMARK    2  A    between atoms: N1_3  and  C2_5 
REMARK    3  A    between atoms: C5_8  and  C6_9 
REMARK    4  A    between atoms: C6_9  and  N2_10 
REMARK       I    between atoms: N2_10  and  C7_11 
REMARK    5  A    between atoms: C7_11  and  C8_13 
REMARK    6  A    between atoms: C20_26  and  C21_27 
ROOT
HETATM    1  O1  UNL     1      33.520  59.775  38.546  1.00  0.00    -0.268 OA
HETATM    2  C1  UNL     1      32.526  60.546  38.816  1.00  0.00     0.254 C 
HETATM    3  N1  UNL     1      32.018  60.463  40.114  1.00  0.00    -0.352 N 
ATOM      4  H1  UNL     1      31.242  61.076  40.363  1.00  0.00     0.163 HD
ENDROOT
BRANCH   2   5
HETATM    5  C13 UNL     1      32.080  61.399  37.729  1.00  0.00     0.062 A 
HETATM    6  C14 UNL     1      32.734  62.633  37.528  1.00  0.00     0.050 A 
HETATM    7 CL1  UNL     1      34.004  63.100  38.633  1.00  0.00    -0.083 Cl
HETATM    8  C15 UNL     1      32.364  63.432  36.487  1.00  0.00     0.028 A 
HETATM    9  C16 UNL     1      31.356  63.023  35.645  1.00  0.00     0.039 A 
HETATM   10  C17 UNL     1      30.718  61.820  35.839  1.00  0.00     0.076 A 
HETATM   11  C18 UNL     1      31.082  60.978  36.904  1.00  0.00    -0.006 A 
HETATM   12  O5  UNL     1      29.698  61.378  35.008  1.00  0.00    -0.350 OA
HETATM   13  C19 UNL     1      30.353  59.695  36.950  1.00  0.00     0.060 C 
HETATM   14  C20 UNL     1      28.864  60.075  36.840  1.00  0.00     0.115 C 
HETATM   15  C22 UNL     1      28.639  60.541  35.395  1.00  0.00     0.191 C 
BRANCH  14  16
HETATM   16  C21 UNL     1      27.999  58.963  37.196  1.00  0.00     0.179 C 
HETATM   17  O3  UNL     1      28.364  57.777  37.001  1.00  0.00    -0.648 OA
HETATM   18  O4  UNL     1      26.756  59.175  37.756  1.00  0.00    -0.648 OA
ENDBRANCH  14  16
ENDBRANCH   2   5
BRANCH   3  19
HETATM   19  C2  UNL     1      32.519  59.565  41.123  1.00  0.00     0.084 C 
HETATM   20  C3  UNL     1      33.460  60.324  42.052  1.00  0.00     0.026 C 
HETATM   21  C4  UNL     1      34.236  59.312  42.896  1.00  0.00     0.013 C 
HETATM   22  C5  UNL     1      33.413  58.093  43.132  1.00  0.00     0.038 C 
HETATM   23  C11 UNL     1      31.984  58.499  43.323  1.00  0.00     0.013 C 
HETATM   24  C12 UNL     1      31.465  58.885  41.926  1.00  0.00     0.026 C 
BRANCH  22  25
HETATM   25  C6  UNL     1      33.942  57.112  44.132  1.00  0.00     0.163 C 
BRANCH  25  26
HETATM   26  N2  UNL     1      35.070  57.365  44.825  1.00  0.00    -0.387 NA
HETATM   27  C7  UNL     1      36.234  57.628  45.540  1.00  0.00     0.295 C 
HETATM   28  O2  UNL     1      36.670  58.782  45.826  1.00  0.00    -0.257 OA
BRANCH  27  29
HETATM   29  C8  UNL     1      37.095  56.483  46.046  1.00  0.00     0.093 A 
HETATM   30  C9  UNL     1      37.183  56.309  47.535  1.00  0.00     0.016 A 
HETATM   31  C10 UNL     1      36.330  55.382  46.719  1.00  0.00     0.016 A 
ENDBRANCH  27  29
ENDBRANCH  25  26
ENDBRANCH  22  25
ENDBRANCH   3  19
TORSDOF 6
ENDMDL
MODEL 3
REMARK VINA RESULT: -9.022698398      4.368      7.851
REMARK  6 active torsions:
REMARK  status: ('A' for Active; 'I' for Inactive)
REMARK       I    between atoms: C1_2  and  N1_3 
REMARK    1  A    between atoms: C1_2  and  C13_18 
REMARK    2  A    between atoms: N1_3  and  C2_5 
REMARK    3  A    between atoms: C5_8  and  C6_9 
REMARK    4  A    between atoms: C6_9  and  N2_10 
REMARK       I    between atoms: N2_10  and  C7_11 
REMARK    5  A    between atoms: C7_11  and  C8_13 
REMARK    6  A    between atoms: C20_26  and  C21_27 
ROOT
HETATM    1  O1  UNL     1      39.431  57.136  45.306  1.00  0.00    -0.268 OA
HETATM    2  C1  UNL     1      39.304  58.020  46.232  1.00  0.00     0.254 C 
HETATM    3  N1  UNL     1      37.996  58.330  46.609  1.00  0.00    -0.352 N 
ATOM      4  H1  UNL     1      37.863  59.013  47.355  1.00  0.00     0.163 HD
ENDROOT
BRANCH   2   5
HETATM    5  C13 UNL     1      40.543  58.563  46.757  1.00  0.00     0.062 A 
HETATM    6  C14 UNL     1      41.174  57.893  47.827  1.00  0.00     0.050 A 
HETATM    7 CL1  UNL     1      40.401  56.481  48.506  1.00  0.00    -0.083 Cl
HETATM    8  C15 UNL     1      42.362  58.357  48.308  1.00  0.00     0.028 A 
HETATM    9  C16 UNL     1      42.931  59.474  47.743  1.00  0.00     0.039 A 
HETATM   10  C17 UNL     1      42.318  60.128  46.700  1.00  0.00     0.076 A 
HETATM   11  C18 UNL     1      41.094  59.669  46.185  1.00  0.00    -0.006 A 
HETATM   12  O5  UNL     1      42.866  61.258  46.107  1.00  0.00    -0.350 OA
HETATM   13  C19 UNL     1      40.588  60.434  45.028  1.00  0.00     0.060 C 
HETATM   14  C20 UNL     1      40.650  61.910  45.464  1.00  0.00     0.115 C 
HETATM   15  C22 UNL     1      42.136  62.292  45.500  1.00  0.00     0.191 C 
BRANCH  14  16
HETATM   16  C21 UNL     1      39.887  62.766  44.572  1.00  0.00     0.179 C 
HETATM   17  O3  UNL     1      39.899  64.014  44.714  1.00  0.00    -0.648 OA
HETATM   18  O4  UNL     1      39.128  62.237  43.550  1.00  0.00    -0.648 OA
ENDBRANCH  14  16
ENDBRANCH   2   5
BRANCH   3  19
HETATM   19  C2  UNL     1      36.821  57.748  46.013  1.00  0.00     0.084 C 
HETATM   20  C3  UNL     1      36.511  56.421  46.697  1.00  0.00     0.026 C 
HETATM   21  C4  UNL     1      35.488  55.662  45.851  1.00  0.00     0.013 C 
HETATM   22  C5  UNL     1      34.596  56.615  45.133  1.00  0.00     0.038 C 
HETATM   23  C11 UNL     1      34.319  57.788  46.023  1.00  0.00     0.013 C 
HETATM   24  C12 UNL     1      35.613  58.620  46.042  1.00  0.00     0.026 C 
BRANCH  22  25
HETATM   25  C6  UNL     1      33.401  56.029  44.450  1.00  0.00     0.163 C 
BRANCH  25  26
HETATM   26  N2  UNL     1      32.494  56.817  43.837  1.00  0.00    -0.387 NA
HETATM   27  C7  UNL     1      31.559  57.630  43.206  1.00  0.00     0.295 C 
HETATM   28  O2  UNL     1      30.302  57.521  43.320  1.00  0.00    -0.257 OA
BRANCH  27  29
HETATM   29  C8  UNL     1      32.016  58.756  42.294  1.00  0.00     0.093 A 
HETATM   30  C9  UNL     1      32.891  59.811  42.906  1.00  0.00     0.016 A 
HETATM   31  C10 UNL     1      33.490  58.766  42.011  1.00  0.00     0.016 A 
ENDBRANCH  27  29
ENDBRANCH  25  26
ENDBRANCH  22  25
ENDBRANCH   3  19
TORSDOF 6
ENDMDL
MODEL 4
REMARK VINA RESULT: -9.002783335      2.879      4.714
REMARK  6 active torsions:
REMARK  status: ('A' for Active; 'I' for Inactive)
REMARK       I    between atoms: C1_2  and  N1_3 
REMARK    1  A    between atoms: C1_2  and  C13_18 
REMARK    2  A    between atoms: N1_3  and  C2_5 
REMARK    3  A    between atoms: C5_8  and  C6_9 
REMARK    4  A    between atoms: C6_9  and  N2_10 
REMARK       I    between atoms: N2_10  and  C7_11 
REMARK    5  A    between atoms: C7_11  and  C8_13 
REMARK    6  A    between atoms: C20_26  and  C21_27 
ROOT
HETATM    1  O1  UNL     1      34.144  58.861  45.807  1.00  0.00    -0.268 OA
HETATM    2  C1  UNL     1      34.459  58.346  44.671  1.00  0.00     0.254 C 
HETATM    3  N1  UNL     1      35.506  57.422  44.684  1.00  0.00    -0.352 N 
ATOM      4  H1  UNL     1      35.766  56.983  43.801  1.00  0.00     0.163 HD
ENDROOT
BRANCH   2   5
HETATM    5  C13 UNL     1      33.672  58.796  43.537  1.00  0.00     0.062 A 
HETATM    6  C14 UNL     1      32.474  58.115  43.234  1.00  0.00     0.050 A 
HETATM    7 CL1  UNL     1      32.031  56.727  44.198  1.00  0.00    -0.083 Cl
HETATM    8  C15 UNL     1      31.694  58.545  42.202  1.00  0.00     0.028 A 
HETATM    9  C16 UNL     1      32.086  59.640  41.469  1.00  0.00     0.039 A 
HETATM   10  C17 UNL     1      33.253  60.307  41.764  1.00  0.00     0.076 A 
HETATM   11  C18 UNL     1      34.074  59.883  42.823  1.00  0.00    -0.006 A 
HETATM   12  O5  UNL     1      33.677  61.416  41.044  1.00  0.00    -0.350 OA
HETATM   13  C19 UNL     1      35.259  60.730  43.059  1.00  0.00     0.060 C 
HETATM   14  C20 UNL     1      35.927  60.880  41.678  1.00  0.00     0.115 C 
HETATM   15  C22 UNL     1      35.014  61.797  40.851  1.00  0.00     0.191 C 
BRANCH  14  16
HETATM   16  C21 UNL     1      37.277  61.408  41.788  1.00  0.00     0.179 C 
HETATM   17  O3  UNL     1      37.592  62.171  42.735  1.00  0.00    -0.648 OA
HETATM   18  O4  UNL     1      38.246  61.089  40.861  1.00  0.00    -0.648 OA
ENDBRANCH  14  16
ENDBRANCH   2   5
BRANCH   3  19
HETATM   19  C2  UNL     1      36.244  57.052  45.864  1.00  0.00     0.084 C 
HETATM   20  C3  UNL     1      36.325  55.532  45.953  1.00  0.00     0.026 C 
HETATM   21  C4  UNL     1      36.803  55.149  47.355  1.00  0.00     0.013 C 
HETATM   22  C5  UNL     1      37.702  56.202  47.904  1.00  0.00     0.038 C 
HETATM   23  C11 UNL     1      38.547  56.749  46.794  1.00  0.00     0.013 C 
HETATM   24  C12 UNL     1      37.614  57.632  45.947  1.00  0.00     0.026 C 
BRANCH  22  25
HETATM   25  C6  UNL     1      38.434  55.867  49.165  1.00  0.00     0.163 C 
BRANCH  25  26
HETATM   26  N2  UNL     1      39.597  56.475  49.477  1.00  0.00    -0.387 NA
HETATM   27  C7  UNL     1      40.796  57.102  49.798  1.00  0.00     0.295 C 
HETATM   28  O2  UNL     1      41.450  56.921  50.868  1.00  0.00    -0.257 OA
BRANCH  27  29
HETATM   29  C8  UNL     1      41.425  58.092  48.832  1.00  0.00     0.093 A 
HETATM   30  C9  UNL     1      40.649  59.344  48.546  1.00  0.00     0.016 A 
HETATM   31  C10 UNL     1      41.838  59.391  49.459  1.00  0.00     0.016 A 
ENDBRANCH  27  29
ENDBRANCH  25  26
ENDBRANCH  22  25
ENDBRANCH   3  19
TORSDOF 6
ENDMDL
MODEL 5
REMARK VINA RESULT: -8.967782396      3.207      5.543
REMARK  6 active torsions:
REMARK  status: ('A' for Active; 'I' for Inactive)
REMARK       I    between atoms: C1_2  and  N1_3 
REMARK    1  A    between atoms: C1_2  and  C13_18 
REMARK    2  A    between atoms: N1_3  and  C2_5 
REMARK    3  A    between atoms: C5_8  and  C6_9 
REMARK    4  A    between atoms: C6_9  and  N2_10 
REMARK       I    between atoms: N2_10  and  C7_11 
REMARK    5  A    between atoms: C7_11  and  C8_13 
REMARK    6  A    between atoms: C20_26  and  C21_27 
ROOT
HETATM    1  O1  UNL     1      34.584  58.560  46.348  1.00  0.00    -0.268 OA
HETATM    2  C1  UNL     1      34.803  57.985  45.218  1.00  0.00     0.254 C 
HETATM    3  N1  UNL     1      35.962  57.211  45.137  1.00  0.00    -0.352 N 
ATOM      4  H1  UNL     1      36.152  56.727  44.259  1.00  0.00     0.163 HD
ENDROOT
BRANCH   2   5
HETATM    5  C13 UNL     1      33.805  58.221  44.190  1.00  0.00     0.062 A 
HETATM    6  C14 UNL     1      32.717  57.328  44.088  1.00  0.00     0.050 A 
HETATM    7 CL1  UNL     1      32.658  55.951  45.162  1.00  0.00    -0.083 Cl
HETATM    8  C15 UNL     1      31.744  57.552  43.161  1.00  0.00     0.028 A 
HETATM    9  C16 UNL     1      31.835  58.648  42.336  1.00  0.00     0.039 A 
HETATM   10  C17 UNL     1      32.894  59.520  42.434  1.00  0.00     0.076 A 
HETATM   11  C18 UNL     1      33.910  59.312  43.382  1.00  0.00    -0.006 A 
HETATM   12  O5  UNL     1      33.016  60.635  41.616  1.00  0.00    -0.350 OA
HETATM   13  C19 UNL     1      34.948  60.361  43.413  1.00  0.00     0.060 C 
HETATM   14  C20 UNL     1      35.389  60.532  41.946  1.00  0.00     0.115 C 
HETATM   15  C22 UNL     1      34.227  61.224  41.220  1.00  0.00     0.191 C 
BRANCH  14  16
HETATM   16  C21 UNL     1      36.626  61.287  41.842  1.00  0.00     0.179 C 
HETATM   17  O3  UNL     1      36.967  61.813  40.754  1.00  0.00    -0.648 OA
HETATM   18  O4  UNL     1      37.460  61.446  42.929  1.00  0.00    -0.648 OA
ENDBRANCH  14  16
ENDBRANCH   2   5
BRANCH   3  19
HETATM   19  C2  UNL     1      36.907  57.052  46.212  1.00  0.00     0.084 C 
HETATM   20  C3  UNL     1      36.825  55.628  46.751  1.00  0.00     0.026 C 
HETATM   21  C4  UNL     1      37.569  55.566  48.086  1.00  0.00     0.013 C 
HETATM   22  C5  UNL     1      38.691  56.546  48.101  1.00  0.00     0.038 C 
HETATM   23  C11 UNL     1      39.311  56.599  46.738  1.00  0.00     0.013 C 
HETATM   24  C12 UNL     1      38.317  57.369  45.851  1.00  0.00     0.026 C 
BRANCH  22  25
HETATM   25  C6  UNL     1      39.654  56.444  49.242  1.00  0.00     0.163 C 
BRANCH  25  26
HETATM   26  N2  UNL     1      40.280  57.538  49.723  1.00  0.00    -0.387 NA
HETATM   27  C7  UNL     1      40.926  58.664  50.219  1.00  0.00     0.295 C 
HETATM   28  O2  UNL     1      41.329  58.809  51.412  1.00  0.00    -0.257 OA
BRANCH  27  29
HETATM   29  C8  UNL     1      41.201  59.851  49.312  1.00  0.00     0.093 A 
HETATM   30  C9  UNL     1      42.506  59.848  48.570  1.00  0.00     0.016 A 
HETATM   31  C10 UNL     1      41.233  59.518  47.849  1.00  0.00     0.016 A 
ENDBRANCH  27  29
ENDBRANCH  25  26
ENDBRANCH  22  25
ENDBRANCH   3  19
TORSDOF 6
ENDMDL
