MODEL 1
REMARK VINA RESULT: -8.133993138      0.000      0.000
REMARK  9 active torsions:
REMARK  status: ('A' for Active; 'I' for Inactive)
REMARK    1  A    between atoms: C3_3  and  N1_4 
REMARK    2  A    between atoms: C3_3  and  C18_25 
REMARK       I    between atoms: N1_4  and  C4_6 
REMARK    3  A    between atoms: C4_6  and  C5_8 
REMARK    4  A    between atoms: C5_8  and  C6_9 
REMARK    5  A    between atoms: C5_8  and  N2_16 
REMARK    6  A    between atoms: C6_9  and  C7_10 
REMARK       I    between atoms: N2_16  and  C13_18 
REMARK    7  A    between atoms: C13_18  and  O3_20 
REMARK    8  A    between atoms: O3_20  and  C14_21 
REMARK       I    between atoms: C18_25  and  N3_27 
REMARK    9  A    between atoms: N3_27  and  C19_29 
ROOT
HETATM    1  C1  UNL     1      38.789  62.648  41.942  1.00  0.00     0.015 C 
HETATM    2  C2  UNL     1      38.775  62.366  43.109  1.00  0.00    -0.082 C 
HETATM    3  C3  UNL     1      38.734  62.011  44.527  1.00  0.00     0.256 C 
ENDROOT
BRANCH   3   4
HETATM    4  N1  UNL     1      38.070  60.769  44.743  1.00  0.00    -0.336 N 
HETATM    5  C4  UNL     1      37.302  60.432  45.892  1.00  0.00     0.241 C 
HETATM    6  O1  UNL     1      37.260  61.387  46.752  1.00  0.00    -0.271 OA
ATOM      7  H1  UNL     1      38.153  60.062  44.012  1.00  0.00     0.164 HD
BRANCH   5   8
HETATM    8  C5  UNL     1      36.620  59.156  46.133  1.00  0.00     0.179 C 
BRANCH   8   9
HETATM    9  C6  UNL     1      37.356  57.948  45.785  1.00  0.00     0.039 C 
BRANCH   9  10
HETATM   10  C7  UNL     1      38.073  57.058  46.661  1.00  0.00    -0.012 C 
HETATM   11  C8  UNL     1      39.513  57.014  46.846  1.00  0.00     0.005 C 
HETATM   12  C9  UNL     1      39.948  57.072  48.323  1.00  0.00     0.000 C 
HETATM   13  C10 UNL     1      39.386  55.857  49.043  1.00  0.00     0.000 C 
HETATM   14  C11 UNL     1      37.878  55.923  48.875  1.00  0.00     0.000 C 
HETATM   15  C12 UNL     1      37.456  57.125  48.093  1.00  0.00     0.005 C 
ENDBRANCH   9  10
ENDBRANCH   8   9
BRANCH   8  16
HETATM   16  N2  UNL     1      35.450  59.203  45.184  1.00  0.00    -0.324 N 
HETATM   17  C13 UNL     1      34.196  58.694  45.504  1.00  0.00     0.362 C 
HETATM   18  O2  UNL     1      33.899  58.148  46.593  1.00  0.00    -0.238 OA
ATOM     19  H2  UNL     1      35.584  59.628  44.267  1.00  0.00     0.165 HD
BRANCH  17  20
HETATM   20  O3  UNL     1      33.188  58.785  44.573  1.00  0.00    -0.294 OA
BRANCH  20  21
HETATM   21  C14 UNL     1      32.936  57.846  43.584  1.00  0.00     0.061 C 
HETATM   22  C15 UNL     1      33.550  58.239  42.249  1.00  0.00     0.046 C 
HETATM   23  C16 UNL     1      33.463  56.465  43.905  1.00  0.00     0.046 C 
HETATM   24  C17 UNL     1      31.448  57.715  43.396  1.00  0.00     0.046 C 
ENDBRANCH  20  21
ENDBRANCH  17  20
ENDBRANCH   8  16
ENDBRANCH   5   8
ENDBRANCH   3   4
BRANCH   3  25
HETATM   25  C18 UNL     1      40.108  62.073  45.080  1.00  0.00     0.253 C 
HETATM   26  O4  UNL     1      40.704  63.159  45.156  1.00  0.00    -0.270 OA
HETATM   27  N3  UNL     1      40.733  60.887  45.517  1.00  0.00    -0.350 N 
ATOM     28  H3  UNL     1      40.219  60.010  45.442  1.00  0.00     0.163 HD
BRANCH  27  29
HETATM   29  C19 UNL     1      42.074  60.858  46.071  1.00  0.00     0.022 C 
HETATM   30  C20 UNL     1      43.089  61.400  45.081  1.00  0.00     0.037 C 
HETATM   31  C21 UNL     1      42.421  59.414  46.392  1.00  0.00     0.037 C 
HETATM   32  C22 UNL     1      42.123  61.653  47.338  1.00  0.00     0.037 C 
ENDBRANCH  27  29
ENDBRANCH   3  25
TORSDOF 9
ENDMDL
MODEL 2
REMARK VINA RESULT: -8.125560476      1.056      1.208
REMARK  9 active torsions:
REMARK  status: ('A' for Active; 'I' for Inactive)
REMARK    1  A    between atoms: C3_3  and  N1_4 
REMARK    2  A    between atoms: C3_3  and  C18_25 
REMARK       I    between atoms: N1_4  and  C4_6 
REMARK    3  A    between atoms: C4_6  and  C5_8 
REMARK    4  A    between atoms: C5_8  and  C6_9 
REMARK    5  A    between atoms: C5_8  and  N2_16 
REMARK    6  A    between atoms: C6_9  and  C7_10 
REMARK       I    between atoms: N2_16  and  C13_18 
REMARK    7  A    between atoms: C13_18  and  O3_20 
REMARK    8  A    between atoms: O3_20  and  C14_21 
REMARK       I    between atoms: C18_25  and  N3_27 
REMARK    9  A    between atoms: N3_27  and  C19_29 
ROOT
HETATM    1  C1  UNL     1      37.543  62.352  42.391  1.00  0.00     0.015 C 
HETATM    2  C2  UNL     1      37.775  61.853  43.458  1.00  0.00    -0.082 C 
HETATM    3  C3  UNL     1      38.032  61.240  44.759  1.00  0.00     0.256 C 
ENDROOT
BRANCH   3   4
HETATM    4  N1  UNL     1      37.162  60.139  45.007  1.00  0.00    -0.336 N 
HETATM    5  C4  UNL     1      36.729  59.700  46.290  1.00  0.00     0.241 C 
HETATM    6  O1  UNL     1      37.214  60.414  47.242  1.00  0.00    -0.271 OA
ATOM      7  H1  UNL     1      36.820  59.622  44.197  1.00  0.00     0.164 HD
BRANCH   5   8
HETATM    8  C5  UNL     1      35.841  58.565  46.562  1.00  0.00     0.179 C 
BRANCH   8   9
HETATM    9  C6  UNL     1      36.415  57.236  46.399  1.00  0.00     0.039 C 
BRANCH   9  10
HETATM   10  C7  UNL     1      37.632  56.715  46.963  1.00  0.00    -0.012 C 
HETATM   11  C8  UNL     1      38.982  57.122  46.613  1.00  0.00     0.005 C 
HETATM   12  C9  UNL     1      39.851  57.491  47.830  1.00  0.00     0.000 C 
HETATM   13  C10 UNL     1      39.990  56.265  48.717  1.00  0.00     0.000 C 
HETATM   14  C11 UNL     1      38.580  55.860  49.108  1.00  0.00     0.000 C 
HETATM   15  C12 UNL     1      37.554  56.775  48.521  1.00  0.00     0.005 C 
ENDBRANCH   9  10
ENDBRANCH   8   9
BRANCH   8  16
HETATM   16  N2  UNL     1      34.788  58.684  45.490  1.00  0.00    -0.324 N 
HETATM   17  C13 UNL     1      33.427  58.553  45.749  1.00  0.00     0.362 C 
HETATM   18  O2  UNL     1      32.930  58.325  46.877  1.00  0.00    -0.238 OA
ATOM     19  H2  UNL     1      35.086  58.870  44.533  1.00  0.00     0.165 HD
BRANCH  17  20
HETATM   20  O3  UNL     1      32.540  58.681  44.706  1.00  0.00    -0.294 OA
BRANCH  20  21
HETATM   21  C14 UNL     1      32.333  57.726  43.722  1.00  0.00     0.061 C 
HETATM   22  C15 UNL     1      33.072  58.058  42.435  1.00  0.00     0.046 C 
HETATM   23  C16 UNL     1      32.772  56.334  44.119  1.00  0.00     0.046 C 
HETATM   24  C17 UNL     1      30.861  57.650  43.412  1.00  0.00     0.046 C 
ENDBRANCH  20  21
ENDBRANCH  17  20
ENDBRANCH   8  16
ENDBRANCH   5   8
ENDBRANCH   3   4
BRANCH   3  25
HETATM   25  C18 UNL     1      39.474  60.912  44.862  1.00  0.00     0.253 C 
HETATM   26  O4  UNL     1      40.093  60.493  43.872  1.00  0.00    -0.270 OA
HETATM   27  N3  UNL     1      40.137  61.081  46.096  1.00  0.00    -0.350 N 
ATOM     28  H3  UNL     1      39.602  61.427  46.892  1.00  0.00     0.163 HD
BRANCH  27  29
HETATM   29  C19 UNL     1      41.545  60.785  46.284  1.00  0.00     0.022 C 
HETATM   30  C20 UNL     1      41.915  59.454  45.656  1.00  0.00     0.037 C 
HETATM   31  C21 UNL     1      41.818  60.719  47.776  1.00  0.00     0.037 C 
HETATM   32  C22 UNL     1      42.382  61.877  45.694  1.00  0.00     0.037 C 
ENDBRANCH  27  29
ENDBRANCH   3  25
TORSDOF 9
ENDMDL
MODEL 3
REMARK VINA RESULT: -7.955013446      1.253      1.488
REMARK  9 active torsions:
REMARK  status: ('A' for Active; 'I' for Inactive)
REMARK    1  A    between atoms: C3_3  and  N1_4 
REMARK    2  A    between atoms: C3_3  and  C18_25 
REMARK       I    between atoms: N1_4  and  C4_6 
REMARK    3  A    between atoms: C4_6  and  C5_8 
REMARK    4  A    between atoms: C5_8  and  C6_9 
REMARK    5  A    between atoms: C5_8  and  N2_16 
REMARK    6  A    between atoms: C6_9  and  C7_10 
REMARK       I    between atoms: N2_16  and  C13_18 
REMARK    7  A    between atoms: C13_18  and  O3_20 
REMARK    8  A    between atoms: O3_20  and  C14_21 
REMARK       I    between atoms: C18_25  and  N3_27 
REMARK    9  A    between atoms: N3_27  and  C19_29 
ROOT
HETATM    1  C1  UNL     1      37.907  62.343  42.907  1.00  0.00     0.015 C 
HETATM    2  C2  UNL     1      38.068  61.779  43.955  1.00  0.00    -0.082 C 
HETATM    3  C3  UNL     1      38.238  61.086  45.231  1.00  0.00     0.256 C 
ENDROOT
BRANCH   3   4
HETATM    4  N1  UNL     1      37.332  59.994  45.366  1.00  0.00    -0.336 N 
HETATM    5  C4  UNL     1      36.638  59.638  46.556  1.00  0.00     0.241 C 
HETATM    6  O1  UNL     1      36.914  60.421  47.537  1.00  0.00    -0.271 OA
ATOM      7  H1  UNL     1      37.167  59.420  44.539  1.00  0.00     0.164 HD
BRANCH   5   8
HETATM    8  C5  UNL     1      35.710  58.514  46.712  1.00  0.00     0.179 C 
BRANCH   8   9
HETATM    9  C6  UNL     1      36.263  57.181  46.517  1.00  0.00     0.039 C 
BRANCH   9  10
HETATM   10  C7  UNL     1      37.508  56.651  47.010  1.00  0.00    -0.012 C 
HETATM   11  C8  UNL     1      38.837  57.006  46.541  1.00  0.00     0.005 C 
HETATM   12  C9  UNL     1      39.805  57.402  47.671  1.00  0.00     0.000 C 
HETATM   13  C10 UNL     1      39.982  56.211  48.599  1.00  0.00     0.000 C 
HETATM   14  C11 UNL     1      38.597  55.861  49.112  1.00  0.00     0.000 C 
HETATM   15  C12 UNL     1      37.551  56.778  48.565  1.00  0.00     0.005 C 
ENDBRANCH   9  10
ENDBRANCH   8   9
BRANCH   8  16
HETATM   16  N2  UNL     1      34.730  58.714  45.585  1.00  0.00    -0.324 N 
HETATM   17  C13 UNL     1      33.358  58.533  45.734  1.00  0.00     0.362 C 
HETATM   18  O2  UNL     1      32.791  58.190  46.798  1.00  0.00    -0.238 OA
ATOM     19  H2  UNL     1      35.088  58.995  44.672  1.00  0.00     0.165 HD
BRANCH  17  20
HETATM   20  O3  UNL     1      32.541  58.741  44.648  1.00  0.00    -0.294 OA
BRANCH  20  21
HETATM   21  C14 UNL     1      32.346  57.832  43.618  1.00  0.00     0.061 C 
HETATM   22  C15 UNL     1      33.003  58.282  42.323  1.00  0.00     0.046 C 
HETATM   23  C16 UNL     1      32.886  56.450  43.913  1.00  0.00     0.046 C 
HETATM   24  C17 UNL     1      30.869  57.682  43.369  1.00  0.00     0.046 C 
ENDBRANCH  20  21
ENDBRANCH  17  20
ENDBRANCH   8  16
ENDBRANCH   5   8
ENDBRANCH   3   4
BRANCH   3  25
HETATM   25  C18 UNL     1      39.664  60.719  45.395  1.00  0.00     0.253 C 
HETATM   26  O4  UNL     1      40.201  60.776  46.512  1.00  0.00    -0.270 OA
HETATM   27  N3  UNL     1      40.408  60.305  44.270  1.00  0.00    -0.350 N 
ATOM     28  H3  UNL     1      39.940  60.269  43.365  1.00  0.00     0.163 HD
BRANCH  27  29
HETATM   29  C19 UNL     1      41.807  59.928  44.342  1.00  0.00     0.022 C 
HETATM   30  C20 UNL     1      42.632  61.006  45.021  1.00  0.00     0.037 C 
HETATM   31  C21 UNL     1      42.317  59.737  42.924  1.00  0.00     0.037 C 
HETATM   32  C22 UNL     1      41.952  58.634  45.080  1.00  0.00     0.037 C 
ENDBRANCH  27  29
ENDBRANCH   3  25
TORSDOF 9
ENDMDL
MODEL 4
REMARK VINA RESULT: -7.929931901      1.546      8.414
REMARK  9 active torsions:
REMARK  status: ('A' for Active; 'I' for Inactive)
REMARK    1  A    between atoms: C3_3  and  N1_4 
REMARK    2  A    between atoms: C3_3  and  C18_25 
REMARK       I    between atoms: N1_4  and  C4_6 
REMARK    3  A    between atoms: C4_6  and  C5_8 
REMARK    4  A    between atoms: C5_8  and  C6_9 
REMARK    5  A    between atoms: C5_8  and  N2_16 
REMARK    6  A    between atoms: C6_9  and  C7_10 
REMARK       I    between atoms: N2_16  and  C13_18 
REMARK    7  A    between atoms: C13_18  and  O3_20 
REMARK    8  A    between atoms: O3_20  and  C14_21 
REMARK       I    between atoms: C18_25  and  N3_27 
REMARK    9  A    between atoms: N3_27  and  C19_29 
ROOT
HETATM    1  C1  UNL     1      37.554  56.341  47.088  1.00  0.00     0.015 C 
HETATM    2  C2  UNL     1      37.037  57.354  46.702  1.00  0.00    -0.082 C 
HETATM    3  C3  UNL     1      36.431  58.600  46.235  1.00  0.00     0.256 C 
ENDROOT
BRANCH   3   4
HETATM    4  N1  UNL     1      37.354  59.391  45.491  1.00  0.00    -0.336 N 
HETATM    5  C4  UNL     1      37.743  60.722  45.808  1.00  0.00     0.241 C 
HETATM    6  O1  UNL     1      37.164  61.164  46.868  1.00  0.00    -0.271 OA
ATOM      7  H1  UNL     1      37.770  58.967  44.662  1.00  0.00     0.164 HD
BRANCH   5   8
HETATM    8  C5  UNL     1      38.684  61.552  45.049  1.00  0.00     0.179 C 
BRANCH   8   9
HETATM    9  C6  UNL     1      38.976  61.127  43.687  1.00  0.00     0.039 C 
BRANCH   9  10
HETATM   10  C7  UNL     1      38.496  61.694  42.454  1.00  0.00    -0.012 C 
HETATM   11  C8  UNL     1      37.225  61.405  41.815  1.00  0.00     0.005 C 
HETATM   12  C9  UNL     1      36.416  62.663  41.449  1.00  0.00     0.000 C 
HETATM   13  C10 UNL     1      37.219  63.485  40.454  1.00  0.00     0.000 C 
HETATM   14  C11 UNL     1      38.535  63.813  41.136  1.00  0.00     0.000 C 
HETATM   15  C12 UNL     1      38.602  63.250  42.519  1.00  0.00     0.005 C 
ENDBRANCH   9  10
ENDBRANCH   8   9
BRANCH   8  16
HETATM   16  N2  UNL     1      39.977  61.393  45.808  1.00  0.00    -0.324 N 
HETATM   17  C13 UNL     1      40.985  62.352  45.794  1.00  0.00     0.362 C 
HETATM   18  O2  UNL     1      40.938  63.434  45.163  1.00  0.00    -0.238 OA
ATOM     19  H2  UNL     1      40.119  60.545  46.357  1.00  0.00     0.165 HD
BRANCH  17  20
HETATM   20  O3  UNL     1      42.130  62.119  46.520  1.00  0.00    -0.294 OA
BRANCH  20  21
HETATM   21  C14 UNL     1      43.047  61.113  46.252  1.00  0.00     0.061 C 
HETATM   22  C15 UNL     1      43.968  60.846  47.432  1.00  0.00     0.046 C 
HETATM   23  C16 UNL     1      42.412  59.786  45.899  1.00  0.00     0.046 C 
HETATM   24  C17 UNL     1      43.894  61.521  45.076  1.00  0.00     0.046 C 
ENDBRANCH  20  21
ENDBRANCH  17  20
ENDBRANCH   8  16
ENDBRANCH   5   8
ENDBRANCH   3   4
BRANCH   3  25
HETATM   25  C18 UNL     1      35.176  58.285  45.512  1.00  0.00     0.253 C 
HETATM   26  O4  UNL     1      35.183  57.479  44.568  1.00  0.00    -0.270 OA
HETATM   27  N3  UNL     1      33.974  58.908  45.905  1.00  0.00    -0.350 N 
ATOM     28  H3  UNL     1      33.999  59.566  46.684  1.00  0.00     0.163 HD
BRANCH  27  29
HETATM   29  C19 UNL     1      32.703  58.657  45.252  1.00  0.00     0.022 C 
HETATM   30  C20 UNL     1      32.519  57.180  44.956  1.00  0.00     0.037 C 
HETATM   31  C21 UNL     1      32.683  59.429  43.944  1.00  0.00     0.037 C 
HETATM   32  C22 UNL     1      31.580  59.148  46.112  1.00  0.00     0.037 C 
ENDBRANCH  27  29
ENDBRANCH   3  25
TORSDOF 9
ENDMDL
MODEL 5
REMARK VINA RESULT: -7.912295940      1.606      8.452
REMARK  9 active torsions:
REMARK  status: ('A' for Active; 'I' for Inactive)
REMARK    1  A    between atoms: C3_3  and  N1_4 
REMARK    2  A    between atoms: C3_3  and  C18_25 
REMARK       I    between atoms: N1_4  and  C4_6 
REMARK    3  A    between atoms: C4_6  and  C5_8 
REMARK    4  A    between atoms: C5_8  and  C6_9 
REMARK    5  A    between atoms: C5_8  and  N2_16 
REMARK    6  A    between atoms: C6_9  and  C7_10 
REMARK       I    between atoms: N2_16  and  C13_18 
REMARK    7  A    between atoms: C13_18  and  O3_20 
REMARK    8  A    between atoms: O3_20  and  C14_21 
REMARK       I    between atoms: C18_25  and  N3_27 
REMARK    9  A    between atoms: N3_27  and  C19_29 
ROOT
HETATM    1  C1  UNL     1      37.446  56.319  46.786  1.00  0.00     0.015 C 
HETATM    2  C2  UNL     1      36.944  57.359  46.455  1.00  0.00    -0.082 C 
HETATM    3  C3  UNL     1      36.357  58.636  46.056  1.00  0.00     0.256 C 
ENDROOT
BRANCH   3   4
HETATM    4  N1  UNL     1      37.288  59.448  45.344  1.00  0.00    -0.336 N 
HETATM    5  C4  UNL     1      37.750  60.729  45.754  1.00  0.00     0.241 C 
HETATM    6  O1  UNL     1      37.231  61.104  46.869  1.00  0.00    -0.271 OA
ATOM      7  H1  UNL     1      37.653  59.078  44.466  1.00  0.00     0.164 HD
BRANCH   5   8
HETATM    8  C5  UNL     1      38.700  61.579  45.029  1.00  0.00     0.179 C 
BRANCH   8   9
HETATM    9  C6  UNL     1      39.017  61.184  43.664  1.00  0.00     0.039 C 
BRANCH   9  10
HETATM   10  C7  UNL     1      38.552  61.773  42.435  1.00  0.00    -0.012 C 
HETATM   11  C8  UNL     1      37.330  61.431  41.728  1.00  0.00     0.005 C 
HETATM   12  C9  UNL     1      36.455  62.649  41.380  1.00  0.00     0.000 C 
HETATM   13  C10 UNL     1      37.242  63.564  40.456  1.00  0.00     0.000 C 
HETATM   14  C11 UNL     1      38.504  63.947  41.209  1.00  0.00     0.000 C 
HETATM   15  C12 UNL     1      38.551  63.329  42.569  1.00  0.00     0.005 C 
ENDBRANCH   9  10
ENDBRANCH   8   9
BRANCH   8  16
HETATM   16  N2  UNL     1      39.980  61.408  45.806  1.00  0.00    -0.324 N 
HETATM   17  C13 UNL     1      41.021  62.331  45.762  1.00  0.00     0.362 C 
HETATM   18  O2  UNL     1      41.015  63.387  45.086  1.00  0.00    -0.238 OA
ATOM     19  H2  UNL     1      40.089  60.580  46.391  1.00  0.00     0.165 HD
BRANCH  17  20
HETATM   20  O3  UNL     1      42.151  62.091  46.508  1.00  0.00    -0.294 OA
BRANCH  20  21
HETATM   21  C14 UNL     1      43.109  61.134  46.207  1.00  0.00     0.061 C 
HETATM   22  C15 UNL     1      42.490  59.831  45.728  1.00  0.00     0.046 C 
HETATM   23  C16 UNL     1      44.084  61.564  45.133  1.00  0.00     0.046 C 
HETATM   24  C17 UNL     1      43.920  60.844  47.443  1.00  0.00     0.046 C 
ENDBRANCH  20  21
ENDBRANCH  17  20
ENDBRANCH   8  16
ENDBRANCH   5   8
ENDBRANCH   3   4
BRANCH   3  25
HETATM   25  C18 UNL     1      35.091  58.380  45.329  1.00  0.00     0.253 C 
HETATM   26  O4  UNL     1      35.089  57.687  44.300  1.00  0.00    -0.270 OA
HETATM   27  N3  UNL     1      33.887  58.930  45.816  1.00  0.00    -0.350 N 
ATOM     28  H3  UNL     1      33.920  59.496  46.665  1.00  0.00     0.163 HD
BRANCH  27  29
HETATM   29  C19 UNL     1      32.605  58.729  45.168  1.00  0.00     0.022 C 
HETATM   30  C20 UNL     1      32.508  59.529  43.882  1.00  0.00     0.037 C 
HETATM   31  C21 UNL     1      31.516  59.192  46.120  1.00  0.00     0.037 C 
HETATM   32  C22 UNL     1      32.399  57.274  44.880  1.00  0.00     0.037 C 
ENDBRANCH  27  29
ENDBRANCH   3  25
TORSDOF 9
ENDMDL
