MODEL 1
REMARK VINA RESULT: -5.156362277      0.000      0.000
REMARK  5 active torsions:
REMARK  status: ('A' for Active; 'I' for Inactive)
REMARK    1  A    between atoms: N1_2  and  N2_3 
REMARK    2  A    between atoms: N1_2  and  C2_6 
REMARK    3  A    between atoms: C2_6  and  C3_7 
REMARK    4  A    between atoms: C4_10  and  N4_11 
REMARK    5  A    between atoms: N4_11  and  C5_13 
ROOT
HETATM    1  C3  UNL     1      47.616  18.206 -16.069  1.00  0.00     0.111 A 
HETATM    2  N3  UNL     1      47.835  18.218 -14.704  1.00  0.00    -0.185 N 
ATOM      3  H3  UNL     1      48.317  19.004 -14.269  1.00  0.00     0.184 HD
HETATM    4  C4  UNL     1      47.405  17.183 -13.951  1.00  0.00     0.698 A 
HETATM    5  N6  UNL     1      46.740  16.157 -14.537  1.00  0.00    -0.130 N 
ATOM      6  H6  UNL     1      46.383  15.383 -13.976  1.00  0.00     0.205 HD
HETATM    7  N7  UNL     1      46.558  16.176 -15.865  1.00  0.00    -0.270 N 
ATOM      8  H7  UNL     1      46.076  15.382 -16.287  1.00  0.00     0.189 HD
HETATM    9  C6  UNL     1      46.950  17.129 -16.652  1.00  0.00     0.143 A 
HETATM   10  N8  UNL     1      46.714  17.051 -17.945  1.00  0.00    -0.383 N 
ATOM     11  H81 UNL     1      46.226  16.264 -18.371  1.00  0.00     0.157 HD
ATOM     12  H82 UNL     1      47.022  17.801 -18.564  1.00  0.00     0.157 HD
ENDROOT
BRANCH   1  13
HETATM   13  C2  UNL     1      48.413  19.267 -16.876  1.00  0.00     0.143 C 
BRANCH  13  14
HETATM   14  N1  UNL     1      49.753  18.950 -17.124  1.00  0.00    -0.312 N 
HETATM   15  C1  UNL     1      50.650  19.992 -16.833  1.00  0.00     0.176 C 
BRANCH  14  16
HETATM   16  N2  UNL     1      50.134  18.066 -18.045  1.00  0.00    -0.344 N 
ATOM     17  H22 UNL     1      51.106  17.793 -18.188  1.00  0.00     0.177 HD
ATOM     18  H21 UNL     1      49.458  17.344 -18.299  1.00  0.00     0.177 HD
ENDBRANCH  14  16
ENDBRANCH  13  14
ENDBRANCH   1  13
BRANCH   4  19
HETATM   19  N4  UNL     1      47.651  17.061 -12.513  1.00  0.00    -0.188 N 
ATOM     20  H4  UNL     1      47.478  17.843 -11.883  1.00  0.00     0.184 HD
BRANCH  19  21
HETATM   21  C5  UNL     1      48.132  15.837 -12.028  1.00  0.00     0.207 C 
HETATM   22  N5  UNL     1      47.255  14.701 -12.080  1.00  0.00    -0.096 NA
ENDBRANCH  19  21
ENDBRANCH   4  19
TORSDOF 5
ENDMDL
MODEL 2
REMARK VINA RESULT: -5.012052790      1.069      1.286
REMARK  5 active torsions:
REMARK  status: ('A' for Active; 'I' for Inactive)
REMARK    1  A    between atoms: N1_2  and  N2_3 
REMARK    2  A    between atoms: N1_2  and  C2_6 
REMARK    3  A    between atoms: C2_6  and  C3_7 
REMARK    4  A    between atoms: C4_10  and  N4_11 
REMARK    5  A    between atoms: N4_11  and  C5_13 
ROOT
HETATM    1  C3  UNL     1      47.930  17.914 -15.859  1.00  0.00     0.111 A 
HETATM    2  N3  UNL     1      48.074  17.903 -14.485  1.00  0.00    -0.185 N 
ATOM      3  H3  UNL     1      48.668  18.593 -14.026  1.00  0.00     0.184 HD
HETATM    4  C4  UNL     1      47.424  16.972 -13.754  1.00  0.00     0.698 A 
HETATM    5  N6  UNL     1      46.616  16.076 -14.372  1.00  0.00    -0.130 N 
ATOM      6  H6  UNL     1      46.095  15.387 -13.830  1.00  0.00     0.205 HD
HETATM    7  N7  UNL     1      46.511  16.112 -15.708  1.00  0.00    -0.270 N 
ATOM      8  H7  UNL     1      45.916  15.413 -16.155  1.00  0.00     0.189 HD
HETATM    9  C6  UNL     1      47.111  16.968 -16.475  1.00  0.00     0.143 A 
HETATM   10  N8  UNL     1      46.933  16.919 -17.779  1.00  0.00    -0.383 N 
ATOM     11  H81 UNL     1      46.334  16.228 -18.229  1.00  0.00     0.157 HD
ATOM     12  H82 UNL     1      47.405  17.593 -18.382  1.00  0.00     0.157 HD
ENDROOT
BRANCH   1  13
HETATM   13  C2  UNL     1      48.948  18.803 -16.624  1.00  0.00     0.143 C 
BRANCH  13  14
HETATM   14  N1  UNL     1      48.623  20.162 -16.696  1.00  0.00    -0.312 N 
HETATM   15  C1  UNL     1      49.557  21.006 -16.074  1.00  0.00     0.176 C 
BRANCH  14  16
HETATM   16  N2  UNL     1      47.370  20.607 -16.781  1.00  0.00    -0.344 N 
ATOM     17  H22 UNL     1      46.822  20.888 -15.968  1.00  0.00     0.177 HD
ATOM     18  H21 UNL     1      47.106  21.084 -17.644  1.00  0.00     0.177 HD
ENDBRANCH  14  16
ENDBRANCH  13  14
ENDBRANCH   1  13
BRANCH   4  19
HETATM   19  N4  UNL     1      47.568  16.825 -12.304  1.00  0.00    -0.188 N 
ATOM     20  H4  UNL     1      47.398  17.611 -11.678  1.00  0.00     0.184 HD
BRANCH  19  21
HETATM   21  C5  UNL     1      47.944  15.571 -11.802  1.00  0.00     0.207 C 
HETATM   22  N5  UNL     1      47.024  14.480 -11.960  1.00  0.00    -0.096 NA
ENDBRANCH  19  21
ENDBRANCH   4  19
TORSDOF 5
ENDMDL
MODEL 3
REMARK VINA RESULT: -4.944302140      1.404      1.875
REMARK  5 active torsions:
REMARK  status: ('A' for Active; 'I' for Inactive)
REMARK    1  A    between atoms: N1_2  and  N2_3 
REMARK    2  A    between atoms: N1_2  and  C2_6 
REMARK    3  A    between atoms: C2_6  and  C3_7 
REMARK    4  A    between atoms: C4_10  and  N4_11 
REMARK    5  A    between atoms: N4_11  and  C5_13 
ROOT
HETATM    1  C3  UNL     1      47.801  17.881 -15.716  1.00  0.00     0.111 A 
HETATM    2  N3  UNL     1      48.017  17.652 -14.370  1.00  0.00    -0.185 N 
ATOM      3  H3  UNL     1      48.653  18.251 -13.844  1.00  0.00     0.184 HD
HETATM    4  C4  UNL     1      47.381  16.631 -13.757  1.00  0.00     0.698 A 
HETATM    5  N6  UNL     1      46.518  15.858 -14.460  1.00  0.00    -0.130 N 
ATOM      6  H6  UNL     1      46.008  15.102 -14.003  1.00  0.00     0.205 HD
HETATM    7  N7  UNL     1      46.344  16.104 -15.766  1.00  0.00    -0.270 N 
ATOM      8  H7  UNL     1      45.708  15.495 -16.282  1.00  0.00     0.189 HD
HETATM    9  C6  UNL     1      46.925  17.058 -16.424  1.00  0.00     0.143 A 
HETATM   10  N8  UNL     1      46.678  17.217 -17.707  1.00  0.00    -0.383 N 
ATOM     11  H81 UNL     1      46.038  16.616 -18.225  1.00  0.00     0.157 HD
ATOM     12  H82 UNL     1      47.136  17.968 -18.224  1.00  0.00     0.157 HD
ENDROOT
BRANCH   1  13
HETATM   13  C2  UNL     1      48.801  18.859 -16.390  1.00  0.00     0.143 C 
BRANCH  13  14
HETATM   14  N1  UNL     1      48.628  20.210 -16.069  1.00  0.00    -0.312 N 
HETATM   15  C1  UNL     1      47.395  20.742 -16.480  1.00  0.00     0.176 C 
BRANCH  14  16
HETATM   16  N2  UNL     1      49.643  21.065 -15.946  1.00  0.00    -0.344 N 
ATOM     17  H22 UNL     1      49.837  21.579 -15.087  1.00  0.00     0.177 HD
ATOM     18  H21 UNL     1      50.469  20.887 -16.519  1.00  0.00     0.177 HD
ENDBRANCH  14  16
ENDBRANCH  13  14
ENDBRANCH   1  13
BRANCH   4  19
HETATM   19  N4  UNL     1      47.597  16.256 -12.358  1.00  0.00    -0.188 N 
ATOM     20  H4  UNL     1      47.710  15.280 -12.088  1.00  0.00     0.184 HD
BRANCH  19  21
HETATM   21  C5  UNL     1      47.644  17.279 -11.401  1.00  0.00     0.207 C 
HETATM   22  N5  UNL     1      47.081  18.553 -11.750  1.00  0.00    -0.096 NA
ENDBRANCH  19  21
ENDBRANCH   4  19
TORSDOF 5
ENDMDL
MODEL 4
REMARK VINA RESULT: -4.901320267      1.499      1.780
REMARK  5 active torsions:
REMARK  status: ('A' for Active; 'I' for Inactive)
REMARK    1  A    between atoms: N1_2  and  N2_3 
REMARK    2  A    between atoms: N1_2  and  C2_6 
REMARK    3  A    between atoms: C2_6  and  C3_7 
REMARK    4  A    between atoms: C4_10  and  N4_11 
REMARK    5  A    between atoms: N4_11  and  C5_13 
ROOT
HETATM    1  C3  UNL     1      47.638  17.993 -15.468  1.00  0.00     0.111 A 
HETATM    2  N3  UNL     1      47.906  17.947 -14.113  1.00  0.00    -0.185 N 
ATOM      3  H3  UNL     1      48.417  18.708 -13.666  1.00  0.00     0.184 HD
HETATM    4  C4  UNL     1      47.488  16.889 -13.386  1.00  0.00     0.698 A 
HETATM    5  N6  UNL     1      46.785  15.897 -13.986  1.00  0.00    -0.130 N 
ATOM      6  H6  UNL     1      46.437  15.107 -13.443  1.00  0.00     0.205 HD
HETATM    7  N7  UNL     1      46.555  15.972 -15.305  1.00  0.00    -0.270 N 
ATOM      8  H7  UNL     1      46.045  15.203 -15.740  1.00  0.00     0.189 HD
HETATM    9  C6  UNL     1      46.932  16.950 -16.067  1.00  0.00     0.143 A 
HETATM   10  N8  UNL     1      46.647  16.928 -17.353  1.00  0.00    -0.383 N 
ATOM     11  H81 UNL     1      46.131  16.165 -17.791  1.00  0.00     0.157 HD
ATOM     12  H82 UNL     1      46.945  17.697 -17.953  1.00  0.00     0.157 HD
ENDROOT
BRANCH   1  13
HETATM   13  C2  UNL     1      48.421  19.074 -16.262  1.00  0.00     0.143 C 
BRANCH  13  14
HETATM   14  N1  UNL     1      47.980  20.389 -16.081  1.00  0.00    -0.312 N 
HETATM   15  C1  UNL     1      47.014  20.801 -17.014  1.00  0.00     0.176 C 
BRANCH  14  16
HETATM   16  N2  UNL     1      48.734  21.341 -15.533  1.00  0.00    -0.344 N 
ATOM     17  H22 UNL     1      49.214  21.226 -14.641  1.00  0.00     0.177 HD
ATOM     18  H21 UNL     1      49.194  21.991 -16.171  1.00  0.00     0.177 HD
ENDBRANCH  14  16
ENDBRANCH  13  14
ENDBRANCH   1  13
BRANCH   4  19
HETATM   19  N4  UNL     1      47.786  16.706 -11.964  1.00  0.00    -0.188 N 
ATOM     20  H4  UNL     1      47.901  17.507 -11.345  1.00  0.00     0.184 HD
BRANCH  19  21
HETATM   21  C5  UNL     1      47.908  15.396 -11.479  1.00  0.00     0.207 C 
HETATM   22  N5  UNL     1      46.703  14.653 -11.241  1.00  0.00    -0.096 NA
ENDBRANCH  19  21
ENDBRANCH   4  19
TORSDOF 5
ENDMDL
MODEL 5
REMARK VINA RESULT: -4.814099107      1.786      2.962
REMARK  5 active torsions:
REMARK  status: ('A' for Active; 'I' for Inactive)
REMARK    1  A    between atoms: N1_2  and  N2_3 
REMARK    2  A    between atoms: N1_2  and  C2_6 
REMARK    3  A    between atoms: C2_6  and  C3_7 
REMARK    4  A    between atoms: C4_10  and  N4_11 
REMARK    5  A    between atoms: N4_11  and  C5_13 
ROOT
HETATM    1  C3  UNL     1      49.182  18.417 -17.213  1.00  0.00     0.111 A 
HETATM    2  N3  UNL     1      48.162  17.984 -16.387  1.00  0.00    -0.185 N 
ATOM      3  H3  UNL     1      48.054  18.381 -15.454  1.00  0.00     0.184 HD
HETATM    4  C4  UNL     1      47.308  17.033 -16.824  1.00  0.00     0.698 A 
HETATM    5  N6  UNL     1      47.444  16.533 -18.077  1.00  0.00    -0.130 N 
ATOM      6  H6  UNL     1      46.788  15.836 -18.431  1.00  0.00     0.205 HD
HETATM    7  N7  UNL     1      48.454  16.969 -18.843  1.00  0.00    -0.270 N 
ATOM      8  H7  UNL     1      48.551  16.562 -19.773  1.00  0.00     0.189 HD
HETATM    9  C6  UNL     1      49.315  17.871 -18.489  1.00  0.00     0.143 A 
HETATM   10  N8  UNL     1      50.267  18.234 -19.324  1.00  0.00    -0.383 N 
ATOM     11  H81 UNL     1      50.364  17.835 -20.257  1.00  0.00     0.157 HD
ATOM     12  H82 UNL     1      50.945  18.943 -19.046  1.00  0.00     0.157 HD
ENDROOT
BRANCH   1  13
HETATM   13  C2  UNL     1      50.281  19.265 -16.518  1.00  0.00     0.143 C 
BRANCH  13  14
HETATM   14  N1  UNL     1      50.125  20.652 -16.620  1.00  0.00    -0.312 N 
HETATM   15  C1  UNL     1      51.184  21.300 -17.276  1.00  0.00     0.176 C 
BRANCH  14  16
HETATM   16  N2  UNL     1      49.427  21.372 -15.742  1.00  0.00    -0.344 N 
ATOM     17  H22 UNL     1      48.763  22.095 -16.018  1.00  0.00     0.177 HD
ATOM     18  H21 UNL     1      49.213  20.930 -14.848  1.00  0.00     0.177 HD
ENDBRANCH  14  16
ENDBRANCH  13  14
ENDBRANCH   1  13
BRANCH   4  19
HETATM   19  N4  UNL     1      46.244  16.452 -16.004  1.00  0.00    -0.188 N 
ATOM     20  H4  UNL     1      45.298  16.348 -16.370  1.00  0.00     0.184 HD
BRANCH  19  21
HETATM   21  C5  UNL     1      46.563  16.041 -14.702  1.00  0.00     0.207 C 
HETATM   22  N5  UNL     1      46.575  14.632 -14.426  1.00  0.00    -0.096 NA
ENDBRANCH  19  21
ENDBRANCH   4  19
TORSDOF 5
ENDMDL
