MODEL 1
REMARK VINA RESULT: -4.863785466      0.000      0.000
REMARK  7 active torsions:
REMARK  status: ('A' for Active; 'I' for Inactive)
REMARK    1  A    between atoms: N1_1  and  C1_4 
REMARK    2  A    between atoms: N3_8  and  C3_9 
REMARK    3  A    between atoms: C3_9  and  C4_10 
REMARK    4  A    between atoms: C4_10  and  C5_11 
REMARK    5  A    between atoms: C5_11  and  N4_12 
REMARK    6  A    between atoms: C6_16  and  N5_17 
REMARK    7  A    between atoms: N5_17  and  N6_19 
ROOT
HETATM    1  C1  UNL     1      46.767  15.916 -14.424  1.00  0.00     0.691 A 
HETATM    2  N2  UNL     1      46.656  14.677 -13.865  1.00  0.00    -0.187 N 
ATOM      3  H2  UNL     1      46.337  13.895 -14.437  1.00  0.00     0.185 HD
HETATM    4  C2  UNL     1      46.960  14.471 -12.568  1.00  0.00     0.218 A 
HETATM    5  N3  UNL     1      47.380  15.513 -11.825  1.00  0.00    -0.177 N 
HETATM    6  C6  UNL     1      47.488  16.741 -12.385  1.00  0.00     0.714 A 
HETATM    7  N7  UNL     1      47.185  16.947 -13.679  1.00  0.00    -0.021 N 
ATOM      8  H7  UNL     1      47.271  17.877 -14.088  1.00  0.00     0.203 HD
ENDROOT
BRANCH   5   9
HETATM    9  C3  UNL     1      47.706  15.288 -10.454  1.00  0.00     0.150 C 
BRANCH   9  10
HETATM   10  C4  UNL     1      47.358  13.944  -9.918  1.00  0.00     0.048 C 
BRANCH  10  11
HETATM   11  C5  UNL     1      46.293  13.972  -8.855  1.00  0.00     0.231 C 
BRANCH  11  12
HETATM   12  N4  UNL     1      44.968  14.204  -9.452  1.00  0.00    -0.079 N 
ATOM     13  H43 UNL     1      44.460  14.945  -8.969  1.00  0.00     0.274 HD
ATOM     14  H42 UNL     1      45.039  14.640 -10.371  1.00  0.00     0.274 HD
ATOM     15  H41 UNL     1      44.431  13.338  -9.485  1.00  0.00     0.274 HD
ENDBRANCH  11  12
ENDBRANCH  10  11
ENDBRANCH   9  10
ENDBRANCH   5   9
BRANCH   6  16
HETATM   16  N5  UNL     1      47.887  17.705 -11.657  1.00  0.00    -0.138 N 
ATOM     17  H5  UNL     1      48.628  17.511 -10.984  1.00  0.00     0.205 HD
BRANCH  16  18
HETATM   18  N6  UNL     1      47.392  18.996 -11.710  1.00  0.00    -0.331 N 
ATOM     19  H62 UNL     1      46.396  19.093 -11.904  1.00  0.00     0.177 HD
ATOM     20  H61 UNL     1      47.947  19.840 -11.570  1.00  0.00     0.177 HD
ENDBRANCH  16  18
ENDBRANCH   6  16
BRANCH   1  21
HETATM   21  N1  UNL     1      46.477  16.121 -15.665  1.00  0.00    -0.234 N 
ATOM     22  H12 UNL     1      45.745  15.559 -16.099  1.00  0.00     0.174 HD
ATOM     23  H11 UNL     1      46.964  16.830 -16.213  1.00  0.00     0.174 HD
ENDBRANCH   1  21
TORSDOF 7
ENDMDL
MODEL 2
REMARK VINA RESULT: -4.614250419      1.669      2.883
REMARK  7 active torsions:
REMARK  status: ('A' for Active; 'I' for Inactive)
REMARK    1  A    between atoms: N1_1  and  C1_4 
REMARK    2  A    between atoms: N3_8  and  C3_9 
REMARK    3  A    between atoms: C3_9  and  C4_10 
REMARK    4  A    between atoms: C4_10  and  C5_11 
REMARK    5  A    between atoms: C5_11  and  N4_12 
REMARK    6  A    between atoms: C6_16  and  N5_17 
REMARK    7  A    between atoms: N5_17  and  N6_19 
ROOT
HETATM    1  C1  UNL     1      46.786  16.641 -15.340  1.00  0.00     0.691 A 
HETATM    2  N2  UNL     1      47.492  17.535 -14.590  1.00  0.00    -0.187 N 
ATOM      3  H2  UNL     1      47.711  18.453 -14.976  1.00  0.00     0.185 HD
HETATM    4  C2  UNL     1      47.906  17.222 -13.346  1.00  0.00     0.218 A 
HETATM    5  N3  UNL     1      47.611  16.006 -12.849  1.00  0.00    -0.177 N 
HETATM    6  C6  UNL     1      46.910  15.123 -13.598  1.00  0.00     0.714 A 
HETATM    7  N7  UNL     1      46.496  15.434 -14.839  1.00  0.00    -0.021 N 
ATOM      8  H7  UNL     1      45.969  14.759 -15.391  1.00  0.00     0.203 HD
ENDROOT
BRANCH   5   9
HETATM    9  C3  UNL     1      48.047  15.683 -11.529  1.00  0.00     0.150 C 
BRANCH   9  10
HETATM   10  C4  UNL     1      47.121  16.065 -10.428  1.00  0.00     0.048 C 
BRANCH  10  11
HETATM   11  C5  UNL     1      46.764  14.927  -9.511  1.00  0.00     0.231 C 
BRANCH  11  12
HETATM   12  N4  UNL     1      47.888  13.985  -9.391  1.00  0.00    -0.079 N 
ATOM     13  H43 UNL     1      47.915  13.543  -8.472  1.00  0.00     0.274 HD
ATOM     14  H42 UNL     1      47.744  13.150  -9.959  1.00  0.00     0.274 HD
ATOM     15  H41 UNL     1      48.771  14.446  -9.613  1.00  0.00     0.274 HD
ENDBRANCH  11  12
ENDBRANCH  10  11
ENDBRANCH   9  10
ENDBRANCH   5   9
BRANCH   6  16
HETATM   16  N5  UNL     1      46.646  13.982 -13.099  1.00  0.00    -0.138 N 
ATOM     17  H5  UNL     1      46.806  13.856 -12.100  1.00  0.00     0.205 HD
BRANCH  16  18
HETATM   18  N6  UNL     1      46.160  12.900 -13.811  1.00  0.00    -0.331 N 
ATOM     19  H62 UNL     1      46.789  12.490 -14.501  1.00  0.00     0.177 HD
ATOM     20  H61 UNL     1      45.233  12.492 -13.693  1.00  0.00     0.177 HD
ENDBRANCH  16  18
ENDBRANCH   6  16
BRANCH   1  21
HETATM   21  N1  UNL     1      46.387  16.933 -16.532  1.00  0.00    -0.234 N 
ATOM     22  H12 UNL     1      45.417  16.746 -16.787  1.00  0.00     0.174 HD
ATOM     23  H11 UNL     1      47.021  17.342 -17.218  1.00  0.00     0.174 HD
ENDBRANCH   1  21
TORSDOF 7
ENDMDL
MODEL 3
REMARK VINA RESULT: -4.540794157      1.292      2.691
REMARK  7 active torsions:
REMARK  status: ('A' for Active; 'I' for Inactive)
REMARK    1  A    between atoms: N1_1  and  C1_4 
REMARK    2  A    between atoms: N3_8  and  C3_9 
REMARK    3  A    between atoms: C3_9  and  C4_10 
REMARK    4  A    between atoms: C4_10  and  C5_11 
REMARK    5  A    between atoms: C5_11  and  N4_12 
REMARK    6  A    between atoms: C6_16  and  N5_17 
REMARK    7  A    between atoms: N5_17  and  N6_19 
ROOT
HETATM    1  C1  UNL     1      47.328  17.044 -14.137  1.00  0.00     0.691 A 
HETATM    2  N2  UNL     1      47.716  17.739 -13.029  1.00  0.00    -0.187 N 
ATOM      3  H2  UNL     1      47.954  18.728 -13.114  1.00  0.00     0.185 HD
HETATM    4  C2  UNL     1      47.788  17.140 -11.824  1.00  0.00     0.218 A 
HETATM    5  N3  UNL     1      47.470  15.835 -11.727  1.00  0.00    -0.177 N 
HETATM    6  C6  UNL     1      47.087  15.150 -12.830  1.00  0.00     0.714 A 
HETATM    7  N7  UNL     1      47.014  15.747 -14.032  1.00  0.00    -0.021 N 
ATOM      8  H7  UNL     1      46.724  15.219 -14.854  1.00  0.00     0.203 HD
ENDROOT
BRANCH   5   9
HETATM    9  C3  UNL     1      47.544  15.207 -10.447  1.00  0.00     0.150 C 
BRANCH   9  10
HETATM   10  C4  UNL     1      46.329  15.327  -9.596  1.00  0.00     0.048 C 
BRANCH  10  11
HETATM   11  C5  UNL     1      45.862  14.020  -9.016  1.00  0.00     0.231 C 
BRANCH  11  12
HETATM   12  N4  UNL     1      46.992  13.091  -8.852  1.00  0.00    -0.079 N 
ATOM     13  H43 UNL     1      47.853  13.468  -9.248  1.00  0.00     0.274 HD
ATOM     14  H42 UNL     1      47.288  13.025  -7.877  1.00  0.00     0.274 HD
ATOM     15  H41 UNL     1      46.766  12.176  -9.241  1.00  0.00     0.274 HD
ENDBRANCH  11  12
ENDBRANCH  10  11
ENDBRANCH   9  10
ENDBRANCH   5   9
BRANCH   6  16
HETATM   16  N5  UNL     1      46.793  13.918 -12.705  1.00  0.00    -0.138 N 
ATOM     17  H5  UNL     1      46.964  13.482 -11.799  1.00  0.00     0.205 HD
BRANCH  16  18
HETATM   18  N6  UNL     1      46.259  13.126 -13.706  1.00  0.00    -0.331 N 
ATOM     19  H62 UNL     1      45.786  13.612 -14.467  1.00  0.00     0.177 HD
ATOM     20  H61 UNL     1      46.307  12.107 -13.732  1.00  0.00     0.177 HD
ENDBRANCH  16  18
ENDBRANCH   6  16
BRANCH   1  21
HETATM   21  N1  UNL     1      47.257  17.611 -15.294  1.00  0.00    -0.234 N 
ATOM     22  H12 UNL     1      46.646  17.208 -16.004  1.00  0.00     0.174 HD
ATOM     23  H11 UNL     1      47.799  18.448 -15.509  1.00  0.00     0.174 HD
ENDBRANCH   1  21
TORSDOF 7
ENDMDL
MODEL 4
REMARK VINA RESULT: -4.459033338      1.804      4.919
REMARK  7 active torsions:
REMARK  status: ('A' for Active; 'I' for Inactive)
REMARK    1  A    between atoms: N1_1  and  C1_4 
REMARK    2  A    between atoms: N3_8  and  C3_9 
REMARK    3  A    between atoms: C3_9  and  C4_10 
REMARK    4  A    between atoms: C4_10  and  C5_11 
REMARK    5  A    between atoms: C5_11  and  N4_12 
REMARK    6  A    between atoms: C6_16  and  N5_17 
REMARK    7  A    between atoms: N5_17  and  N6_19 
ROOT
HETATM    1  C1  UNL     1      47.089  13.759  -9.503  1.00  0.00     0.691 A 
HETATM    2  N2  UNL     1      47.480  14.970  -9.013  1.00  0.00    -0.187 N 
ATOM      3  H2  UNL     1      47.640  15.079  -8.011  1.00  0.00     0.185 HD
HETATM    4  C2  UNL     1      47.660  16.025  -9.833  1.00  0.00     0.218 A 
HETATM    5  N3  UNL     1      47.446  15.866 -11.153  1.00  0.00    -0.177 N 
HETATM    6  C6  UNL     1      47.057  14.662 -11.634  1.00  0.00     0.714 A 
HETATM    7  N7  UNL     1      46.878  13.609 -10.817  1.00  0.00    -0.021 N 
ATOM      8  H7  UNL     1      46.585  12.708 -11.193  1.00  0.00     0.203 HD
ENDROOT
BRANCH   5   9
HETATM    9  C3  UNL     1      47.643  16.985 -12.016  1.00  0.00     0.150 C 
BRANCH   9  10
HETATM   10  C4  UNL     1      47.652  18.319 -11.356  1.00  0.00     0.048 C 
BRANCH  10  11
HETATM   11  C5  UNL     1      47.280  19.453 -12.273  1.00  0.00     0.231 C 
BRANCH  11  12
HETATM   12  N4  UNL     1      46.796  20.608 -11.501  1.00  0.00    -0.079 N 
ATOM     13  H43 UNL     1      47.547  21.052 -10.972  1.00  0.00     0.274 HD
ATOM     14  H42 UNL     1      46.550  21.391 -12.107  1.00  0.00     0.274 HD
ATOM     15  H41 UNL     1      46.018  20.339 -10.898  1.00  0.00     0.274 HD
ENDBRANCH  11  12
ENDBRANCH  10  11
ENDBRANCH   9  10
ENDBRANCH   5   9
BRANCH   6  16
HETATM   16  N5  UNL     1      46.863  14.545 -12.885  1.00  0.00    -0.138 N 
ATOM     17  H5  UNL     1      47.010  15.371 -13.465  1.00  0.00     0.205 HD
BRANCH  16  18
HETATM   18  N6  UNL     1      46.469  13.381 -13.520  1.00  0.00    -0.331 N 
ATOM     19  H62 UNL     1      45.706  13.466 -14.193  1.00  0.00     0.177 HD
ATOM     20  H61 UNL     1      46.881  12.461 -13.364  1.00  0.00     0.177 HD
ENDBRANCH  16  18
ENDBRANCH   6  16
BRANCH   1  21
HETATM   21  N1  UNL     1      46.914  12.744  -8.725  1.00  0.00    -0.234 N 
ATOM     22  H12 UNL     1      47.717  12.360  -8.228  1.00  0.00     0.174 HD
ATOM     23  H11 UNL     1      45.993  12.324  -8.600  1.00  0.00     0.174 HD
ENDBRANCH   1  21
TORSDOF 7
ENDMDL
MODEL 5
REMARK VINA RESULT: -4.426668031      1.424      4.601
REMARK  7 active torsions:
REMARK  status: ('A' for Active; 'I' for Inactive)
REMARK    1  A    between atoms: N1_1  and  C1_4 
REMARK    2  A    between atoms: N3_8  and  C3_9 
REMARK    3  A    between atoms: C3_9  and  C4_10 
REMARK    4  A    between atoms: C4_10  and  C5_11 
REMARK    5  A    between atoms: C5_11  and  N4_12 
REMARK    6  A    between atoms: C6_16  and  N5_17 
REMARK    7  A    between atoms: N5_17  and  N6_19 
ROOT
HETATM    1  C1  UNL     1      46.981  14.423 -10.844  1.00  0.00     0.691 A 
HETATM    2  N2  UNL     1      46.756  13.973 -12.112  1.00  0.00    -0.187 N 
ATOM      3  H2  UNL     1      46.458  13.009 -12.258  1.00  0.00     0.185 HD
HETATM    4  C2  UNL     1      46.922  14.785 -13.176  1.00  0.00     0.218 A 
HETATM    5  N3  UNL     1      47.316  16.055 -12.969  1.00  0.00    -0.177 N 
HETATM    6  C6  UNL     1      47.539  16.496 -11.708  1.00  0.00     0.714 A 
HETATM    7  N7  UNL     1      47.373  15.687 -10.647  1.00  0.00    -0.021 N 
ATOM      8  H7  UNL     1      47.544  16.033  -9.703  1.00  0.00     0.203 HD
ENDROOT
BRANCH   5   9
HETATM    9  C3  UNL     1      47.485  16.911 -14.098  1.00  0.00     0.150 C 
BRANCH   9  10
HETATM   10  C4  UNL     1      46.785  16.489 -15.342  1.00  0.00     0.048 C 
BRANCH  10  11
HETATM   11  C5  UNL     1      46.912  17.472 -16.474  1.00  0.00     0.231 C 
BRANCH  11  12
HETATM   12  N4  UNL     1      46.978  16.771 -17.766  1.00  0.00    -0.079 N 
ATOM     13  H43 UNL     1      47.009  15.758 -17.646  1.00  0.00     0.274 HD
ATOM     14  H42 UNL     1      46.099  16.838 -18.278  1.00  0.00     0.274 HD
ATOM     15  H41 UNL     1      47.765  17.109 -18.320  1.00  0.00     0.274 HD
ENDBRANCH  11  12
ENDBRANCH  10  11
ENDBRANCH   9  10
ENDBRANCH   5   9
BRANCH   6  16
HETATM   16  N5  UNL     1      47.910  17.702 -11.546  1.00  0.00    -0.138 N 
ATOM     17  H5  UNL     1      48.899  17.870 -11.359  1.00  0.00     0.205 HD
BRANCH  16  18
HETATM   18  N6  UNL     1      47.075  18.803 -11.603  1.00  0.00    -0.331 N 
ATOM     19  H62 UNL     1      46.988  19.352 -10.748  1.00  0.00     0.177 HD
ATOM     20  H61 UNL     1      46.550  19.097 -12.427  1.00  0.00     0.177 HD
ENDBRANCH  16  18
ENDBRANCH   6  16
BRANCH   1  21
HETATM   21  N1  UNL     1      46.825  13.651  -9.821  1.00  0.00    -0.234 N 
ATOM     22  H12 UNL     1      47.157  12.689  -9.875  1.00  0.00     0.174 HD
ATOM     23  H11 UNL     1      46.378  13.987  -8.968  1.00  0.00     0.174 HD
ENDBRANCH   1  21
TORSDOF 7
ENDMDL
