MODEL 1
REMARK VINA RESULT: -5.747176862      0.000      0.000
REMARK  6 active torsions:
REMARK  status: ('A' for Active; 'I' for Inactive)
REMARK    1  A    between atoms: C2_2  and  C3_3 
REMARK    2  A    between atoms: C3_3  and  N1_4 
REMARK    3  A    between atoms: N1_4  and  C4_6 
REMARK    4  A    between atoms: C4_6  and  C5_7 
REMARK    5  A    between atoms: C5_7  and  C6_8 
REMARK    6  A    between atoms: C6_8  and  C7_9 
ROOT
HETATM    1  C5  UNL     1       7.026 -23.311   0.743  1.00  0.00     0.045 C 
ENDROOT
BRANCH   1   2
HETATM    2  C4  UNL     1       7.133 -22.139   1.665  1.00  0.00     0.060 C 
BRANCH   2   3
HETATM    3  N1  UNL     1       8.395 -21.597   1.915  1.00  0.00    -0.379 N 
ATOM      4  H1  UNL     1       9.072 -22.198   2.383  1.00  0.00     0.164 HD
BRANCH   3   5
HETATM    5  C3  UNL     1       8.812 -20.320   1.586  1.00  0.00     0.086 C 
BRANCH   5   6
HETATM    6  C2  UNL     1       8.261 -19.738   0.339  1.00  0.00     0.007 C 
HETATM    7  C1  UNL     1       8.832 -19.854  -0.861  1.00  0.00     0.012 C 
ENDBRANCH   5   6
ENDBRANCH   3   5
ENDBRANCH   2   3
ENDBRANCH   1   2
BRANCH   1   8
HETATM    8  C6  UNL     1       6.580 -22.906  -0.649  1.00  0.00     0.009 C 
BRANCH   8   9
HETATM    9  C7  UNL     1       7.540 -23.285  -1.735  1.00  0.00    -0.014 C 
HETATM   10  C8  UNL     1       7.583 -24.732  -2.043  1.00  0.00     0.004 C 
HETATM   11  C9  UNL     1       6.694 -25.176  -3.164  1.00  0.00     0.000 C 
HETATM   12  C10 UNL     1       6.783 -24.354  -4.394  1.00  0.00     0.000 C 
HETATM   13  C11 UNL     1       7.649 -23.137  -4.164  1.00  0.00     0.000 C 
HETATM   14  C12 UNL     1       7.127 -22.441  -2.946  1.00  0.00     0.004 C 
ENDBRANCH   8   9
ENDBRANCH   1   8
TORSDOF 6
ENDMDL
MODEL 2
REMARK VINA RESULT: -5.665451961      2.592      5.400
REMARK  6 active torsions:
REMARK  status: ('A' for Active; 'I' for Inactive)
REMARK    1  A    between atoms: C2_2  and  C3_3 
REMARK    2  A    between atoms: C3_3  and  N1_4 
REMARK    3  A    between atoms: N1_4  and  C4_6 
REMARK    4  A    between atoms: C4_6  and  C5_7 
REMARK    5  A    between atoms: C5_7  and  C6_8 
REMARK    6  A    between atoms: C6_8  and  C7_9 
ROOT
HETATM    1  C5  UNL     1       6.655 -24.142  -2.542  1.00  0.00     0.045 C 
ENDROOT
BRANCH   1   2
HETATM    2  C4  UNL     1       6.872 -24.650  -3.932  1.00  0.00     0.060 C 
BRANCH   2   3
HETATM    3  N1  UNL     1       7.249 -23.744  -4.924  1.00  0.00    -0.379 N 
ATOM      4  H1  UNL     1       8.187 -23.351  -4.859  1.00  0.00     0.164 HD
BRANCH   3   5
HETATM    5  C3  UNL     1       6.468 -23.330  -5.987  1.00  0.00     0.086 C 
BRANCH   5   6
HETATM    6  C2  UNL     1       5.795 -22.016  -5.850  1.00  0.00     0.007 C 
HETATM    7  C1  UNL     1       6.409 -20.892  -5.477  1.00  0.00     0.012 C 
ENDBRANCH   5   6
ENDBRANCH   3   5
ENDBRANCH   2   3
ENDBRANCH   1   2
BRANCH   1   8
HETATM    8  C6  UNL     1       7.290 -22.782  -2.323  1.00  0.00     0.009 C 
BRANCH   8   9
HETATM    9  C7  UNL     1       7.609 -22.477  -0.892  1.00  0.00    -0.014 C 
HETATM   10  C8  UNL     1       7.135 -21.158  -0.420  1.00  0.00     0.004 C 
HETATM   11  C9  UNL     1       5.795 -21.160   0.251  1.00  0.00     0.000 C 
HETATM   12  C10 UNL     1       5.618 -22.205   1.287  1.00  0.00     0.000 C 
HETATM   13  C11 UNL     1       6.800 -23.146   1.307  1.00  0.00     0.000 C 
HETATM   14  C12 UNL     1       7.003 -23.637  -0.093  1.00  0.00     0.004 C 
ENDBRANCH   8   9
ENDBRANCH   1   8
TORSDOF 6
ENDMDL
MODEL 3
REMARK VINA RESULT: -5.610048646      2.433      5.233
REMARK  6 active torsions:
REMARK  status: ('A' for Active; 'I' for Inactive)
REMARK    1  A    between atoms: C2_2  and  C3_3 
REMARK    2  A    between atoms: C3_3  and  N1_4 
REMARK    3  A    between atoms: N1_4  and  C4_6 
REMARK    4  A    between atoms: C4_6  and  C5_7 
REMARK    5  A    between atoms: C5_7  and  C6_8 
REMARK    6  A    between atoms: C6_8  and  C7_9 
ROOT
HETATM    1  C5  UNL     1       7.799 -23.951  -2.277  1.00  0.00     0.045 C 
ENDROOT
BRANCH   1   2
HETATM    2  C4  UNL     1       7.792 -24.456  -3.685  1.00  0.00     0.060 C 
BRANCH   2   3
HETATM    3  N1  UNL     1       6.656 -24.244  -4.467  1.00  0.00    -0.379 N 
ATOM      4  H1  UNL     1       5.782 -24.644  -4.130  1.00  0.00     0.164 HD
BRANCH   3   5
HETATM    5  C3  UNL     1       6.607 -23.541  -5.657  1.00  0.00     0.086 C 
BRANCH   5   6
HETATM    6  C2  UNL     1       6.019 -22.181  -5.606  1.00  0.00     0.007 C 
HETATM    7  C1  UNL     1       6.589 -21.138  -5.001  1.00  0.00     0.012 C 
ENDBRANCH   5   6
ENDBRANCH   3   5
ENDBRANCH   2   3
ENDBRANCH   1   2
BRANCH   1   8
HETATM    8  C6  UNL     1       6.471 -23.329  -1.886  1.00  0.00     0.009 C 
BRANCH   8   9
HETATM    9  C7  UNL     1       6.597 -22.106  -1.030  1.00  0.00    -0.014 C 
HETATM   10  C8  UNL     1       5.772 -22.124   0.198  1.00  0.00     0.004 C 
HETATM   11  C9  UNL     1       6.466 -22.621   1.429  1.00  0.00     0.000 C 
HETATM   12  C10 UNL     1       7.800 -22.025   1.678  1.00  0.00     0.000 C 
HETATM   13  C11 UNL     1       8.225 -21.158   0.515  1.00  0.00     0.000 C 
HETATM   14  C12 UNL     1       8.094 -21.983  -0.728  1.00  0.00     0.004 C 
ENDBRANCH   8   9
ENDBRANCH   1   8
TORSDOF 6
ENDMDL
MODEL 4
REMARK VINA RESULT: -5.512900608      2.217      5.398
REMARK  6 active torsions:
REMARK  status: ('A' for Active; 'I' for Inactive)
REMARK    1  A    between atoms: C2_2  and  C3_3 
REMARK    2  A    between atoms: C3_3  and  N1_4 
REMARK    3  A    between atoms: N1_4  and  C4_6 
REMARK    4  A    between atoms: C4_6  and  C5_7 
REMARK    5  A    between atoms: C5_7  and  C6_8 
REMARK    6  A    between atoms: C6_8  and  C7_9 
ROOT
HETATM    1  C5  UNL     1       7.686 -21.144  -3.612  1.00  0.00     0.045 C 
ENDROOT
BRANCH   1   2
HETATM    2  C4  UNL     1       6.708 -21.668  -4.614  1.00  0.00     0.060 C 
BRANCH   2   3
HETATM    3  N1  UNL     1       6.192 -22.953  -4.438  1.00  0.00    -0.379 N 
ATOM      4  H1  UNL     1       5.249 -23.024  -4.057  1.00  0.00     0.164 HD
BRANCH   3   5
HETATM    5  C3  UNL     1       6.841 -24.138  -4.731  1.00  0.00     0.086 C 
BRANCH   5   6
HETATM    6  C2  UNL     1       7.119 -25.047  -3.593  1.00  0.00     0.007 C 
HETATM    7  C1  UNL     1       8.329 -25.247  -3.068  1.00  0.00     0.012 C 
ENDBRANCH   5   6
ENDBRANCH   3   5
ENDBRANCH   2   3
ENDBRANCH   1   2
BRANCH   1   8
HETATM    8  C6  UNL     1       7.102 -21.093  -2.213  1.00  0.00     0.009 C 
BRANCH   8   9
HETATM    9  C7  UNL     1       7.747 -22.038  -1.245  1.00  0.00    -0.014 C 
HETATM   10  C8  UNL     1       8.588 -21.389  -0.216  1.00  0.00     0.004 C 
HETATM   11  C9  UNL     1       7.900 -21.092   1.081  1.00  0.00     0.000 C 
HETATM   12  C10 UNL     1       7.121 -22.219   1.646  1.00  0.00     0.000 C 
HETATM   13  C11 UNL     1       7.069 -23.376   0.675  1.00  0.00     0.000 C 
HETATM   14  C12 UNL     1       6.589 -22.837  -0.636  1.00  0.00     0.004 C 
ENDBRANCH   8   9
ENDBRANCH   1   8
TORSDOF 6
ENDMDL
MODEL 5
REMARK VINA RESULT: -5.476481972      2.198      5.255
REMARK  6 active torsions:
REMARK  status: ('A' for Active; 'I' for Inactive)
REMARK    1  A    between atoms: C2_2  and  C3_3 
REMARK    2  A    between atoms: C3_3  and  N1_4 
REMARK    3  A    between atoms: N1_4  and  C4_6 
REMARK    4  A    between atoms: C4_6  and  C5_7 
REMARK    5  A    between atoms: C5_7  and  C6_8 
REMARK    6  A    between atoms: C6_8  and  C7_9 
ROOT
HETATM    1  C5  UNL     1       7.291 -20.769  -3.165  1.00  0.00     0.045 C 
ENDROOT
BRANCH   1   2
HETATM    2  C4  UNL     1       7.240 -21.693  -4.340  1.00  0.00     0.060 C 
BRANCH   2   3
HETATM    3  N1  UNL     1       6.402 -22.808  -4.279  1.00  0.00    -0.379 N 
ATOM      4  H1  UNL     1       5.448 -22.651  -3.955  1.00  0.00     0.164 HD
BRANCH   3   5
HETATM    5  C3  UNL     1       6.745 -24.104  -4.616  1.00  0.00     0.086 C 
BRANCH   5   6
HETATM    6  C2  UNL     1       7.114 -25.009  -3.502  1.00  0.00     0.007 C 
HETATM    7  C1  UNL     1       8.306 -25.018  -2.904  1.00  0.00     0.012 C 
ENDBRANCH   5   6
ENDBRANCH   3   5
ENDBRANCH   2   3
ENDBRANCH   1   2
BRANCH   1   8
HETATM    8  C6  UNL     1       7.904 -21.429  -1.944  1.00  0.00     0.009 C 
BRANCH   8   9
HETATM    9  C7  UNL     1       7.042 -21.372  -0.720  1.00  0.00    -0.014 C 
HETATM   10  C8  UNL     1       6.232 -22.587  -0.479  1.00  0.00     0.004 C 
HETATM   11  C9  UNL     1       6.850 -23.599   0.437  1.00  0.00     0.000 C 
HETATM   12  C10 UNL     1       7.394 -23.047   1.700  1.00  0.00     0.000 C 
HETATM   13  C11 UNL     1       7.342 -21.537   1.692  1.00  0.00     0.000 C 
HETATM   14  C12 UNL     1       8.007 -21.074   0.433  1.00  0.00     0.004 C 
ENDBRANCH   8   9
ENDBRANCH   1   8
TORSDOF 6
ENDMDL
