MODEL 1
REMARK VINA RESULT: -5.772314410      0.000      0.000
REMARK  6 active torsions:
REMARK  status: ('A' for Active; 'I' for Inactive)
REMARK    1  A    between atoms: C2_2  and  C3_3 
REMARK    2  A    between atoms: C3_3  and  C4_4 
REMARK    3  A    between atoms: C4_4  and  C5_5 
REMARK    4  A    between atoms: C5_5  and  C6_6 
REMARK    5  A    between atoms: C6_6  and  C8_8 
REMARK    6  A    between atoms: C8_8  and  C9_9 
ROOT
HETATM    1  C8  UNL     1       6.286 -22.569  -0.578  1.00  0.00     0.091 C 
ENDROOT
BRANCH   1   2
HETATM    2  C6  UNL     1       6.974 -23.439  -1.592  1.00  0.00    -0.084 C 
HETATM    3  C7  UNL     1       7.205 -24.694  -1.290  1.00  0.00     0.014 C 
BRANCH   2   4
HETATM    4  C5  UNL     1       7.369 -22.853  -2.899  1.00  0.00     0.034 C 
BRANCH   4   5
HETATM    5  C4  UNL     1       7.694 -23.921  -3.882  1.00  0.00     0.008 C 
BRANCH   5   6
HETATM    6  C3  UNL     1       6.568 -24.191  -4.855  1.00  0.00     0.026 C 
BRANCH   6   7
HETATM    7  C2  UNL     1       6.552 -23.276  -6.001  1.00  0.00    -0.037 C 
HETATM    8  C1  UNL     1       5.799 -22.188  -6.036  1.00  0.00     0.007 C 
ENDBRANCH   6   7
ENDBRANCH   5   6
ENDBRANCH   4   5
ENDBRANCH   2   4
ENDBRANCH   1   2
BRANCH   1   9
HETATM    9  C9  UNL     1       7.250 -21.977   0.370  1.00  0.00     0.029 A 
HETATM   10  C10 UNL     1       7.517 -22.292   1.684  1.00  0.00     0.114 A 
HETATM   11  N1  UNL     1       8.487 -21.449   2.099  1.00  0.00    -0.360 N 
HETATM   12  C11 UNL     1       8.829 -20.633   1.102  1.00  0.00     0.180 A 
ATOM     13  H1  UNL     1       8.897 -21.439   3.033  1.00  0.00     0.166 HD
HETATM   14  N2  UNL     1       8.078 -20.953   0.053  1.00  0.00    -0.354 N 
ATOM     15  H2  UNL     1       8.119 -20.494  -0.857  1.00  0.00     0.166 HD
ENDBRANCH   1   9
TORSDOF 6
ENDMDL
MODEL 2
REMARK VINA RESULT: -5.765039196      2.849      5.584
REMARK  6 active torsions:
REMARK  status: ('A' for Active; 'I' for Inactive)
REMARK    1  A    between atoms: C2_2  and  C3_3 
REMARK    2  A    between atoms: C3_3  and  C4_4 
REMARK    3  A    between atoms: C4_4  and  C5_5 
REMARK    4  A    between atoms: C5_5  and  C6_6 
REMARK    5  A    between atoms: C6_6  and  C8_8 
REMARK    6  A    between atoms: C8_8  and  C9_9 
ROOT
HETATM    1  C8  UNL     1       6.776 -24.387  -4.569  1.00  0.00     0.091 C 
ENDROOT
BRANCH   1   2
HETATM    2  C6  UNL     1       7.211 -24.412  -3.130  1.00  0.00    -0.084 C 
HETATM    3  C7  UNL     1       8.228 -25.168  -2.795  1.00  0.00     0.014 C 
BRANCH   2   4
HETATM    4  C5  UNL     1       6.477 -23.583  -2.139  1.00  0.00     0.034 C 
BRANCH   4   5
HETATM    5  C4  UNL     1       7.403 -23.064  -1.096  1.00  0.00     0.008 C 
BRANCH   5   6
HETATM    6  C3  UNL     1       6.925 -23.344   0.311  1.00  0.00     0.026 C 
BRANCH   6   7
HETATM    7  C2  UNL     1       6.415 -22.155   1.004  1.00  0.00    -0.037 C 
HETATM    8  C1  UNL     1       5.123 -21.882   1.098  1.00  0.00     0.007 C 
ENDBRANCH   6   7
ENDBRANCH   5   6
ENDBRANCH   4   5
ENDBRANCH   2   4
ENDBRANCH   1   2
BRANCH   1   9
HETATM    9  C9  UNL     1       6.955 -23.048  -5.164  1.00  0.00     0.029 A 
HETATM   10  C10 UNL     1       6.034 -22.187  -5.718  1.00  0.00     0.114 A 
HETATM   11  N1  UNL     1       6.713 -21.090  -6.118  1.00  0.00    -0.360 N 
HETATM   12  C11 UNL     1       8.008 -21.238  -5.836  1.00  0.00     0.180 A 
ATOM     13  H1  UNL     1       6.299 -20.274  -6.567  1.00  0.00     0.166 HD
HETATM   14  N2  UNL     1       8.155 -22.425  -5.257  1.00  0.00    -0.354 N 
ATOM     15  H2  UNL     1       9.041 -22.811  -4.932  1.00  0.00     0.166 HD
ENDBRANCH   1   9
TORSDOF 6
ENDMDL
MODEL 3
REMARK VINA RESULT: -5.666688417      2.992      5.716
REMARK  6 active torsions:
REMARK  status: ('A' for Active; 'I' for Inactive)
REMARK    1  A    between atoms: C2_2  and  C3_3 
REMARK    2  A    between atoms: C3_3  and  C4_4 
REMARK    3  A    between atoms: C4_4  and  C5_5 
REMARK    4  A    between atoms: C5_5  and  C6_6 
REMARK    5  A    between atoms: C6_6  and  C8_8 
REMARK    6  A    between atoms: C8_8  and  C9_9 
ROOT
HETATM    1  C8  UNL     1       8.208 -24.326  -3.224  1.00  0.00     0.091 C 
ENDROOT
BRANCH   1   2
HETATM    2  C6  UNL     1       7.272 -24.180  -2.057  1.00  0.00    -0.084 C 
HETATM    3  C7  UNL     1       7.053 -25.222  -1.292  1.00  0.00     0.014 C 
BRANCH   2   4
HETATM    4  C5  UNL     1       6.628 -22.863  -1.808  1.00  0.00     0.034 C 
BRANCH   4   5
HETATM    5  C4  UNL     1       7.510 -21.989  -0.988  1.00  0.00     0.008 C 
BRANCH   5   6
HETATM    6  C3  UNL     1       6.807 -21.401   0.213  1.00  0.00     0.026 C 
BRANCH   6   7
HETATM    7  C2  UNL     1       6.357 -22.408   1.181  1.00  0.00    -0.037 C 
HETATM    8  C1  UNL     1       7.199 -23.162   1.870  1.00  0.00     0.007 C 
ENDBRANCH   6   7
ENDBRANCH   5   6
ENDBRANCH   4   5
ENDBRANCH   2   4
ENDBRANCH   1   2
BRANCH   1   9
HETATM    9  C9  UNL     1       7.696 -23.628  -4.419  1.00  0.00     0.029 A 
HETATM   10  C10 UNL     1       8.128 -22.473  -5.030  1.00  0.00     0.114 A 
HETATM   11  N1  UNL     1       7.318 -22.263  -6.091  1.00  0.00    -0.360 N 
HETATM   12  C11 UNL     1       6.409 -23.236  -6.158  1.00  0.00     0.180 A 
ATOM     13  H1  UNL     1       7.390 -21.480  -6.740  1.00  0.00     0.166 HD
HETATM   14  N2  UNL     1       6.638 -24.064  -5.144  1.00  0.00    -0.354 N 
ATOM     15  H2  UNL     1       6.097 -24.905  -4.942  1.00  0.00     0.166 HD
ENDBRANCH   1   9
TORSDOF 6
ENDMDL
MODEL 4
REMARK VINA RESULT: -5.632300449      0.965      1.428
REMARK  6 active torsions:
REMARK  status: ('A' for Active; 'I' for Inactive)
REMARK    1  A    between atoms: C2_2  and  C3_3 
REMARK    2  A    between atoms: C3_3  and  C4_4 
REMARK    3  A    between atoms: C4_4  and  C5_5 
REMARK    4  A    between atoms: C5_5  and  C6_6 
REMARK    5  A    between atoms: C6_6  and  C8_8 
REMARK    6  A    between atoms: C8_8  and  C9_9 
ROOT
HETATM    1  C8  UNL     1       6.428 -21.069  -0.840  1.00  0.00     0.091 C 
ENDROOT
BRANCH   1   2
HETATM    2  C6  UNL     1       7.065 -21.709  -2.041  1.00  0.00    -0.084 C 
HETATM    3  C7  UNL     1       7.719 -20.948  -2.886  1.00  0.00     0.014 C 
BRANCH   2   4
HETATM    4  C5  UNL     1       6.937 -23.178  -2.231  1.00  0.00     0.034 C 
BRANCH   4   5
HETATM    5  C4  UNL     1       7.587 -23.606  -3.499  1.00  0.00     0.008 C 
BRANCH   5   6
HETATM    6  C3  UNL     1       6.603 -24.128  -4.520  1.00  0.00     0.026 C 
BRANCH   6   7
HETATM    7  C2  UNL     1       6.569 -23.340  -5.757  1.00  0.00    -0.037 C 
HETATM    8  C1  UNL     1       5.869 -22.222  -5.873  1.00  0.00     0.007 C 
ENDBRANCH   6   7
ENDBRANCH   5   6
ENDBRANCH   4   5
ENDBRANCH   2   4
ENDBRANCH   1   2
BRANCH   1   9
HETATM    9  C9  UNL     1       7.357 -21.023   0.306  1.00  0.00     0.029 A 
HETATM   10  C10 UNL     1       7.597 -21.949   1.297  1.00  0.00     0.114 A 
HETATM   11  N1  UNL     1       8.541 -21.421   2.106  1.00  0.00    -0.360 N 
HETATM   12  C11 UNL     1       8.892 -20.215   1.658  1.00  0.00     0.180 A 
ATOM     13  H1  UNL     1       8.927 -21.876   2.933  1.00  0.00     0.166 HD
HETATM   14  N2  UNL     1       8.173 -19.974   0.566  1.00  0.00    -0.354 N 
ATOM     15  H2  UNL     1       8.228 -19.123   0.006  1.00  0.00     0.166 HD
ENDBRANCH   1   9
TORSDOF 6
ENDMDL
MODEL 5
REMARK VINA RESULT: -5.621480349      1.634      2.471
REMARK  6 active torsions:
REMARK  status: ('A' for Active; 'I' for Inactive)
REMARK    1  A    between atoms: C2_2  and  C3_3 
REMARK    2  A    between atoms: C3_3  and  C4_4 
REMARK    3  A    between atoms: C4_4  and  C5_5 
REMARK    4  A    between atoms: C5_5  and  C6_6 
REMARK    5  A    between atoms: C6_6  and  C8_8 
REMARK    6  A    between atoms: C8_8  and  C9_9 
ROOT
HETATM    1  C8  UNL     1       5.966 -21.531   0.135  1.00  0.00     0.091 C 
ENDROOT
BRANCH   1   2
HETATM    2  C6  UNL     1       6.754 -22.806   0.024  1.00  0.00    -0.084 C 
HETATM    3  C7  UNL     1       6.920 -23.538   1.099  1.00  0.00     0.014 C 
BRANCH   2   4
HETATM    4  C5  UNL     1       7.317 -23.195  -1.296  1.00  0.00     0.034 C 
BRANCH   4   5
HETATM    5  C4  UNL     1       7.198 -24.663  -1.509  1.00  0.00     0.008 C 
BRANCH   5   6
HETATM    6  C3  UNL     1       7.840 -25.127  -2.797  1.00  0.00     0.026 C 
BRANCH   6   7
HETATM    7  C2  UNL     1       6.897 -25.234  -3.916  1.00  0.00    -0.037 C 
HETATM    8  C1  UNL     1       6.664 -24.235  -4.752  1.00  0.00     0.007 C 
ENDBRANCH   6   7
ENDBRANCH   5   6
ENDBRANCH   4   5
ENDBRANCH   2   4
ENDBRANCH   1   2
BRANCH   1   9
HETATM    9  C9  UNL     1       6.832 -20.345  -0.014  1.00  0.00     0.029 A 
HETATM   10  C10 UNL     1       8.079 -20.080   0.506  1.00  0.00     0.114 A 
HETATM   11  N1  UNL     1       8.435 -18.853   0.068  1.00  0.00    -0.360 N 
HETATM   12  C11 UNL     1       7.464 -18.352  -0.696  1.00  0.00     0.180 A 
ATOM     13  H1  UNL     1       9.311 -18.381   0.289  1.00  0.00     0.166 HD
HETATM   14  N2  UNL     1       6.492 -19.257  -0.746  1.00  0.00    -0.354 N 
ATOM     15  H2  UNL     1       5.618 -19.149  -1.261  1.00  0.00     0.166 HD
ENDBRANCH   1   9
TORSDOF 6
ENDMDL
