MODEL 1
REMARK VINA RESULT: -4.287611296      0.000      0.000
REMARK  1 active torsions:
REMARK  status: ('A' for Active; 'I' for Inactive)
REMARK    1  A    between atoms: C4_5  and  O1_6 
ROOT
HETATM    1  N1  UNL     1      37.131  31.622  -5.274  1.00  0.00    -0.196 NA
HETATM    2  C1  UNL     1      37.317  32.471  -6.036  1.00  0.00     0.074 C 
HETATM    3  C2  UNL     1      37.531  33.528  -6.987  1.00  0.00     0.156 C 
HETATM    4  C3  UNL     1      36.813  33.259  -8.318  1.00  0.00     0.062 C 
HETATM    5  C4  UNL     1      37.406  34.289  -9.232  1.00  0.00     0.129 C 
HETATM    6  C5  UNL     1      38.835  33.761  -9.405  1.00  0.00     0.107 C 
HETATM    7  S1  UNL     1      39.255  33.547  -7.625  1.00  0.00    -0.147 SA
ENDROOT
BRANCH   5   8
HETATM    8  O1  UNL     1      36.756  34.396 -10.438  1.00  0.00    -0.395 OA
ATOM      9  H1  UNL     1      37.290  34.144 -11.183  1.00  0.00     0.210 HD
ENDBRANCH   5   8
TORSDOF 1
ENDMDL
MODEL 2
REMARK VINA RESULT: -4.256943186      2.008      2.190
REMARK  1 active torsions:
REMARK  status: ('A' for Active; 'I' for Inactive)
REMARK    1  A    between atoms: C4_5  and  O1_6 
ROOT
HETATM    1  N1  UNL     1      36.429  31.708  -5.456  1.00  0.00    -0.196 NA
HETATM    2  C1  UNL     1      37.302  32.304  -5.925  1.00  0.00     0.074 C 
HETATM    3  C2  UNL     1      38.387  33.057  -6.493  1.00  0.00     0.156 C 
HETATM    4  C3  UNL     1      38.101  34.565  -6.500  1.00  0.00     0.062 C 
HETATM    5  C4  UNL     1      39.182  35.107  -7.387  1.00  0.00     0.129 C 
HETATM    6  C5  UNL     1      38.744  34.584  -8.760  1.00  0.00     0.107 C 
HETATM    7  S1  UNL     1      38.522  32.812  -8.310  1.00  0.00    -0.147 SA
ENDROOT
BRANCH   5   8
HETATM    8  O1  UNL     1      39.272  36.478  -7.372  1.00  0.00    -0.395 OA
ATOM      9  H1  UNL     1      38.911  36.893  -8.147  1.00  0.00     0.210 HD
ENDBRANCH   5   8
TORSDOF 1
ENDMDL
MODEL 3
REMARK VINA RESULT: -4.253284210      1.679      1.866
REMARK  1 active torsions:
REMARK  status: ('A' for Active; 'I' for Inactive)
REMARK    1  A    between atoms: C4_5  and  O1_6 
ROOT
HETATM    1  N1  UNL     1      36.795  31.842  -5.215  1.00  0.00    -0.196 NA
HETATM    2  C1  UNL     1      37.088  32.046  -6.315  1.00  0.00     0.074 C 
HETATM    3  C2  UNL     1      37.467  32.308  -7.677  1.00  0.00     0.156 C 
HETATM    4  C3  UNL     1      37.966  33.747  -7.869  1.00  0.00     0.062 C 
HETATM    5  C4  UNL     1      38.006  33.890  -9.362  1.00  0.00     0.129 C 
HETATM    6  C5  UNL     1      36.513  33.907  -9.710  1.00  0.00     0.107 C 
HETATM    7  S1  UNL     1      36.011  32.388  -8.798  1.00  0.00    -0.147 SA
ENDROOT
BRANCH   5   8
HETATM    8  O1  UNL     1      38.638  35.033  -9.790  1.00  0.00    -0.395 OA
ATOM      9  H1  UNL     1      38.266  35.401 -10.583  1.00  0.00     0.210 HD
ENDBRANCH   5   8
TORSDOF 1
ENDMDL
MODEL 4
REMARK VINA RESULT: -4.198064603      5.703      6.622
REMARK  1 active torsions:
REMARK  status: ('A' for Active; 'I' for Inactive)
REMARK    1  A    between atoms: C4_5  and  O1_6 
ROOT
HETATM    1  N1  UNL     1      39.055  31.922 -16.503  1.00  0.00    -0.196 NA
HETATM    2  C1  UNL     1      38.993  32.018 -15.352  1.00  0.00     0.074 C 
HETATM    3  C2  UNL     1      38.899  32.137 -13.922  1.00  0.00     0.156 C 
HETATM    4  C3  UNL     1      37.944  33.263 -13.500  1.00  0.00     0.062 C 
HETATM    5  C4  UNL     1      38.229  33.411 -12.036  1.00  0.00     0.129 C 
HETATM    6  C5  UNL     1      39.633  34.027 -12.056  1.00  0.00     0.107 C 
HETATM    7  S1  UNL     1      40.439  32.814 -13.181  1.00  0.00    -0.147 SA
ENDROOT
BRANCH   5   8
HETATM    8  O1  UNL     1      37.332  34.217 -11.378  1.00  0.00    -0.395 OA
ATOM      9  H1  UNL     1      36.432  34.095 -11.657  1.00  0.00     0.210 HD
ENDBRANCH   5   8
TORSDOF 1
ENDMDL
MODEL 5
REMARK VINA RESULT: -4.188927870      1.789      2.048
REMARK  1 active torsions:
REMARK  status: ('A' for Active; 'I' for Inactive)
REMARK    1  A    between atoms: C4_5  and  O1_6 
ROOT
HETATM    1  N1  UNL     1      37.926  34.273  -5.275  1.00  0.00    -0.196 NA
HETATM    2  C1  UNL     1      37.885  33.846  -6.349  1.00  0.00     0.074 C 
HETATM    3  C2  UNL     1      37.844  33.328  -7.689  1.00  0.00     0.156 C 
HETATM    4  C3  UNL     1      37.487  34.414  -8.715  1.00  0.00     0.062 C 
HETATM    5  C4  UNL     1      37.202  33.621  -9.955  1.00  0.00     0.129 C 
HETATM    6  C5  UNL     1      35.881  32.935  -9.585  1.00  0.00     0.107 C 
HETATM    7  S1  UNL     1      36.395  32.230  -7.963  1.00  0.00    -0.147 SA
ENDROOT
BRANCH   5   8
HETATM    8  O1  UNL     1      37.071  34.393 -11.085  1.00  0.00    -0.395 OA
ATOM      9  H1  UNL     1      37.463  34.005 -11.859  1.00  0.00     0.210 HD
ENDBRANCH   5   8
TORSDOF 1
ENDMDL
