MODEL 1
REMARK VINA RESULT: -5.779409287      0.000      0.000
REMARK  2 active torsions:
REMARK  status: ('A' for Active; 'I' for Inactive)
REMARK    1  A    between atoms: N3_11  and  C5_12 
REMARK    2  A    between atoms: C5_12  and  C6_13 
ROOT
HETATM    1  S1  UNL     1     -19.248  25.035   9.202  1.00  0.00    -0.057 SA
HETATM    2  C1  UNL     1     -17.807  25.034  10.060  1.00  0.00     0.136 A 
HETATM    3  N1  UNL     1     -17.765  25.682  11.223  1.00  0.00    -0.314 N 
ATOM      4  H1  UNL     1     -18.514  26.198  11.684  1.00  0.00     0.175 HD
HETATM    5  S2  UNL     1     -16.183  25.445  11.751  1.00  0.00     0.007 SA
HETATM    6  C2  UNL     1     -15.584  24.506  10.459  1.00  0.00     0.124 A 
HETATM    7  C3  UNL     1     -16.674  24.415   9.650  1.00  0.00     0.107 A 
HETATM    8  N2  UNL     1     -16.237  23.661   8.587  1.00  0.00    -0.347 N 
ATOM      9  H2  UNL     1     -16.804  23.395   7.781  1.00  0.00     0.167 HD
HETATM   10  C4  UNL     1     -14.948  23.330   8.773  1.00  0.00     0.184 A 
HETATM   11  N3  UNL     1     -14.516  23.838   9.925  1.00  0.00    -0.332 N 
ENDROOT
BRANCH  11  12
HETATM   12  C5  UNL     1     -13.243  23.776  10.575  1.00  0.00     0.162 C 
BRANCH  12  13
HETATM   13  C6  UNL     1     -13.022  22.515  11.361  1.00  0.00     0.139 C 
HETATM   14  C7  UNL     1     -13.177  22.882  12.831  1.00  0.00     0.035 C 
HETATM   15  C8  UNL     1     -11.790  22.867  13.373  1.00  0.00     0.029 C 
HETATM   16  C9  UNL     1     -10.953  22.456  12.218  1.00  0.00     0.168 C 
HETATM   17  O1  UNL     1     -11.761  21.984  11.214  1.00  0.00    -0.384 OA
ENDBRANCH  12  13
ENDBRANCH  11  12
TORSDOF 2
ENDMDL
MODEL 2
REMARK VINA RESULT: -5.451798143      1.439      2.186
REMARK  2 active torsions:
REMARK  status: ('A' for Active; 'I' for Inactive)
REMARK    1  A    between atoms: N3_11  and  C5_12 
REMARK    2  A    between atoms: C5_12  and  C6_13 
ROOT
HETATM    1  S1  UNL     1     -19.524  25.196   9.314  1.00  0.00    -0.057 SA
HETATM    2  C1  UNL     1     -17.920  24.718   9.426  1.00  0.00     0.136 A 
HETATM    3  N1  UNL     1     -17.397  24.028   8.415  1.00  0.00    -0.314 N 
ATOM      4  H1  UNL     1     -17.850  23.736   7.549  1.00  0.00     0.175 HD
HETATM    5  S2  UNL     1     -15.809  23.750   8.906  1.00  0.00     0.007 SA
HETATM    6  C2  UNL     1     -15.834  24.532  10.422  1.00  0.00     0.124 A 
HETATM    7  C3  UNL     1     -17.114  24.989  10.480  1.00  0.00     0.107 A 
HETATM    8  N2  UNL     1     -17.183  25.632  11.694  1.00  0.00    -0.347 N 
ATOM      9  H2  UNL     1     -18.010  26.098  12.067  1.00  0.00     0.167 HD
HETATM   10  C4  UNL     1     -15.992  25.550  12.311  1.00  0.00     0.184 A 
HETATM   11  N3  UNL     1     -15.136  24.875  11.547  1.00  0.00    -0.332 N 
ENDROOT
BRANCH  11  12
HETATM   12  C5  UNL     1     -13.764  24.517  11.742  1.00  0.00     0.162 C 
BRANCH  12  13
HETATM   13  C6  UNL     1     -13.557  23.070  12.092  1.00  0.00     0.139 C 
HETATM   14  C7  UNL     1     -12.362  23.015  13.036  1.00  0.00     0.035 C 
HETATM   15  C8  UNL     1     -11.255  22.455  12.213  1.00  0.00     0.029 C 
HETATM   16  C9  UNL     1     -11.882  22.188  10.893  1.00  0.00     0.168 C 
HETATM   17  O1  UNL     1     -13.247  22.278  11.011  1.00  0.00    -0.384 OA
ENDBRANCH  12  13
ENDBRANCH  11  12
TORSDOF 2
ENDMDL
MODEL 3
REMARK VINA RESULT: -5.442345042      2.746      5.523
REMARK  2 active torsions:
REMARK  status: ('A' for Active; 'I' for Inactive)
REMARK    1  A    between atoms: N3_11  and  C5_12 
REMARK    2  A    between atoms: C5_12  and  C6_13 
ROOT
HETATM    1  S1  UNL     1     -11.070  22.267  11.932  1.00  0.00    -0.057 SA
HETATM    2  C1  UNL     1     -12.484  23.135  11.685  1.00  0.00     0.136 A 
HETATM    3  N1  UNL     1     -12.937  23.897  12.679  1.00  0.00    -0.314 N 
ATOM      4  H1  UNL     1     -12.531  24.033  13.605  1.00  0.00     0.175 HD
HETATM    5  S2  UNL     1     -14.339  24.583  12.043  1.00  0.00     0.007 SA
HETATM    6  C2  UNL     1     -14.328  23.876  10.491  1.00  0.00     0.124 A 
HETATM    7  C3  UNL     1     -13.201  23.116  10.536  1.00  0.00     0.107 A 
HETATM    8  N2  UNL     1     -13.150  22.522   9.298  1.00  0.00    -0.347 N 
ATOM      9  H2  UNL     1     -12.425  21.878   8.983  1.00  0.00     0.167 HD
HETATM   10  C4  UNL     1     -14.203  22.923   8.565  1.00  0.00     0.184 A 
HETATM   11  N3  UNL     1     -14.951  23.763   9.278  1.00  0.00    -0.332 N 
ENDROOT
BRANCH  11  12
HETATM   12  C5  UNL     1     -16.161  24.460   8.965  1.00  0.00     0.162 C 
BRANCH  12  13
HETATM   13  C6  UNL     1     -17.329  24.069   9.826  1.00  0.00     0.139 C 
HETATM   14  C7  UNL     1     -18.527  23.920   8.897  1.00  0.00     0.035 C 
HETATM   15  C8  UNL     1     -19.370  25.116   9.171  1.00  0.00     0.029 C 
HETATM   16  C9  UNL     1     -18.641  25.835  10.247  1.00  0.00     0.168 C 
HETATM   17  O1  UNL     1     -17.668  25.016  10.764  1.00  0.00    -0.384 OA
ENDBRANCH  12  13
ENDBRANCH  11  12
TORSDOF 2
ENDMDL
MODEL 4
REMARK VINA RESULT: -5.426883126      3.207      6.018
REMARK  2 active torsions:
REMARK  status: ('A' for Active; 'I' for Inactive)
REMARK    1  A    between atoms: N3_11  and  C5_12 
REMARK    2  A    between atoms: C5_12  and  C6_13 
ROOT
HETATM    1  S1  UNL     1     -10.843  22.301  11.583  1.00  0.00    -0.057 SA
HETATM    2  C1  UNL     1     -12.105  22.577  10.513  1.00  0.00     0.136 A 
HETATM    3  N1  UNL     1     -12.038  22.024   9.304  1.00  0.00    -0.314 N 
ATOM      4  H1  UNL     1     -11.300  21.433   8.920  1.00  0.00     0.175 HD
HETATM    5  S2  UNL     1     -13.461  22.530   8.558  1.00  0.00     0.007 SA
HETATM    6  C2  UNL     1     -14.135  23.458   9.821  1.00  0.00     0.124 A 
HETATM    7  C3  UNL     1     -13.196  23.328  10.796  1.00  0.00     0.107 A 
HETATM    8  N2  UNL     1     -13.698  24.065  11.842  1.00  0.00    -0.347 N 
ATOM      9  H2  UNL     1     -13.244  24.187  12.747  1.00  0.00     0.167 HD
HETATM   10  C4  UNL     1     -14.880  24.598  11.487  1.00  0.00     0.184 A 
HETATM   11  N3  UNL     1     -15.177  24.239  10.240  1.00  0.00    -0.332 N 
ENDROOT
BRANCH  11  12
HETATM   12  C5  UNL     1     -16.301  24.536   9.407  1.00  0.00     0.162 C 
BRANCH  12  13
HETATM   13  C6  UNL     1     -17.625  24.158  10.012  1.00  0.00     0.139 C 
HETATM   14  C7  UNL     1     -18.603  23.991   8.856  1.00  0.00     0.035 C 
HETATM   15  C8  UNL     1     -19.482  25.191   8.928  1.00  0.00     0.029 C 
HETATM   16  C9  UNL     1     -18.992  25.929  10.120  1.00  0.00     0.168 C 
HETATM   17  O1  UNL     1     -18.150  25.121  10.842  1.00  0.00    -0.384 OA
ENDBRANCH  12  13
ENDBRANCH  11  12
TORSDOF 2
ENDMDL
MODEL 5
REMARK VINA RESULT: -5.079352433      1.185      1.321
REMARK  2 active torsions:
REMARK  status: ('A' for Active; 'I' for Inactive)
REMARK    1  A    between atoms: N3_11  and  C5_12 
REMARK    2  A    between atoms: C5_12  and  C6_13 
ROOT
HETATM    1  S1  UNL     1     -19.196  25.259   9.306  1.00  0.00    -0.057 SA
HETATM    2  C1  UNL     1     -17.766  25.142  10.174  1.00  0.00     0.136 A 
HETATM    3  N1  UNL     1     -17.709  25.715  11.374  1.00  0.00    -0.314 N 
ATOM      4  H1  UNL     1     -18.439  26.236  11.860  1.00  0.00     0.175 HD
HETATM    5  S2  UNL     1     -16.144  25.376  11.900  1.00  0.00     0.007 SA
HETATM    6  C2  UNL     1     -15.573  24.492  10.558  1.00  0.00     0.124 A 
HETATM    7  C3  UNL     1     -16.657  24.499   9.736  1.00  0.00     0.107 A 
HETATM    8  N2  UNL     1     -16.242  23.793   8.632  1.00  0.00    -0.347 N 
ATOM      9  H2  UNL     1     -16.811  23.602   7.808  1.00  0.00     0.167 HD
HETATM   10  C4  UNL     1     -14.971  23.393   8.808  1.00  0.00     0.184 A 
HETATM   11  N3  UNL     1     -14.530  23.811   9.993  1.00  0.00    -0.332 N 
ENDROOT
BRANCH  11  12
HETATM   12  C5  UNL     1     -13.268  23.652  10.648  1.00  0.00     0.162 C 
BRANCH  12  13
HETATM   13  C6  UNL     1     -12.271  22.846   9.863  1.00  0.00     0.139 C 
HETATM   14  C7  UNL     1     -12.019  21.570  10.656  1.00  0.00     0.035 C 
HETATM   15  C8  UNL     1     -10.660  21.749  11.239  1.00  0.00     0.029 C 
HETATM   16  C9  UNL     1     -10.212  23.066  10.717  1.00  0.00     0.168 C 
HETATM   17  O1  UNL     1     -11.054  23.467   9.710  1.00  0.00    -0.384 OA
ENDBRANCH  12  13
ENDBRANCH  11  12
TORSDOF 2
ENDMDL
