MODEL 1
REMARK VINA RESULT: -7.327045061      0.000      0.000
REMARK  2 active torsions:
REMARK  status: ('A' for Active; 'I' for Inactive)
REMARK    1  A    between atoms: N1_2  and  C2_5 
REMARK    2  A    between atoms: C2_5  and  C3_6 
ROOT
HETATM    1  C3  UNL     1      14.695  37.563  74.817  1.00  0.00     0.210 C 
HETATM    2  C4  UNL     1      15.214  37.571  73.370  1.00  0.00     0.208 C 
HETATM    3  O1  UNL     1      15.535  36.271  73.065  1.00  0.00    -0.353 OA
HETATM    4  C5  UNL     1      14.900  35.766  71.954  1.00  0.00     0.160 C 
HETATM    5  C6  UNL     1      15.394  36.596  70.761  1.00  0.00     0.078 C 
HETATM    6  C7  UNL     1      15.463  34.367  71.708  1.00  0.00     0.078 C 
HETATM    7  O2  UNL     1      13.551  35.827  71.936  1.00  0.00    -0.317 OA
HETATM    8  C8  UNL     1      12.863  35.610  73.087  1.00  0.00     0.200 C 
HETATM    9  C9  UNL     1      12.398  34.154  73.093  1.00  0.00     0.071 C 
HETATM   10  C10 UNL     1      11.182  34.048  72.201  1.00  0.00     0.006 C 
HETATM   11  C11 UNL     1      10.019  34.622  72.984  1.00  0.00     0.000 C 
HETATM   12  C12 UNL     1      10.425  35.908  73.641  1.00  0.00     0.006 C 
HETATM   13  C13 UNL     1      11.660  36.525  73.072  1.00  0.00     0.071 C 
HETATM   14  O3  UNL     1      13.560  35.798  74.261  1.00  0.00    -0.200 OA
HETATM   15  O4  UNL     1      13.437  36.985  74.777  1.00  0.00    -0.229 OA
ENDROOT
BRANCH   1  16
HETATM   16  C2  UNL     1      14.635  38.945  75.377  1.00  0.00     0.268 C 
BRANCH  16  17
HETATM   17  N1  UNL     1      15.302  39.854  74.464  1.00  0.00    -0.076 N 
HETATM   18  C1  UNL     1      15.727  41.053  75.150  1.00  0.00     0.267 C 
ATOM     19  H12 UNL     1      14.721  40.068  73.654  1.00  0.00     0.276 HD
ATOM     20  H11 UNL     1      16.078  39.401  73.982  1.00  0.00     0.276 HD
ENDBRANCH  16  17
ENDBRANCH   1  16
TORSDOF 2
ENDMDL
MODEL 2
REMARK VINA RESULT: -7.280441860      1.162      1.488
REMARK  2 active torsions:
REMARK  status: ('A' for Active; 'I' for Inactive)
REMARK    1  A    between atoms: N1_2  and  C2_5 
REMARK    2  A    between atoms: C2_5  and  C3_6 
ROOT
HETATM    1  C3  UNL     1      14.690  37.951  74.270  1.00  0.00     0.210 C 
HETATM    2  C4  UNL     1      15.214  37.031  73.156  1.00  0.00     0.208 C 
HETATM    3  O1  UNL     1      14.822  35.757  73.486  1.00  0.00    -0.353 OA
HETATM    4  C5  UNL     1      14.078  35.115  72.524  1.00  0.00     0.160 C 
HETATM    5  C6  UNL     1      14.999  34.952  71.306  1.00  0.00     0.078 C 
HETATM    6  C7  UNL     1      13.836  33.689  73.016  1.00  0.00     0.078 C 
HETATM    7  O2  UNL     1      12.965  35.742  72.087  1.00  0.00    -0.317 OA
HETATM    8  C8  UNL     1      12.203  36.435  72.973  1.00  0.00     0.200 C 
HETATM    9  C9  UNL     1      11.044  35.536  73.404  1.00  0.00     0.071 C 
HETATM   10  C10 UNL     1      10.005  35.557  72.308  1.00  0.00     0.006 C 
HETATM   11  C11 UNL     1       9.275  36.879  72.427  1.00  0.00     0.000 C 
HETATM   12  C12 UNL     1      10.258  37.994  72.623  1.00  0.00     0.006 C 
HETATM   13  C13 UNL     1      11.663  37.647  72.251  1.00  0.00     0.071 C 
HETATM   14  O3  UNL     1      12.831  36.840  74.132  1.00  0.00    -0.200 OA
HETATM   15  O4  UNL     1      13.320  38.044  74.088  1.00  0.00    -0.229 OA
ENDROOT
BRANCH   1  16
HETATM   16  C2  UNL     1      15.334  39.296  74.207  1.00  0.00     0.268 C 
BRANCH  16  17
HETATM   17  N1  UNL     1      14.993  40.039  75.405  1.00  0.00    -0.076 N 
HETATM   18  C1  UNL     1      15.704  41.296  75.452  1.00  0.00     0.267 C 
ATOM     19  H12 UNL     1      15.149  39.486  76.248  1.00  0.00     0.276 HD
ATOM     20  H11 UNL     1      13.986  40.172  75.493  1.00  0.00     0.276 HD
ENDBRANCH  16  17
ENDBRANCH   1  16
TORSDOF 2
ENDMDL
MODEL 3
REMARK VINA RESULT: -7.118977849      3.628      5.411
REMARK  2 active torsions:
REMARK  status: ('A' for Active; 'I' for Inactive)
REMARK    1  A    between atoms: N1_2  and  C2_5 
REMARK    2  A    between atoms: C2_5  and  C3_6 
ROOT
HETATM    1  C3  UNL     1      17.561  33.046  73.585  1.00  0.00     0.210 C 
HETATM    2  C4  UNL     1      16.975  32.568  74.923  1.00  0.00     0.208 C 
HETATM    3  O1  UNL     1      16.828  33.687  75.705  1.00  0.00    -0.353 OA
HETATM    4  C5  UNL     1      15.552  33.900  76.173  1.00  0.00     0.160 C 
HETATM    5  C6  UNL     1      15.231  32.716  77.097  1.00  0.00     0.078 C 
HETATM    6  C7  UNL     1      15.609  35.110  77.106  1.00  0.00     0.078 C 
HETATM    7  O2  UNL     1      14.562  33.957  75.258  1.00  0.00    -0.317 OA
HETATM    8  C8  UNL     1      14.798  34.562  74.064  1.00  0.00     0.200 C 
HETATM    9  C9  UNL     1      14.262  35.992  74.145  1.00  0.00     0.071 C 
HETATM   10  C10 UNL     1      12.763  35.940  73.962  1.00  0.00     0.006 C 
HETATM   11  C11 UNL     1      12.514  35.727  72.483  1.00  0.00     0.000 C 
HETATM   12  C12 UNL     1      13.425  34.658  71.956  1.00  0.00     0.006 C 
HETATM   13  C13 UNL     1      14.033  33.794  73.011  1.00  0.00     0.071 C 
HETATM   14  O3  UNL     1      16.118  34.664  73.681  1.00  0.00    -0.200 OA
HETATM   15  O4  UNL     1      16.535  33.697  72.919  1.00  0.00    -0.229 OA
ENDROOT
BRANCH   1  16
HETATM   16  C2  UNL     1      18.080  31.899  72.782  1.00  0.00     0.268 C 
BRANCH  16  17
HETATM   17  N1  UNL     1      18.454  32.376  71.465  1.00  0.00    -0.076 N 
HETATM   18  C1  UNL     1      19.799  32.902  71.469  1.00  0.00     0.267 C 
ATOM     19  H12 UNL     1      17.784  33.056  71.106  1.00  0.00     0.276 HD
ATOM     20  H11 UNL     1      18.334  31.653  70.755  1.00  0.00     0.276 HD
ENDBRANCH  16  17
ENDBRANCH   1  16
TORSDOF 2
ENDMDL
MODEL 4
REMARK VINA RESULT: -6.881146879      2.267      4.276
REMARK  2 active torsions:
REMARK  status: ('A' for Active; 'I' for Inactive)
REMARK    1  A    between atoms: N1_2  and  C2_5 
REMARK    2  A    between atoms: C2_5  and  C3_6 
ROOT
HETATM    1  C3  UNL     1      15.323  34.692  72.561  1.00  0.00     0.210 C 
HETATM    2  C4  UNL     1      15.408  35.320  73.961  1.00  0.00     0.208 C 
HETATM    3  O1  UNL     1      15.417  36.681  73.777  1.00  0.00    -0.353 OA
HETATM    4  C5  UNL     1      14.423  37.360  74.441  1.00  0.00     0.160 C 
HETATM    5  C6  UNL     1      14.688  37.152  75.939  1.00  0.00     0.078 C 
HETATM    6  C7  UNL     1      14.662  38.851  74.212  1.00  0.00     0.078 C 
HETATM    7  O2  UNL     1      13.152  36.966  74.215  1.00  0.00    -0.317 OA
HETATM    8  C8  UNL     1      12.789  36.585  72.962  1.00  0.00     0.200 C 
HETATM    9  C9  UNL     1      12.118  37.777  72.281  1.00  0.00     0.071 C 
HETATM   10  C10 UNL     1      10.700  37.871  72.795  1.00  0.00     0.006 C 
HETATM   11  C11 UNL     1       9.912  36.783  72.095  1.00  0.00     0.000 C 
HETATM   12  C12 UNL     1      10.686  35.499  72.103  1.00  0.00     0.006 C 
HETATM   13  C13 UNL     1      11.794  35.457  73.104  1.00  0.00     0.071 C 
HETATM   14  O3  UNL     1      13.810  36.186  72.126  1.00  0.00    -0.200 OA
HETATM   15  O4  UNL     1      14.029  34.904  72.115  1.00  0.00    -0.229 OA
ENDROOT
BRANCH   1  16
HETATM   16  C2  UNL     1      15.646  33.235  72.602  1.00  0.00     0.268 C 
BRANCH  16  17
HETATM   17  N1  UNL     1      16.915  33.013  71.936  1.00  0.00    -0.076 N 
HETATM   18  C1  UNL     1      17.843  32.332  72.809  1.00  0.00     0.267 C 
ATOM     19  H12 UNL     1      17.306  33.882  71.573  1.00  0.00     0.276 HD
ATOM     20  H11 UNL     1      16.795  32.518  71.053  1.00  0.00     0.276 HD
ENDBRANCH  16  17
ENDBRANCH   1  16
TORSDOF 2
ENDMDL
MODEL 5
REMARK VINA RESULT: -6.858476767      2.166      4.589
REMARK  2 active torsions:
REMARK  status: ('A' for Active; 'I' for Inactive)
REMARK    1  A    between atoms: N1_2  and  C2_5 
REMARK    2  A    between atoms: C2_5  and  C3_6 
ROOT
HETATM    1  C3  UNL     1      11.927  36.385  73.469  1.00  0.00     0.210 C 
HETATM    2  C4  UNL     1      12.903  37.500  73.875  1.00  0.00     0.208 C 
HETATM    3  O1  UNL     1      13.381  37.166  75.118  1.00  0.00    -0.353 OA
HETATM    4  C5  UNL     1      14.751  37.077  75.204  1.00  0.00     0.160 C 
HETATM    5  C6  UNL     1      15.291  38.488  74.929  1.00  0.00     0.078 C 
HETATM    6  C7  UNL     1      15.096  36.813  76.669  1.00  0.00     0.078 C 
HETATM    7  O2  UNL     1      15.369  36.249  74.336  1.00  0.00    -0.317 OA
HETATM    8  C8  UNL     1      14.780  35.069  74.011  1.00  0.00     0.200 C 
HETATM    9  C9  UNL     1      15.403  33.975  74.877  1.00  0.00     0.071 C 
HETATM   10  C10 UNL     1      16.742  33.611  74.279  1.00  0.00     0.006 C 
HETATM   11  C11 UNL     1      16.456  32.752  73.065  1.00  0.00     0.000 C 
HETATM   12  C12 UNL     1      15.352  33.360  72.252  1.00  0.00     0.006 C 
HETATM   13  C13 UNL     1      15.086  34.798  72.556  1.00  0.00     0.071 C 
HETATM   14  O3  UNL     1      13.418  34.992  74.209  1.00  0.00    -0.200 OA
HETATM   15  O4  UNL     1      12.703  35.279  73.161  1.00  0.00    -0.229 OA
ENDROOT
BRANCH   1  16
HETATM   16  C2  UNL     1      11.091  36.796  72.303  1.00  0.00     0.268 C 
BRANCH  16  17
HETATM   17  N1  UNL     1      10.103  37.760  72.747  1.00  0.00    -0.076 N 
HETATM   18  C1  UNL     1       8.870  37.102  73.114  1.00  0.00     0.267 C 
ATOM     19  H12 UNL     1       9.948  38.489  72.051  1.00  0.00     0.276 HD
ATOM     20  H11 UNL     1      10.459  38.343  73.504  1.00  0.00     0.276 HD
ENDBRANCH  16  17
ENDBRANCH   1  16
TORSDOF 2
ENDMDL
