MODEL 1
REMARK VINA RESULT: -7.374763611      0.000      0.000
REMARK  11 active torsions:
REMARK  status: ('A' for Active; 'I' for Inactive)
REMARK       I    between atoms: N1_2  and  C2_3 
REMARK    1  A    between atoms: N1_2  and  C16_29 
REMARK       I    between atoms: C2_3  and  N2_5 
REMARK    2  A    between atoms: N2_5  and  N3_7 
REMARK    3  A    between atoms: N3_7  and  C3_9 
REMARK    4  A    between atoms: C3_9  and  N4_11 
REMARK    5  A    between atoms: N4_11  and  C4_13 
REMARK    6  A    between atoms: C4_13  and  C5_14 
REMARK    7  A    between atoms: C5_14  and  C6_15 
REMARK    8  A    between atoms: C5_14  and  C14_25 
REMARK    9  A    between atoms: C6_15  and  C7_16 
REMARK   10  A    between atoms: C7_16  and  C8_17 
REMARK       I    between atoms: C8_17  and  N5_19 
REMARK   11  A    between atoms: C14_25  and  C15_26 
ROOT
HETATM    1  N4  UNL     1      38.155 -15.360  25.248  1.00  0.00    -0.366 N 
ATOM      2  H4  UNL     1      37.226 -15.194  24.860  1.00  0.00     0.161 HD
ENDROOT
BRANCH   1   3
HETATM    3  C3  UNL     1      39.133 -15.813  24.343  1.00  0.00     0.186 C 
HETATM    4  S1  UNL     1      40.680 -15.179  24.474  1.00  0.00    -0.040 SA
BRANCH   3   5
HETATM    5  N3  UNL     1      38.898 -16.747  23.356  1.00  0.00    -0.272 N 
ATOM      6  H3  UNL     1      39.673 -16.939  22.721  1.00  0.00     0.189 HD
BRANCH   5   7
HETATM    7  N2  UNL     1      37.735 -17.450  23.130  1.00  0.00    -0.249 N 
HETATM    8  C2  UNL     1      37.655 -18.840  23.509  1.00  0.00     0.337 C 
HETATM    9  N1  UNL     1      36.487 -19.594  23.296  1.00  0.00    -0.333 N 
HETATM   10  O1  UNL     1      38.692 -19.344  24.047  1.00  0.00    -0.245 OA
HETATM   11  C1  UNL     1      35.347 -18.995  22.656  1.00  0.00     0.155 C 
ATOM     12  H2  UNL     1      36.935 -16.991  22.696  1.00  0.00     0.192 HD
BRANCH   9  13
HETATM   13  C16 UNL     1      36.419 -20.963  23.738  1.00  0.00     0.088 C 
HETATM   14  C17 UNL     1      35.540 -21.839  22.862  1.00  0.00     0.025 C 
HETATM   15  C18 UNL     1      35.167 -23.114  23.597  1.00  0.00     0.002 C 
HETATM   16  C19 UNL     1      36.186 -23.449  24.669  1.00  0.00     0.000 C 
HETATM   17  C20 UNL     1      36.296 -22.384  25.710  1.00  0.00     0.002 C 
HETATM   18  C21 UNL     1      35.928 -21.024  25.178  1.00  0.00     0.025 C 
ENDBRANCH   9  13
ENDBRANCH   5   7
ENDBRANCH   3   5
ENDBRANCH   1   3
BRANCH   1  19
HETATM   19  C4  UNL     1      38.310 -15.103  26.651  1.00  0.00     0.127 C 
BRANCH  19  20
HETATM   20  C5  UNL     1      37.376 -16.084  27.401  1.00  0.00     0.014 C 
BRANCH  20  21
HETATM   21  C6  UNL     1      38.033 -17.451  27.403  1.00  0.00     0.016 C 
BRANCH  21  22
HETATM   22  C7  UNL     1      37.741 -18.278  28.605  1.00  0.00     0.103 C 
BRANCH  22  23
HETATM   23  C8  UNL     1      39.020 -18.845  29.125  1.00  0.00     0.219 C 
HETATM   24  O2  UNL     1      39.588 -18.270  30.123  1.00  0.00    -0.273 OA
HETATM   25  N5  UNL     1      39.661 -19.982  28.595  1.00  0.00    -0.352 N 
HETATM   26  C9  UNL     1      39.140 -20.740  27.472  1.00  0.00     0.125 C 
HETATM   27  C13 UNL     1      40.902 -20.455  29.164  1.00  0.00     0.125 C 
HETATM   28  C10 UNL     1      40.313 -21.189  26.637  1.00  0.00     0.020 C 
HETATM   29  C11 UNL     1      41.489 -20.240  26.748  1.00  0.00     0.003 C 
HETATM   30  C12 UNL     1      42.017 -20.192  28.167  1.00  0.00     0.020 C 
ENDBRANCH  22  23
ENDBRANCH  21  22
ENDBRANCH  20  21
BRANCH  20  31
HETATM   31  C14 UNL     1      37.143 -15.568  28.777  1.00  0.00     0.119 C 
BRANCH  31  32
HETATM   32  C15 UNL     1      35.775 -15.090  29.041  1.00  0.00     0.172 C 
HETATM   33  O3  UNL     1      34.817 -15.783  29.437  1.00  0.00    -0.648 OA
HETATM   34  O4  UNL     1      35.577 -13.710  28.808  1.00  0.00    -0.648 OA
ENDBRANCH  31  32
ENDBRANCH  20  31
ENDBRANCH  19  20
ENDBRANCH   1  19
TORSDOF 11
ENDMDL
MODEL 2
REMARK VINA RESULT: -7.280307172      1.167      1.751
REMARK  11 active torsions:
REMARK  status: ('A' for Active; 'I' for Inactive)
REMARK       I    between atoms: N1_2  and  C2_3 
REMARK    1  A    between atoms: N1_2  and  C16_29 
REMARK       I    between atoms: C2_3  and  N2_5 
REMARK    2  A    between atoms: N2_5  and  N3_7 
REMARK    3  A    between atoms: N3_7  and  C3_9 
REMARK    4  A    between atoms: C3_9  and  N4_11 
REMARK    5  A    between atoms: N4_11  and  C4_13 
REMARK    6  A    between atoms: C4_13  and  C5_14 
REMARK    7  A    between atoms: C5_14  and  C6_15 
REMARK    8  A    between atoms: C5_14  and  C14_25 
REMARK    9  A    between atoms: C6_15  and  C7_16 
REMARK   10  A    between atoms: C7_16  and  C8_17 
REMARK       I    between atoms: C8_17  and  N5_19 
REMARK   11  A    between atoms: C14_25  and  C15_26 
ROOT
HETATM    1  N4  UNL     1      37.801 -15.577  25.635  1.00  0.00    -0.366 N 
ATOM      2  H4  UNL     1      37.064 -15.068  25.147  1.00  0.00     0.161 HD
ENDROOT
BRANCH   1   3
HETATM    3  C3  UNL     1      38.253 -16.759  25.019  1.00  0.00     0.186 C 
HETATM    4  S1  UNL     1      39.906 -17.032  24.956  1.00  0.00    -0.040 SA
BRANCH   3   5
HETATM    5  N3  UNL     1      37.419 -17.707  24.464  1.00  0.00    -0.272 N 
ATOM      6  H3  UNL     1      37.072 -17.509  23.525  1.00  0.00     0.189 HD
BRANCH   5   7
HETATM    7  N2  UNL     1      37.002 -18.890  25.033  1.00  0.00    -0.249 N 
HETATM    8  C2  UNL     1      36.626 -19.997  24.187  1.00  0.00     0.337 C 
HETATM    9  N1  UNL     1      36.194 -21.222  24.727  1.00  0.00    -0.333 N 
HETATM   10  O1  UNL     1      36.709 -19.807  22.932  1.00  0.00    -0.245 OA
HETATM   11  C1  UNL     1      36.085 -21.384  26.152  1.00  0.00     0.155 C 
ATOM     12  H2  UNL     1      36.958 -18.983  26.048  1.00  0.00     0.192 HD
BRANCH   9  13
HETATM   13  C16 UNL     1      35.882 -22.325  23.857  1.00  0.00     0.088 C 
HETATM   14  C17 UNL     1      34.546 -22.179  23.149  1.00  0.00     0.025 C 
HETATM   15  C18 UNL     1      34.084 -23.521  22.609  1.00  0.00     0.002 C 
HETATM   16  C19 UNL     1      35.258 -24.453  22.379  1.00  0.00     0.000 C 
HETATM   17  C20 UNL     1      36.015 -24.745  23.633  1.00  0.00     0.002 C 
HETATM   18  C21 UNL     1      35.904 -23.631  24.639  1.00  0.00     0.025 C 
ENDBRANCH   9  13
ENDBRANCH   5   7
ENDBRANCH   3   5
ENDBRANCH   1   3
BRANCH   1  19
HETATM   19  C4  UNL     1      38.255 -15.003  26.870  1.00  0.00     0.127 C 
BRANCH  19  20
HETATM   20  C5  UNL     1      37.646 -15.847  28.016  1.00  0.00     0.014 C 
BRANCH  20  21
HETATM   21  C6  UNL     1      38.720 -16.787  28.531  1.00  0.00     0.016 C 
BRANCH  21  22
HETATM   22  C7  UNL     1      38.218 -18.109  28.991  1.00  0.00     0.103 C 
BRANCH  22  23
HETATM   23  C8  UNL     1      39.377 -18.940  29.430  1.00  0.00     0.219 C 
HETATM   24  O2  UNL     1      39.888 -18.721  30.589  1.00  0.00    -0.273 OA
HETATM   25  N5  UNL     1      39.962 -19.963  28.659  1.00  0.00    -0.352 N 
HETATM   26  C9  UNL     1      39.493 -20.329  27.335  1.00  0.00     0.125 C 
HETATM   27  C13 UNL     1      41.087 -20.713  29.168  1.00  0.00     0.125 C 
HETATM   28  C10 UNL     1      40.700 -20.676  26.499  1.00  0.00     0.020 C 
HETATM   29  C11 UNL     1      41.941 -19.935  26.956  1.00  0.00     0.003 C 
HETATM   30  C12 UNL     1      42.320 -20.328  28.370  1.00  0.00     0.020 C 
ENDBRANCH  22  23
ENDBRANCH  21  22
ENDBRANCH  20  21
BRANCH  20  31
HETATM   31  C14 UNL     1      37.146 -14.928  29.075  1.00  0.00     0.119 C 
BRANCH  31  32
HETATM   32  C15 UNL     1      35.695 -14.678  29.052  1.00  0.00     0.172 C 
HETATM   33  O3  UNL     1      35.137 -13.611  28.734  1.00  0.00    -0.648 OA
HETATM   34  O4  UNL     1      34.901 -15.783  29.437  1.00  0.00    -0.648 OA
ENDBRANCH  31  32
ENDBRANCH  20  31
ENDBRANCH  19  20
ENDBRANCH   1  19
TORSDOF 11
ENDMDL
MODEL 3
REMARK VINA RESULT: -7.146091526      5.488      8.987
REMARK  11 active torsions:
REMARK  status: ('A' for Active; 'I' for Inactive)
REMARK       I    between atoms: N1_2  and  C2_3 
REMARK    1  A    between atoms: N1_2  and  C16_29 
REMARK       I    between atoms: C2_3  and  N2_5 
REMARK    2  A    between atoms: N2_5  and  N3_7 
REMARK    3  A    between atoms: N3_7  and  C3_9 
REMARK    4  A    between atoms: C3_9  and  N4_11 
REMARK    5  A    between atoms: N4_11  and  C4_13 
REMARK    6  A    between atoms: C4_13  and  C5_14 
REMARK    7  A    between atoms: C5_14  and  C6_15 
REMARK    8  A    between atoms: C5_14  and  C14_25 
REMARK    9  A    between atoms: C6_15  and  C7_16 
REMARK   10  A    between atoms: C7_16  and  C8_17 
REMARK       I    between atoms: C8_17  and  N5_19 
REMARK   11  A    between atoms: C14_25  and  C15_26 
ROOT
HETATM    1  N4  UNL     1      42.850 -22.223  31.030  1.00  0.00    -0.366 N 
ATOM      2  H4  UNL     1      42.908 -22.313  32.045  1.00  0.00     0.161 HD
ENDROOT
BRANCH   1   3
HETATM    3  C3  UNL     1      41.555 -22.125  30.488  1.00  0.00     0.186 C 
HETATM    4  S1  UNL     1      40.888 -23.496  29.788  1.00  0.00    -0.040 SA
BRANCH   3   5
HETATM    5  N3  UNL     1      40.800 -20.971  30.498  1.00  0.00    -0.272 N 
ATOM      6  H3  UNL     1      40.787 -20.447  31.373  1.00  0.00     0.189 HD
BRANCH   5   7
HETATM    7  N2  UNL     1      40.060 -20.447  29.461  1.00  0.00    -0.249 N 
HETATM    8  C2  UNL     1      39.527 -19.110  29.567  1.00  0.00     0.337 C 
HETATM    9  N1  UNL     1      38.767 -18.537  28.532  1.00  0.00    -0.333 N 
HETATM   10  O1  UNL     1      39.782 -18.480  30.642  1.00  0.00    -0.245 OA
HETATM   11  C1  UNL     1      38.474 -19.295  27.345  1.00  0.00     0.155 C 
ATOM     12  H2  UNL     1      39.890 -21.001  28.621  1.00  0.00     0.192 HD
BRANCH   9  13
HETATM   13  C16 UNL     1      38.298 -17.180  28.645  1.00  0.00     0.088 C 
HETATM   14  C17 UNL     1      36.849 -17.076  29.089  1.00  0.00     0.025 C 
HETATM   15  C18 UNL     1      36.299 -15.695  28.777  1.00  0.00     0.002 C 
HETATM   16  C19 UNL     1      37.411 -14.668  28.692  1.00  0.00     0.000 C 
HETATM   17  C20 UNL     1      38.399 -14.977  27.617  1.00  0.00     0.002 C 
HETATM   18  C21 UNL     1      38.480 -16.452  27.322  1.00  0.00     0.025 C 
ENDBRANCH   9  13
ENDBRANCH   5   7
ENDBRANCH   3   5
ENDBRANCH   1   3
BRANCH   1  19
HETATM   19  C4  UNL     1      44.099 -22.212  30.323  1.00  0.00     0.127 C 
BRANCH  19  20
HETATM   20  C5  UNL     1      44.408 -20.738  29.965  1.00  0.00     0.014 C 
BRANCH  20  21
HETATM   21  C6  UNL     1      45.588 -20.287  30.804  1.00  0.00     0.016 C 
BRANCH  21  22
HETATM   22  C7  UNL     1      46.917 -20.705  30.281  1.00  0.00     0.103 C 
BRANCH  22  23
HETATM   23  C8  UNL     1      47.660 -21.416  31.361  1.00  0.00     0.219 C 
HETATM   24  O2  UNL     1      46.992 -21.952  32.319  1.00  0.00    -0.273 OA
HETATM   25  N5  UNL     1      49.061 -21.547  31.412  1.00  0.00    -0.352 N 
HETATM   26  C9  UNL     1      49.949 -21.001  30.402  1.00  0.00     0.125 C 
HETATM   27  C13 UNL     1      49.693 -22.252  32.503  1.00  0.00     0.125 C 
HETATM   28  C10 UNL     1      51.188 -20.499  31.101  1.00  0.00     0.020 C 
HETATM   29  C11 UNL     1      50.904 -20.070  32.526  1.00  0.00     0.003 C 
HETATM   30  C12 UNL     1      50.431 -21.241  33.363  1.00  0.00     0.020 C 
ENDBRANCH  22  23
ENDBRANCH  21  22
ENDBRANCH  20  21
BRANCH  20  31
HETATM   31  C14 UNL     1      44.685 -20.647  28.506  1.00  0.00     0.119 C 
BRANCH  31  32
HETATM   32  C15 UNL     1      43.527 -20.902  27.632  1.00  0.00     0.172 C 
HETATM   33  O3  UNL     1      43.462 -21.757  26.728  1.00  0.00    -0.648 OA
HETATM   34  O4  UNL     1      42.408 -20.074  27.880  1.00  0.00    -0.648 OA
ENDBRANCH  31  32
ENDBRANCH  20  31
ENDBRANCH  19  20
ENDBRANCH   1  19
TORSDOF 11
ENDMDL
MODEL 4
REMARK VINA RESULT: -7.094220786      1.250      1.517
REMARK  11 active torsions:
REMARK  status: ('A' for Active; 'I' for Inactive)
REMARK       I    between atoms: N1_2  and  C2_3 
REMARK    1  A    between atoms: N1_2  and  C16_29 
REMARK       I    between atoms: C2_3  and  N2_5 
REMARK    2  A    between atoms: N2_5  and  N3_7 
REMARK    3  A    between atoms: N3_7  and  C3_9 
REMARK    4  A    between atoms: C3_9  and  N4_11 
REMARK    5  A    between atoms: N4_11  and  C4_13 
REMARK    6  A    between atoms: C4_13  and  C5_14 
REMARK    7  A    between atoms: C5_14  and  C6_15 
REMARK    8  A    between atoms: C5_14  and  C14_25 
REMARK    9  A    between atoms: C6_15  and  C7_16 
REMARK   10  A    between atoms: C7_16  and  C8_17 
REMARK       I    between atoms: C8_17  and  N5_19 
REMARK   11  A    between atoms: C14_25  and  C15_26 
ROOT
HETATM    1  N4  UNL     1      38.632 -15.221  26.386  1.00  0.00    -0.366 N 
ATOM      2  H4  UNL     1      38.458 -14.225  26.249  1.00  0.00     0.161 HD
ENDROOT
BRANCH   1   3
HETATM    3  C3  UNL     1      38.487 -16.039  25.249  1.00  0.00     0.186 C 
HETATM    4  S1  UNL     1      39.592 -15.854  24.001  1.00  0.00    -0.040 SA
BRANCH   3   5
HETATM    5  N3  UNL     1      37.493 -16.983  25.099  1.00  0.00    -0.272 N 
ATOM      6  H3  UNL     1      36.792 -17.022  25.838  1.00  0.00     0.189 HD
BRANCH   5   7
HETATM    7  N2  UNL     1      37.341 -17.879  24.064  1.00  0.00    -0.249 N 
HETATM    8  C2  UNL     1      36.932 -19.234  24.346  1.00  0.00     0.337 C 
HETATM    9  N1  UNL     1      36.764 -20.181  23.320  1.00  0.00    -0.333 N 
HETATM   10  O1  UNL     1      36.731 -19.525  25.568  1.00  0.00    -0.245 OA
HETATM   11  C1  UNL     1      37.034 -19.820  21.954  1.00  0.00     0.155 C 
ATOM     12  H2  UNL     1      37.516 -17.587  23.103  1.00  0.00     0.192 HD
BRANCH   9  13
HETATM   13  C16 UNL     1      36.301 -21.509  23.629  1.00  0.00     0.088 C 
HETATM   14  C17 UNL     1      37.425 -22.497  23.891  1.00  0.00     0.025 C 
HETATM   15  C18 UNL     1      36.911 -23.921  23.780  1.00  0.00     0.002 C 
HETATM   16  C19 UNL     1      35.419 -23.989  24.041  1.00  0.00     0.000 C 
HETATM   17  C20 UNL     1      34.627 -23.182  23.066  1.00  0.00     0.002 C 
HETATM   18  C21 UNL     1      35.415 -22.028  22.506  1.00  0.00     0.025 C 
ENDBRANCH   9  13
ENDBRANCH   5   7
ENDBRANCH   3   5
ENDBRANCH   1   3
BRANCH   1  19
HETATM   19  C4  UNL     1      38.996 -15.623  27.714  1.00  0.00     0.127 C 
BRANCH  19  20
HETATM   20  C5  UNL     1      37.695 -16.062  28.431  1.00  0.00     0.014 C 
BRANCH  20  21
HETATM   21  C6  UNL     1      38.022 -17.252  29.313  1.00  0.00     0.016 C 
BRANCH  21  22
HETATM   22  C7  UNL     1      38.411 -18.483  28.576  1.00  0.00     0.103 C 
BRANCH  22  23
HETATM   23  C8  UNL     1      39.541 -19.141  29.294  1.00  0.00     0.219 C 
HETATM   24  O2  UNL     1      39.911 -18.665  30.429  1.00  0.00    -0.273 OA
HETATM   25  N5  UNL     1      40.245 -20.263  28.815  1.00  0.00    -0.352 N 
HETATM   26  C9  UNL     1      39.942 -20.914  27.554  1.00  0.00     0.125 C 
HETATM   27  C13 UNL     1      41.331 -20.829  29.581  1.00  0.00     0.125 C 
HETATM   28  C10 UNL     1      41.247 -21.352  26.936  1.00  0.00     0.020 C 
HETATM   29  C11 UNL     1      42.402 -20.464  27.356  1.00  0.00     0.003 C 
HETATM   30  C12 UNL     1      42.632 -20.543  28.851  1.00  0.00     0.020 C 
ENDBRANCH  22  23
ENDBRANCH  21  22
ENDBRANCH  20  21
BRANCH  20  31
HETATM   31  C14 UNL     1      37.164 -14.911  29.211  1.00  0.00     0.119 C 
BRANCH  31  32
HETATM   32  C15 UNL     1      35.928 -14.313  28.679  1.00  0.00     0.172 C 
HETATM   33  O3  UNL     1      34.855 -14.171  29.296  1.00  0.00    -0.648 OA
HETATM   34  O4  UNL     1      36.014 -13.875  27.337  1.00  0.00    -0.648 OA
ENDBRANCH  31  32
ENDBRANCH  20  31
ENDBRANCH  19  20
ENDBRANCH   1  19
TORSDOF 11
ENDMDL
MODEL 5
REMARK VINA RESULT: -7.060129708      3.383      6.846
REMARK  11 active torsions:
REMARK  status: ('A' for Active; 'I' for Inactive)
REMARK       I    between atoms: N1_2  and  C2_3 
REMARK    1  A    between atoms: N1_2  and  C16_29 
REMARK       I    between atoms: C2_3  and  N2_5 
REMARK    2  A    between atoms: N2_5  and  N3_7 
REMARK    3  A    between atoms: N3_7  and  C3_9 
REMARK    4  A    between atoms: C3_9  and  N4_11 
REMARK    5  A    between atoms: N4_11  and  C4_13 
REMARK    6  A    between atoms: C4_13  and  C5_14 
REMARK    7  A    between atoms: C5_14  and  C6_15 
REMARK    8  A    between atoms: C5_14  and  C14_25 
REMARK    9  A    between atoms: C6_15  and  C7_16 
REMARK   10  A    between atoms: C7_16  and  C8_17 
REMARK       I    between atoms: C8_17  and  N5_19 
REMARK   11  A    between atoms: C14_25  and  C15_26 
ROOT
HETATM    1  N4  UNL     1      39.818 -21.040  25.903  1.00  0.00    -0.366 N 
ATOM      2  H4  UNL     1      40.057 -22.031  25.916  1.00  0.00     0.161 HD
ENDROOT
BRANCH   1   3
HETATM    3  C3  UNL     1      38.461 -20.732  25.687  1.00  0.00     0.186 C 
HETATM    4  S1  UNL     1      37.893 -20.743  24.109  1.00  0.00    -0.040 SA
BRANCH   3   5
HETATM    5  N3  UNL     1      37.571 -20.421  26.693  1.00  0.00    -0.272 N 
ATOM      6  H3  UNL     1      36.720 -20.982  26.732  1.00  0.00     0.189 HD
BRANCH   5   7
HETATM    7  N2  UNL     1      37.700 -19.439  27.651  1.00  0.00    -0.249 N 
HETATM    8  C2  UNL     1      37.295 -18.088  27.348  1.00  0.00     0.337 C 
HETATM    9  N1  UNL     1      37.409 -17.056  28.296  1.00  0.00    -0.333 N 
HETATM   10  O1  UNL     1      36.829 -17.881  26.182  1.00  0.00    -0.245 OA
HETATM   11  C1  UNL     1      37.972 -17.325  29.593  1.00  0.00     0.155 C 
ATOM     12  H2  UNL     1      38.080 -19.666  28.570  1.00  0.00     0.192 HD
BRANCH   9  13
HETATM   13  C16 UNL     1      36.943 -15.730  27.982  1.00  0.00     0.088 C 
HETATM   14  C17 UNL     1      38.033 -14.815  27.451  1.00  0.00     0.025 C 
HETATM   15  C18 UNL     1      37.599 -13.364  27.551  1.00  0.00     0.002 C 
HETATM   16  C19 UNL     1      36.088 -13.242  27.561  1.00  0.00     0.000 C 
HETATM   17  C20 UNL     1      35.463 -13.946  28.720  1.00  0.00     0.002 C 
HETATM   18  C21 UNL     1      36.299 -15.098  29.208  1.00  0.00     0.025 C 
ENDBRANCH   9  13
ENDBRANCH   5   7
ENDBRANCH   3   5
ENDBRANCH   1   3
BRANCH   1  19
HETATM   19  C4  UNL     1      40.903 -20.124  26.108  1.00  0.00     0.127 C 
BRANCH  19  20
HETATM   20  C5  UNL     1      41.719 -20.645  27.316  1.00  0.00     0.014 C 
BRANCH  20  21
HETATM   21  C6  UNL     1      43.188 -20.388  27.039  1.00  0.00     0.016 C 
BRANCH  21  22
HETATM   22  C7  UNL     1      44.116 -21.388  27.630  1.00  0.00     0.103 C 
BRANCH  22  23
HETATM   23  C8  UNL     1      45.097 -20.682  28.503  1.00  0.00     0.219 C 
HETATM   24  O2  UNL     1      46.014 -19.970  27.950  1.00  0.00    -0.273 OA
HETATM   25  N5  UNL     1      45.096 -20.736  29.910  1.00  0.00    -0.352 N 
HETATM   26  C9  UNL     1      44.124 -21.493  30.678  1.00  0.00     0.125 C 
HETATM   27  C13 UNL     1      46.093 -20.019  30.672  1.00  0.00     0.125 C 
HETATM   28  C10 UNL     1      44.837 -22.086  31.867  1.00  0.00     0.020 C 
HETATM   29  C11 UNL     1      46.306 -22.332  31.586  1.00  0.00     0.003 C 
HETATM   30  C12 UNL     1      47.031 -21.032  31.305  1.00  0.00     0.020 C 
ENDBRANCH  22  23
ENDBRANCH  21  22
ENDBRANCH  20  21
BRANCH  20  31
HETATM   31  C14 UNL     1      41.248 -19.955  28.547  1.00  0.00     0.119 C 
BRANCH  31  32
HETATM   32  C15 UNL     1      40.359 -20.752  29.410  1.00  0.00     0.172 C 
HETATM   33  O3  UNL     1      39.390 -21.438  29.032  1.00  0.00    -0.648 OA
HETATM   34  O4  UNL     1      40.674 -20.703  30.787  1.00  0.00    -0.648 OA
ENDBRANCH  31  32
ENDBRANCH  20  31
ENDBRANCH  19  20
ENDBRANCH   1  19
TORSDOF 11
ENDMDL
