MODEL 1
REMARK VINA RESULT: -8.109832080      0.000      0.000
REMARK  9 active torsions:
REMARK  status: ('A' for Active; 'I' for Inactive)
REMARK    1  A    between atoms: C2_2  and  C5_5 
REMARK       I    between atoms: C5_5  and  N1_7 
REMARK    2  A    between atoms: N1_7  and  C6_9 
REMARK    3  A    between atoms: C6_9  and  C7_10 
REMARK    4  A    between atoms: C7_10  and  N2_11 
REMARK       I    between atoms: N2_11  and  C8_13 
REMARK    5  A    between atoms: C8_13  and  C9_15 
REMARK    6  A    between atoms: C10_16  and  C11_17 
REMARK    7  A    between atoms: C14_20  and  N3_21 
REMARK       I    between atoms: N3_21  and  C15_23 
REMARK    8  A    between atoms: C15_23  and  C16_25 
REMARK    9  A    between atoms: C21_31  and  O4_32 
ROOT
HETATM    1  C11 UNL     1      43.246 -20.638  28.347  1.00  0.00    -0.036 A 
HETATM    2  C12 UNL     1      44.372 -20.276  27.701  1.00  0.00     0.013 A 
HETATM    3  C13 UNL     1      45.600 -20.225  28.395  1.00  0.00     0.030 A 
HETATM    4  C14 UNL     1      45.711 -20.530  29.720  1.00  0.00     0.035 A 
HETATM    5  C22 UNL     1      44.533 -20.906  30.384  1.00  0.00     0.030 A 
HETATM    6  C23 UNL     1      43.332 -20.956  29.709  1.00  0.00     0.013 A 
ENDROOT
BRANCH   1   7
HETATM    7  C10 UNL     1      41.956 -20.739  27.731  1.00  0.00     0.017 C 
HETATM    8  C9  UNL     1      40.854 -20.686  28.440  1.00  0.00     0.075 C 
BRANCH   8   9
HETATM    9  C8  UNL     1      39.499 -20.776  27.959  1.00  0.00     0.241 C 
HETATM   10  N2  UNL     1      39.191 -20.312  26.628  1.00  0.00    -0.356 N 
ATOM     11  H2  UNL     1      39.928 -19.929  26.036  1.00  0.00     0.162 HD
HETATM   12  O2  UNL     1      38.604 -21.250  28.691  1.00  0.00    -0.269 OA
BRANCH  10  13
HETATM   13  C7  UNL     1      37.844 -20.392  26.136  1.00  0.00     0.142 C 
BRANCH  13  14
HETATM   14  C6  UNL     1      37.198 -19.083  25.909  1.00  0.00     0.142 C 
BRANCH  14  15
HETATM   15  N1  UNL     1      37.239 -18.143  26.965  1.00  0.00    -0.359 N 
HETATM   16  C5  UNL     1      37.230 -16.771  27.090  1.00  0.00     0.225 C 
HETATM   17  O1  UNL     1      37.190 -15.890  26.214  1.00  0.00    -0.273 OA
ATOM     18  H1  UNL     1      37.287 -18.602  27.875  1.00  0.00     0.162 HD
BRANCH  16  19
HETATM   19  C2  UNL     1      37.275 -16.170  28.502  1.00  0.00     0.030 C 
HETATM   20  C1  UNL     1      38.122 -17.107  29.327  1.00  0.00     0.024 C 
HETATM   21  C3  UNL     1      37.941 -14.815  28.339  1.00  0.00     0.024 C 
HETATM   22  C4  UNL     1      35.900 -15.958  29.051  1.00  0.00     0.024 C 
ENDBRANCH  16  19
ENDBRANCH  14  15
ENDBRANCH  13  14
ENDBRANCH  10  13
ENDBRANCH   8   9
ENDBRANCH   1   7
BRANCH   4  23
HETATM   23  N3  UNL     1      46.891 -20.473  30.494  1.00  0.00    -0.323 N 
HETATM   24  C15 UNL     1      47.735 -21.599  30.730  1.00  0.00     0.259 C 
HETATM   25  O3  UNL     1      47.400 -22.675  30.202  1.00  0.00    -0.267 OA
ATOM     26  H3  UNL     1      47.154 -19.578  30.906  1.00  0.00     0.169 HD
BRANCH  24  27
HETATM   27  C16 UNL     1      48.940 -21.530  31.548  1.00  0.00     0.066 A 
HETATM   28  C17 UNL     1      50.027 -20.787  31.119  1.00  0.00     0.039 A 
HETATM   29  C18 UNL     1      51.165 -20.717  31.876  1.00  0.00     0.012 A 
HETATM   30 BR1  UNL     1      52.640 -19.683  31.258  1.00  0.00    -0.051 Br
HETATM   31  C19 UNL     1      51.232 -21.391  33.074  1.00  0.00     0.022 A 
HETATM   32  C20 UNL     1      50.186 -22.130  33.526  1.00  0.00     0.039 A 
HETATM   33  C21 UNL     1      49.009 -22.201  32.742  1.00  0.00     0.081 A 
BRANCH  33  34
HETATM   34  O4  UNL     1      48.018 -22.963  33.277  1.00  0.00    -0.360 OA
ATOM     35  H4  UNL     1      47.881 -23.117  34.204  1.00  0.00     0.217 HD
ENDBRANCH  33  34
ENDBRANCH  24  27
ENDBRANCH   4  23
TORSDOF 9
ENDMDL
MODEL 2
REMARK VINA RESULT: -8.001829939      1.350      2.110
REMARK  9 active torsions:
REMARK  status: ('A' for Active; 'I' for Inactive)
REMARK    1  A    between atoms: C2_2  and  C5_5 
REMARK       I    between atoms: C5_5  and  N1_7 
REMARK    2  A    between atoms: N1_7  and  C6_9 
REMARK    3  A    between atoms: C6_9  and  C7_10 
REMARK    4  A    between atoms: C7_10  and  N2_11 
REMARK       I    between atoms: N2_11  and  C8_13 
REMARK    5  A    between atoms: C8_13  and  C9_15 
REMARK    6  A    between atoms: C10_16  and  C11_17 
REMARK    7  A    between atoms: C14_20  and  N3_21 
REMARK       I    between atoms: N3_21  and  C15_23 
REMARK    8  A    between atoms: C15_23  and  C16_25 
REMARK    9  A    between atoms: C21_31  and  O4_32 
ROOT
HETATM    1  C11 UNL     1      43.401 -21.473  30.263  1.00  0.00    -0.036 A 
HETATM    2  C12 UNL     1      44.038 -21.911  31.368  1.00  0.00     0.013 A 
HETATM    3  C13 UNL     1      45.366 -21.506  31.626  1.00  0.00     0.030 A 
HETATM    4  C14 UNL     1      46.057 -20.673  30.796  1.00  0.00     0.035 A 
HETATM    5  C22 UNL     1      45.385 -20.221  29.650  1.00  0.00     0.030 A 
HETATM    6  C23 UNL     1      44.089 -20.615  29.394  1.00  0.00     0.013 A 
ENDROOT
BRANCH   1   7
HETATM    7  C10 UNL     1      42.051 -21.809  29.921  1.00  0.00     0.017 C 
HETATM    8  C9  UNL     1      41.329 -21.033  29.148  1.00  0.00     0.075 C 
BRANCH   8   9
HETATM    9  C8  UNL     1      39.968 -21.242  28.725  1.00  0.00     0.241 C 
HETATM   10  N2  UNL     1      39.361 -20.305  27.811  1.00  0.00    -0.356 N 
ATOM     11  H2  UNL     1      39.896 -19.506  27.469  1.00  0.00     0.162 HD
HETATM   12  O2  UNL     1      39.324 -22.226  29.148  1.00  0.00    -0.269 OA
BRANCH  10  13
HETATM   13  C7  UNL     1      38.005 -20.497  27.383  1.00  0.00     0.142 C 
BRANCH  13  14
HETATM   14  C6  UNL     1      37.375 -19.301  26.789  1.00  0.00     0.142 C 
BRANCH  14  15
HETATM   15  N1  UNL     1      37.286 -18.142  27.594  1.00  0.00    -0.359 N 
HETATM   16  C5  UNL     1      37.215 -16.781  27.392  1.00  0.00     0.225 C 
HETATM   17  O1  UNL     1      37.221 -16.130  26.333  1.00  0.00    -0.273 OA
ATOM     18  H1  UNL     1      37.269 -18.375  28.587  1.00  0.00     0.162 HD
BRANCH  16  19
HETATM   19  C2  UNL     1      37.111 -15.869  28.623  1.00  0.00     0.030 C 
HETATM   20  C1  UNL     1      37.911 -16.543  29.710  1.00  0.00     0.024 C 
HETATM   21  C3  UNL     1      37.742 -14.554  28.200  1.00  0.00     0.024 C 
HETATM   22  C4  UNL     1      35.685 -15.611  28.995  1.00  0.00     0.024 C 
ENDBRANCH  16  19
ENDBRANCH  14  15
ENDBRANCH  13  14
ENDBRANCH  10  13
ENDBRANCH   8   9
ENDBRANCH   1   7
BRANCH   4  23
HETATM   23  N3  UNL     1      47.392 -20.247  30.964  1.00  0.00    -0.323 N 
HETATM   24  C15 UNL     1      48.517 -21.122  30.880  1.00  0.00     0.259 C 
HETATM   25  O3  UNL     1      48.282 -22.318  30.629  1.00  0.00    -0.267 OA
ATOM     26  H3  UNL     1      47.563 -19.260  31.155  1.00  0.00     0.169 HD
BRANCH  24  27
HETATM   27  C16 UNL     1      49.889 -20.671  31.075  1.00  0.00     0.066 A 
HETATM   28  C17 UNL     1      50.342 -20.355  32.346  1.00  0.00     0.039 A 
HETATM   29  C18 UNL     1      51.627 -19.928  32.541  1.00  0.00     0.012 A 
HETATM   30 BR1  UNL     1      52.217 -19.506  34.301  1.00  0.00    -0.051 Br
HETATM   31  C19 UNL     1      52.479 -19.809  31.467  1.00  0.00     0.022 A 
HETATM   32  C20 UNL     1      52.070 -20.109  30.206  1.00  0.00     0.039 A 
HETATM   33  C21 UNL     1      50.740 -20.552  30.007  1.00  0.00     0.081 A 
BRANCH  33  34
HETATM   34  O4  UNL     1      50.424 -20.828  28.713  1.00  0.00    -0.360 OA
ATOM     35  H4  UNL     1      51.038 -21.108  28.044  1.00  0.00     0.217 HD
ENDBRANCH  33  34
ENDBRANCH  24  27
ENDBRANCH   4  23
TORSDOF 9
ENDMDL
MODEL 3
REMARK VINA RESULT: -7.974621798      1.457      1.781
REMARK  9 active torsions:
REMARK  status: ('A' for Active; 'I' for Inactive)
REMARK    1  A    between atoms: C2_2  and  C5_5 
REMARK       I    between atoms: C5_5  and  N1_7 
REMARK    2  A    between atoms: N1_7  and  C6_9 
REMARK    3  A    between atoms: C6_9  and  C7_10 
REMARK    4  A    between atoms: C7_10  and  N2_11 
REMARK       I    between atoms: N2_11  and  C8_13 
REMARK    5  A    between atoms: C8_13  and  C9_15 
REMARK    6  A    between atoms: C10_16  and  C11_17 
REMARK    7  A    between atoms: C14_20  and  N3_21 
REMARK       I    between atoms: N3_21  and  C15_23 
REMARK    8  A    between atoms: C15_23  and  C16_25 
REMARK    9  A    between atoms: C21_31  and  O4_32 
ROOT
HETATM    1  C11 UNL     1      43.601 -21.170  29.129  1.00  0.00    -0.036 A 
HETATM    2  C12 UNL     1      44.621 -20.703  28.383  1.00  0.00     0.013 A 
HETATM    3  C13 UNL     1      45.867 -20.422  28.985  1.00  0.00     0.030 A 
HETATM    4  C14 UNL     1      46.100 -20.604  30.317  1.00  0.00     0.035 A 
HETATM    5  C22 UNL     1      45.032 -21.092  31.085  1.00  0.00     0.030 A 
HETATM    6  C23 UNL     1      43.814 -21.366  30.500  1.00  0.00     0.013 A 
ENDROOT
BRANCH   1   7
HETATM    7  C10 UNL     1      42.307 -21.502  28.612  1.00  0.00     0.017 C 
HETATM    8  C9  UNL     1      41.219 -20.933  29.074  1.00  0.00     0.075 C 
BRANCH   8   9
HETATM    9  C8  UNL     1      39.862 -21.168  28.655  1.00  0.00     0.241 C 
HETATM   10  N2  UNL     1      39.239 -20.249  27.732  1.00  0.00    -0.356 N 
ATOM     11  H2  UNL     1      39.760 -19.445  27.381  1.00  0.00     0.162 HD
HETATM   12  O2  UNL     1      39.234 -22.158  29.088  1.00  0.00    -0.269 OA
BRANCH  10  13
HETATM   13  C7  UNL     1      37.885 -20.469  27.307  1.00  0.00     0.142 C 
BRANCH  13  14
HETATM   14  C6  UNL     1      37.216 -19.272  26.759  1.00  0.00     0.142 C 
BRANCH  14  15
HETATM   15  N1  UNL     1      37.188 -18.111  27.567  1.00  0.00    -0.359 N 
HETATM   16  C5  UNL     1      37.149 -16.749  27.366  1.00  0.00     0.225 C 
HETATM   17  O1  UNL     1      37.136 -16.098  26.307  1.00  0.00    -0.273 OA
ATOM     18  H1  UNL     1      37.200 -18.344  28.559  1.00  0.00     0.162 HD
BRANCH  16  19
HETATM   19  C2  UNL     1      37.115 -15.835  28.599  1.00  0.00     0.030 C 
HETATM   20  C1  UNL     1      37.807 -16.597  29.702  1.00  0.00     0.024 C 
HETATM   21  C3  UNL     1      37.899 -14.597  28.201  1.00  0.00     0.024 C 
HETATM   22  C4  UNL     1      35.718 -15.421  28.936  1.00  0.00     0.024 C 
ENDBRANCH  16  19
ENDBRANCH  14  15
ENDBRANCH  13  14
ENDBRANCH  10  13
ENDBRANCH   8   9
ENDBRANCH   1   7
BRANCH   4  23
HETATM   23  N3  UNL     1      47.302 -20.319  31.001  1.00  0.00    -0.323 N 
HETATM   24  C15 UNL     1      48.320 -21.289  31.246  1.00  0.00     0.259 C 
HETATM   25  O3  UNL     1      48.120 -22.437  30.809  1.00  0.00    -0.267 OA
ATOM     26  H3  UNL     1      47.450 -19.368  31.339  1.00  0.00     0.169 HD
BRANCH  24  27
HETATM   27  C16 UNL     1      49.547 -20.985  31.972  1.00  0.00     0.066 A 
HETATM   28  C17 UNL     1      49.798 -21.587  33.193  1.00  0.00     0.039 A 
HETATM   29  C18 UNL     1      50.946 -21.307  33.884  1.00  0.00     0.012 A 
HETATM   30 BR1  UNL     1      51.261 -22.156  35.559  1.00  0.00    -0.051 Br
HETATM   31  C19 UNL     1      51.858 -20.419  33.364  1.00  0.00     0.022 A 
HETATM   32  C20 UNL     1      51.646 -19.808  32.169  1.00  0.00     0.039 A 
HETATM   33  C21 UNL     1      50.458 -20.100  31.455  1.00  0.00     0.081 A 
BRANCH  33  34
HETATM   34  O4  UNL     1      50.334 -19.441  30.271  1.00  0.00    -0.360 OA
ATOM     35  H4  UNL     1      50.268 -19.852  29.417  1.00  0.00     0.217 HD
ENDBRANCH  33  34
ENDBRANCH  24  27
ENDBRANCH   4  23
TORSDOF 9
ENDMDL
MODEL 4
REMARK VINA RESULT: -7.766730738      1.552      2.019
REMARK  9 active torsions:
REMARK  status: ('A' for Active; 'I' for Inactive)
REMARK    1  A    between atoms: C2_2  and  C5_5 
REMARK       I    between atoms: C5_5  and  N1_7 
REMARK    2  A    between atoms: N1_7  and  C6_9 
REMARK    3  A    between atoms: C6_9  and  C7_10 
REMARK    4  A    between atoms: C7_10  and  N2_11 
REMARK       I    between atoms: N2_11  and  C8_13 
REMARK    5  A    between atoms: C8_13  and  C9_15 
REMARK    6  A    between atoms: C10_16  and  C11_17 
REMARK    7  A    between atoms: C14_20  and  N3_21 
REMARK       I    between atoms: N3_21  and  C15_23 
REMARK    8  A    between atoms: C15_23  and  C16_25 
REMARK    9  A    between atoms: C21_31  and  O4_32 
ROOT
HETATM    1  C11 UNL     1      43.477 -21.419  30.226  1.00  0.00    -0.036 A 
HETATM    2  C12 UNL     1      44.242 -20.605  29.473  1.00  0.00     0.013 A 
HETATM    3  C13 UNL     1      45.590 -20.373  29.827  1.00  0.00     0.030 A 
HETATM    4  C14 UNL     1      46.173 -20.943  30.920  1.00  0.00     0.035 A 
HETATM    5  C22 UNL     1      45.369 -21.790  31.698  1.00  0.00     0.030 A 
HETATM    6  C23 UNL     1      44.053 -22.019  31.355  1.00  0.00     0.013 A 
ENDROOT
BRANCH   1   7
HETATM    7  C10 UNL     1      42.109 -21.735  29.943  1.00  0.00     0.017 C 
HETATM    8  C9  UNL     1      41.390 -20.992  29.135  1.00  0.00     0.075 C 
BRANCH   8   9
HETATM    9  C8  UNL     1      40.012 -21.186  28.762  1.00  0.00     0.241 C 
HETATM   10  N2  UNL     1      39.335 -20.159  28.007  1.00  0.00    -0.356 N 
ATOM     11  H2  UNL     1      39.832 -19.309  27.740  1.00  0.00     0.162 HD
HETATM   12  O2  UNL     1      39.415 -22.232  29.091  1.00  0.00    -0.269 OA
BRANCH  10  13
HETATM   13  C7  UNL     1      37.960 -20.336  27.631  1.00  0.00     0.142 C 
BRANCH  13  14
HETATM   14  C6  UNL     1      37.364 -19.180  26.933  1.00  0.00     0.142 C 
BRANCH  14  15
HETATM   15  N1  UNL     1      37.293 -17.956  27.638  1.00  0.00    -0.359 N 
HETATM   16  C5  UNL     1      37.177 -16.620  27.323  1.00  0.00     0.225 C 
HETATM   17  O1  UNL     1      37.104 -16.065  26.213  1.00  0.00    -0.273 OA
ATOM     18  H1  UNL     1      37.341 -18.100  28.646  1.00  0.00     0.162 HD
BRANCH  16  19
HETATM   19  C2  UNL     1      37.123 -15.605  28.473  1.00  0.00     0.030 C 
HETATM   20  C1  UNL     1      35.671 -15.507  28.875  1.00  0.00     0.024 C 
HETATM   21  C3  UNL     1      37.968 -16.209  29.581  1.00  0.00     0.024 C 
HETATM   22  C4  UNL     1      37.728 -14.295  28.078  1.00  0.00     0.024 C 
ENDBRANCH  16  19
ENDBRANCH  14  15
ENDBRANCH  13  14
ENDBRANCH  10  13
ENDBRANCH   8   9
ENDBRANCH   1   7
BRANCH   4  23
HETATM   23  N3  UNL     1      47.499 -20.739  31.360  1.00  0.00    -0.323 N 
HETATM   24  C15 UNL     1      48.548 -21.688  31.174  1.00  0.00     0.259 C 
HETATM   25  O3  UNL     1      48.257 -22.739  30.574  1.00  0.00    -0.267 OA
ATOM     26  H3  UNL     1      47.719 -19.865  31.838  1.00  0.00     0.169 HD
BRANCH  24  27
HETATM   27  C16 UNL     1      49.909 -21.472  31.652  1.00  0.00     0.066 A 
HETATM   28  C17 UNL     1      50.687 -22.550  32.041  1.00  0.00     0.039 A 
HETATM   29  C18 UNL     1      51.964 -22.358  32.493  1.00  0.00     0.012 A 
HETATM   30 BR1  UNL     1      53.008 -23.862  33.017  1.00  0.00    -0.051 Br
HETATM   31  C19 UNL     1      52.481 -21.085  32.565  1.00  0.00     0.022 A 
HETATM   32  C20 UNL     1      51.747 -20.004  32.193  1.00  0.00     0.039 A 
HETATM   33  C21 UNL     1      50.426 -20.204  31.724  1.00  0.00     0.081 A 
BRANCH  33  34
HETATM   34  O4  UNL     1      49.771 -19.064  31.375  1.00  0.00    -0.360 OA
ATOM     35  H4  UNL     1      49.784 -18.250  31.864  1.00  0.00     0.217 HD
ENDBRANCH  33  34
ENDBRANCH  24  27
ENDBRANCH   4  23
TORSDOF 9
ENDMDL
MODEL 5
REMARK VINA RESULT: -7.674422351      1.645      2.104
REMARK  9 active torsions:
REMARK  status: ('A' for Active; 'I' for Inactive)
REMARK    1  A    between atoms: C2_2  and  C5_5 
REMARK       I    between atoms: C5_5  and  N1_7 
REMARK    2  A    between atoms: N1_7  and  C6_9 
REMARK    3  A    between atoms: C6_9  and  C7_10 
REMARK    4  A    between atoms: C7_10  and  N2_11 
REMARK       I    between atoms: N2_11  and  C8_13 
REMARK    5  A    between atoms: C8_13  and  C9_15 
REMARK    6  A    between atoms: C10_16  and  C11_17 
REMARK    7  A    between atoms: C14_20  and  N3_21 
REMARK       I    between atoms: N3_21  and  C15_23 
REMARK    8  A    between atoms: C15_23  and  C16_25 
REMARK    9  A    between atoms: C21_31  and  O4_32 
ROOT
HETATM    1  C11 UNL     1      44.090 -21.549  28.992  1.00  0.00    -0.036 A 
HETATM    2  C12 UNL     1      45.091 -22.340  28.559  1.00  0.00     0.013 A 
HETATM    3  C13 UNL     1      46.398 -22.169  29.068  1.00  0.00     0.030 A 
HETATM    4  C14 UNL     1      46.709 -21.222  29.998  1.00  0.00     0.035 A 
HETATM    5  C22 UNL     1      45.659 -20.403  30.443  1.00  0.00     0.030 A 
HETATM    6  C23 UNL     1      44.383 -20.567  29.948  1.00  0.00     0.013 A 
ENDROOT
BRANCH   1   7
HETATM    7  C10 UNL     1      42.730 -21.653  28.553  1.00  0.00     0.017 C 
HETATM    8  C9  UNL     1      41.730 -21.424  29.371  1.00  0.00     0.075 C 
BRANCH   8   9
HETATM    9  C8  UNL     1      40.322 -21.493  29.072  1.00  0.00     0.241 C 
HETATM   10  N2  UNL     1      39.725 -20.467  28.250  1.00  0.00    -0.356 N 
ATOM     11  H2  UNL     1      40.298 -19.707  27.885  1.00  0.00     0.162 HD
HETATM   12  O2  UNL     1      39.631 -22.431  29.521  1.00  0.00    -0.269 OA
BRANCH  10  13
HETATM   13  C7  UNL     1      38.323 -20.520  27.947  1.00  0.00     0.142 C 
BRANCH  13  14
HETATM   14  C6  UNL     1      37.824 -19.372  27.163  1.00  0.00     0.142 C 
BRANCH  14  15
HETATM   15  N1  UNL     1      37.658 -18.141  27.839  1.00  0.00    -0.359 N 
HETATM   16  C5  UNL     1      37.355 -16.842  27.500  1.00  0.00     0.225 C 
HETATM   17  O1  UNL     1      37.128 -16.339  26.386  1.00  0.00    -0.273 OA
ATOM     18  H1  UNL     1      37.801 -18.243  28.844  1.00  0.00     0.162 HD
BRANCH  16  19
HETATM   19  C2  UNL     1      37.265 -15.800  28.624  1.00  0.00     0.030 C 
HETATM   20  C1  UNL     1      37.894 -14.542  28.077  1.00  0.00     0.024 C 
HETATM   21  C3  UNL     1      35.780 -15.614  28.881  1.00  0.00     0.024 C 
HETATM   22  C4  UNL     1      37.904 -16.295  29.883  1.00  0.00     0.024 C 
ENDBRANCH  16  19
ENDBRANCH  14  15
ENDBRANCH  13  14
ENDBRANCH  10  13
ENDBRANCH   8   9
ENDBRANCH   1   7
BRANCH   4  23
HETATM   23  N3  UNL     1      47.990 -20.965  30.533  1.00  0.00    -0.323 N 
HETATM   24  C15 UNL     1      48.500 -21.605  31.702  1.00  0.00     0.259 C 
HETATM   25  O3  UNL     1      47.762 -22.443  32.253  1.00  0.00    -0.267 OA
ATOM     26  H3  UNL     1      48.583 -20.285  30.058  1.00  0.00     0.169 HD
BRANCH  24  27
HETATM   27  C16 UNL     1      49.818 -21.315  32.254  1.00  0.00     0.066 A 
HETATM   28  C17 UNL     1      50.505 -22.291  32.958  1.00  0.00     0.039 A 
HETATM   29  C18 UNL     1      51.741 -22.030  33.483  1.00  0.00     0.012 A 
HETATM   30 BR1  UNL     1      52.658 -23.395  34.443  1.00  0.00    -0.051 Br
HETATM   31  C19 UNL     1      52.309 -20.788  33.312  1.00  0.00     0.022 A 
HETATM   32  C20 UNL     1      51.665 -19.807  32.628  1.00  0.00     0.039 A 
HETATM   33  C21 UNL     1      50.386 -20.079  32.085  1.00  0.00     0.081 A 
BRANCH  33  34
HETATM   34  O4  UNL     1      49.822 -19.037  31.417  1.00  0.00    -0.360 OA
ATOM     35  H4  UNL     1      49.043 -19.087  30.875  1.00  0.00     0.217 HD
ENDBRANCH  33  34
ENDBRANCH  24  27
ENDBRANCH   4  23
TORSDOF 9
ENDMDL
