MODEL 1
REMARK VINA RESULT: -6.205012897      0.000      0.000
REMARK  2 active torsions:
REMARK  status: ('A' for Active; 'I' for Inactive)
REMARK    1  A    between atoms: C3_6  and  C4_7 
REMARK    2  A    between atoms: C4_7  and  S1_8 
ROOT
HETATM    1  O1  UNL     1      26.494 -43.423  11.244  1.00  0.00    -0.273 OA
HETATM    2  C1  UNL     1      26.164 -44.631  11.093  1.00  0.00     0.225 C 
HETATM    3  N1  UNL     1      27.227 -45.555  10.880  1.00  0.00    -0.360 N 
ATOM      4  H1  UNL     1      28.122 -45.284  11.288  1.00  0.00     0.162 HD
HETATM    5  C2  UNL     1      27.235 -46.810  10.178  1.00  0.00     0.128 C 
HETATM    6  C3  UNL     1      25.870 -47.394   9.988  1.00  0.00     0.017 C 
HETATM    7  C5  UNL     1      24.996 -46.596   9.079  1.00  0.00     0.041 C 
HETATM    8  C6  UNL     1      24.280 -45.549   9.857  1.00  0.00    -0.070 C 
HETATM    9  C7  UNL     1      23.179 -45.183   9.238  1.00  0.00    -0.023 C 
HETATM   10  C8  UNL     1      22.318 -44.151   9.845  1.00  0.00     0.027 C 
HETATM   11  C9  UNL     1      23.303 -43.118  10.418  1.00  0.00     0.005 C 
HETATM   12  C10 UNL     1      23.939 -43.785  11.611  1.00  0.00     0.019 C 
HETATM   13  C11 UNL     1      24.727 -44.984  11.148  1.00  0.00     0.106 C 
ENDROOT
BRANCH   6  14
HETATM   14  C4  UNL     1      25.993 -48.829   9.509  1.00  0.00     0.093 C 
BRANCH  14  15
HETATM   15  S1  UNL     1      25.132 -48.913   7.899  1.00  0.00    -0.085 SA
HETATM   16  S2  UNL     1      26.604 -48.781   6.362  1.00  0.00    -0.013 SA
ENDBRANCH  14  15
ENDBRANCH   6  14
TORSDOF 2
ENDMDL
MODEL 2
REMARK VINA RESULT: -6.066229713      1.277      1.545
REMARK  2 active torsions:
REMARK  status: ('A' for Active; 'I' for Inactive)
REMARK    1  A    between atoms: C3_6  and  C4_7 
REMARK    2  A    between atoms: C4_7  and  S1_8 
ROOT
HETATM    1  O1  UNL     1      24.654 -42.081  10.544  1.00  0.00    -0.273 OA
HETATM    2  C1  UNL     1      24.745 -43.333  10.674  1.00  0.00     0.225 C 
HETATM    3  N1  UNL     1      26.056 -43.883  10.595  1.00  0.00    -0.360 N 
ATOM      4  H1  UNL     1      26.806 -43.253  10.878  1.00  0.00     0.162 HD
HETATM    5  C2  UNL     1      26.487 -45.190  10.177  1.00  0.00     0.128 C 
HETATM    6  C3  UNL     1      25.395 -46.213  10.203  1.00  0.00     0.017 C 
HETATM    7  C5  UNL     1      24.316 -45.966   9.203  1.00  0.00     0.041 C 
HETATM    8  C6  UNL     1      23.285 -45.063   9.785  1.00  0.00    -0.070 C 
HETATM    9  C7  UNL     1      22.131 -45.223   9.174  1.00  0.00    -0.023 C 
HETATM   10  C8  UNL     1      20.971 -44.420   9.601  1.00  0.00     0.027 C 
HETATM   11  C9  UNL     1      21.551 -43.022   9.877  1.00  0.00     0.005 C 
HETATM   12  C10 UNL     1      22.359 -43.164  11.141  1.00  0.00     0.019 C 
HETATM   13  C11 UNL     1      23.505 -44.112  10.895  1.00  0.00     0.106 C 
ENDROOT
BRANCH   6  14
HETATM   14  C4  UNL     1      25.991 -47.598  10.033  1.00  0.00     0.093 C 
BRANCH  14  15
HETATM   15  S1  UNL     1      25.251 -48.298   8.516  1.00  0.00    -0.085 SA
HETATM   16  S2  UNL     1      26.827 -48.666   7.128  1.00  0.00    -0.013 SA
ENDBRANCH  14  15
ENDBRANCH   6  14
TORSDOF 2
ENDMDL
MODEL 3
REMARK VINA RESULT: -5.915866483      2.095      2.282
REMARK  2 active torsions:
REMARK  status: ('A' for Active; 'I' for Inactive)
REMARK    1  A    between atoms: C3_6  and  C4_7 
REMARK    2  A    between atoms: C4_7  and  S1_8 
ROOT
HETATM    1  O1  UNL     1      24.634 -42.040  10.513  1.00  0.00    -0.273 OA
HETATM    2  C1  UNL     1      24.737 -43.285  10.682  1.00  0.00     0.225 C 
HETATM    3  N1  UNL     1      26.057 -43.820  10.648  1.00  0.00    -0.360 N 
ATOM      4  H1  UNL     1      26.793 -43.172  10.928  1.00  0.00     0.162 HD
HETATM    5  C2  UNL     1      26.513 -45.133  10.279  1.00  0.00     0.128 C 
HETATM    6  C3  UNL     1      25.434 -46.169  10.311  1.00  0.00     0.017 C 
HETATM    7  C5  UNL     1      24.374 -45.966   9.281  1.00  0.00     0.041 C 
HETATM    8  C6  UNL     1      23.319 -45.061   9.814  1.00  0.00    -0.070 C 
HETATM    9  C7  UNL     1      22.182 -45.254   9.183  1.00  0.00    -0.023 C 
HETATM   10  C8  UNL     1      21.002 -44.454   9.560  1.00  0.00     0.027 C 
HETATM   11  C9  UNL     1      21.558 -43.041   9.808  1.00  0.00     0.005 C 
HETATM   12  C10 UNL     1      22.340 -43.135  11.093  1.00  0.00     0.019 C 
HETATM   13  C11 UNL     1      23.503 -44.074  10.899  1.00  0.00     0.106 C 
ENDROOT
BRANCH   6  14
HETATM   14  C4  UNL     1      26.052 -47.551  10.196  1.00  0.00     0.093 C 
BRANCH  14  15
HETATM   15  S1  UNL     1      27.659 -47.474  11.061  1.00  0.00    -0.085 SA
HETATM   16  S2  UNL     1      28.637 -49.350  10.793  1.00  0.00    -0.013 SA
ENDBRANCH  14  15
ENDBRANCH   6  14
TORSDOF 2
ENDMDL
MODEL 4
REMARK VINA RESULT: -5.839758463      1.615      1.696
REMARK  2 active torsions:
REMARK  status: ('A' for Active; 'I' for Inactive)
REMARK    1  A    between atoms: C3_6  and  C4_7 
REMARK    2  A    between atoms: C4_7  and  S1_8 
ROOT
HETATM    1  O1  UNL     1      26.157 -42.950  10.888  1.00  0.00    -0.273 OA
HETATM    2  C1  UNL     1      25.965 -44.196  10.889  1.00  0.00     0.225 C 
HETATM    3  N1  UNL     1      27.116 -45.014  10.702  1.00  0.00    -0.360 N 
ATOM      4  H1  UNL     1      27.994 -44.600  11.016  1.00  0.00     0.162 HD
HETATM    5  C2  UNL     1      27.233 -46.332  10.139  1.00  0.00     0.128 C 
HETATM    6  C3  UNL     1      25.939 -47.083  10.107  1.00  0.00     0.017 C 
HETATM    7  C5  UNL     1      24.927 -46.496   9.181  1.00  0.00     0.041 C 
HETATM    8  C6  UNL     1      24.137 -45.453   9.891  1.00  0.00    -0.070 C 
HETATM    9  C7  UNL     1      22.966 -45.285   9.314  1.00  0.00    -0.023 C 
HETATM   10  C8  UNL     1      22.025 -44.294   9.866  1.00  0.00     0.027 C 
HETATM   11  C9  UNL     1      22.911 -43.098  10.257  1.00  0.00     0.005 C 
HETATM   12  C10 UNL     1      23.688 -43.551  11.467  1.00  0.00     0.019 C 
HETATM   13  C11 UNL     1      24.585 -44.699  11.081  1.00  0.00     0.106 C 
ENDROOT
BRANCH   6  14
HETATM   14  C4  UNL     1      26.204 -48.540   9.776  1.00  0.00     0.093 C 
BRANCH  14  15
HETATM   15  S1  UNL     1      28.003 -48.687   9.490  1.00  0.00    -0.085 SA
HETATM   16  S2  UNL     1      28.901 -49.351  11.307  1.00  0.00    -0.013 SA
ENDBRANCH  14  15
ENDBRANCH   6  14
TORSDOF 2
ENDMDL
MODEL 5
REMARK VINA RESULT: -5.768152844      2.957      3.496
REMARK  2 active torsions:
REMARK  status: ('A' for Active; 'I' for Inactive)
REMARK    1  A    between atoms: C3_6  and  C4_7 
REMARK    2  A    between atoms: C4_7  and  S1_8 
ROOT
HETATM    1  O1  UNL     1      22.456 -45.647   8.763  1.00  0.00    -0.273 OA
HETATM    2  C1  UNL     1      23.680 -45.727   9.056  1.00  0.00     0.225 C 
HETATM    3  N1  UNL     1      24.341 -46.932   8.682  1.00  0.00    -0.360 N 
ATOM      4  H1  UNL     1      23.945 -47.408   7.872  1.00  0.00     0.162 HD
HETATM    5  C2  UNL     1      25.482 -47.582   9.271  1.00  0.00     0.128 C 
HETATM    6  C3  UNL     1      26.302 -46.678  10.135  1.00  0.00     0.017 C 
HETATM    7  C5  UNL     1      25.597 -46.225  11.371  1.00  0.00     0.041 C 
HETATM    8  C6  UNL     1      24.810 -44.995  11.082  1.00  0.00    -0.070 C 
HETATM    9  C7  UNL     1      24.605 -44.307  12.184  1.00  0.00    -0.023 C 
HETATM   10  C8  UNL     1      23.842 -43.047  12.116  1.00  0.00     0.027 C 
HETATM   11  C9  UNL     1      22.705 -43.338  11.123  1.00  0.00     0.005 C 
HETATM   12  C10 UNL     1      23.362 -43.419   9.769  1.00  0.00     0.019 C 
HETATM   13  C11 UNL     1      24.318 -44.585   9.750  1.00  0.00     0.106 C 
ENDROOT
BRANCH   6  14
HETATM   14  C4  UNL     1      27.619 -47.352  10.473  1.00  0.00     0.093 C 
BRANCH  14  15
HETATM   15  S1  UNL     1      28.093 -46.760  12.135  1.00  0.00    -0.085 SA
HETATM   16  S2  UNL     1      29.208 -44.959  11.895  1.00  0.00    -0.013 SA
ENDBRANCH  14  15
ENDBRANCH   6  14
TORSDOF 2
ENDMDL
