MODEL 1
REMARK VINA RESULT: -5.587997710      0.000      0.000
REMARK  5 active torsions:
REMARK  status: ('A' for Active; 'I' for Inactive)
REMARK    1  A    between atoms: C2_2  and  C3_3 
REMARK    2  A    between atoms: C11_11  and  O1_12 
REMARK    3  A    between atoms: C16_18  and  O2_19 
REMARK    4  A    between atoms: C16_18  and  C17_21 
REMARK    5  A    between atoms: C17_21  and  O3_22 
ROOT
HETATM    1  C3  UNL     1     -17.915  76.736   7.446  1.00  0.00    -0.020 C 
HETATM    2  C4  UNL     1     -17.848  77.906   6.573  1.00  0.00     0.020 C 
HETATM    3  C5  UNL     1     -18.178  77.244   8.876  1.00  0.00     0.013 C 
HETATM    4  C6  UNL     1     -19.511  77.877   8.973  1.00  0.00     0.002 C 
HETATM    5  C7  UNL     1     -20.582  77.271   8.141  1.00  0.00     0.013 C 
HETATM    6  C8  UNL     1     -20.291  75.867   7.679  1.00  0.00    -0.003 C 
HETATM    7  C9  UNL     1     -20.651  74.965   8.854  1.00  0.00     0.019 C 
HETATM    8  C10 UNL     1     -18.875  75.653   7.200  1.00  0.00     0.043 C 
HETATM    9  C11 UNL     1     -18.921  75.031   5.853  1.00  0.00     0.070 C 
HETATM   10  C12 UNL     1     -18.204  73.677   5.794  1.00  0.00     0.039 C 
HETATM   11  C13 UNL     1     -19.200  72.670   6.288  1.00  0.00     0.004 C 
HETATM   12  C14 UNL     1     -20.533  73.198   5.765  1.00  0.00     0.011 C 
HETATM   13  C15 UNL     1     -20.362  74.660   5.560  1.00  0.00     0.058 C 
HETATM   14  C16 UNL     1     -21.132  75.562   6.456  1.00  0.00     0.093 C 
ENDROOT
BRANCH  14  15
HETATM   15  O2  UNL     1     -21.354  76.767   5.735  1.00  0.00    -0.386 OA
ATOM     16  H2  UNL     1     -20.772  76.788   4.985  1.00  0.00     0.210 HD
ENDBRANCH  14  15
BRANCH  14  17
HETATM   17  C17 UNL     1     -22.524  75.101   6.791  1.00  0.00     0.203 C 
BRANCH  17  18
HETATM   18  O3  UNL     1     -23.304  75.349   5.637  1.00  0.00    -0.398 OA
ATOM     19  H3  UNL     1     -23.607  74.500   5.338  1.00  0.00     0.209 HD
ENDBRANCH  17  18
ENDBRANCH  14  17
BRANCH   9  20
HETATM   20  O1  UNL     1     -18.518  75.839   4.801  1.00  0.00    -0.389 OA
ATOM     21  H1  UNL     1     -18.677  75.495   3.931  1.00  0.00     0.210 HD
ENDBRANCH   9  20
BRANCH   1  22
HETATM   22  C2  UNL     1     -16.538  76.127   7.554  1.00  0.00    -0.027 C 
HETATM   23  C1  UNL     1     -16.161  75.303   8.505  1.00  0.00     0.007 C 
ENDBRANCH   1  22
TORSDOF 5
ENDMDL
MODEL 2
REMARK VINA RESULT: -5.527577763      6.827      9.380
REMARK  5 active torsions:
REMARK  status: ('A' for Active; 'I' for Inactive)
REMARK    1  A    between atoms: C2_2  and  C3_3 
REMARK    2  A    between atoms: C11_11  and  O1_12 
REMARK    3  A    between atoms: C16_18  and  O2_19 
REMARK    4  A    between atoms: C16_18  and  C17_21 
REMARK    5  A    between atoms: C17_21  and  O3_22 
ROOT
HETATM    1  C3  UNL     1     -12.088  82.813   4.914  1.00  0.00    -0.020 C 
HETATM    2  C4  UNL     1     -11.801  83.193   6.295  1.00  0.00     0.020 C 
HETATM    3  C5  UNL     1     -11.149  81.645   4.555  1.00  0.00     0.013 C 
HETATM    4  C6  UNL     1     -11.467  80.447   5.361  1.00  0.00     0.002 C 
HETATM    5  C7  UNL     1     -12.905  80.237   5.676  1.00  0.00     0.013 C 
HETATM    6  C8  UNL     1     -13.854  80.992   4.783  1.00  0.00    -0.003 C 
HETATM    7  C9  UNL     1     -13.978  80.153   3.515  1.00  0.00     0.019 C 
HETATM    8  C10 UNL     1     -13.436  82.414   4.494  1.00  0.00     0.043 C 
HETATM    9  C11 UNL     1     -14.576  83.313   4.805  1.00  0.00     0.070 C 
HETATM   10  C12 UNL     1     -15.033  84.140   3.597  1.00  0.00     0.039 C 
HETATM   11  C13 UNL     1     -15.955  83.246   2.821  1.00  0.00     0.004 C 
HETATM   12  C14 UNL     1     -16.675  82.446   3.903  1.00  0.00     0.011 C 
HETATM   13  C15 UNL     1     -15.787  82.447   5.095  1.00  0.00     0.058 C 
HETATM   14  C16 UNL     1     -15.185  81.145   5.488  1.00  0.00     0.093 C 
ENDROOT
BRANCH  14  15
HETATM   15  O2  UNL     1     -14.960  81.204   6.891  1.00  0.00    -0.386 OA
ATOM     16  H2  UNL     1     -14.856  82.112   7.149  1.00  0.00     0.210 HD
ENDBRANCH  14  15
BRANCH  14  17
HETATM   17  C17 UNL     1     -16.083  79.948   5.334  1.00  0.00     0.203 C 
BRANCH  17  18
HETATM   18  O3  UNL     1     -16.150  79.345   6.613  1.00  0.00    -0.398 OA
ATOM     19  H3  UNL     1     -15.696  78.514   6.533  1.00  0.00     0.209 HD
ENDBRANCH  17  18
ENDBRANCH  14  17
BRANCH   9  20
HETATM   20  O1  UNL     1     -14.419  84.125   5.918  1.00  0.00    -0.389 OA
ATOM     21  H1  UNL     1     -14.243  85.041   5.739  1.00  0.00     0.210 HD
ENDBRANCH   9  20
BRANCH   1  22
HETATM   22  C2  UNL     1     -11.617  83.915   3.996  1.00  0.00    -0.027 C 
HETATM   23  C1  UNL     1     -10.590  83.819   3.183  1.00  0.00     0.007 C 
ENDBRANCH   1  22
TORSDOF 5
ENDMDL
MODEL 3
REMARK VINA RESULT: -5.311612443      6.715      8.816
REMARK  5 active torsions:
REMARK  status: ('A' for Active; 'I' for Inactive)
REMARK    1  A    between atoms: C2_2  and  C3_3 
REMARK    2  A    between atoms: C11_11  and  O1_12 
REMARK    3  A    between atoms: C16_18  and  O2_19 
REMARK    4  A    between atoms: C16_18  and  C17_21 
REMARK    5  A    between atoms: C17_21  and  O3_22 
ROOT
HETATM    1  C3  UNL     1     -16.136  83.459   3.179  1.00  0.00    -0.020 C 
HETATM    2  C4  UNL     1     -17.208  83.891   4.071  1.00  0.00     0.020 C 
HETATM    3  C5  UNL     1     -15.020  84.518   3.255  1.00  0.00     0.013 C 
HETATM    4  C6  UNL     1     -14.413  84.548   4.604  1.00  0.00     0.002 C 
HETATM    5  C7  UNL     1     -14.309  83.239   5.300  1.00  0.00     0.013 C 
HETATM    6  C8  UNL     1     -14.411  82.042   4.393  1.00  0.00    -0.003 C 
HETATM    7  C9  UNL     1     -13.022  81.866   3.789  1.00  0.00     0.019 C 
HETATM    8  C10 UNL     1     -15.487  82.151   3.339  1.00  0.00     0.043 C 
HETATM    9  C11 UNL     1     -16.338  80.936   3.405  1.00  0.00     0.070 C 
HETATM   10  C12 UNL     1     -16.366  80.153   2.086  1.00  0.00     0.039 C 
HETATM   11  C13 UNL     1     -15.139  79.291   2.102  1.00  0.00     0.004 C 
HETATM   12  C14 UNL     1     -14.990  78.906   3.571  1.00  0.00     0.011 C 
HETATM   13  C15 UNL     1     -15.681  79.958   4.360  1.00  0.00     0.058 C 
HETATM   14  C16 UNL     1     -14.829  80.835   5.207  1.00  0.00     0.093 C 
ENDROOT
BRANCH  14  15
HETATM   15  O2  UNL     1     -15.638  81.267   6.294  1.00  0.00    -0.386 OA
ATOM     16  H2  UNL     1     -16.248  80.576   6.518  1.00  0.00     0.210 HD
ENDBRANCH  14  15
BRANCH  14  17
HETATM   17  C17 UNL     1     -13.676  80.148   5.888  1.00  0.00     0.203 C 
BRANCH  17  18
HETATM   18  O3  UNL     1     -14.205  79.588   7.076  1.00  0.00    -0.398 OA
ATOM     19  H3  UNL     1     -13.498  79.085   7.464  1.00  0.00     0.209 HD
ENDBRANCH  17  18
ENDBRANCH  14  17
BRANCH   9  20
HETATM   20  O1  UNL     1     -17.625  81.125   3.885  1.00  0.00    -0.389 OA
ATOM     21  H1  UNL     1     -18.303  81.209   3.226  1.00  0.00     0.210 HD
ENDBRANCH   9  20
BRANCH   1  22
HETATM   22  C2  UNL     1     -16.611  83.575   1.751  1.00  0.00    -0.027 C 
HETATM   23  C1  UNL     1     -17.036  84.687   1.196  1.00  0.00     0.007 C 
ENDBRANCH   1  22
TORSDOF 5
ENDMDL
MODEL 4
REMARK VINA RESULT: -5.067467017      7.981     10.815
REMARK  5 active torsions:
REMARK  status: ('A' for Active; 'I' for Inactive)
REMARK    1  A    between atoms: C2_2  and  C3_3 
REMARK    2  A    between atoms: C11_11  and  O1_12 
REMARK    3  A    between atoms: C16_18  and  O2_19 
REMARK    4  A    between atoms: C16_18  and  C17_21 
REMARK    5  A    between atoms: C17_21  and  O3_22 
ROOT
HETATM    1  C3  UNL     1     -14.144  82.516   4.565  1.00  0.00    -0.020 C 
HETATM    2  C4  UNL     1     -14.727  82.704   5.891  1.00  0.00     0.020 C 
HETATM    3  C5  UNL     1     -14.201  83.875   3.842  1.00  0.00     0.013 C 
HETATM    4  C6  UNL     1     -13.330  84.865   4.511  1.00  0.00     0.002 C 
HETATM    5  C7  UNL     1     -12.071  84.334   5.096  1.00  0.00     0.013 C 
HETATM    6  C8  UNL     1     -11.649  82.994   4.553  1.00  0.00    -0.003 C 
HETATM    7  C9  UNL     1     -10.946  83.291   3.233  1.00  0.00     0.019 C 
HETATM    8  C10 UNL     1     -12.779  82.005   4.394  1.00  0.00     0.043 C 
HETATM    9  C11 UNL     1     -12.399  80.741   5.075  1.00  0.00     0.070 C 
HETATM   10  C12 UNL     1     -12.389  79.532   4.131  1.00  0.00     0.039 C 
HETATM   11  C13 UNL     1     -11.053  79.563   3.450  1.00  0.00     0.004 C 
HETATM   12  C14 UNL     1     -10.111  80.083   4.533  1.00  0.00     0.011 C 
HETATM   13  C15 UNL     1     -10.945  80.854   5.490  1.00  0.00     0.058 C 
HETATM   14  C16 UNL     1     -10.723  82.324   5.546  1.00  0.00     0.093 C 
ENDROOT
BRANCH  14  15
HETATM   15  O2  UNL     1     -11.072  82.742   6.859  1.00  0.00    -0.386 OA
ATOM     16  H2  UNL     1     -10.453  82.371   7.476  1.00  0.00     0.210 HD
ENDBRANCH  14  15
BRANCH  14  17
HETATM   17  C17 UNL     1      -9.290  82.763   5.415  1.00  0.00     0.203 C 
BRANCH  17  18
HETATM   18  O3  UNL     1      -9.052  83.642   6.499  1.00  0.00    -0.398 OA
ATOM     19  H3  UNL     1      -9.030  83.097   7.277  1.00  0.00     0.209 HD
ENDBRANCH  17  18
ENDBRANCH  14  17
BRANCH   9  20
HETATM   20  O1  UNL     1     -13.100  80.446   6.234  1.00  0.00    -0.389 OA
ATOM     21  H1  UNL     1     -12.577  80.147   6.968  1.00  0.00     0.210 HD
ENDBRANCH   9  20
BRANCH   1  22
HETATM   22  C2  UNL     1     -15.073  81.659   3.740  1.00  0.00    -0.027 C 
HETATM   23  C1  UNL     1     -16.143  81.057   4.208  1.00  0.00     0.007 C 
ENDBRANCH   1  22
TORSDOF 5
ENDMDL
MODEL 5
REMARK VINA RESULT: -5.063993547      1.516      3.158
REMARK  5 active torsions:
REMARK  status: ('A' for Active; 'I' for Inactive)
REMARK    1  A    between atoms: C2_2  and  C3_3 
REMARK    2  A    between atoms: C11_11  and  O1_12 
REMARK    3  A    between atoms: C16_18  and  O2_19 
REMARK    4  A    between atoms: C16_18  and  C17_21 
REMARK    5  A    between atoms: C17_21  and  O3_22 
ROOT
HETATM    1  C3  UNL     1     -20.271  76.060   7.786  1.00  0.00    -0.020 C 
HETATM    2  C4  UNL     1     -20.729  77.295   7.154  1.00  0.00     0.020 C 
HETATM    3  C5  UNL     1     -21.515  75.336   8.335  1.00  0.00     0.013 C 
HETATM    4  C6  UNL     1     -22.402  74.903   7.233  1.00  0.00     0.002 C 
HETATM    5  C7  UNL     1     -21.724  74.470   5.984  1.00  0.00     0.013 C 
HETATM    6  C8  UNL     1     -20.272  74.110   6.157  1.00  0.00    -0.003 C 
HETATM    7  C9  UNL     1     -20.265  72.682   6.691  1.00  0.00     0.019 C 
HETATM    8  C10 UNL     1     -19.498  75.060   7.039  1.00  0.00     0.043 C 
HETATM    9  C11 UNL     1     -18.281  75.498   6.309  1.00  0.00     0.070 C 
HETATM   10  C12 UNL     1     -16.983  75.156   7.050  1.00  0.00     0.039 C 
HETATM   11  C13 UNL     1     -16.678  73.731   6.695  1.00  0.00     0.004 C 
HETATM   12  C14 UNL     1     -17.146  73.614   5.247  1.00  0.00     0.011 C 
HETATM   13  C15 UNL     1     -18.173  74.668   5.044  1.00  0.00     0.058 C 
HETATM   14  C16 UNL     1     -19.571  74.213   4.818  1.00  0.00     0.093 C 
ENDROOT
BRANCH  14  15
HETATM   15  O2  UNL     1     -20.208  75.218   4.039  1.00  0.00    -0.386 OA
ATOM     16  H2  UNL     1     -20.320  74.896   3.152  1.00  0.00     0.210 HD
ENDBRANCH  14  15
BRANCH  14  17
HETATM   17  C17 UNL     1     -19.716  72.978   3.972  1.00  0.00     0.203 C 
BRANCH  17  18
HETATM   18  O3  UNL     1     -19.568  73.405   2.631  1.00  0.00    -0.398 OA
ATOM     19  H3  UNL     1     -20.375  73.856   2.409  1.00  0.00     0.209 HD
ENDBRANCH  17  18
ENDBRANCH  14  17
BRANCH   9  20
HETATM   20  O1  UNL     1     -18.269  76.821   5.895  1.00  0.00    -0.389 OA
ATOM     21  H1  UNL     1     -17.475  77.111   5.463  1.00  0.00     0.210 HD
ENDBRANCH   9  20
BRANCH   1  22
HETATM   22  C2  UNL     1     -19.505  76.406   9.038  1.00  0.00    -0.027 C 
HETATM   23  C1  UNL     1     -19.051  77.605   9.326  1.00  0.00     0.007 C 
ENDBRANCH   1  22
TORSDOF 5
ENDMDL
