MODEL 1
REMARK VINA RESULT: -6.472428303      0.000      0.000
REMARK  5 active torsions:
REMARK  status: ('A' for Active; 'I' for Inactive)
REMARK    1  A    between atoms: C4_4  and  C5_5 
REMARK    2  A    between atoms: C5_5  and  C6_6 
REMARK    3  A    between atoms: C12_12  and  O1_13 
REMARK    4  A    between atoms: C13_15  and  O2_16 
REMARK    5  A    between atoms: C16_20  and  O3_21 
ROOT
HETATM    1  C6  UNL     1     -15.526  81.816   3.355  1.00  0.00     0.032 C 
HETATM    2  C7  UNL     1     -14.875  82.825   4.227  1.00  0.00    -0.070 C 
HETATM    3  C8  UNL     1     -14.278  82.586   5.362  1.00  0.00    -0.046 C 
HETATM    4  C9  UNL     1     -13.735  83.853   5.971  1.00  0.00     0.037 C 
HETATM    5  C10 UNL     1     -13.525  84.678   4.728  1.00  0.00     0.009 C 
HETATM    6  C11 UNL     1     -14.788  84.317   3.941  1.00  0.00     0.035 C 
HETATM    7  C12 UNL     1     -14.186  81.217   5.910  1.00  0.00     0.182 C 
HETATM    8  C13 UNL     1     -14.273  80.276   4.766  1.00  0.00     0.098 C 
HETATM    9  C14 UNL     1     -14.289  78.834   5.103  1.00  0.00     0.044 C 
HETATM   10  C15 UNL     1     -15.105  78.203   4.024  1.00  0.00     0.035 C 
HETATM   11  C16 UNL     1     -15.460  79.321   3.040  1.00  0.00     0.130 C 
HETATM   12  C17 UNL     1     -15.595  80.505   4.014  1.00  0.00     0.023 C 
HETATM   13  C18 UNL     1     -16.738  80.217   4.901  1.00  0.00     0.022 C 
ENDROOT
BRANCH   1  14
HETATM   14  C5  UNL     1     -16.826  82.443   2.923  1.00  0.00     0.037 C 
BRANCH  14  15
HETATM   15  C4  UNL     1     -17.452  81.904   1.727  1.00  0.00    -0.024 C 
HETATM   16  C2  UNL     1     -17.644  82.693   0.673  1.00  0.00    -0.091 C 
HETATM   17  C1  UNL     1     -17.222  84.119   0.714  1.00  0.00     0.042 C 
HETATM   18  C3  UNL     1     -18.280  82.193  -0.576  1.00  0.00     0.042 C 
ENDBRANCH  14  15
ENDBRANCH   1  14
BRANCH   8  19
HETATM   19  O2  UNL     1     -13.185  80.514   3.918  1.00  0.00    -0.386 OA
ATOM     20  H2  UNL     1     -12.542  81.024   4.395  1.00  0.00     0.210 HD
ENDBRANCH   8  19
BRANCH  11  21
HETATM   21  O3  UNL     1     -14.431  79.538   2.145  1.00  0.00    -0.395 OA
ATOM     22  H3  UNL     1     -14.474  78.926   1.421  1.00  0.00     0.210 HD
ENDBRANCH  11  21
BRANCH   7  23
HETATM   23  O1  UNL     1     -15.095  81.000   6.935  1.00  0.00    -0.388 OA
ATOM     24  H1  UNL     1     -14.879  80.232   7.450  1.00  0.00     0.210 HD
ENDBRANCH   7  23
TORSDOF 5
ENDMDL
MODEL 2
REMARK VINA RESULT: -6.315753803      1.431      4.788
REMARK  5 active torsions:
REMARK  status: ('A' for Active; 'I' for Inactive)
REMARK    1  A    between atoms: C4_4  and  C5_5 
REMARK    2  A    between atoms: C5_5  and  C6_6 
REMARK    3  A    between atoms: C12_12  and  O1_13 
REMARK    4  A    between atoms: C13_15  and  O2_16 
REMARK    5  A    between atoms: C16_20  and  O3_21 
ROOT
HETATM    1  C6  UNL     1     -14.588  82.539   4.571  1.00  0.00     0.032 C 
HETATM    2  C7  UNL     1     -15.534  82.840   3.468  1.00  0.00    -0.070 C 
HETATM    3  C8  UNL     1     -16.189  81.962   2.760  1.00  0.00    -0.046 C 
HETATM    4  C9  UNL     1     -17.057  82.630   1.726  1.00  0.00     0.037 C 
HETATM    5  C10 UNL     1     -17.300  83.957   2.399  1.00  0.00     0.009 C 
HETATM    6  C11 UNL     1     -15.909  84.230   2.977  1.00  0.00     0.035 C 
HETATM    7  C12 UNL     1     -16.044  80.511   3.006  1.00  0.00     0.182 C 
HETATM    8  C13 UNL     1     -15.628  80.343   4.421  1.00  0.00     0.098 C 
HETATM    9  C14 UNL     1     -15.339  78.958   4.857  1.00  0.00     0.044 C 
HETATM   10  C15 UNL     1     -14.291  79.105   5.910  1.00  0.00     0.035 C 
HETATM   11  C16 UNL     1     -14.077  80.609   6.101  1.00  0.00     0.130 C 
HETATM   12  C17 UNL     1     -14.311  81.100   4.661  1.00  0.00     0.023 C 
HETATM   13  C18 UNL     1     -13.240  80.529   3.823  1.00  0.00     0.022 C 
ENDROOT
BRANCH   1  14
HETATM   14  C5  UNL     1     -13.413  83.457   4.348  1.00  0.00     0.037 C 
BRANCH  14  15
HETATM   15  C4  UNL     1     -12.983  84.263   5.478  1.00  0.00    -0.024 C 
HETATM   16  C2  UNL     1     -11.850  83.963   6.107  1.00  0.00    -0.091 C 
HETATM   17  C1  UNL     1     -11.024  82.809   5.659  1.00  0.00     0.042 C 
HETATM   18  C3  UNL     1     -11.364  84.755   7.269  1.00  0.00     0.042 C 
ENDBRANCH  14  15
ENDBRANCH   1  14
BRANCH   8  19
HETATM   19  O2  UNL     1     -16.640  80.857   5.240  1.00  0.00    -0.386 OA
ATOM     20  H2  UNL     1     -16.233  81.276   5.988  1.00  0.00     0.210 HD
ENDBRANCH   8  19
BRANCH  11  21
HETATM   21  O3  UNL     1     -15.023  81.138   6.958  1.00  0.00    -0.395 OA
ATOM     22  H3  UNL     1     -15.731  80.523   7.104  1.00  0.00     0.210 HD
ENDBRANCH  11  21
BRANCH   7  23
HETATM   23  O1  UNL     1     -15.230  79.898   2.065  1.00  0.00    -0.388 OA
ATOM     24  H1  UNL     1     -14.625  79.283   2.461  1.00  0.00     0.210 HD
ENDBRANCH   7  23
TORSDOF 5
ENDMDL
MODEL 3
REMARK VINA RESULT: -6.022146866      1.384      3.884
REMARK  5 active torsions:
REMARK  status: ('A' for Active; 'I' for Inactive)
REMARK    1  A    between atoms: C4_4  and  C5_5 
REMARK    2  A    between atoms: C5_5  and  C6_6 
REMARK    3  A    between atoms: C12_12  and  O1_13 
REMARK    4  A    between atoms: C13_15  and  O2_16 
REMARK    5  A    between atoms: C16_20  and  O3_21 
ROOT
HETATM    1  C6  UNL     1     -15.405  82.169   4.262  1.00  0.00     0.032 C 
HETATM    2  C7  UNL     1     -15.577  80.785   4.770  1.00  0.00    -0.070 C 
HETATM    3  C8  UNL     1     -14.689  80.097   5.431  1.00  0.00    -0.046 C 
HETATM    4  C9  UNL     1     -15.210  78.727   5.784  1.00  0.00     0.037 C 
HETATM    5  C10 UNL     1     -16.691  79.008   5.823  1.00  0.00     0.009 C 
HETATM    6  C11 UNL     1     -16.827  79.932   4.610  1.00  0.00     0.035 C 
HETATM    7  C12 UNL     1     -13.362  80.662   5.757  1.00  0.00     0.182 C 
HETATM    8  C13 UNL     1     -13.507  82.139   5.786  1.00  0.00     0.098 C 
HETATM    9  C14 UNL     1     -12.264  82.913   6.010  1.00  0.00     0.044 C 
HETATM   10  C15 UNL     1     -12.480  84.193   5.273  1.00  0.00     0.035 C 
HETATM   11  C16 UNL     1     -13.905  84.137   4.714  1.00  0.00     0.130 C 
HETATM   12  C17 UNL     1     -14.021  82.630   4.422  1.00  0.00     0.023 C 
HETATM   13  C18 UNL     1     -13.040  82.310   3.367  1.00  0.00     0.022 C 
ENDROOT
BRANCH   1  14
HETATM   14  C5  UNL     1     -15.973  82.154   2.866  1.00  0.00     0.037 C 
BRANCH  14  15
HETATM   15  C4  UNL     1     -16.443  83.421   2.332  1.00  0.00    -0.024 C 
HETATM   16  C2  UNL     1     -17.175  83.435   1.220  1.00  0.00    -0.091 C 
HETATM   17  C1  UNL     1     -17.513  82.164   0.527  1.00  0.00     0.042 C 
HETATM   18  C3  UNL     1     -17.680  84.705   0.631  1.00  0.00     0.042 C 
ENDBRANCH  14  15
ENDBRANCH   1  14
BRANCH   8  19
HETATM   19  O2  UNL     1     -14.417  82.471   6.797  1.00  0.00    -0.386 OA
ATOM     20  H2  UNL     1     -15.094  83.019   6.419  1.00  0.00     0.210 HD
ENDBRANCH   8  19
BRANCH  11  21
HETATM   21  O3  UNL     1     -14.826  84.522   5.669  1.00  0.00    -0.395 OA
ATOM     22  H3  UNL     1     -15.303  85.294   5.389  1.00  0.00     0.210 HD
ENDBRANCH  11  21
BRANCH   7  23
HETATM   23  O1  UNL     1     -12.366  80.173   4.925  1.00  0.00    -0.388 OA
ATOM     24  H1  UNL     1     -11.547  80.643   5.032  1.00  0.00     0.210 HD
ENDBRANCH   7  23
TORSDOF 5
ENDMDL
MODEL 4
REMARK VINA RESULT: -5.935879967      0.751      1.106
REMARK  5 active torsions:
REMARK  status: ('A' for Active; 'I' for Inactive)
REMARK    1  A    between atoms: C4_4  and  C5_5 
REMARK    2  A    between atoms: C5_5  and  C6_6 
REMARK    3  A    between atoms: C12_12  and  O1_13 
REMARK    4  A    between atoms: C13_15  and  O2_16 
REMARK    5  A    between atoms: C16_20  and  O3_21 
ROOT
HETATM    1  C6  UNL     1     -15.455  81.900   3.506  1.00  0.00     0.032 C 
HETATM    2  C7  UNL     1     -14.489  82.724   4.273  1.00  0.00    -0.070 C 
HETATM    3  C8  UNL     1     -13.628  82.280   5.147  1.00  0.00    -0.046 C 
HETATM    4  C9  UNL     1     -12.811  83.404   5.730  1.00  0.00     0.037 C 
HETATM    5  C10 UNL     1     -12.871  84.394   4.594  1.00  0.00     0.009 C 
HETATM    6  C11 UNL     1     -14.333  84.234   4.167  1.00  0.00     0.035 C 
HETATM    7  C12 UNL     1     -13.527  80.841   5.466  1.00  0.00     0.182 C 
HETATM    8  C13 UNL     1     -14.024  80.091   4.286  1.00  0.00     0.098 C 
HETATM    9  C14 UNL     1     -14.093  78.618   4.427  1.00  0.00     0.044 C 
HETATM   10  C15 UNL     1     -15.236  78.209   3.558  1.00  0.00     0.035 C 
HETATM   11  C16 UNL     1     -15.735  79.482   2.869  1.00  0.00     0.130 C 
HETATM   12  C17 UNL     1     -15.472  80.512   3.984  1.00  0.00     0.023 C 
HETATM   13  C18 UNL     1     -16.347  80.163   5.119  1.00  0.00     0.022 C 
ENDROOT
BRANCH   1  14
HETATM   14  C5  UNL     1     -16.753  82.664   3.551  1.00  0.00     0.037 C 
BRANCH  14  15
HETATM   15  C4  UNL     1     -16.885  83.794   2.646  1.00  0.00    -0.024 C 
HETATM   16  C2  UNL     1     -17.351  83.600   1.415  1.00  0.00    -0.091 C 
HETATM   17  C1  UNL     1     -17.737  82.236   0.964  1.00  0.00     0.042 C 
HETATM   18  C3  UNL     1     -17.505  84.721   0.449  1.00  0.00     0.042 C 
ENDBRANCH  14  15
ENDBRANCH   1  14
BRANCH   8  19
HETATM   19  O2  UNL     1     -13.195  80.387   3.197  1.00  0.00    -0.386 OA
ATOM     20  H2  UNL     1     -13.410  79.792   2.489  1.00  0.00     0.210 HD
ENDBRANCH   8  19
BRANCH  11  21
HETATM   21  O3  UNL     1     -14.977  79.769   1.751  1.00  0.00    -0.395 OA
ATOM     22  H3  UNL     1     -14.971  80.702   1.573  1.00  0.00     0.210 HD
ENDBRANCH  11  21
BRANCH   7  23
HETATM   23  O1  UNL     1     -14.134  80.527   6.673  1.00  0.00    -0.388 OA
ATOM     24  H1  UNL     1     -13.518  80.529   7.396  1.00  0.00     0.210 HD
ENDBRANCH   7  23
TORSDOF 5
ENDMDL
MODEL 5
REMARK VINA RESULT: -5.792371651      1.644      4.645
REMARK  5 active torsions:
REMARK  status: ('A' for Active; 'I' for Inactive)
REMARK    1  A    between atoms: C4_4  and  C5_5 
REMARK    2  A    between atoms: C5_5  and  C6_6 
REMARK    3  A    between atoms: C12_12  and  O1_13 
REMARK    4  A    between atoms: C13_15  and  O2_16 
REMARK    5  A    between atoms: C16_20  and  O3_21 
ROOT
HETATM    1  C6  UNL     1     -13.989  81.850   4.495  1.00  0.00     0.032 C 
HETATM    2  C7  UNL     1     -15.054  82.593   3.777  1.00  0.00    -0.070 C 
HETATM    3  C8  UNL     1     -16.112  82.069   3.222  1.00  0.00    -0.046 C 
HETATM    4  C9  UNL     1     -16.975  83.126   2.583  1.00  0.00     0.037 C 
HETATM    5  C10 UNL     1     -16.608  84.318   3.430  1.00  0.00     0.009 C 
HETATM    6  C11 UNL     1     -15.099  84.100   3.572  1.00  0.00     0.035 C 
HETATM    7  C12 UNL     1     -16.362  80.613   3.262  1.00  0.00     0.182 C 
HETATM    8  C13 UNL     1     -15.656  80.076   4.452  1.00  0.00     0.098 C 
HETATM    9  C14 UNL     1     -15.703  78.607   4.634  1.00  0.00     0.044 C 
HETATM   10  C15 UNL     1     -14.420  78.271   5.318  1.00  0.00     0.035 C 
HETATM   11  C16 UNL     1     -13.709  79.601   5.586  1.00  0.00     0.130 C 
HETATM   12  C17 UNL     1     -14.156  80.399   4.348  1.00  0.00     0.023 C 
HETATM   13  C18 UNL     1     -13.577  79.735   3.165  1.00  0.00     0.022 C 
ENDROOT
BRANCH   1  14
HETATM   14  C5  UNL     1     -12.693  82.450   4.013  1.00  0.00     0.037 C 
BRANCH  14  15
HETATM   15  C4  UNL     1     -11.538  82.308   4.884  1.00  0.00    -0.024 C 
HETATM   16  C2  UNL     1     -11.304  83.224   5.821  1.00  0.00    -0.091 C 
HETATM   17  C1  UNL     1     -12.217  84.386   5.981  1.00  0.00     0.042 C 
HETATM   18  C3  UNL     1     -10.136  83.127   6.737  1.00  0.00     0.042 C 
ENDBRANCH  14  15
ENDBRANCH   1  14
BRANCH   8  19
HETATM   19  O2  UNL     1     -16.204  80.675   5.593  1.00  0.00    -0.386 OA
ATOM     20  H2  UNL     1     -15.498  81.078   6.085  1.00  0.00     0.210 HD
ENDBRANCH   8  19
BRANCH  11  21
HETATM   21  O3  UNL     1     -14.181  80.189   6.743  1.00  0.00    -0.395 OA
ATOM     22  H3  UNL     1     -13.503  80.228   7.406  1.00  0.00     0.210 HD
ENDBRANCH  11  21
BRANCH   7  23
HETATM   23  O1  UNL     1     -16.058  79.996   2.058  1.00  0.00    -0.388 OA
ATOM     24  H1  UNL     1     -16.330  79.086   2.042  1.00  0.00     0.210 HD
ENDBRANCH   7  23
TORSDOF 5
ENDMDL
