MODEL 1
REMARK VINA RESULT: -9.263761366      0.000      0.000
REMARK  5 active torsions:
REMARK  status: ('A' for Active; 'I' for Inactive)
REMARK       I    between atoms: N1_2  and  C2_4 
REMARK    1  A    between atoms: C2_4  and  O2_6 
REMARK    2  A    between atoms: O2_6  and  C3_7 
REMARK    3  A    between atoms: C3_7  and  C4_8 
REMARK    4  A    between atoms: C9_16  and  C10_17 
REMARK    5  A    between atoms: C11_18  and  C12_19 
ROOT
HETATM    1  C4  UNL     1      37.699   4.281  53.294  1.00  0.00     0.094 C 
HETATM    2  C5  UNL     1      38.806   5.252  53.627  1.00  0.00     0.049 C 
HETATM    3  O3  UNL     1      36.575   4.991  53.912  1.00  0.00    -0.304 OA
HETATM    4  C6  UNL     1      35.347   5.360  53.481  1.00  0.00     0.296 C 
HETATM    5  O4  UNL     1      34.278   5.150  54.093  1.00  0.00    -0.259 OA
HETATM    6  C7  UNL     1      35.190   6.072  52.190  1.00  0.00     0.068 A 
HETATM    7  C8  UNL     1      33.962   6.485  52.021  1.00  0.00     0.160 A 
HETATM    8  O5  UNL     1      33.513   7.186  50.910  1.00  0.00    -0.322 OA
HETATM    9  C9  UNL     1      34.519   7.424  49.952  1.00  0.00     0.075 A 
HETATM   10  C13 UNL     1      35.753   7.025  50.087  1.00  0.00     0.046 A 
HETATM   11  C14 UNL     1      36.266   6.281  51.223  1.00  0.00    -0.027 A 
HETATM   12  C15 UNL     1      37.168   5.162  50.969  1.00  0.00     0.101 C 
HETATM   13  C16 UNL     1      37.420   4.015  51.906  1.00  0.00     0.047 C 
HETATM   14  C17 UNL     1      38.132   3.020  51.057  1.00  0.00    -0.006 C 
HETATM   15  C18 UNL     1      37.374   1.701  51.272  1.00  0.00     0.018 C 
HETATM   16  C19 UNL     1      39.516   2.625  51.051  1.00  0.00     0.026 C 
HETATM   17  C20 UNL     1      40.614   3.637  50.909  1.00  0.00     0.024 C 
HETATM   18  C21 UNL     1      40.073   1.647  52.063  1.00  0.00     0.024 C 
HETATM   19  C22 UNL     1      39.660   1.739  49.806  1.00  0.00     0.157 C 
HETATM   20  O7  UNL     1      40.816   1.307  49.592  1.00  0.00    -0.292 OA
HETATM   21  C23 UNL     1      38.614   1.392  48.916  1.00  0.00     0.048 C 
HETATM   22  C24 UNL     1      37.609   2.259  48.781  1.00  0.00    -0.007 C 
HETATM   23  C25 UNL     1      37.824   3.455  49.633  1.00  0.00     0.049 C 
HETATM   24  C26 UNL     1      38.756   4.244  48.815  1.00  0.00     0.027 C 
HETATM   25  C27 UNL     1      36.616   4.347  49.804  1.00  0.00     0.263 C 
HETATM   26  F1  UNL     1      35.478   3.691  50.204  1.00  0.00    -0.204 F 
HETATM   27  F2  UNL     1      36.453   5.027  48.638  1.00  0.00    -0.204 F 
ENDROOT
BRANCH   1  28
HETATM   28  C3  UNL     1      37.613   3.164  54.306  1.00  0.00     0.219 C 
BRANCH  28  29
HETATM   29  O2  UNL     1      38.057   3.675  55.595  1.00  0.00    -0.301 OA
BRANCH  29  30
HETATM   30  C2  UNL     1      37.219   3.630  56.685  1.00  0.00     0.360 C 
HETATM   31  N1  UNL     1      35.959   4.265  56.739  1.00  0.00    -0.341 N 
HETATM   32  C1  UNL     1      35.130   4.182  57.907  1.00  0.00     0.151 C 
ATOM     33  H1  UNL     1      35.632   4.795  55.931  1.00  0.00     0.164 HD
HETATM   34  O1  UNL     1      37.610   2.980  57.687  1.00  0.00    -0.239 OA
ENDBRANCH  29  30
ENDBRANCH  28  29
ENDBRANCH   1  28
BRANCH   9  35
HETATM   35  C10 UNL     1      34.120   8.179  48.722  1.00  0.00     0.040 C 
HETATM   36  C11 UNL     1      34.563   7.810  47.554  1.00  0.00     0.044 C 
BRANCH  36  37
HETATM   37  C12 UNL     1      34.164   8.556  46.371  1.00  0.00     0.258 C 
HETATM   38  O6  UNL     1      34.902   9.457  45.881  1.00  0.00    -0.302 OA
ENDBRANCH  36  37
ENDBRANCH   9  35
TORSDOF 5
ENDMDL
MODEL 2
REMARK VINA RESULT: -8.805565928      1.154      1.386
REMARK  5 active torsions:
REMARK  status: ('A' for Active; 'I' for Inactive)
REMARK       I    between atoms: N1_2  and  C2_4 
REMARK    1  A    between atoms: C2_4  and  O2_6 
REMARK    2  A    between atoms: O2_6  and  C3_7 
REMARK    3  A    between atoms: C3_7  and  C4_8 
REMARK    4  A    between atoms: C9_16  and  C10_17 
REMARK    5  A    between atoms: C11_18  and  C12_19 
ROOT
HETATM    1  C4  UNL     1      37.903   3.835  53.956  1.00  0.00     0.094 C 
HETATM    2  C5  UNL     1      39.179   4.639  54.018  1.00  0.00     0.049 C 
HETATM    3  O3  UNL     1      36.950   4.884  54.332  1.00  0.00    -0.304 OA
HETATM    4  C6  UNL     1      35.793   5.336  53.796  1.00  0.00     0.296 C 
HETATM    5  O4  UNL     1      34.728   5.506  54.427  1.00  0.00    -0.259 OA
HETATM    6  C7  UNL     1      35.719   5.675  52.354  1.00  0.00     0.068 A 
HETATM    7  C8  UNL     1      34.579   6.243  52.058  1.00  0.00     0.160 A 
HETATM    8  O5  UNL     1      34.223   6.675  50.788  1.00  0.00    -0.322 OA
HETATM    9  C9  UNL     1      35.218   6.446  49.816  1.00  0.00     0.075 A 
HETATM   10  C13 UNL     1      36.364   5.881  50.077  1.00  0.00     0.046 A 
HETATM   11  C14 UNL     1      36.777   5.403  51.384  1.00  0.00    -0.027 A 
HETATM   12  C15 UNL     1      37.452   4.112  51.470  1.00  0.00     0.101 C 
HETATM   13  C16 UNL     1      37.528   3.247  52.695  1.00  0.00     0.047 C 
HETATM   14  C17 UNL     1      38.016   1.941  52.172  1.00  0.00    -0.006 C 
HETATM   15  C18 UNL     1      37.041   0.897  52.739  1.00  0.00     0.018 C 
HETATM   16  C19 UNL     1      39.305   1.312  52.298  1.00  0.00     0.026 C 
HETATM   17  C20 UNL     1      40.561   2.024  51.893  1.00  0.00     0.024 C 
HETATM   18  C21 UNL     1      39.714   0.572  53.553  1.00  0.00     0.024 C 
HETATM   19  C22 UNL     1      39.239   0.103  51.356  1.00  0.00     0.157 C 
HETATM   20  O7  UNL     1      40.289  -0.577  51.290  1.00  0.00    -0.292 OA
HETATM   21  C23 UNL     1      38.114  -0.281  50.585  1.00  0.00     0.048 C 
HETATM   22  C24 UNL     1      37.279   0.683  50.196  1.00  0.00    -0.007 C 
HETATM   23  C25 UNL     1      37.738   2.009  50.678  1.00  0.00     0.049 C 
HETATM   24  C26 UNL     1      38.765   2.352  49.686  1.00  0.00     0.027 C 
HETATM   25  C27 UNL     1      36.718   3.120  50.574  1.00  0.00     0.263 C 
HETATM   26  F1  UNL     1      35.497   2.823  51.125  1.00  0.00    -0.204 F 
HETATM   27  F2  UNL     1      36.637   3.464  49.261  1.00  0.00    -0.204 F 
ENDROOT
BRANCH   1  28
HETATM   28  C3  UNL     1      37.655   3.081  55.241  1.00  0.00     0.219 C 
BRANCH  28  29
HETATM   29  O2  UNL     1      37.725   4.023  56.348  1.00  0.00    -0.301 OA
BRANCH  29  30
HETATM   30  C2  UNL     1      36.778   3.992  57.346  1.00  0.00     0.360 C 
HETATM   31  N1  UNL     1      35.439   4.405  57.177  1.00  0.00    -0.341 N 
HETATM   32  C1  UNL     1      34.497   4.350  58.258  1.00  0.00     0.151 C 
ATOM     33  H1  UNL     1      35.134   4.750  56.267  1.00  0.00     0.164 HD
HETATM   34  O1  UNL     1      37.140   3.569  58.473  1.00  0.00    -0.239 OA
ENDBRANCH  29  30
ENDBRANCH  28  29
ENDBRANCH   1  28
BRANCH   9  35
HETATM   35  C10 UNL     1      34.916   6.887  48.418  1.00  0.00     0.040 C 
HETATM   36  C11 UNL     1      34.490   8.098  48.191  1.00  0.00     0.044 C 
BRANCH  36  37
HETATM   37  C12 UNL     1      34.202   8.508  46.825  1.00  0.00     0.258 C 
HETATM   38  O6  UNL     1      34.915   9.365  46.231  1.00  0.00    -0.302 OA
ENDBRANCH  36  37
ENDBRANCH   9  35
TORSDOF 5
ENDMDL
MODEL 3
REMARK VINA RESULT: -8.425571628      1.624      1.991
REMARK  5 active torsions:
REMARK  status: ('A' for Active; 'I' for Inactive)
REMARK       I    between atoms: N1_2  and  C2_4 
REMARK    1  A    between atoms: C2_4  and  O2_6 
REMARK    2  A    between atoms: O2_6  and  C3_7 
REMARK    3  A    between atoms: C3_7  and  C4_8 
REMARK    4  A    between atoms: C9_16  and  C10_17 
REMARK    5  A    between atoms: C11_18  and  C12_19 
ROOT
HETATM    1  C4  UNL     1      37.743   5.066  53.485  1.00  0.00     0.094 C 
HETATM    2  C5  UNL     1      39.154   5.432  53.091  1.00  0.00     0.049 C 
HETATM    3  O3  UNL     1      37.193   6.414  53.653  1.00  0.00    -0.304 OA
HETATM    4  C6  UNL     1      36.089   7.042  53.187  1.00  0.00     0.296 C 
HETATM    5  O4  UNL     1      35.279   7.685  53.888  1.00  0.00    -0.259 OA
HETATM    6  C7  UNL     1      35.758   7.000  51.742  1.00  0.00     0.068 A 
HETATM    7  C8  UNL     1      34.755   7.790  51.461  1.00  0.00     0.160 A 
HETATM    8  O5  UNL     1      34.224   7.965  50.191  1.00  0.00    -0.322 OA
HETATM    9  C9  UNL     1      34.872   7.201  49.200  1.00  0.00     0.075 A 
HETATM   10  C13 UNL     1      35.873   6.402  49.446  1.00  0.00     0.046 A 
HETATM   11  C14 UNL     1      36.456   6.178  50.756  1.00  0.00    -0.027 A 
HETATM   12  C15 UNL     1      36.795   4.812  51.140  1.00  0.00     0.101 C 
HETATM   13  C16 UNL     1      36.947   4.314  52.549  1.00  0.00     0.047 C 
HETATM   14  C17 UNL     1      36.963   2.833  52.397  1.00  0.00    -0.006 C 
HETATM   15  C18 UNL     1      35.926   2.319  53.409  1.00  0.00     0.018 C 
HETATM   16  C19 UNL     1      38.051   1.897  52.514  1.00  0.00     0.026 C 
HETATM   17  C20 UNL     1      39.309   2.064  51.716  1.00  0.00     0.024 C 
HETATM   18  C21 UNL     1      38.553   1.420  53.859  1.00  0.00     0.024 C 
HETATM   19  C22 UNL     1      37.469   0.564  52.025  1.00  0.00     0.157 C 
HETATM   20  O7  UNL     1      38.274  -0.395  52.016  1.00  0.00    -0.292 OA
HETATM   21  C23 UNL     1      36.135   0.354  51.598  1.00  0.00     0.048 C 
HETATM   22  C24 UNL     1      35.492   1.391  51.059  1.00  0.00    -0.007 C 
HETATM   23  C25 UNL     1      36.363   2.592  51.020  1.00  0.00     0.049 C 
HETATM   24  C26 UNL     1      37.176   2.337  49.824  1.00  0.00     0.027 C 
HETATM   25  C27 UNL     1      35.650   3.892  50.729  1.00  0.00     0.263 C 
HETATM   26  F1  UNL     1      34.560   4.134  51.528  1.00  0.00    -0.204 F 
HETATM   27  F2  UNL     1      35.345   3.892  49.404  1.00  0.00    -0.204 F 
ENDROOT
BRANCH   1  28
HETATM   28  C3  UNL     1      37.632   4.784  54.964  1.00  0.00     0.219 C 
BRANCH  28  29
HETATM   29  O2  UNL     1      36.233   4.538  55.281  1.00  0.00    -0.301 OA
BRANCH  29  30
HETATM   30  C2  UNL     1      35.859   4.212  56.565  1.00  0.00     0.360 C 
HETATM   31  N1  UNL     1      36.671   4.421  57.700  1.00  0.00    -0.341 N 
HETATM   32  C1  UNL     1      36.225   4.058  59.015  1.00  0.00     0.151 C 
ATOM     33  H1  UNL     1      37.594   4.838  57.584  1.00  0.00     0.164 HD
HETATM   34  O1  UNL     1      34.724   3.696  56.722  1.00  0.00    -0.239 OA
ENDBRANCH  29  30
ENDBRANCH  28  29
ENDBRANCH   1  28
BRANCH   9  35
HETATM   35  C10 UNL     1      34.362   7.334  47.799  1.00  0.00     0.040 C 
HETATM   36  C11 UNL     1      34.661   8.387  47.091  1.00  0.00     0.044 C 
BRANCH  36  37
HETATM   37  C12 UNL     1      34.156   8.498  45.731  1.00  0.00     0.258 C 
HETATM   38  O6  UNL     1      34.889   8.914  44.790  1.00  0.00    -0.302 OA
ENDBRANCH  36  37
ENDBRANCH   9  35
TORSDOF 5
ENDMDL
MODEL 4
REMARK VINA RESULT: -8.404588425      1.526      1.565
REMARK  5 active torsions:
REMARK  status: ('A' for Active; 'I' for Inactive)
REMARK       I    between atoms: N1_2  and  C2_4 
REMARK    1  A    between atoms: C2_4  and  O2_6 
REMARK    2  A    between atoms: O2_6  and  C3_7 
REMARK    3  A    between atoms: C3_7  and  C4_8 
REMARK    4  A    between atoms: C9_16  and  C10_17 
REMARK    5  A    between atoms: C11_18  and  C12_19 
ROOT
HETATM    1  C4  UNL     1      38.782   3.918  52.929  1.00  0.00     0.094 C 
HETATM    2  C5  UNL     1      39.844   4.969  53.151  1.00  0.00     0.049 C 
HETATM    3  O3  UNL     1      37.799   4.372  53.916  1.00  0.00    -0.304 OA
HETATM    4  C6  UNL     1      36.472   4.632  53.867  1.00  0.00     0.296 C 
HETATM    5  O4  UNL     1      35.624   4.193  54.673  1.00  0.00    -0.259 OA
HETATM    6  C7  UNL     1      35.919   5.500  52.800  1.00  0.00     0.068 A 
HETATM    7  C8  UNL     1      34.656   5.765  53.010  1.00  0.00     0.160 A 
HETATM    8  O5  UNL     1      33.871   6.557  52.183  1.00  0.00    -0.322 OA
HETATM    9  C9  UNL     1      34.565   7.067  51.068  1.00  0.00     0.075 A 
HETATM   10  C13 UNL     1      35.823   6.821  50.828  1.00  0.00     0.046 A 
HETATM   11  C14 UNL     1      36.681   5.993  51.655  1.00  0.00    -0.027 A 
HETATM   12  C15 UNL     1      37.584   5.055  50.996  1.00  0.00     0.101 C 
HETATM   13  C16 UNL     1      38.176   3.826  51.625  1.00  0.00     0.047 C 
HETATM   14  C17 UNL     1      38.731   3.073  50.466  1.00  0.00    -0.006 C 
HETATM   15  C18 UNL     1      38.179   1.646  50.621  1.00  0.00     0.018 C 
HETATM   16  C19 UNL     1      40.096   2.872  50.055  1.00  0.00     0.026 C 
HETATM   17  C20 UNL     1      41.020   4.031  49.834  1.00  0.00     0.024 C 
HETATM   18  C21 UNL     1      40.984   1.838  50.712  1.00  0.00     0.024 C 
HETATM   19  C22 UNL     1      39.990   2.208  48.675  1.00  0.00     0.157 C 
HETATM   20  O7  UNL     1      41.084   1.970  48.115  1.00  0.00    -0.292 OA
HETATM   21  C23 UNL     1      38.784   1.860  48.018  1.00  0.00     0.048 C 
HETATM   22  C24 UNL     1      37.704   2.594  48.287  1.00  0.00    -0.007 C 
HETATM   23  C25 UNL     1      38.023   3.669  49.259  1.00  0.00     0.049 C 
HETATM   24  C26 UNL     1      38.632   4.688  48.394  1.00  0.00     0.027 C 
HETATM   25  C27 UNL     1      36.825   4.355  49.874  1.00  0.00     0.263 C 
HETATM   26  F1  UNL     1      35.896   3.501  50.414  1.00  0.00    -0.204 F 
HETATM   27  F2  UNL     1      36.301   5.172  48.921  1.00  0.00    -0.204 F 
ENDROOT
BRANCH   1  28
HETATM   28  C3  UNL     1      39.067   2.662  53.716  1.00  0.00     0.219 C 
BRANCH  28  29
HETATM   29  O2  UNL     1      39.465   3.043  55.063  1.00  0.00    -0.301 OA
BRANCH  29  30
HETATM   30  C2  UNL     1      38.916   2.410  56.155  1.00  0.00     0.360 C 
HETATM   31  N1  UNL     1      37.631   2.689  56.666  1.00  0.00    -0.341 N 
HETATM   32  C1  UNL     1      37.114   1.994  57.810  1.00  0.00     0.151 C 
ATOM     33  H1  UNL     1      37.057   3.401  56.213  1.00  0.00     0.164 HD
HETATM   34  O1  UNL     1      39.613   1.531  56.722  1.00  0.00    -0.239 OA
ENDBRANCH  29  30
ENDBRANCH  28  29
ENDBRANCH   1  28
BRANCH   9  35
HETATM   35  C10 UNL     1      33.791   7.936  50.126  1.00  0.00     0.040 C 
HETATM   36  C11 UNL     1      34.411   8.805  49.378  1.00  0.00     0.044 C 
BRANCH  36  37
HETATM   37  C12 UNL     1      33.641   9.640  48.469  1.00  0.00     0.258 C 
HETATM   38  O6  UNL     1      32.712  10.386  48.888  1.00  0.00    -0.302 OA
ENDBRANCH  36  37
ENDBRANCH   9  35
TORSDOF 5
ENDMDL
MODEL 5
REMARK VINA RESULT: -8.323381869      3.155      7.233
REMARK  5 active torsions:
REMARK  status: ('A' for Active; 'I' for Inactive)
REMARK       I    between atoms: N1_2  and  C2_4 
REMARK    1  A    between atoms: C2_4  and  O2_6 
REMARK    2  A    between atoms: O2_6  and  C3_7 
REMARK    3  A    between atoms: C3_7  and  C4_8 
REMARK    4  A    between atoms: C9_16  and  C10_17 
REMARK    5  A    between atoms: C11_18  and  C12_19 
ROOT
HETATM    1  C4  UNL     1      39.439   4.275  52.758  1.00  0.00     0.094 C 
HETATM    2  C5  UNL     1      39.680   5.737  53.046  1.00  0.00     0.049 C 
HETATM    3  O3  UNL     1      40.302   3.691  53.788  1.00  0.00    -0.304 OA
HETATM    4  C6  UNL     1      40.119   2.749  54.743  1.00  0.00     0.296 C 
HETATM    5  O4  UNL     1      40.875   1.775  54.945  1.00  0.00    -0.259 OA
HETATM    6  C7  UNL     1      38.950   2.824  55.652  1.00  0.00     0.068 A 
HETATM    7  C8  UNL     1      39.029   1.929  56.601  1.00  0.00     0.160 A 
HETATM    8  O5  UNL     1      38.083   1.760  57.604  1.00  0.00    -0.322 OA
HETATM    9  C9  UNL     1      37.001   2.658  57.513  1.00  0.00     0.075 A 
HETATM   10  C13 UNL     1      36.890   3.561  56.578  1.00  0.00     0.046 A 
HETATM   11  C14 UNL     1      37.844   3.769  55.505  1.00  0.00    -0.027 A 
HETATM   12  C15 UNL     1      37.334   4.000  54.157  1.00  0.00     0.101 C 
HETATM   13  C16 UNL     1      38.096   3.768  52.884  1.00  0.00     0.047 C 
HETATM   14  C17 UNL     1      37.045   3.835  51.831  1.00  0.00    -0.006 C 
HETATM   15  C18 UNL     1      37.249   2.566  50.987  1.00  0.00     0.018 C 
HETATM   16  C19 UNL     1      36.771   4.857  50.855  1.00  0.00     0.026 C 
HETATM   17  C20 UNL     1      36.553   6.283  51.262  1.00  0.00     0.024 C 
HETATM   18  C21 UNL     1      37.573   4.978  49.578  1.00  0.00     0.024 C 
HETATM   19  C22 UNL     1      35.436   4.439  50.222  1.00  0.00     0.157 C 
HETATM   20  O7  UNL     1      34.992   5.223  49.352  1.00  0.00    -0.292 OA
HETATM   21  C23 UNL     1      34.701   3.272  50.544  1.00  0.00     0.048 C 
HETATM   22  C24 UNL     1      34.822   2.792  51.783  1.00  0.00    -0.007 C 
HETATM   23  C25 UNL     1      35.742   3.632  52.589  1.00  0.00     0.049 C 
HETATM   24  C26 UNL     1      34.866   4.741  52.989  1.00  0.00     0.027 C 
HETATM   25  C27 UNL     1      36.200   3.016  53.891  1.00  0.00     0.263 C 
HETATM   26  F1  UNL     1      36.714   1.749  53.770  1.00  0.00    -0.204 F 
HETATM   27  F2  UNL     1      35.151   3.082  54.753  1.00  0.00    -0.204 F 
ENDROOT
BRANCH   1  28
HETATM   28  C3  UNL     1      40.333   3.769  51.652  1.00  0.00     0.219 C 
BRANCH  28  29
HETATM   29  O2  UNL     1      40.524   4.842  50.687  1.00  0.00    -0.301 OA
BRANCH  29  30
HETATM   30  C2  UNL     1      41.791   5.279  50.377  1.00  0.00     0.360 C 
HETATM   31  N1  UNL     1      42.155   6.639  50.279  1.00  0.00    -0.341 N 
HETATM   32  C1  UNL     1      43.496   7.032  49.950  1.00  0.00     0.151 C 
ATOM     33  H1  UNL     1      41.451   7.357  50.445  1.00  0.00     0.164 HD
HETATM   34  O1  UNL     1      42.669   4.403  50.170  1.00  0.00    -0.239 OA
ENDBRANCH  29  30
ENDBRANCH  28  29
ENDBRANCH   1  28
BRANCH   9  35
HETATM   35  C10 UNL     1      35.937   2.547  58.560  1.00  0.00     0.040 C 
HETATM   36  C11 UNL     1      35.286   3.608  58.946  1.00  0.00     0.044 C 
BRANCH  36  37
HETATM   37  C12 UNL     1      34.255   3.479  59.965  1.00  0.00     0.258 C 
HETATM   38  O6  UNL     1      33.102   3.046  59.684  1.00  0.00    -0.302 OA
ENDBRANCH  36  37
ENDBRANCH   9  35
TORSDOF 5
ENDMDL
