MODEL 1
REMARK VINA RESULT: -5.551822779      0.000      0.000
REMARK  11 active torsions:
REMARK  status: ('A' for Active; 'I' for Inactive)
REMARK    1  A    between atoms: C1_4  and  C2_5 
REMARK    2  A    between atoms: C1_4  and  N4_21 
REMARK    3  A    between atoms: C2_5  and  C3_6 
REMARK    4  A    between atoms: C3_6  and  C4_7 
REMARK    5  A    between atoms: C4_7  and  C5_8 
REMARK    6  A    between atoms: C5_8  and  C6_9 
REMARK    7  A    between atoms: C6_9  and  N2_10 
REMARK    8  A    between atoms: N3_13  and  C9_14 
REMARK    9  A    between atoms: C9_14  and  C10_15 
REMARK   10  A    between atoms: C10_15  and  O1_16 
REMARK   11  A    between atoms: C15_23  and  O2_24 
ROOT
HETATM    1  C4  UNL     1       2.729  37.196  11.023  1.00  0.00     0.002 C 
ENDROOT
BRANCH   1   2
HETATM    2  C3  UNL     1       1.532  36.440  10.583  1.00  0.00     0.007 C 
BRANCH   2   3
HETATM    3  C2  UNL     1       1.424  35.028  10.989  1.00  0.00     0.076 C 
BRANCH   3   4
HETATM    4  C1  UNL     1       0.180  34.327  10.683  1.00  0.00     0.072 C 
HETATM    5  N1  UNL     1      -0.798  34.771  10.012  1.00  0.00    -0.389 N 
ATOM      6  H12 UNL     1      -0.724  35.720   9.644  1.00  0.00     0.157 HD
ATOM      7  H11 UNL     1      -1.668  34.281   9.799  1.00  0.00     0.157 HD
BRANCH   4   8
HETATM    8  N4  UNL     1       0.075  32.981  11.205  1.00  0.00    -0.366 N 
HETATM    9  C14 UNL     1      -0.007  31.638  10.680  1.00  0.00     0.157 C 
HETATM   10  C15 UNL     1      -0.801  31.272  11.939  1.00  0.00     0.154 C 
HETATM   11  C16 UNL     1       0.008  32.416  12.540  1.00  0.00     0.157 C 
BRANCH  10  12
HETATM   12  O2  UNL     1      -2.143  31.616  11.867  1.00  0.00    -0.392 OA
ATOM     13  H2  UNL     1      -2.418  32.216  12.550  1.00  0.00     0.210 HD
ENDBRANCH  10  12
ENDBRANCH   4   8
ENDBRANCH   3   4
ENDBRANCH   2   3
ENDBRANCH   1   2
BRANCH   1  14
HETATM   14  C5  UNL     1       3.069  38.260   9.966  1.00  0.00     0.028 C 
BRANCH  14  15
HETATM   15  C6  UNL     1       3.722  37.508   8.824  1.00  0.00     0.239 C 
BRANCH  15  16
HETATM   16  N2  UNL     1       3.369  37.968   7.539  1.00  0.00    -0.040 N 
HETATM   17  C7  UNL     1       2.665  37.031   6.710  1.00  0.00     0.267 C 
HETATM   18  C8  UNL     1       2.044  37.959   5.654  1.00  0.00     0.267 C 
HETATM   19  N3  UNL     1       2.367  39.291   6.100  1.00  0.00    -0.038 N 
HETATM   20  C11 UNL     1       3.752  39.534   5.819  1.00  0.00     0.267 C 
HETATM   21  C13 UNL     1       2.409  39.084   7.558  1.00  0.00     0.473 C 
HETATM   22  C12 UNL     1       4.442  38.545   6.770  1.00  0.00     0.267 C 
BRANCH  19  23
HETATM   23  C9  UNL     1       1.469  40.301   5.701  1.00  0.00     0.265 C 
BRANCH  23  24
HETATM   24  C10 UNL     1       0.649  39.893   4.500  1.00  0.00     0.192 C 
BRANCH  24  25
HETATM   25  O1  UNL     1       1.198  40.553   3.377  1.00  0.00    -0.399 OA
ATOM     26  H1  UNL     1       0.654  41.313   3.205  1.00  0.00     0.209 HD
ENDBRANCH  24  25
ENDBRANCH  23  24
ENDBRANCH  19  23
ENDBRANCH  15  16
ENDBRANCH  14  15
ENDBRANCH   1  14
TORSDOF 11
ENDMDL
MODEL 2
REMARK VINA RESULT: -5.413903249      1.450      1.703
REMARK  11 active torsions:
REMARK  status: ('A' for Active; 'I' for Inactive)
REMARK    1  A    between atoms: C1_4  and  C2_5 
REMARK    2  A    between atoms: C1_4  and  N4_21 
REMARK    3  A    between atoms: C2_5  and  C3_6 
REMARK    4  A    between atoms: C3_6  and  C4_7 
REMARK    5  A    between atoms: C4_7  and  C5_8 
REMARK    6  A    between atoms: C5_8  and  C6_9 
REMARK    7  A    between atoms: C6_9  and  N2_10 
REMARK    8  A    between atoms: N3_13  and  C9_14 
REMARK    9  A    between atoms: C9_14  and  C10_15 
REMARK   10  A    between atoms: C10_15  and  O1_16 
REMARK   11  A    between atoms: C15_23  and  O2_24 
ROOT
HETATM    1  C4  UNL     1       1.919  36.772  10.576  1.00  0.00     0.002 C 
ENDROOT
BRANCH   1   2
HETATM    2  C3  UNL     1       2.031  35.751  11.646  1.00  0.00     0.007 C 
BRANCH   2   3
HETATM    3  C2  UNL     1       0.863  34.886  11.894  1.00  0.00     0.076 C 
BRANCH   3   4
HETATM    4  C1  UNL     1       0.285  34.184  10.751  1.00  0.00     0.072 C 
HETATM    5  N1  UNL     1      -0.761  34.503  10.112  1.00  0.00    -0.389 N 
ATOM      6  H12 UNL     1      -1.265  35.335  10.420  1.00  0.00     0.157 HD
ATOM      7  H11 UNL     1      -1.165  34.012   9.314  1.00  0.00     0.157 HD
BRANCH   4   8
HETATM    8  N4  UNL     1       1.001  33.005  10.314  1.00  0.00    -0.366 N 
HETATM    9  C14 UNL     1       2.303  32.688   9.772  1.00  0.00     0.157 C 
HETATM   10  C15 UNL     1       1.638  31.502   9.063  1.00  0.00     0.154 C 
HETATM   11  C16 UNL     1       0.676  31.592  10.243  1.00  0.00     0.157 C 
BRANCH  10  12
HETATM   12  O2  UNL     1       0.991  31.852   7.886  1.00  0.00    -0.392 OA
ATOM     13  H2  UNL     1       0.789  31.110   7.329  1.00  0.00     0.210 HD
ENDBRANCH  10  12
ENDBRANCH   4   8
ENDBRANCH   3   4
ENDBRANCH   2   3
ENDBRANCH   1   2
BRANCH   1  14
HETATM   14  C5  UNL     1       2.806  36.357   9.390  1.00  0.00     0.028 C 
BRANCH  14  15
HETATM   15  C6  UNL     1       3.569  37.605   8.994  1.00  0.00     0.239 C 
BRANCH  15  16
HETATM   16  N2  UNL     1       3.318  38.056   7.683  1.00  0.00    -0.040 N 
HETATM   17  C7  UNL     1       2.676  37.115   6.809  1.00  0.00     0.267 C 
HETATM   18  C8  UNL     1       2.142  38.037   5.702  1.00  0.00     0.267 C 
HETATM   19  N3  UNL     1       2.435  39.371   6.161  1.00  0.00    -0.038 N 
HETATM   20  C11 UNL     1       3.839  39.607   5.985  1.00  0.00     0.267 C 
HETATM   21  C13 UNL     1       2.364  39.176   7.620  1.00  0.00     0.473 C 
HETATM   22  C12 UNL     1       4.450  38.624   6.995  1.00  0.00     0.267 C 
BRANCH  19  23
HETATM   23  C9  UNL     1       1.575  40.381   5.687  1.00  0.00     0.265 C 
BRANCH  23  24
HETATM   24  C10 UNL     1       0.725  39.911   4.531  1.00  0.00     0.192 C 
BRANCH  24  25
HETATM   25  O1  UNL     1       1.218  40.542   3.366  1.00  0.00    -0.399 OA
ATOM     26  H1  UNL     1       0.817  41.403   3.323  1.00  0.00     0.209 HD
ENDBRANCH  24  25
ENDBRANCH  23  24
ENDBRANCH  19  23
ENDBRANCH  15  16
ENDBRANCH  14  15
ENDBRANCH   1  14
TORSDOF 11
ENDMDL
MODEL 3
REMARK VINA RESULT: -5.375354554      1.492      1.856
REMARK  11 active torsions:
REMARK  status: ('A' for Active; 'I' for Inactive)
REMARK    1  A    between atoms: C1_4  and  C2_5 
REMARK    2  A    between atoms: C1_4  and  N4_21 
REMARK    3  A    between atoms: C2_5  and  C3_6 
REMARK    4  A    between atoms: C3_6  and  C4_7 
REMARK    5  A    between atoms: C4_7  and  C5_8 
REMARK    6  A    between atoms: C5_8  and  C6_9 
REMARK    7  A    between atoms: C6_9  and  N2_10 
REMARK    8  A    between atoms: N3_13  and  C9_14 
REMARK    9  A    between atoms: C9_14  and  C10_15 
REMARK   10  A    between atoms: C10_15  and  O1_16 
REMARK   11  A    between atoms: C15_23  and  O2_24 
ROOT
HETATM    1  C4  UNL     1       3.034  36.945  10.992  1.00  0.00     0.002 C 
ENDROOT
BRANCH   1   2
HETATM    2  C3  UNL     1       1.771  36.998  11.767  1.00  0.00     0.007 C 
BRANCH   2   3
HETATM    3  C2  UNL     1       1.656  36.132  12.954  1.00  0.00     0.076 C 
BRANCH   3   4
HETATM    4  C1  UNL     1       1.940  34.710  12.786  1.00  0.00     0.072 C 
HETATM    5  N1  UNL     1       2.863  34.046  13.343  1.00  0.00    -0.389 N 
ATOM      6  H12 UNL     1       3.485  34.548  13.977  1.00  0.00     0.157 HD
ATOM      7  H11 UNL     1       3.061  33.052  13.225  1.00  0.00     0.157 HD
BRANCH   4   8
HETATM    8  N4  UNL     1       1.056  33.998  11.887  1.00  0.00    -0.366 N 
HETATM    9  C14 UNL     1       1.107  33.459  10.547  1.00  0.00     0.157 C 
HETATM   10  C15 UNL     1      -0.405  33.701  10.470  1.00  0.00     0.154 C 
HETATM   11  C16 UNL     1      -0.309  33.516  11.981  1.00  0.00     0.157 C 
BRANCH  10  12
HETATM   12  O2  UNL     1      -0.742  35.012  10.165  1.00  0.00    -0.392 OA
ATOM     13  H2  UNL     1      -1.336  35.089   9.428  1.00  0.00     0.210 HD
ENDBRANCH  10  12
ENDBRANCH   4   8
ENDBRANCH   3   4
ENDBRANCH   2   3
ENDBRANCH   1   2
BRANCH   1  14
HETATM   14  C5  UNL     1       2.704  36.736   9.504  1.00  0.00     0.028 C 
BRANCH  14  15
HETATM   15  C6  UNL     1       3.822  37.412   8.738  1.00  0.00     0.239 C 
BRANCH  15  16
HETATM   16  N2  UNL     1       3.450  37.911   7.474  1.00  0.00    -0.040 N 
HETATM   17  C7  UNL     1       2.748  36.994   6.621  1.00  0.00     0.267 C 
HETATM   18  C8  UNL     1       2.105  37.948   5.603  1.00  0.00     0.267 C 
HETATM   19  N3  UNL     1       2.418  39.268   6.089  1.00  0.00    -0.038 N 
HETATM   20  C11 UNL     1       3.797  39.537   5.802  1.00  0.00     0.267 C 
HETATM   21  C13 UNL     1       2.478  39.014   7.539  1.00  0.00     0.473 C 
HETATM   22  C12 UNL     1       4.509  38.525   6.713  1.00  0.00     0.267 C 
BRANCH  19  23
HETATM   23  C9  UNL     1       1.505  40.281   5.733  1.00  0.00     0.265 C 
BRANCH  23  24
HETATM   24  C10 UNL     1       0.669  39.899   4.536  1.00  0.00     0.192 C 
BRANCH  24  25
HETATM   25  O1  UNL     1       1.228  40.549   3.412  1.00  0.00    -0.399 OA
ATOM     26  H1  UNL     1       0.590  40.495   2.710  1.00  0.00     0.209 HD
ENDBRANCH  24  25
ENDBRANCH  23  24
ENDBRANCH  19  23
ENDBRANCH  15  16
ENDBRANCH  14  15
ENDBRANCH   1  14
TORSDOF 11
ENDMDL
MODEL 4
REMARK VINA RESULT: -5.334310408      5.539      9.284
REMARK  11 active torsions:
REMARK  status: ('A' for Active; 'I' for Inactive)
REMARK    1  A    between atoms: C1_4  and  C2_5 
REMARK    2  A    between atoms: C1_4  and  N4_21 
REMARK    3  A    between atoms: C2_5  and  C3_6 
REMARK    4  A    between atoms: C3_6  and  C4_7 
REMARK    5  A    between atoms: C4_7  and  C5_8 
REMARK    6  A    between atoms: C5_8  and  C6_9 
REMARK    7  A    between atoms: C6_9  and  N2_10 
REMARK    8  A    between atoms: N3_13  and  C9_14 
REMARK    9  A    between atoms: C9_14  and  C10_15 
REMARK   10  A    between atoms: C10_15  and  O1_16 
REMARK   11  A    between atoms: C15_23  and  O2_24 
ROOT
HETATM    1  C4  UNL     1       2.303  29.518   7.928  1.00  0.00     0.002 C 
ENDROOT
BRANCH   1   2
HETATM    2  C3  UNL     1       2.780  30.278   6.747  1.00  0.00     0.007 C 
BRANCH   2   3
HETATM    3  C2  UNL     1       4.110  29.943   6.207  1.00  0.00     0.076 C 
BRANCH   3   4
HETATM    4  C1  UNL     1       4.455  30.462   4.886  1.00  0.00     0.072 C 
HETATM    5  N1  UNL     1       5.021  31.564   4.625  1.00  0.00    -0.389 N 
ATOM      6  H12 UNL     1       5.262  32.167   5.412  1.00  0.00     0.157 HD
ATOM      7  H11 UNL     1       5.262  31.927   3.702  1.00  0.00     0.157 HD
BRANCH   4   8
HETATM    8  N4  UNL     1       4.113  29.607   3.770  1.00  0.00    -0.366 N 
HETATM    9  C14 UNL     1       4.807  28.884   2.729  1.00  0.00     0.157 C 
HETATM   10  C15 UNL     1       3.555  29.072   1.864  1.00  0.00     0.154 C 
HETATM   11  C16 UNL     1       2.865  29.107   3.224  1.00  0.00     0.157 C 
BRANCH  10  12
HETATM   12  O2  UNL     1       3.483  30.317   1.255  1.00  0.00    -0.392 OA
ATOM     13  H2  UNL     1       2.699  30.441   0.735  1.00  0.00     0.210 HD
ENDBRANCH  10  12
ENDBRANCH   4   8
ENDBRANCH   3   4
ENDBRANCH   2   3
ENDBRANCH   1   2
BRANCH   1  14
HETATM   14  C5  UNL     1       2.116  30.488   9.108  1.00  0.00     0.028 C 
BRANCH  14  15
HETATM   15  C6  UNL     1       1.431  29.683  10.193  1.00  0.00     0.239 C 
BRANCH  15  16
HETATM   16  N2  UNL     1       0.796  30.456  11.186  1.00  0.00    -0.040 N 
HETATM   17  C7  UNL     1       1.561  30.696  12.377  1.00  0.00     0.267 C 
HETATM   18  C8  UNL     1       0.819  31.897  12.984  1.00  0.00     0.267 C 
HETATM   19  N3  UNL     1      -0.171  32.253  12.000  1.00  0.00    -0.038 N 
HETATM   20  C11 UNL     1      -1.230  31.287  12.060  1.00  0.00     0.267 C 
HETATM   21  C13 UNL     1       0.516  31.839  10.764  1.00  0.00     0.473 C 
HETATM   22  C12 UNL     1      -0.521  30.016  11.568  1.00  0.00     0.267 C 
BRANCH  19  23
HETATM   23  C9  UNL     1      -0.569  33.604  11.996  1.00  0.00     0.265 C 
BRANCH  23  24
HETATM   24  C10 UNL     1       0.065  34.382  10.868  1.00  0.00     0.192 C 
BRANCH  24  25
HETATM   25  O1  UNL     1      -0.985  34.881  10.064  1.00  0.00    -0.399 OA
ATOM     26  H1  UNL     1      -1.187  35.755  10.377  1.00  0.00     0.209 HD
ENDBRANCH  24  25
ENDBRANCH  23  24
ENDBRANCH  19  23
ENDBRANCH  15  16
ENDBRANCH  14  15
ENDBRANCH   1  14
TORSDOF 11
ENDMDL
MODEL 5
REMARK VINA RESULT: -5.291633995      8.688     10.148
REMARK  11 active torsions:
REMARK  status: ('A' for Active; 'I' for Inactive)
REMARK    1  A    between atoms: C1_4  and  C2_5 
REMARK    2  A    between atoms: C1_4  and  N4_21 
REMARK    3  A    between atoms: C2_5  and  C3_6 
REMARK    4  A    between atoms: C3_6  and  C4_7 
REMARK    5  A    between atoms: C4_7  and  C5_8 
REMARK    6  A    between atoms: C5_8  and  C6_9 
REMARK    7  A    between atoms: C6_9  and  N2_10 
REMARK    8  A    between atoms: N3_13  and  C9_14 
REMARK    9  A    between atoms: C9_14  and  C10_15 
REMARK   10  A    between atoms: C10_15  and  O1_16 
REMARK   11  A    between atoms: C15_23  and  O2_24 
ROOT
HETATM    1  C4  UNL     1       0.686  26.854   7.913  1.00  0.00     0.002 C 
ENDROOT
BRANCH   1   2
HETATM    2  C3  UNL     1       0.226  26.155   6.689  1.00  0.00     0.007 C 
BRANCH   2   3
HETATM    3  C2  UNL     1      -0.613  24.955   6.858  1.00  0.00     0.076 C 
BRANCH   3   4
HETATM    4  C1  UNL     1      -1.988  25.015   6.372  1.00  0.00     0.072 C 
HETATM    5  N1  UNL     1      -2.369  25.049   5.165  1.00  0.00    -0.389 N 
ATOM      6  H12 UNL     1      -1.647  25.039   4.444  1.00  0.00     0.157 HD
ATOM      7  H11 UNL     1      -3.330  25.091   4.826  1.00  0.00     0.157 HD
BRANCH   4   8
HETATM    8  N4  UNL     1      -3.012  25.029   7.395  1.00  0.00    -0.366 N 
HETATM    9  C14 UNL     1      -4.254  25.721   7.651  1.00  0.00     0.157 C 
HETATM   10  C15 UNL     1      -3.968  25.533   9.145  1.00  0.00     0.154 C 
HETATM   11  C16 UNL     1      -3.208  24.311   8.641  1.00  0.00     0.157 C 
BRANCH  10  12
HETATM   12  O2  UNL     1      -3.086  26.470   9.663  1.00  0.00    -0.392 OA
ATOM     13  H2  UNL     1      -3.445  27.349   9.702  1.00  0.00     0.210 HD
ENDBRANCH  10  12
ENDBRANCH   4   8
ENDBRANCH   3   4
ENDBRANCH   2   3
ENDBRANCH   1   2
BRANCH   1  14
HETATM   14  C5  UNL     1       1.884  27.752   7.559  1.00  0.00     0.028 C 
BRANCH  14  15
HETATM   15  C6  UNL     1       2.399  27.241   6.229  1.00  0.00     0.239 C 
BRANCH  15  16
HETATM   16  N2  UNL     1       3.447  28.001   5.673  1.00  0.00    -0.040 N 
HETATM   17  C7  UNL     1       4.764  27.447   5.813  1.00  0.00     0.267 C 
HETATM   18  C8  UNL     1       5.542  28.224   4.738  1.00  0.00     0.267 C 
HETATM   19  N3  UNL     1       4.543  29.006   4.055  1.00  0.00    -0.038 N 
HETATM   20  C11 UNL     1       4.179  30.106   4.901  1.00  0.00     0.267 C 
HETATM   21  C13 UNL     1       3.366  28.133   4.209  1.00  0.00     0.473 C 
HETATM   22  C12 UNL     1       3.488  29.386   6.069  1.00  0.00     0.267 C 
BRANCH  19  23
HETATM   23  C9  UNL     1       4.833  29.328   2.715  1.00  0.00     0.265 C 
BRANCH  23  24
HETATM   24  C10 UNL     1       3.588  29.405   1.865  1.00  0.00     0.192 C 
BRANCH  24  25
HETATM   25  O1  UNL     1       3.843  30.337   0.833  1.00  0.00    -0.399 OA
ATOM     26  H1  UNL     1       3.414  31.149   1.075  1.00  0.00     0.209 HD
ENDBRANCH  24  25
ENDBRANCH  23  24
ENDBRANCH  19  23
ENDBRANCH  15  16
ENDBRANCH  14  15
ENDBRANCH   1  14
TORSDOF 11
ENDMDL
