MODEL 1
REMARK VINA RESULT: -6.761564346      0.000      0.000
REMARK  4 active torsions:
REMARK  status: ('A' for Active; 'I' for Inactive)
REMARK    1  A    between atoms: C2_2  and  C3_3 
REMARK    2  A    between atoms: C3_3  and  C4_7 
REMARK    3  A    between atoms: C6_9  and  C7_10 
REMARK    4  A    between atoms: C7_10  and  N2_11 
REMARK       I    between atoms: N2_11  and  C8_13 
ROOT
HETATM    1  C4  UNL     1      22.974  -4.274  10.791  1.00  0.00     0.173 C 
HETATM    2  C5  UNL     1      23.197  -2.906  11.329  1.00  0.00     0.072 C 
HETATM    3  C6  UNL     1      21.713  -2.832  11.100  1.00  0.00     0.143 C 
HETATM    4  O1  UNL     1      21.879  -3.810  10.105  1.00  0.00    -0.373 OA
ENDROOT
BRANCH   3   5
HETATM    5  C7  UNL     1      20.903  -3.249  12.273  1.00  0.00     0.154 C 
BRANCH   5   6
HETATM    6  N2  UNL     1      19.952  -2.256  12.701  1.00  0.00    -0.362 N 
HETATM    7  C8  UNL     1      18.548  -2.400  12.564  1.00  0.00     0.181 C 
HETATM    8  N3  UNL     1      17.955  -2.315  11.415  1.00  0.00    -0.374 N 
HETATM    9  N4  UNL     1      17.713  -2.635  13.686  1.00  0.00    -0.064 NA
ATOM     10  H32 UNL     1      18.555  -2.146  10.608  1.00  0.00     0.158 HD
ATOM     11  H31 UNL     1      16.945  -2.419  11.317  1.00  0.00     0.158 HD
ATOM     12  H2  UNL     1      20.309  -1.400  13.126  1.00  0.00     0.162 HD
ENDBRANCH   5   6
ENDBRANCH   3   5
BRANCH   1  13
HETATM   13  C3  UNL     1      24.037  -4.902  10.002  1.00  0.00     0.031 C 
HETATM   14  N1  UNL     1      24.677  -4.170   9.138  1.00  0.00    -0.400 N 
ATOM     15  H12 UNL     1      25.417  -4.608   8.589  1.00  0.00     0.156 HD
ATOM     16  H11 UNL     1      24.401  -3.190   9.074  1.00  0.00     0.156 HD
BRANCH  13  17
HETATM   17  C2  UNL     1      24.425  -6.282  10.092  1.00  0.00     0.017 C 
HETATM   18  C1  UNL     1      24.445  -7.017  11.184  1.00  0.00     0.013 C 
ENDBRANCH  13  17
ENDBRANCH   1  13
TORSDOF 4
ENDMDL
MODEL 2
REMARK VINA RESULT: -6.699144256      1.159      1.513
REMARK  4 active torsions:
REMARK  status: ('A' for Active; 'I' for Inactive)
REMARK    1  A    between atoms: C2_2  and  C3_3 
REMARK    2  A    between atoms: C3_3  and  C4_7 
REMARK    3  A    between atoms: C6_9  and  C7_10 
REMARK    4  A    between atoms: C7_10  and  N2_11 
REMARK       I    between atoms: N2_11  and  C8_13 
ROOT
HETATM    1  C4  UNL     1      23.336  -4.907  11.061  1.00  0.00     0.173 C 
HETATM    2  C5  UNL     1      23.687  -3.599  10.448  1.00  0.00     0.072 C 
HETATM    3  C6  UNL     1      22.201  -3.410  10.576  1.00  0.00     0.143 C 
HETATM    4  O1  UNL     1      22.079  -4.809  10.517  1.00  0.00    -0.373 OA
ENDROOT
BRANCH   3   5
HETATM    5  C7  UNL     1      21.783  -2.788  11.859  1.00  0.00     0.154 C 
BRANCH   5   6
HETATM    6  N2  UNL     1      20.593  -3.370  12.422  1.00  0.00    -0.362 N 
HETATM    7  C8  UNL     1      19.425  -2.628  12.730  1.00  0.00     0.181 C 
HETATM    8  N3  UNL     1      19.371  -1.814  13.737  1.00  0.00    -0.374 N 
HETATM    9  N4  UNL     1      18.243  -2.749  11.955  1.00  0.00    -0.064 NA
ATOM     10  H32 UNL     1      20.221  -1.726  14.294  1.00  0.00     0.158 HD
ATOM     11  H31 UNL     1      18.530  -1.280  13.958  1.00  0.00     0.158 HD
ATOM     12  H2  UNL     1      20.591  -4.373  12.609  1.00  0.00     0.162 HD
ENDBRANCH   5   6
ENDBRANCH   3   5
BRANCH   1  13
HETATM   13  C3  UNL     1      24.126  -6.088  10.701  1.00  0.00     0.031 C 
HETATM   14  N1  UNL     1      24.884  -6.024   9.646  1.00  0.00    -0.400 N 
ATOM     15  H12 UNL     1      25.433  -6.846   9.396  1.00  0.00     0.156 HD
ATOM     16  H11 UNL     1      24.887  -5.140   9.137  1.00  0.00     0.156 HD
BRANCH  13  17
HETATM   17  C2  UNL     1      24.121  -7.333  11.419  1.00  0.00     0.017 C 
HETATM   18  C1  UNL     1      24.390  -8.521  10.921  1.00  0.00     0.013 C 
ENDBRANCH  13  17
ENDBRANCH   1  13
TORSDOF 4
ENDMDL
MODEL 3
REMARK VINA RESULT: -6.449998318      1.982      2.748
REMARK  4 active torsions:
REMARK  status: ('A' for Active; 'I' for Inactive)
REMARK    1  A    between atoms: C2_2  and  C3_3 
REMARK    2  A    between atoms: C3_3  and  C4_7 
REMARK    3  A    between atoms: C6_9  and  C7_10 
REMARK    4  A    between atoms: C7_10  and  N2_11 
REMARK       I    between atoms: N2_11  and  C8_13 
ROOT
HETATM    1  C4  UNL     1      23.524  -5.875  10.762  1.00  0.00     0.173 C 
HETATM    2  C5  UNL     1      24.268  -5.119   9.720  1.00  0.00     0.072 C 
HETATM    3  C6  UNL     1      23.195  -4.112  10.023  1.00  0.00     0.143 C 
HETATM    4  O1  UNL     1      22.384  -5.186  10.428  1.00  0.00    -0.373 OA
ENDROOT
BRANCH   3   5
HETATM    5  C7  UNL     1      23.558  -3.149  11.094  1.00  0.00     0.154 C 
BRANCH   5   6
HETATM    6  N2  UNL     1      22.459  -2.330  11.532  1.00  0.00    -0.362 N 
HETATM    7  C8  UNL     1      21.099  -2.629  11.262  1.00  0.00     0.181 C 
HETATM    8  N3  UNL     1      20.585  -2.493  10.080  1.00  0.00    -0.374 N 
HETATM    9  N4  UNL     1      20.222  -3.082  12.280  1.00  0.00    -0.064 NA
ATOM     10  H32 UNL     1      21.216  -2.168   9.348  1.00  0.00     0.158 HD
ATOM     11  H31 UNL     1      19.607  -2.708   9.886  1.00  0.00     0.158 HD
ATOM     12  H2  UNL     1      22.670  -1.489  12.068  1.00  0.00     0.162 HD
ENDBRANCH   5   6
ENDBRANCH   3   5
BRANCH   1  13
HETATM   13  C3  UNL     1      23.470  -7.336  10.670  1.00  0.00     0.031 C 
HETATM   14  N1  UNL     1      22.308  -7.901  10.518  1.00  0.00    -0.400 N 
ATOM     15  H12 UNL     1      22.271  -8.918  10.454  1.00  0.00     0.156 HD
ATOM     16  H11 UNL     1      21.501  -7.280  10.462  1.00  0.00     0.156 HD
BRANCH  13  17
HETATM   17  C2  UNL     1      24.607  -8.210  10.749  1.00  0.00     0.017 C 
HETATM   18  C1  UNL     1      24.668  -9.355  11.395  1.00  0.00     0.013 C 
ENDBRANCH  13  17
ENDBRANCH   1  13
TORSDOF 4
ENDMDL
MODEL 4
REMARK VINA RESULT: -6.360143901      1.529      1.814
REMARK  4 active torsions:
REMARK  status: ('A' for Active; 'I' for Inactive)
REMARK    1  A    between atoms: C2_2  and  C3_3 
REMARK    2  A    between atoms: C3_3  and  C4_7 
REMARK    3  A    between atoms: C6_9  and  C7_10 
REMARK    4  A    between atoms: C7_10  and  N2_11 
REMARK       I    between atoms: N2_11  and  C8_13 
ROOT
HETATM    1  C4  UNL     1      23.297  -4.918  11.077  1.00  0.00     0.173 C 
HETATM    2  C5  UNL     1      23.680  -3.729  10.269  1.00  0.00     0.072 C 
HETATM    3  C6  UNL     1      22.229  -3.406  10.494  1.00  0.00     0.143 C 
HETATM    4  O1  UNL     1      22.004  -4.787  10.631  1.00  0.00    -0.373 OA
ENDROOT
BRANCH   3   5
HETATM    5  C7  UNL     1      21.976  -2.596  11.713  1.00  0.00     0.154 C 
BRANCH   5   6
HETATM    6  N2  UNL     1      20.592  -2.566  12.109  1.00  0.00    -0.362 N 
HETATM    7  C8  UNL     1      20.124  -3.025  13.366  1.00  0.00     0.181 C 
HETATM    8  N3  UNL     1      20.067  -4.284  13.663  1.00  0.00    -0.374 N 
HETATM    9  N4  UNL     1      19.678  -2.123  14.366  1.00  0.00    -0.064 NA
ATOM     10  H32 UNL     1      20.388  -4.933  12.944  1.00  0.00     0.158 HD
ATOM     11  H31 UNL     1      19.731  -4.614  14.567  1.00  0.00     0.158 HD
ATOM     12  H2  UNL     1      19.911  -2.193  11.448  1.00  0.00     0.162 HD
ENDBRANCH   5   6
ENDBRANCH   3   5
BRANCH   1  13
HETATM   13  C3  UNL     1      23.966  -6.194  10.814  1.00  0.00     0.031 C 
HETATM   14  N1  UNL     1      24.871  -6.234   9.880  1.00  0.00    -0.400 N 
ATOM     15  H12 UNL     1      25.336  -7.123   9.697  1.00  0.00     0.156 HD
ATOM     16  H11 UNL     1      25.066  -5.359   9.393  1.00  0.00     0.156 HD
BRANCH  13  17
HETATM   17  C2  UNL     1      23.691  -7.426  11.499  1.00  0.00     0.017 C 
HETATM   18  C1  UNL     1      24.113  -8.623  11.153  1.00  0.00     0.013 C 
ENDBRANCH  13  17
ENDBRANCH   1  13
TORSDOF 4
ENDMDL
MODEL 5
REMARK VINA RESULT: -6.228575969      1.040      1.423
REMARK  4 active torsions:
REMARK  status: ('A' for Active; 'I' for Inactive)
REMARK    1  A    between atoms: C2_2  and  C3_3 
REMARK    2  A    between atoms: C3_3  and  C4_7 
REMARK    3  A    between atoms: C6_9  and  C7_10 
REMARK    4  A    between atoms: C7_10  and  N2_11 
REMARK       I    between atoms: N2_11  and  C8_13 
ROOT
HETATM    1  C4  UNL     1      22.837  -4.298  10.932  1.00  0.00     0.173 C 
HETATM    2  C5  UNL     1      23.116  -2.919  11.411  1.00  0.00     0.072 C 
HETATM    3  C6  UNL     1      21.630  -2.806  11.215  1.00  0.00     0.143 C 
HETATM    4  O1  UNL     1      21.739  -3.826  10.255  1.00  0.00    -0.373 OA
ENDROOT
BRANCH   3   5
HETATM    5  C7  UNL     1      20.836  -3.151  12.423  1.00  0.00     0.154 C 
BRANCH   5   6
HETATM    6  N2  UNL     1      19.848  -2.163  12.766  1.00  0.00    -0.362 N 
HETATM    7  C8  UNL     1      18.454  -2.345  12.575  1.00  0.00     0.181 C 
HETATM    8  N3  UNL     1      17.911  -2.320  11.399  1.00  0.00    -0.374 N 
HETATM    9  N4  UNL     1      17.576  -2.552  13.669  1.00  0.00    -0.064 NA
ATOM     10  H32 UNL     1      18.543  -2.171  10.612  1.00  0.00     0.158 HD
ATOM     11  H31 UNL     1      16.909  -2.451  11.262  1.00  0.00     0.158 HD
ATOM     12  H2  UNL     1      20.168  -1.283  13.171  1.00  0.00     0.162 HD
ENDBRANCH   5   6
ENDBRANCH   3   5
BRANCH   1  13
HETATM   13  C3  UNL     1      23.859  -4.990  10.142  1.00  0.00     0.031 C 
HETATM   14  N1  UNL     1      23.998  -6.273  10.304  1.00  0.00    -0.400 N 
ATOM     15  H12 UNL     1      24.710  -6.754   9.754  1.00  0.00     0.156 HD
ATOM     16  H11 UNL     1      23.370  -6.722  10.970  1.00  0.00     0.156 HD
BRANCH  13  17
HETATM   17  C2  UNL     1      24.744  -4.357   9.203  1.00  0.00     0.017 C 
HETATM   18  C1  UNL     1      25.095  -4.826   8.025  1.00  0.00     0.013 C 
ENDBRANCH  13  17
ENDBRANCH   1  13
TORSDOF 4
ENDMDL
