MODEL 1
REMARK VINA RESULT: -7.096580095      0.000      0.000
REMARK  4 active torsions:
REMARK  status: ('A' for Active; 'I' for Inactive)
REMARK    1  A    between atoms: C2_2  and  C3_3 
REMARK    2  A    between atoms: C3_3  and  N1_4 
REMARK    3  A    between atoms: N1_4  and  C4_6 
REMARK    4  A    between atoms: C5_7  and  C6_8 
ROOT
HETATM    1  C4  UNL     1      23.047  -4.665  10.401  1.00  0.00     0.132 A 
HETATM    2  C5  UNL     1      22.613  -3.421  10.775  1.00  0.00     0.145 A 
HETATM    3  N3  UNL     1      23.702  -2.666  11.116  1.00  0.00    -0.291 N 
ATOM      4  H3  UNL     1      23.692  -1.697  11.435  1.00  0.00     0.187 HD
HETATM    5  N4  UNL     1      24.768  -3.424  10.955  1.00  0.00    -0.264 N 
ATOM      6  H4  UNL     1      25.726  -3.124  11.134  1.00  0.00     0.190 HD
HETATM    7  C7  UNL     1      24.418  -4.648  10.522  1.00  0.00     0.288 A 
HETATM    8  O2  UNL     1      25.222  -5.583  10.281  1.00  0.00    -0.264 OA
ENDROOT
BRANCH   1   9
HETATM    9  N1  UNL     1      22.216  -5.752   9.968  1.00  0.00    -0.380 N 
ATOM     10  H1  UNL     1      21.668  -5.695   9.110  1.00  0.00     0.160 HD
BRANCH   9  11
HETATM   11  C3  UNL     1      22.190  -6.930  10.801  1.00  0.00     0.146 C 
BRANCH  11  12
HETATM   12  C2  UNL     1      22.734  -8.136  10.196  1.00  0.00    -0.018 C 
HETATM   13  C1  UNL     1      23.816  -8.731  10.561  1.00  0.00     0.008 C 
ENDBRANCH  11  12
ENDBRANCH   9  11
ENDBRANCH   1   9
BRANCH   2  14
HETATM   14  C6  UNL     1      21.248  -2.885  10.837  1.00  0.00     0.285 C 
HETATM   15  N2  UNL     1      20.834  -2.116  11.968  1.00  0.00    -0.056 NA
HETATM   16  O1  UNL     1      20.407  -3.066   9.936  1.00  0.00    -0.269 OA
ENDBRANCH   2  14
TORSDOF 4
ENDMDL
MODEL 2
REMARK VINA RESULT: -6.436682623      1.240      1.240
REMARK  4 active torsions:
REMARK  status: ('A' for Active; 'I' for Inactive)
REMARK    1  A    between atoms: C2_2  and  C3_3 
REMARK    2  A    between atoms: C3_3  and  N1_4 
REMARK    3  A    between atoms: N1_4  and  C4_6 
REMARK    4  A    between atoms: C5_7  and  C6_8 
ROOT
HETATM    1  C4  UNL     1      23.038  -4.995  10.400  1.00  0.00     0.132 A 
HETATM    2  C5  UNL     1      22.418  -3.781  10.530  1.00  0.00     0.145 A 
HETATM    3  N3  UNL     1      22.959  -2.918   9.615  1.00  0.00    -0.291 N 
ATOM      4  H3  UNL     1      22.699  -1.941   9.476  1.00  0.00     0.187 HD
HETATM    5  N4  UNL     1      23.880  -3.584   8.949  1.00  0.00    -0.264 N 
ATOM      6  H4  UNL     1      24.452  -3.193   8.200  1.00  0.00     0.190 HD
HETATM    7  C7  UNL     1      23.963  -4.850   9.392  1.00  0.00     0.288 A 
HETATM    8  O2  UNL     1      24.754  -5.719   8.944  1.00  0.00    -0.264 OA
ENDROOT
BRANCH   1   9
HETATM    9  N1  UNL     1      22.757  -6.171  11.174  1.00  0.00    -0.380 N 
ATOM     10  H1  UNL     1      23.040  -6.246  12.151  1.00  0.00     0.160 HD
BRANCH   9  11
HETATM   11  C3  UNL     1      22.055  -7.242  10.509  1.00  0.00     0.146 C 
BRANCH  11  12
HETATM   12  C2  UNL     1      22.881  -8.361  10.082  1.00  0.00    -0.018 C 
HETATM   13  C1  UNL     1      23.963  -8.754  10.660  1.00  0.00     0.008 C 
ENDBRANCH  11  12
ENDBRANCH   9  11
ENDBRANCH   1   9
BRANCH   2  14
HETATM   14  C6  UNL     1      21.352  -3.367  11.449  1.00  0.00     0.285 C 
HETATM   15  N2  UNL     1      21.201  -1.988  11.793  1.00  0.00    -0.056 NA
HETATM   16  O1  UNL     1      20.549  -4.170  11.962  1.00  0.00    -0.269 OA
ENDBRANCH   2  14
TORSDOF 4
ENDMDL
MODEL 3
REMARK VINA RESULT: -6.413131923      1.130      1.195
REMARK  4 active torsions:
REMARK  status: ('A' for Active; 'I' for Inactive)
REMARK    1  A    between atoms: C2_2  and  C3_3 
REMARK    2  A    between atoms: C3_3  and  N1_4 
REMARK    3  A    between atoms: N1_4  and  C4_6 
REMARK    4  A    between atoms: C5_7  and  C6_8 
ROOT
HETATM    1  C4  UNL     1      23.278  -4.813  10.818  1.00  0.00     0.132 A 
HETATM    2  C5  UNL     1      22.675  -3.749  10.203  1.00  0.00     0.145 A 
HETATM    3  N3  UNL     1      23.430  -3.387   9.120  1.00  0.00    -0.291 N 
ATOM      4  H3  UNL     1      23.232  -2.627   8.470  1.00  0.00     0.187 HD
HETATM    5  N4  UNL     1      24.463  -4.206   9.076  1.00  0.00    -0.264 N 
ATOM      6  H4  UNL     1      25.198  -4.174   8.371  1.00  0.00     0.190 HD
HETATM    7  C7  UNL     1      24.412  -5.088  10.089  1.00  0.00     0.288 A 
HETATM    8  O2  UNL     1      25.262  -5.990  10.301  1.00  0.00    -0.264 OA
ENDROOT
BRANCH   1   9
HETATM    9  N1  UNL     1      22.800  -5.491  11.990  1.00  0.00    -0.380 N 
ATOM     10  H1  UNL     1      23.030  -5.161  12.927  1.00  0.00     0.160 HD
BRANCH   9  11
HETATM   11  C3  UNL     1      21.978  -6.658  11.783  1.00  0.00     0.146 C 
BRANCH  11  12
HETATM   12  C2  UNL     1      22.119  -7.300  10.485  1.00  0.00    -0.018 C 
HETATM   13  C1  UNL     1      22.800  -8.367  10.249  1.00  0.00     0.008 C 
ENDBRANCH  11  12
ENDBRANCH   9  11
ENDBRANCH   1   9
BRANCH   2  14
HETATM   14  C6  UNL     1      21.437  -3.042  10.555  1.00  0.00     0.285 C 
HETATM   15  N2  UNL     1      21.369  -2.281  11.763  1.00  0.00    -0.056 NA
HETATM   16  O1  UNL     1      20.416  -3.068   9.843  1.00  0.00    -0.269 OA
ENDBRANCH   2  14
TORSDOF 4
ENDMDL
MODEL 4
REMARK VINA RESULT: -6.308792197      1.535      3.293
REMARK  4 active torsions:
REMARK  status: ('A' for Active; 'I' for Inactive)
REMARK    1  A    between atoms: C2_2  and  C3_3 
REMARK    2  A    between atoms: C3_3  and  N1_4 
REMARK    3  A    between atoms: N1_4  and  C4_6 
REMARK    4  A    between atoms: C5_7  and  C6_8 
ROOT
HETATM    1  C4  UNL     1      22.348  -4.616  10.947  1.00  0.00     0.132 A 
HETATM    2  C5  UNL     1      23.104  -4.115   9.921  1.00  0.00     0.145 A 
HETATM    3  N3  UNL     1      22.532  -2.948   9.491  1.00  0.00    -0.291 N 
ATOM      4  H3  UNL     1      22.871  -2.349   8.738  1.00  0.00     0.187 HD
HETATM    5  N4  UNL     1      21.461  -2.744  10.231  1.00  0.00    -0.264 N 
ATOM      6  H4  UNL     1      20.834  -1.945  10.136  1.00  0.00     0.190 HD
HETATM    7  C7  UNL     1      21.310  -3.733  11.129  1.00  0.00     0.288 A 
HETATM    8  O2  UNL     1      20.377  -3.805  11.969  1.00  0.00    -0.264 OA
ENDROOT
BRANCH   1   9
HETATM    9  N1  UNL     1      22.612  -5.826  11.674  1.00  0.00    -0.380 N 
ATOM     10  H1  UNL     1      23.219  -5.833  12.494  1.00  0.00     0.160 HD
BRANCH   9  11
HETATM   11  C3  UNL     1      21.980  -7.031  11.195  1.00  0.00     0.146 C 
BRANCH  11  12
HETATM   12  C2  UNL     1      22.783  -7.841  10.291  1.00  0.00    -0.018 C 
HETATM   13  C1  UNL     1      23.859  -8.472  10.610  1.00  0.00     0.008 C 
ENDBRANCH  11  12
ENDBRANCH   9  11
ENDBRANCH   1   9
BRANCH   2  14
HETATM   14  C6  UNL     1      24.327  -4.650   9.311  1.00  0.00     0.285 C 
HETATM   15  N2  UNL     1      24.510  -4.575   7.895  1.00  0.00    -0.056 NA
HETATM   16  O1  UNL     1      25.240  -5.179   9.973  1.00  0.00    -0.269 OA
ENDBRANCH   2  14
TORSDOF 4
ENDMDL
MODEL 5
REMARK VINA RESULT: -6.170555133      0.867      1.266
REMARK  4 active torsions:
REMARK  status: ('A' for Active; 'I' for Inactive)
REMARK    1  A    between atoms: C2_2  and  C3_3 
REMARK    2  A    between atoms: C3_3  and  N1_4 
REMARK    3  A    between atoms: N1_4  and  C4_6 
REMARK    4  A    between atoms: C5_7  and  C6_8 
ROOT
HETATM    1  C4  UNL     1      23.006  -4.384  10.299  1.00  0.00     0.132 A 
HETATM    2  C5  UNL     1      22.474  -3.241  10.834  1.00  0.00     0.145 A 
HETATM    3  N3  UNL     1      23.500  -2.454  11.283  1.00  0.00    -0.291 N 
ATOM      4  H3  UNL     1      23.413  -1.541  11.730  1.00  0.00     0.187 HD
HETATM    5  N4  UNL     1      24.623  -3.097  11.030  1.00  0.00    -0.264 N 
ATOM      6  H4  UNL     1      25.554  -2.748  11.257  1.00  0.00     0.190 HD
HETATM    7  C7  UNL     1      24.370  -4.274  10.434  1.00  0.00     0.288 A 
HETATM    8  O2  UNL     1      25.247  -5.102  10.075  1.00  0.00    -0.264 OA
ENDROOT
BRANCH   1   9
HETATM    9  N1  UNL     1      22.263  -5.466   9.717  1.00  0.00    -0.380 N 
ATOM     10  H1  UNL     1      21.722  -5.340   8.862  1.00  0.00     0.160 HD
BRANCH   9  11
HETATM   11  C3  UNL     1      22.316  -6.738  10.395  1.00  0.00     0.146 C 
BRANCH  11  12
HETATM   12  C2  UNL     1      22.360  -6.671  11.848  1.00  0.00    -0.018 C 
HETATM   13  C1  UNL     1      21.337  -6.721  12.629  1.00  0.00     0.008 C 
ENDBRANCH  11  12
ENDBRANCH   9  11
ENDBRANCH   1   9
BRANCH   2  14
HETATM   14  C6  UNL     1      21.071  -2.828  10.956  1.00  0.00     0.285 C 
HETATM   15  N2  UNL     1      20.628  -2.139  12.127  1.00  0.00    -0.056 NA
HETATM   16  O1  UNL     1      20.220  -3.050  10.073  1.00  0.00    -0.269 OA
ENDBRANCH   2  14
TORSDOF 4
ENDMDL
