MODEL 1
REMARK VINA RESULT: -6.300544434      0.000      0.000
REMARK  4 active torsions:
REMARK  status: ('A' for Active; 'I' for Inactive)
REMARK    1  A    between atoms: C2_2  and  C3_3 
REMARK       I    between atoms: C3_3  and  N1_5 
REMARK    2  A    between atoms: N1_5  and  C4_7 
REMARK    3  A    between atoms: C4_7  and  N2_9 
REMARK    4  A    between atoms: N2_9  and  N3_11 
REMARK       I    between atoms: N3_11  and  C5_12 
ROOT
HETATM    1  C4  UNL     1      24.554  -5.011   9.782  1.00  0.00     0.203 C 
HETATM    2  S1  UNL     1      25.006  -4.705   8.205  1.00  0.00    -0.038 SA
ENDROOT
BRANCH   1   3
HETATM    3  N1  UNL     1      24.397  -6.341  10.107  1.00  0.00    -0.302 N 
HETATM    4  C3  UNL     1      23.310  -6.959  10.819  1.00  0.00     0.223 C 
HETATM    5  O1  UNL     1      22.352  -6.361  11.243  1.00  0.00    -0.273 OA
ATOM      6  H1  UNL     1      25.145  -6.966   9.805  1.00  0.00     0.171 HD
BRANCH   4   7
HETATM    7  C2  UNL     1      23.423  -8.467  11.003  1.00  0.00     0.099 C 
HETATM    8  C1  UNL     1      24.917  -8.862  11.077  1.00  0.00     0.014 C 
ENDBRANCH   4   7
ENDBRANCH   1   3
BRANCH   1   9
HETATM    9  N2  UNL     1      24.469  -3.876  10.620  1.00  0.00    -0.204 N 
ATOM     10  H2  UNL     1      25.345  -3.446  10.916  1.00  0.00     0.204 HD
BRANCH   9  11
HETATM   11  N3  UNL     1      23.335  -3.320  11.055  1.00  0.00    -0.265 NA
HETATM   12  C5  UNL     1      22.203  -2.766  11.492  1.00  0.00     0.424 C 
HETATM   13  N4  UNL     1      21.050  -2.972  10.673  1.00  0.00    -0.024 NA
HETATM   14  O2  UNL     1      22.005  -2.081  12.520  1.00  0.00    -0.232 OA
ENDBRANCH   9  11
ENDBRANCH   1   9
TORSDOF 4
ENDMDL
MODEL 2
REMARK VINA RESULT: -6.155536536      1.613      1.764
REMARK  4 active torsions:
REMARK  status: ('A' for Active; 'I' for Inactive)
REMARK    1  A    between atoms: C2_2  and  C3_3 
REMARK       I    between atoms: C3_3  and  N1_5 
REMARK    2  A    between atoms: N1_5  and  C4_7 
REMARK    3  A    between atoms: C4_7  and  N2_9 
REMARK    4  A    between atoms: N2_9  and  N3_11 
REMARK       I    between atoms: N3_11  and  C5_12 
ROOT
HETATM    1  C4  UNL     1      23.390  -4.633  10.274  1.00  0.00     0.203 C 
HETATM    2  S1  UNL     1      24.667  -3.782  10.929  1.00  0.00    -0.038 SA
ENDROOT
BRANCH   1   3
HETATM    3  N1  UNL     1      23.579  -5.993  10.161  1.00  0.00    -0.302 N 
HETATM    4  C3  UNL     1      22.907  -7.046  10.875  1.00  0.00     0.223 C 
HETATM    5  O1  UNL     1      22.052  -6.861  11.705  1.00  0.00    -0.273 OA
ATOM      6  H1  UNL     1      24.284  -6.291   9.486  1.00  0.00     0.171 HD
BRANCH   4   7
HETATM    7  C2  UNL     1      23.333  -8.462  10.506  1.00  0.00     0.099 C 
HETATM    8  C1  UNL     1      24.766  -8.717  11.027  1.00  0.00     0.014 C 
ENDBRANCH   4   7
ENDBRANCH   1   3
BRANCH   1   9
HETATM    9  N2  UNL     1      22.234  -3.870   9.992  1.00  0.00    -0.204 N 
ATOM     10  H2  UNL     1      21.999  -3.722   9.011  1.00  0.00     0.204 HD
BRANCH   9  11
HETATM   11  N3  UNL     1      21.423  -3.330  10.905  1.00  0.00    -0.265 NA
HETATM   12  C5  UNL     1      20.613  -2.788  11.817  1.00  0.00     0.424 C 
HETATM   13  N4  UNL     1      21.253  -2.172  12.935  1.00  0.00    -0.024 NA
HETATM   14  O2  UNL     1      19.362  -2.748  11.836  1.00  0.00    -0.232 OA
ENDBRANCH   9  11
ENDBRANCH   1   9
TORSDOF 4
ENDMDL
MODEL 3
REMARK VINA RESULT: -6.124354698      1.631      1.853
REMARK  4 active torsions:
REMARK  status: ('A' for Active; 'I' for Inactive)
REMARK    1  A    between atoms: C2_2  and  C3_3 
REMARK       I    between atoms: C3_3  and  N1_5 
REMARK    2  A    between atoms: N1_5  and  C4_7 
REMARK    3  A    between atoms: C4_7  and  N2_9 
REMARK    4  A    between atoms: N2_9  and  N3_11 
REMARK       I    between atoms: N3_11  and  C5_12 
ROOT
HETATM    1  C4  UNL     1      23.133  -4.377  10.548  1.00  0.00     0.203 C 
HETATM    2  S1  UNL     1      24.439  -3.607  11.244  1.00  0.00    -0.038 SA
ENDROOT
BRANCH   1   3
HETATM    3  N1  UNL     1      23.296  -5.725  10.312  1.00  0.00    -0.302 N 
HETATM    4  C3  UNL     1      22.757  -6.830  11.062  1.00  0.00     0.223 C 
HETATM    5  O1  UNL     1      22.061  -6.708  12.039  1.00  0.00    -0.273 OA
ATOM      6  H1  UNL     1      23.870  -5.971   9.506  1.00  0.00     0.171 HD
BRANCH   4   7
HETATM    7  C2  UNL     1      23.107  -8.213  10.529  1.00  0.00     0.099 C 
HETATM    8  C1  UNL     1      24.599  -8.507  10.810  1.00  0.00     0.014 C 
ENDBRANCH   4   7
ENDBRANCH   1   3
BRANCH   1   9
HETATM    9  N2  UNL     1      21.984  -3.575  10.361  1.00  0.00    -0.204 N 
ATOM     10  H2  UNL     1      21.749  -3.309   9.405  1.00  0.00     0.204 HD
BRANCH   9  11
HETATM   11  N3  UNL     1      21.181  -3.137  11.334  1.00  0.00    -0.265 NA
HETATM   12  C5  UNL     1      20.380  -2.701  12.308  1.00  0.00     0.424 C 
HETATM   13  N4  UNL     1      18.979  -2.733  12.026  1.00  0.00    -0.024 NA
HETATM   14  O2  UNL     1      20.681  -2.258  13.439  1.00  0.00    -0.232 OA
ENDBRANCH   9  11
ENDBRANCH   1   9
TORSDOF 4
ENDMDL
MODEL 4
REMARK VINA RESULT: -6.088645071      1.211      1.336
REMARK  4 active torsions:
REMARK  status: ('A' for Active; 'I' for Inactive)
REMARK    1  A    between atoms: C2_2  and  C3_3 
REMARK       I    between atoms: C3_3  and  N1_5 
REMARK    2  A    between atoms: N1_5  and  C4_7 
REMARK    3  A    between atoms: C4_7  and  N2_9 
REMARK    4  A    between atoms: N2_9  and  N3_11 
REMARK       I    between atoms: N3_11  and  C5_12 
ROOT
HETATM    1  C4  UNL     1      24.345  -4.807   9.573  1.00  0.00     0.203 C 
HETATM    2  S1  UNL     1      25.088  -4.759   8.080  1.00  0.00    -0.038 SA
ENDROOT
BRANCH   1   3
HETATM    3  N1  UNL     1      24.023  -6.065  10.035  1.00  0.00    -0.302 N 
HETATM    4  C3  UNL     1      24.814  -6.937  10.863  1.00  0.00     0.223 C 
HETATM    5  O1  UNL     1      25.914  -6.663  11.275  1.00  0.00    -0.273 OA
ATOM      6  H1  UNL     1      23.109  -6.422   9.756  1.00  0.00     0.171 HD
BRANCH   4   7
HETATM    7  C2  UNL     1      24.163  -8.267  11.220  1.00  0.00     0.099 C 
HETATM    8  C1  UNL     1      22.899  -8.466  10.352  1.00  0.00     0.014 C 
ENDBRANCH   4   7
ENDBRANCH   1   3
BRANCH   1   9
HETATM    9  N2  UNL     1      24.212  -3.560  10.225  1.00  0.00    -0.204 N 
ATOM     10  H2  UNL     1      25.020  -2.939  10.217  1.00  0.00     0.204 HD
BRANCH   9  11
HETATM   11  N3  UNL     1      23.113  -3.128  10.849  1.00  0.00    -0.265 NA
HETATM   12  C5  UNL     1      22.015  -2.698  11.475  1.00  0.00     0.424 C 
HETATM   13  N4  UNL     1      20.776  -2.961  10.814  1.00  0.00    -0.024 NA
HETATM   14  O2  UNL     1      21.916  -2.088  12.562  1.00  0.00    -0.232 OA
ENDBRANCH   9  11
ENDBRANCH   1   9
TORSDOF 4
ENDMDL
MODEL 5
REMARK VINA RESULT: -5.821905244      2.096      2.282
REMARK  4 active torsions:
REMARK  status: ('A' for Active; 'I' for Inactive)
REMARK    1  A    between atoms: C2_2  and  C3_3 
REMARK       I    between atoms: C3_3  and  N1_5 
REMARK    2  A    between atoms: N1_5  and  C4_7 
REMARK    3  A    between atoms: C4_7  and  N2_9 
REMARK    4  A    between atoms: N2_9  and  N3_11 
REMARK       I    between atoms: N3_11  and  C5_12 
ROOT
HETATM    1  C4  UNL     1      22.853  -4.837  11.509  1.00  0.00     0.203 C 
HETATM    2  S1  UNL     1      23.397  -3.307  11.127  1.00  0.00    -0.038 SA
ENDROOT
BRANCH   1   3
HETATM    3  N1  UNL     1      23.554  -5.877  10.936  1.00  0.00    -0.302 N 
HETATM    4  C3  UNL     1      23.126  -7.237  10.744  1.00  0.00     0.223 C 
HETATM    5  O1  UNL     1      22.047  -7.660  11.077  1.00  0.00    -0.273 OA
ATOM      6  H1  UNL     1      24.494  -5.653  10.607  1.00  0.00     0.171 HD
BRANCH   4   7
HETATM    7  C2  UNL     1      24.136  -8.148  10.056  1.00  0.00     0.099 C 
HETATM    8  C1  UNL     1      24.904  -8.959  11.126  1.00  0.00     0.014 C 
ENDBRANCH   4   7
ENDBRANCH   1   3
BRANCH   1   9
HETATM    9  N2  UNL     1      21.791  -4.889  12.441  1.00  0.00    -0.204 N 
ATOM     10  H2  UNL     1      21.671  -5.755  12.965  1.00  0.00     0.204 HD
BRANCH   9  11
HETATM   11  N3  UNL     1      20.934  -3.896  12.691  1.00  0.00    -0.265 NA
HETATM   12  C5  UNL     1      20.077  -2.905  12.942  1.00  0.00     0.424 C 
HETATM   13  N4  UNL     1      19.053  -2.702  11.967  1.00  0.00    -0.024 NA
HETATM   14  O2  UNL     1      20.045  -2.117  13.914  1.00  0.00    -0.232 OA
ENDBRANCH   9  11
ENDBRANCH   1   9
TORSDOF 4
ENDMDL
