MODEL 1
REMARK VINA RESULT: -9.655018566      0.000      0.000
REMARK  14 active torsions:
REMARK  status: ('A' for Active; 'I' for Inactive)
REMARK    1  A    between atoms: N1_1  and  C1_4 
REMARK    2  A    between atoms: N3_8  and  C3_9 
REMARK    3  A    between atoms: C4_11  and  C5_12 
REMARK    4  A    between atoms: C5_12  and  O2_13 
REMARK    5  A    between atoms: C5_12  and  C6_15 
REMARK    6  A    between atoms: C6_15  and  O3_16 
REMARK    7  A    between atoms: C6_15  and  C7_18 
REMARK       I    between atoms: C7_18  and  N4_20 
REMARK    8  A    between atoms: N4_20  and  C8_22 
REMARK    9  A    between atoms: C8_22  and  C9_23 
REMARK   10  A    between atoms: C9_23  and  O5_24 
REMARK   11  A    between atoms: C10_27  and  C11_28 
REMARK   12  A    between atoms: C13_35  and  O10_36 
REMARK   13  A    between atoms: C14_38  and  O11_39 
REMARK   14  A    between atoms: C15_41  and  O12_42 
ROOT
HETATM    1  C3  UNL     1     -22.624   6.094  -8.606  1.00  0.00     0.280 C 
HETATM    2  O1  UNL     1     -23.692   6.972  -8.761  1.00  0.00    -0.351 OA
HETATM    3  C4  UNL     1     -24.181   7.371  -7.518  1.00  0.00     0.187 C 
HETATM    4  C13 UNL     1     -23.188   8.282  -6.912  1.00  0.00     0.181 C 
HETATM    5  C14 UNL     1     -21.967   7.415  -6.556  1.00  0.00     0.182 C 
HETATM    6  C15 UNL     1     -22.011   6.085  -7.247  1.00  0.00     0.200 C 
ENDROOT
BRANCH   3   7
HETATM    7  C5  UNL     1     -25.600   7.785  -7.547  1.00  0.00     0.187 C 
BRANCH   7   8
HETATM    8  O2  UNL     1     -25.623   9.143  -7.135  1.00  0.00    -0.390 OA
ATOM      9  H2  UNL     1     -24.722   9.443  -7.163  1.00  0.00     0.210 HD
ENDBRANCH   7   8
BRANCH   7  10
HETATM   10  C6  UNL     1     -26.560   7.075  -6.668  1.00  0.00     0.241 C 
BRANCH  10  11
HETATM   11  O3  UNL     1     -27.875   7.061  -7.125  1.00  0.00    -0.383 OA
ATOM     12  H3  UNL     1     -28.522   7.363  -6.497  1.00  0.00     0.210 HD
ENDBRANCH  10  11
BRANCH  10  13
HETATM   13  C7  UNL     1     -26.582   7.827  -5.364  1.00  0.00     0.249 C 
HETATM   14  O4  UNL     1     -25.693   7.618  -4.498  1.00  0.00    -0.271 OA
HETATM   15  N4  UNL     1     -27.586   8.785  -5.060  1.00  0.00    -0.353 N 
ATOM     16  H4  UNL     1     -28.318   8.971  -5.746  1.00  0.00     0.162 HD
BRANCH  15  17
HETATM   17  C8  UNL     1     -27.599   9.497  -3.814  1.00  0.00     0.201 C 
BRANCH  17  18
HETATM   18  C9  UNL     1     -29.018   9.542  -3.311  1.00  0.00     0.264 C 
HETATM   19  O6  UNL     1     -29.865  10.227  -4.193  1.00  0.00    -0.310 OA
HETATM   20  C10 UNL     1     -31.124   9.842  -3.701  1.00  0.00     0.330 C 
HETATM   21  N5  UNL     1     -30.987   8.396  -3.688  1.00  0.00    -0.321 N 
HETATM   22  C12 UNL     1     -29.599   8.176  -3.369  1.00  0.00     0.284 C 
ATOM     23  H5  UNL     1     -31.709   7.696  -3.864  1.00  0.00     0.165 HD
HETATM   24  O9  UNL     1     -29.044   7.075  -3.188  1.00  0.00    -0.267 OA
BRANCH  18  25
HETATM   25  O5  UNL     1     -29.083  10.115  -2.065  1.00  0.00    -0.357 OA
ATOM     26  H5  UNL     1     -29.849  10.670  -1.983  1.00  0.00     0.213 HD
ENDBRANCH  18  25
BRANCH  20  27
HETATM   27  C11 UNL     1     -32.228  10.290  -4.558  1.00  0.00     0.224 C 
HETATM   28  O7  UNL     1     -32.075  10.800  -5.691  1.00  0.00    -0.645 OA
HETATM   29  O8  UNL     1     -33.523  10.140  -4.083  1.00  0.00    -0.645 OA
ENDBRANCH  20  27
ENDBRANCH  17  18
ENDBRANCH  15  17
ENDBRANCH  10  13
ENDBRANCH   7  10
ENDBRANCH   3   7
BRANCH   4  30
HETATM   30  O10 UNL     1     -22.679   9.258  -7.771  1.00  0.00    -0.390 OA
ATOM     31  H10 UNL     1     -22.747  10.150  -7.451  1.00  0.00     0.210 HD
ENDBRANCH   4  30
BRANCH   1  32
HETATM   32  N3  UNL     1     -21.628   6.317  -9.658  1.00  0.00    -0.210 N 
HETATM   33  N2  UNL     1     -20.992   7.467  -9.797  1.00  0.00    -0.300 N 
HETATM   34  C2  UNL     1     -20.076   7.686 -10.756  1.00  0.00     0.155 A 
ATOM     35  H2  UNL     1     -21.207   8.224  -9.148  1.00  0.00     0.186 HD
HETATM   36  C1  UNL     1     -19.762   6.684 -11.652  1.00  0.00     0.119 A 
HETATM   37  N6  UNL     1     -20.409   5.513 -11.509  1.00  0.00    -0.292 N 
HETATM   38  C16 UNL     1     -21.320   5.340 -10.534  1.00  0.00     0.345 A 
ATOM     39  H6  UNL     1     -20.206   4.745 -12.149  1.00  0.00     0.172 HD
HETATM   40  O13 UNL     1     -21.925   4.221 -10.414  1.00  0.00    -0.245 OA
BRANCH  36  41
HETATM   41  N1  UNL     1     -18.882   6.858 -12.591  1.00  0.00    -0.384 N 
ATOM     42  H12 UNL     1     -18.209   7.623 -12.552  1.00  0.00     0.157 HD
ATOM     43  H11 UNL     1     -18.830   6.239 -13.401  1.00  0.00     0.157 HD
ENDBRANCH  36  41
ENDBRANCH   1  32
BRANCH   5  44
HETATM   44  O11 UNL     1     -21.955   7.157  -5.176  1.00  0.00    -0.390 OA
ATOM     45  H11 UNL     1     -21.167   6.678  -4.946  1.00  0.00     0.210 HD
ENDBRANCH   5  44
BRANCH   6  46
HETATM   46  O12 UNL     1     -20.670   5.645  -7.362  1.00  0.00    -0.388 OA
ATOM     47  H12 UNL     1     -20.415   5.691  -8.276  1.00  0.00     0.210 HD
ENDBRANCH   6  46
TORSDOF 14
ENDMDL
MODEL 2
REMARK VINA RESULT: -9.602575847      1.416      2.450
REMARK  14 active torsions:
REMARK  status: ('A' for Active; 'I' for Inactive)
REMARK    1  A    between atoms: N1_1  and  C1_4 
REMARK    2  A    between atoms: N3_8  and  C3_9 
REMARK    3  A    between atoms: C4_11  and  C5_12 
REMARK    4  A    between atoms: C5_12  and  O2_13 
REMARK    5  A    between atoms: C5_12  and  C6_15 
REMARK    6  A    between atoms: C6_15  and  O3_16 
REMARK    7  A    between atoms: C6_15  and  C7_18 
REMARK       I    between atoms: C7_18  and  N4_20 
REMARK    8  A    between atoms: N4_20  and  C8_22 
REMARK    9  A    between atoms: C8_22  and  C9_23 
REMARK   10  A    between atoms: C9_23  and  O5_24 
REMARK   11  A    between atoms: C10_27  and  C11_28 
REMARK   12  A    between atoms: C13_35  and  O10_36 
REMARK   13  A    between atoms: C14_38  and  O11_39 
REMARK   14  A    between atoms: C15_41  and  O12_42 
ROOT
HETATM    1  C3  UNL     1     -22.610   6.116  -8.467  1.00  0.00     0.280 C 
HETATM    2  O1  UNL     1     -23.705   6.967  -8.586  1.00  0.00    -0.351 OA
HETATM    3  C4  UNL     1     -24.172   7.341  -7.328  1.00  0.00     0.187 C 
HETATM    4  C13 UNL     1     -23.189   8.272  -6.738  1.00  0.00     0.181 C 
HETATM    5  C14 UNL     1     -21.938   7.435  -6.420  1.00  0.00     0.182 C 
HETATM    6  C15 UNL     1     -21.964   6.110  -7.123  1.00  0.00     0.200 C 
ENDROOT
BRANCH   3   7
HETATM    7  C5  UNL     1     -25.603   7.718  -7.318  1.00  0.00     0.187 C 
BRANCH   7   8
HETATM    8  O2  UNL     1     -26.032   7.600  -5.970  1.00  0.00    -0.390 OA
ATOM      9  H2  UNL     1     -26.654   6.882  -5.953  1.00  0.00     0.210 HD
ENDBRANCH   7   8
BRANCH   7  10
HETATM   10  C6  UNL     1     -26.552   6.911  -8.121  1.00  0.00     0.241 C 
BRANCH  10  11
HETATM   11  O3  UNL     1     -27.288   7.630  -9.058  1.00  0.00    -0.383 OA
ATOM     12  H3  UNL     1     -28.210   7.402  -9.104  1.00  0.00     0.210 HD
ENDBRANCH  10  11
BRANCH  10  13
HETATM   13  C7  UNL     1     -27.554   6.342  -7.153  1.00  0.00     0.249 C 
HETATM   14  O4  UNL     1     -27.336   5.235  -6.594  1.00  0.00    -0.271 OA
HETATM   15  N4  UNL     1     -28.764   7.014  -6.834  1.00  0.00    -0.353 N 
ATOM     16  H4  UNL     1     -28.963   7.912  -7.275  1.00  0.00     0.162 HD
BRANCH  15  17
HETATM   17  C8  UNL     1     -29.714   6.464  -5.910  1.00  0.00     0.201 C 
BRANCH  17  18
HETATM   18  C9  UNL     1     -29.459   7.068  -4.555  1.00  0.00     0.264 C 
HETATM   19  O6  UNL     1     -28.403   7.989  -4.582  1.00  0.00    -0.310 OA
HETATM   20  C10 UNL     1     -28.588   8.639  -3.350  1.00  0.00     0.330 C 
HETATM   21  N5  UNL     1     -29.986   9.024  -3.445  1.00  0.00    -0.321 N 
HETATM   22  C12 UNL     1     -30.596   7.956  -4.195  1.00  0.00     0.284 C 
ATOM     23  H5  UNL     1     -30.433   9.860  -3.068  1.00  0.00     0.165 HD
HETATM   24  O9  UNL     1     -31.806   7.833  -4.464  1.00  0.00    -0.267 OA
BRANCH  18  25
HETATM   25  O5  UNL     1     -29.204   6.096  -3.620  1.00  0.00    -0.357 OA
ATOM     26  H5  UNL     1     -28.775   6.462  -2.855  1.00  0.00     0.213 HD
ENDBRANCH  18  25
BRANCH  20  27
HETATM   27  C11 UNL     1     -27.701   9.796  -3.180  1.00  0.00     0.224 C 
HETATM   28  O7  UNL     1     -27.950  10.768  -2.433  1.00  0.00    -0.645 OA
HETATM   29  O8  UNL     1     -26.512   9.814  -3.895  1.00  0.00    -0.645 OA
ENDBRANCH  20  27
ENDBRANCH  17  18
ENDBRANCH  15  17
ENDBRANCH  10  13
ENDBRANCH   7  10
ENDBRANCH   3   7
BRANCH   4  30
HETATM   30  O10 UNL     1     -22.727   9.269  -7.599  1.00  0.00    -0.390 OA
ATOM     31  H10 UNL     1     -21.788   9.279  -7.737  1.00  0.00     0.210 HD
ENDBRANCH   4  30
BRANCH   1  32
HETATM   32  N3  UNL     1     -21.647   6.374  -9.540  1.00  0.00    -0.210 N 
HETATM   33  N2  UNL     1     -21.023   7.533  -9.666  1.00  0.00    -0.300 N 
HETATM   34  C2  UNL     1     -20.137   7.784 -10.645  1.00  0.00     0.155 A 
ATOM     35  H2  UNL     1     -21.223   8.270  -8.990  1.00  0.00     0.186 HD
HETATM   36  C1  UNL     1     -19.842   6.810 -11.577  1.00  0.00     0.119 A 
HETATM   37  N6  UNL     1     -20.478   5.631 -11.447  1.00  0.00    -0.292 N 
HETATM   38  C16 UNL     1     -21.358   5.424 -10.452  1.00  0.00     0.345 A 
ATOM     39  H6  UNL     1     -20.289   4.882 -12.114  1.00  0.00     0.172 HD
HETATM   40  O13 UNL     1     -21.953   4.298 -10.346  1.00  0.00    -0.245 OA
BRANCH  36  41
HETATM   41  N1  UNL     1     -18.991   7.015 -12.536  1.00  0.00    -0.384 N 
ATOM     42  H12 UNL     1     -18.093   7.465 -12.359  1.00  0.00     0.157 HD
ATOM     43  H11 UNL     1     -19.187   6.738 -13.498  1.00  0.00     0.157 HD
ENDBRANCH  36  41
ENDBRANCH   1  32
BRANCH   5  44
HETATM   44  O11 UNL     1     -21.884   7.164  -5.044  1.00  0.00    -0.390 OA
ATOM     45  H11 UNL     1     -21.007   7.327  -4.718  1.00  0.00     0.210 HD
ENDBRANCH   5  44
BRANCH   6  46
HETATM   46  O12 UNL     1     -20.615   5.707  -7.275  1.00  0.00    -0.388 OA
ATOM     47  H12 UNL     1     -20.063   6.318  -6.802  1.00  0.00     0.210 HD
ENDBRANCH   6  46
TORSDOF 14
ENDMDL
MODEL 3
REMARK VINA RESULT: -9.498877554      3.699      5.100
REMARK  14 active torsions:
REMARK  status: ('A' for Active; 'I' for Inactive)
REMARK    1  A    between atoms: N1_1  and  C1_4 
REMARK    2  A    between atoms: N3_8  and  C3_9 
REMARK    3  A    between atoms: C4_11  and  C5_12 
REMARK    4  A    between atoms: C5_12  and  O2_13 
REMARK    5  A    between atoms: C5_12  and  C6_15 
REMARK    6  A    between atoms: C6_15  and  O3_16 
REMARK    7  A    between atoms: C6_15  and  C7_18 
REMARK       I    between atoms: C7_18  and  N4_20 
REMARK    8  A    between atoms: N4_20  and  C8_22 
REMARK    9  A    between atoms: C8_22  and  C9_23 
REMARK   10  A    between atoms: C9_23  and  O5_24 
REMARK   11  A    between atoms: C10_27  and  C11_28 
REMARK   12  A    between atoms: C13_35  and  O10_36 
REMARK   13  A    between atoms: C14_38  and  O11_39 
REMARK   14  A    between atoms: C15_41  and  O12_42 
ROOT
HETATM    1  C3  UNL     1     -25.527   8.985  -5.864  1.00  0.00     0.280 C 
HETATM    2  O1  UNL     1     -26.535   9.775  -5.318  1.00  0.00    -0.351 OA
HETATM    3  C4  UNL     1     -25.990  10.800  -4.549  1.00  0.00     0.187 C 
HETATM    4  C13 UNL     1     -25.371  11.777  -5.469  1.00  0.00     0.181 C 
HETATM    5  C14 UNL     1     -24.135  11.083  -6.068  1.00  0.00     0.182 C 
HETATM    6  C15 UNL     1     -24.169   9.600  -5.846  1.00  0.00     0.200 C 
ENDROOT
BRANCH   3   7
HETATM    7  C5  UNL     1     -26.900  11.296  -3.494  1.00  0.00     0.187 C 
BRANCH   7   8
HETATM    8  O2  UNL     1     -26.070  11.827  -2.473  1.00  0.00    -0.390 OA
ATOM      9  H2  UNL     1     -25.738  12.653  -2.806  1.00  0.00     0.210 HD
ENDBRANCH   7   8
BRANCH   7  10
HETATM   10  C6  UNL     1     -27.800  10.326  -2.825  1.00  0.00     0.241 C 
BRANCH  10  11
HETATM   11  O3  UNL     1     -27.650   9.004  -3.236  1.00  0.00    -0.383 OA
ATOM     12  H3  UNL     1     -28.191   8.750  -3.975  1.00  0.00     0.210 HD
ENDBRANCH  10  11
BRANCH  10  13
HETATM   13  C7  UNL     1     -29.205  10.719  -3.197  1.00  0.00     0.249 C 
HETATM   14  O4  UNL     1     -29.405  11.685  -3.979  1.00  0.00    -0.271 OA
HETATM   15  N4  UNL     1     -30.341  10.032  -2.693  1.00  0.00    -0.353 N 
ATOM     16  H4  UNL     1     -30.204   9.246  -2.058  1.00  0.00     0.162 HD
BRANCH  15  17
HETATM   17  C8  UNL     1     -31.676  10.414  -3.054  1.00  0.00     0.201 C 
BRANCH  17  18
HETATM   18  C9  UNL     1     -32.032   9.727  -4.346  1.00  0.00     0.264 C 
HETATM   19  O6  UNL     1     -31.414   8.475  -4.460  1.00  0.00    -0.310 OA
HETATM   20  C10 UNL     1     -32.146   7.917  -5.523  1.00  0.00     0.330 C 
HETATM   21  N5  UNL     1     -33.507   8.095  -5.048  1.00  0.00    -0.321 N 
HETATM   22  C12 UNL     1     -33.464   9.332  -4.310  1.00  0.00     0.284 C 
ATOM     23  H5  UNL     1     -34.310   7.484  -5.201  1.00  0.00     0.165 HD
HETATM   24  O9  UNL     1     -34.428   9.913  -3.775  1.00  0.00    -0.267 OA
BRANCH  18  25
HETATM   25  O5  UNL     1     -31.704  10.508  -5.427  1.00  0.00    -0.357 OA
ATOM     26  H5  UNL     1     -30.766  10.514  -5.573  1.00  0.00     0.213 HD
ENDBRANCH  18  25
BRANCH  20  27
HETATM   27  C11 UNL     1     -31.817   6.505  -5.757  1.00  0.00     0.224 C 
HETATM   28  O7  UNL     1     -32.592   5.554  -5.510  1.00  0.00    -0.645 OA
HETATM   29  O8  UNL     1     -30.569   6.207  -6.285  1.00  0.00    -0.645 OA
ENDBRANCH  20  27
ENDBRANCH  17  18
ENDBRANCH  15  17
ENDBRANCH  10  13
ENDBRANCH   7  10
ENDBRANCH   3   7
BRANCH   4  30
HETATM   30  O10 UNL     1     -26.148  12.119  -6.577  1.00  0.00    -0.390 OA
ATOM     31  H10 UNL     1     -25.994  12.991  -6.922  1.00  0.00     0.210 HD
ENDBRANCH   4  30
BRANCH   1  32
HETATM   32  N3  UNL     1     -25.908   8.532  -7.204  1.00  0.00    -0.210 N 
HETATM   33  N2  UNL     1     -25.810   9.310  -8.269  1.00  0.00    -0.300 N 
HETATM   34  C2  UNL     1     -26.155   8.908  -9.504  1.00  0.00     0.155 A 
ATOM     35  H2  UNL     1     -25.458  10.259  -8.147  1.00  0.00     0.186 HD
HETATM   36  C1  UNL     1     -26.637   7.630  -9.705  1.00  0.00     0.119 A 
HETATM   37  N6  UNL     1     -26.735   6.839  -8.621  1.00  0.00    -0.292 N 
HETATM   38  C16 UNL     1     -26.379   7.285  -7.403  1.00  0.00     0.345 A 
ATOM     39  H6  UNL     1     -27.085   5.886  -8.724  1.00  0.00     0.172 HD
HETATM   40  O13 UNL     1     -26.481   6.518  -6.385  1.00  0.00    -0.245 OA
BRANCH  36  41
HETATM   41  N1  UNL     1     -26.979   7.205 -10.883  1.00  0.00    -0.384 N 
ATOM     42  H12 UNL     1     -27.013   7.835 -11.684  1.00  0.00     0.157 HD
ATOM     43  H11 UNL     1     -27.227   6.230 -11.052  1.00  0.00     0.157 HD
ENDBRANCH  36  41
ENDBRANCH   1  32
BRANCH   5  44
HETATM   44  O11 UNL     1     -22.973  11.562  -5.445  1.00  0.00    -0.390 OA
ATOM     45  H11 UNL     1     -22.840  11.109  -4.621  1.00  0.00     0.210 HD
ENDBRANCH   5  44
BRANCH   6  46
HETATM   46  O12 UNL     1     -23.398   9.019  -6.881  1.00  0.00    -0.388 OA
ATOM     47  H12 UNL     1     -22.501   8.939  -6.580  1.00  0.00     0.210 HD
ENDBRANCH   6  46
TORSDOF 14
ENDMDL
MODEL 4
REMARK VINA RESULT: -9.489474754      2.735      8.047
REMARK  14 active torsions:
REMARK  status: ('A' for Active; 'I' for Inactive)
REMARK    1  A    between atoms: N1_1  and  C1_4 
REMARK    2  A    between atoms: N3_8  and  C3_9 
REMARK    3  A    between atoms: C4_11  and  C5_12 
REMARK    4  A    between atoms: C5_12  and  O2_13 
REMARK    5  A    between atoms: C5_12  and  C6_15 
REMARK    6  A    between atoms: C6_15  and  O3_16 
REMARK    7  A    between atoms: C6_15  and  C7_18 
REMARK       I    between atoms: C7_18  and  N4_20 
REMARK    8  A    between atoms: N4_20  and  C8_22 
REMARK    9  A    between atoms: C8_22  and  C9_23 
REMARK   10  A    between atoms: C9_23  and  O5_24 
REMARK   11  A    between atoms: C10_27  and  C11_28 
REMARK   12  A    between atoms: C13_35  and  O10_36 
REMARK   13  A    between atoms: C14_38  and  O11_39 
REMARK   14  A    between atoms: C15_41  and  O12_42 
ROOT
HETATM    1  C3  UNL     1     -27.625  10.289  -4.635  1.00  0.00     0.280 C 
HETATM    2  O1  UNL     1     -26.549  10.330  -5.517  1.00  0.00    -0.351 OA
HETATM    3  C4  UNL     1     -25.719  11.411  -5.226  1.00  0.00     0.187 C 
HETATM    4  C13 UNL     1     -25.005  11.107  -3.969  1.00  0.00     0.181 C 
HETATM    5  C14 UNL     1     -26.061  11.155  -2.850  1.00  0.00     0.182 C 
HETATM    6  C15 UNL     1     -27.455  11.108  -3.401  1.00  0.00     0.200 C 
ENDROOT
BRANCH   3   7
HETATM    7  C5  UNL     1     -24.939  11.887  -6.389  1.00  0.00     0.187 C 
BRANCH   7   8
HETATM    8  O2  UNL     1     -25.273  11.027  -7.467  1.00  0.00    -0.390 OA
ATOM      9  H2  UNL     1     -25.217  11.556  -8.254  1.00  0.00     0.210 HD
ENDBRANCH   7   8
BRANCH   7  10
HETATM   10  C6  UNL     1     -23.459  11.873  -6.299  1.00  0.00     0.241 C 
BRANCH  10  11
HETATM   11  O3  UNL     1     -22.819  12.895  -6.995  1.00  0.00    -0.383 OA
ATOM     12  H3  UNL     1     -23.315  13.260  -7.718  1.00  0.00     0.210 HD
ENDBRANCH  10  11
BRANCH  10  13
HETATM   13  C7  UNL     1     -23.005  10.588  -6.938  1.00  0.00     0.249 C 
HETATM   14  O4  UNL     1     -22.575  10.587  -8.121  1.00  0.00    -0.271 OA
HETATM   15  N4  UNL     1     -23.041   9.347  -6.249  1.00  0.00    -0.353 N 
ATOM     16  H4  UNL     1     -23.386   9.322  -5.289  1.00  0.00     0.162 HD
BRANCH  15  17
HETATM   17  C8  UNL     1     -22.605   8.126  -6.865  1.00  0.00     0.201 C 
BRANCH  17  18
HETATM   18  C9  UNL     1     -23.825   7.327  -7.243  1.00  0.00     0.264 C 
HETATM   19  O6  UNL     1     -24.619   7.996  -8.183  1.00  0.00    -0.310 OA
HETATM   20  C10 UNL     1     -25.454   6.950  -8.613  1.00  0.00     0.330 C 
HETATM   21  N5  UNL     1     -24.474   5.940  -8.971  1.00  0.00    -0.321 N 
HETATM   22  C12 UNL     1     -23.404   6.136  -8.027  1.00  0.00     0.284 C 
ATOM     23  H5  UNL     1     -24.530   5.249  -9.720  1.00  0.00     0.165 HD
HETATM   24  O9  UNL     1     -22.372   5.446  -7.917  1.00  0.00    -0.267 OA
BRANCH  18  25
HETATM   25  O5  UNL     1     -24.575   7.018  -6.135  1.00  0.00    -0.357 OA
ATOM     26  H5  UNL     1     -25.304   6.452  -6.363  1.00  0.00     0.213 HD
ENDBRANCH  18  25
BRANCH  20  27
HETATM   27  C11 UNL     1     -26.301   7.332  -9.750  1.00  0.00     0.224 C 
HETATM   28  O7  UNL     1     -27.064   8.325  -9.754  1.00  0.00    -0.645 OA
HETATM   29  O8  UNL     1     -26.256   6.544 -10.890  1.00  0.00    -0.645 OA
ENDBRANCH  20  27
ENDBRANCH  17  18
ENDBRANCH  15  17
ENDBRANCH  10  13
ENDBRANCH   7  10
ENDBRANCH   3   7
BRANCH   4  30
HETATM   30  O10 UNL     1     -24.473   9.819  -3.887  1.00  0.00    -0.390 OA
ATOM     31  H10 UNL     1     -24.930   9.232  -3.297  1.00  0.00     0.210 HD
ENDBRANCH   4  30
BRANCH   1  32
HETATM   32  N3  UNL     1     -27.976   8.900  -4.329  1.00  0.00    -0.210 N 
HETATM   33  N2  UNL     1     -27.062   7.959  -4.158  1.00  0.00    -0.300 N 
HETATM   34  C2  UNL     1     -27.370   6.682  -3.877  1.00  0.00     0.155 A 
ATOM     35  H2  UNL     1     -26.079   8.216  -4.244  1.00  0.00     0.186 HD
HETATM   36  C1  UNL     1     -28.691   6.301  -3.754  1.00  0.00     0.119 A 
HETATM   37  N6  UNL     1     -29.620   7.258  -3.928  1.00  0.00    -0.292 N 
HETATM   38  C16 UNL     1     -29.266   8.524  -4.210  1.00  0.00     0.345 A 
ATOM     39  H6  UNL     1     -30.609   7.020  -3.845  1.00  0.00     0.172 HD
HETATM   40  O13 UNL     1     -30.163   9.420  -4.372  1.00  0.00    -0.245 OA
BRANCH  36  41
HETATM   41  N1  UNL     1     -29.027   5.076  -3.482  1.00  0.00    -0.384 N 
ATOM     42  H12 UNL     1     -28.361   4.310  -3.579  1.00  0.00     0.157 HD
ATOM     43  H11 UNL     1     -29.966   4.834  -3.164  1.00  0.00     0.157 HD
ENDBRANCH  36  41
ENDBRANCH   1  32
BRANCH   5  44
HETATM   44  O11 UNL     1     -25.944  12.359  -2.138  1.00  0.00    -0.390 OA
ATOM     45  H11 UNL     1     -25.935  12.181  -1.205  1.00  0.00     0.210 HD
ENDBRANCH   5  44
BRANCH   6  46
HETATM   46  O12 UNL     1     -28.274  10.562  -2.383  1.00  0.00    -0.388 OA
ATOM     47  H12 UNL     1     -27.718  10.107  -1.762  1.00  0.00     0.210 HD
ENDBRANCH   6  46
TORSDOF 14
ENDMDL
MODEL 5
REMARK VINA RESULT: -9.447057176      4.573      9.021
REMARK  14 active torsions:
REMARK  status: ('A' for Active; 'I' for Inactive)
REMARK    1  A    between atoms: N1_1  and  C1_4 
REMARK    2  A    between atoms: N3_8  and  C3_9 
REMARK    3  A    between atoms: C4_11  and  C5_12 
REMARK    4  A    between atoms: C5_12  and  O2_13 
REMARK    5  A    between atoms: C5_12  and  C6_15 
REMARK    6  A    between atoms: C6_15  and  O3_16 
REMARK    7  A    between atoms: C6_15  and  C7_18 
REMARK       I    between atoms: C7_18  and  N4_20 
REMARK    8  A    between atoms: N4_20  and  C8_22 
REMARK    9  A    between atoms: C8_22  and  C9_23 
REMARK   10  A    between atoms: C9_23  and  O5_24 
REMARK   11  A    between atoms: C10_27  and  C11_28 
REMARK   12  A    between atoms: C13_35  and  O10_36 
REMARK   13  A    between atoms: C14_38  and  O11_39 
REMARK   14  A    between atoms: C15_41  and  O12_42 
ROOT
HETATM    1  C3  UNL     1     -30.974   6.811  -4.912  1.00  0.00     0.280 C 
HETATM    2  O1  UNL     1     -29.910   7.676  -5.153  1.00  0.00    -0.351 OA
HETATM    3  C4  UNL     1     -28.721   7.137  -4.667  1.00  0.00     0.187 C 
HETATM    4  C13 UNL     1     -28.341   6.013  -5.549  1.00  0.00     0.181 C 
HETATM    5  C14 UNL     1     -29.369   4.897  -5.295  1.00  0.00     0.182 C 
HETATM    6  C15 UNL     1     -30.580   5.413  -4.575  1.00  0.00     0.200 C 
ENDROOT
BRANCH   3   7
HETATM    7  C5  UNL     1     -27.702   8.156  -4.335  1.00  0.00     0.187 C 
BRANCH   7   8
HETATM    8  O2  UNL     1     -26.529   7.440  -3.984  1.00  0.00    -0.390 OA
ATOM      9  H2  UNL     1     -26.308   6.907  -4.739  1.00  0.00     0.210 HD
ENDBRANCH   7   8
BRANCH   7  10
HETATM   10  C6  UNL     1     -27.970   9.080  -3.208  1.00  0.00     0.241 C 
BRANCH  10  11
HETATM   11  O3  UNL     1     -29.297   9.478  -3.077  1.00  0.00    -0.383 OA
ATOM     12  H3  UNL     1     -29.521   9.859  -2.235  1.00  0.00     0.210 HD
ENDBRANCH  10  11
BRANCH  10  13
HETATM   13  C7  UNL     1     -27.186  10.335  -3.489  1.00  0.00     0.249 C 
HETATM   14  O4  UNL     1     -26.905  11.127  -2.553  1.00  0.00    -0.271 OA
HETATM   15  N4  UNL     1     -26.741  10.672  -4.795  1.00  0.00    -0.353 N 
ATOM     16  H4  UNL     1     -26.958  10.045  -5.570  1.00  0.00     0.162 HD
BRANCH  15  17
HETATM   17  C8  UNL     1     -25.995  11.870  -5.053  1.00  0.00     0.201 C 
BRANCH  17  18
HETATM   18  C9  UNL     1     -25.090  11.617  -6.230  1.00  0.00     0.264 C 
HETATM   19  O6  UNL     1     -24.780  12.799  -6.916  1.00  0.00    -0.310 OA
HETATM   20  C10 UNL     1     -23.700  12.369  -7.706  1.00  0.00     0.330 C 
HETATM   21  N5  UNL     1     -22.835  11.780  -6.699  1.00  0.00    -0.321 N 
HETATM   22  C12 UNL     1     -23.746  11.219  -5.735  1.00  0.00     0.284 C 
ATOM     23  H5  UNL     1     -21.814  11.767  -6.679  1.00  0.00     0.165 HD
HETATM   24  O9  UNL     1     -23.444  10.554  -4.725  1.00  0.00    -0.267 OA
BRANCH  18  25
HETATM   25  O5  UNL     1     -25.647  10.710  -7.097  1.00  0.00    -0.357 OA
ATOM     26  H5  UNL     1     -25.246  10.767  -7.956  1.00  0.00     0.213 HD
ENDBRANCH  18  25
BRANCH  20  27
HETATM   27  C11 UNL     1     -23.050  13.472  -8.425  1.00  0.00     0.224 C 
HETATM   28  O7  UNL     1     -23.333  13.810  -9.596  1.00  0.00    -0.645 OA
HETATM   29  O8  UNL     1     -22.058  14.183  -7.766  1.00  0.00    -0.645 OA
ENDBRANCH  20  27
ENDBRANCH  17  18
ENDBRANCH  15  17
ENDBRANCH  10  13
ENDBRANCH   7  10
ENDBRANCH   3   7
BRANCH   4  30
HETATM   30  O10 UNL     1     -28.442   6.274  -6.916  1.00  0.00    -0.390 OA
ATOM     31  H10 UNL     1     -27.614   6.325  -7.379  1.00  0.00     0.210 HD
ENDBRANCH   4  30
BRANCH   1  32
HETATM   32  N3  UNL     1     -31.930   6.862  -6.020  1.00  0.00    -0.210 N 
HETATM   33  N2  UNL     1     -31.715   6.245  -7.170  1.00  0.00    -0.300 N 
HETATM   34  C2  UNL     1     -32.584   6.282  -8.194  1.00  0.00     0.155 A 
ATOM     35  H2  UNL     1     -30.851   5.716  -7.284  1.00  0.00     0.186 HD
HETATM   36  C1  UNL     1     -33.764   6.988  -8.074  1.00  0.00     0.119 A 
HETATM   37  N6  UNL     1     -33.982   7.615  -6.904  1.00  0.00    -0.292 N 
HETATM   38  C16 UNL     1     -33.083   7.551  -5.905  1.00  0.00     0.345 A 
ATOM     39  H6  UNL     1     -34.842   8.148  -6.771  1.00  0.00     0.172 HD
HETATM   40  O13 UNL     1     -33.308   8.155  -4.801  1.00  0.00    -0.245 OA
BRANCH  36  41
HETATM   41  N1  UNL     1     -34.628   7.046  -9.042  1.00  0.00    -0.384 N 
ATOM     42  H12 UNL     1     -35.270   6.275  -9.226  1.00  0.00     0.157 HD
ATOM     43  H11 UNL     1     -34.697   7.860  -9.653  1.00  0.00     0.157 HD
ENDBRANCH  36  41
ENDBRANCH   1  32
BRANCH   5  44
HETATM   44  O11 UNL     1     -28.803   3.905  -4.481  1.00  0.00    -0.390 OA
ATOM     45  H11 UNL     1     -28.724   3.094  -4.970  1.00  0.00     0.210 HD
ENDBRANCH   5  44
BRANCH   6  46
HETATM   46  O12 UNL     1     -31.650   4.551  -4.916  1.00  0.00    -0.388 OA
ATOM     47  H12 UNL     1     -32.058   4.245  -4.115  1.00  0.00     0.210 HD
ENDBRANCH   6  46
TORSDOF 14
ENDMDL
