MODEL 1
REMARK VINA RESULT: -6.138743522      0.000      0.000
REMARK  5 active torsions:
REMARK  status: ('A' for Active; 'I' for Inactive)
REMARK    1  A    between atoms: N1_1  and  C1_5 
REMARK    2  A    between atoms: C1_5  and  O1_6 
REMARK    3  A    between atoms: C1_5  and  C2_8 
REMARK    4  A    between atoms: C2_8  and  N2_9 
REMARK    5  A    between atoms: N2_9  and  C3_11 
ROOT
HETATM    1  C3  UNL     1      -8.421  12.616  49.814  1.00  0.00     0.132 A 
HETATM    2  N3  UNL     1      -8.372  12.159  48.560  1.00  0.00    -0.337 N 
ATOM      3  H3  UNL     1      -9.144  11.599  48.196  1.00  0.00     0.168 HD
HETATM    4  C4  UNL     1      -7.311  12.431  47.765  1.00  0.00     0.182 A 
HETATM    5  N4  UNL     1      -6.274  13.162  48.198  1.00  0.00    -0.346 N 
ATOM      6  H4  UNL     1      -5.489  13.350  47.574  1.00  0.00     0.167 HD
HETATM    7  C5  UNL     1      -6.264  13.647  49.449  1.00  0.00     0.132 A 
HETATM    8  C6  UNL     1      -5.200  14.400  49.901  1.00  0.00     0.275 A 
HETATM    9  O2  UNL     1      -4.197  14.675  49.199  1.00  0.00    -0.266 OA
HETATM   10  N5  UNL     1      -5.223  14.871  51.158  1.00  0.00    -0.318 N 
ATOM     11  H5  UNL     1      -4.447  15.429  51.514  1.00  0.00     0.169 HD
HETATM   12  C7  UNL     1      -6.282  14.598  51.944  1.00  0.00     0.184 A 
HETATM   13  N6  UNL     1      -7.326  13.865  51.516  1.00  0.00    -0.347 N 
ATOM     14  H6  UNL     1      -8.104  13.685  52.151  1.00  0.00     0.167 HD
HETATM   15  C8  UNL     1      -7.364  13.365  50.268  1.00  0.00     0.110 A 
ENDROOT
BRANCH   1  16
HETATM   16  N2  UNL     1      -9.432  12.350  50.552  1.00  0.00    -0.370 N 
ATOM     17  H2  UNL     1     -10.057  13.117  50.803  1.00  0.00     0.161 HD
BRANCH  16  18
HETATM   18  C2  UNL     1      -9.741  11.050  51.045  1.00  0.00     0.182 C 
BRANCH  18  19
HETATM   19  C1  UNL     1      -9.931  11.168  52.561  1.00  0.00     0.334 C 
BRANCH  19  20
HETATM   20  N1  UNL     1      -9.429   9.961  53.219  1.00  0.00    -0.051 N 
ATOM     21  H13 UNL     1      -8.478  10.078  53.569  1.00  0.00     0.277 HD
ATOM     22  H12 UNL     1      -9.890   9.787  54.112  1.00  0.00     0.277 HD
ATOM     23  H11 UNL     1      -9.511   9.170  52.581  1.00  0.00     0.277 HD
ENDBRANCH  19  20
BRANCH  19  24
HETATM   24  O1  UNL     1      -9.264  12.272  53.059  1.00  0.00    -0.369 OA
ATOM     25  H1  UNL     1      -8.373  12.275  52.731  1.00  0.00     0.212 HD
ENDBRANCH  19  24
ENDBRANCH  18  19
ENDBRANCH  16  18
ENDBRANCH   1  16
TORSDOF 5
ENDMDL
MODEL 2
REMARK VINA RESULT: -5.994621968      1.943      5.790
REMARK  5 active torsions:
REMARK  status: ('A' for Active; 'I' for Inactive)
REMARK    1  A    between atoms: N1_1  and  C1_5 
REMARK    2  A    between atoms: C1_5  and  O1_6 
REMARK    3  A    between atoms: C1_5  and  C2_8 
REMARK    4  A    between atoms: C2_8  and  N2_9 
REMARK    5  A    between atoms: N2_9  and  C3_11 
ROOT
HETATM    1  C3  UNL     1      -8.041  12.616  50.008  1.00  0.00     0.132 A 
HETATM    2  N3  UNL     1      -8.118  12.814  51.326  1.00  0.00    -0.337 N 
ATOM      3  H3  UNL     1      -7.528  13.520  51.766  1.00  0.00     0.168 HD
HETATM    4  C4  UNL     1      -8.970  12.086  52.087  1.00  0.00     0.182 A 
HETATM    5  N4  UNL     1      -9.765  11.147  51.553  1.00  0.00    -0.346 N 
ATOM      6  H4  UNL     1     -10.397  10.617  52.153  1.00  0.00     0.167 HD
HETATM    7  C5  UNL     1      -9.732  10.901  50.235  1.00  0.00     0.132 A 
HETATM    8  C6  UNL     1     -10.546   9.937  49.681  1.00  0.00     0.275 A 
HETATM    9  O2  UNL     1     -11.350   9.240  50.348  1.00  0.00    -0.266 OA
HETATM   10  N5  UNL     1     -10.488   9.717  48.357  1.00  0.00    -0.318 N 
ATOM     11  H5  UNL     1     -11.081   9.007  47.926  1.00  0.00     0.169 HD
HETATM   12  C7  UNL     1      -9.639  10.443  47.606  1.00  0.00     0.184 A 
HETATM   13  N6  UNL     1      -8.839  11.387  48.134  1.00  0.00    -0.347 N 
ATOM     14  H6  UNL     1      -8.211  11.910  47.522  1.00  0.00     0.167 HD
HETATM   15  C8  UNL     1      -8.849  11.656  49.452  1.00  0.00     0.110 A 
ENDROOT
BRANCH   1  16
HETATM   16  N2  UNL     1      -7.229  13.312  49.304  1.00  0.00    -0.370 N 
ATOM     17  H2  UNL     1      -7.484  13.510  48.336  1.00  0.00     0.161 HD
BRANCH  16  18
HETATM   18  C2  UNL     1      -5.993  13.827  49.786  1.00  0.00     0.182 C 
BRANCH  18  19
HETATM   19  C1  UNL     1      -4.958  13.657  48.670  1.00  0.00     0.334 C 
BRANCH  19  20
HETATM   20  N1  UNL     1      -5.581  13.916  47.371  1.00  0.00    -0.051 N 
ATOM     21  H13 UNL     1      -5.897  13.060  46.916  1.00  0.00     0.277 HD
ATOM     22  H12 UNL     1      -6.488  14.373  47.462  1.00  0.00     0.277 HD
ATOM     23  H11 UNL     1      -4.937  14.449  46.788  1.00  0.00     0.277 HD
ENDBRANCH  19  20
BRANCH  19  24
HETATM   24  O1  UNL     1      -3.893  14.523  48.846  1.00  0.00    -0.369 OA
ATOM     25  H1  UNL     1      -3.234  14.349  48.185  1.00  0.00     0.212 HD
ENDBRANCH  19  24
ENDBRANCH  18  19
ENDBRANCH  16  18
ENDBRANCH   1  16
TORSDOF 5
ENDMDL
MODEL 3
REMARK VINA RESULT: -5.892414794      1.111      1.111
REMARK  5 active torsions:
REMARK  status: ('A' for Active; 'I' for Inactive)
REMARK    1  A    between atoms: N1_1  and  C1_5 
REMARK    2  A    between atoms: C1_5  and  O1_6 
REMARK    3  A    between atoms: C1_5  and  C2_8 
REMARK    4  A    between atoms: C2_8  and  N2_9 
REMARK    5  A    between atoms: N2_9  and  C3_11 
ROOT
HETATM    1  C3  UNL     1      -8.440  12.486  50.191  1.00  0.00     0.132 A 
HETATM    2  N3  UNL     1      -8.541  11.978  48.960  1.00  0.00    -0.337 N 
ATOM      3  H3  UNL     1      -9.337  11.386  48.722  1.00  0.00     0.168 HD
HETATM    4  C4  UNL     1      -7.598  12.240  48.024  1.00  0.00     0.182 A 
HETATM    5  N4  UNL     1      -6.535  13.013  48.291  1.00  0.00    -0.346 N 
ATOM      6  H4  UNL     1      -5.842  13.192  47.564  1.00  0.00     0.167 HD
HETATM    7  C5  UNL     1      -6.378  13.550  49.510  1.00  0.00     0.132 A 
HETATM    8  C6  UNL     1      -5.287  14.346  49.791  1.00  0.00     0.275 A 
HETATM    9  O2  UNL     1      -4.390  14.613  48.954  1.00  0.00    -0.266 OA
HETATM   10  N5  UNL     1      -5.161  14.868  51.021  1.00  0.00    -0.318 N 
ATOM     11  H5  UNL     1      -4.361  15.459  51.251  1.00  0.00     0.169 HD
HETATM   12  C7  UNL     1      -6.101  14.605  51.948  1.00  0.00     0.184 A 
HETATM   13  N6  UNL     1      -7.171  13.830  51.687  1.00  0.00    -0.347 N 
ATOM     14  H6  UNL     1      -7.856  13.660  52.424  1.00  0.00     0.167 HD
HETATM   15  C8  UNL     1      -7.355  13.277  50.475  1.00  0.00     0.110 A 
ENDROOT
BRANCH   1  16
HETATM   16  N2  UNL     1      -9.340  12.228  51.064  1.00  0.00    -0.370 N 
ATOM     17  H2  UNL     1      -9.207  11.412  51.661  1.00  0.00     0.161 HD
BRANCH  16  18
HETATM   18  C2  UNL     1     -10.516  13.009  51.254  1.00  0.00     0.182 C 
BRANCH  18  19
HETATM   19  C1  UNL     1     -10.698  13.204  52.762  1.00  0.00     0.334 C 
BRANCH  19  20
HETATM   20  N1  UNL     1     -11.290  12.002  53.351  1.00  0.00    -0.051 N 
ATOM     21  H13 UNL     1     -10.938  11.817  54.290  1.00  0.00     0.277 HD
ATOM     22  H12 UNL     1     -12.274  12.132  53.588  1.00  0.00     0.277 HD
ATOM     23  H11 UNL     1     -11.146  11.213  52.721  1.00  0.00     0.277 HD
ENDBRANCH  19  20
BRANCH  19  24
HETATM   24  O1  UNL     1      -9.487  13.465  53.378  1.00  0.00    -0.369 OA
ATOM     25  H1  UNL     1      -9.543  14.291  53.844  1.00  0.00     0.212 HD
ENDBRANCH  19  24
ENDBRANCH  18  19
ENDBRANCH  16  18
ENDBRANCH   1  16
TORSDOF 5
ENDMDL
MODEL 4
REMARK VINA RESULT: -5.820805861      1.548      4.830
REMARK  5 active torsions:
REMARK  status: ('A' for Active; 'I' for Inactive)
REMARK    1  A    between atoms: N1_1  and  C1_5 
REMARK    2  A    between atoms: C1_5  and  O1_6 
REMARK    3  A    between atoms: C1_5  and  C2_8 
REMARK    4  A    between atoms: C2_8  and  N2_9 
REMARK    5  A    between atoms: N2_9  and  C3_11 
ROOT
HETATM    1  C3  UNL     1      -8.228  12.660  49.185  1.00  0.00     0.132 A 
HETATM    2  N3  UNL     1      -8.579  11.678  48.351  1.00  0.00    -0.337 N 
ATOM      3  H3  UNL     1      -8.199  11.660  47.404  1.00  0.00     0.168 HD
HETATM    4  C4  UNL     1      -9.435  10.707  48.746  1.00  0.00     0.182 A 
HETATM    5  N4  UNL     1      -9.960  10.689  49.980  1.00  0.00    -0.346 N 
ATOM      6  H4  UNL     1     -10.601   9.942  50.249  1.00  0.00     0.167 HD
HETATM    7  C5  UNL     1      -9.646  11.649  50.863  1.00  0.00     0.132 A 
HETATM    8  C6  UNL     1     -10.183  11.636  52.133  1.00  0.00     0.275 A 
HETATM    9  O2  UNL     1     -10.979  10.756  52.541  1.00  0.00    -0.266 OA
HETATM   10  N5  UNL     1      -9.847  12.612  52.992  1.00  0.00    -0.318 N 
ATOM     11  H5  UNL     1     -10.232  12.623  53.937  1.00  0.00     0.169 HD
HETATM   12  C7  UNL     1      -8.995  13.576  52.593  1.00  0.00     0.184 A 
HETATM   13  N6  UNL     1      -8.464  13.600  51.357  1.00  0.00    -0.347 N 
ATOM     14  H6  UNL     1      -7.824  14.353  51.102  1.00  0.00     0.167 HD
HETATM   15  C8  UNL     1      -8.760  12.652  50.450  1.00  0.00     0.110 A 
ENDROOT
BRANCH   1  16
HETATM   16  N2  UNL     1      -7.418  13.571  48.794  1.00  0.00    -0.370 N 
ATOM     17  H2  UNL     1      -7.757  14.534  48.770  1.00  0.00     0.161 HD
BRANCH  16  18
HETATM   18  C2  UNL     1      -6.074  13.327  48.392  1.00  0.00     0.182 C 
BRANCH  18  19
HETATM   19  C1  UNL     1      -5.178  14.291  49.175  1.00  0.00     0.334 C 
BRANCH  19  20
HETATM   20  N1  UNL     1      -5.137  13.897  50.585  1.00  0.00    -0.051 N 
ATOM     21  H13 UNL     1      -5.613  13.012  50.753  1.00  0.00     0.277 HD
ATOM     22  H12 UNL     1      -4.202  13.617  50.880  1.00  0.00     0.277 HD
ATOM     23  H11 UNL     1      -5.512  14.654  51.157  1.00  0.00     0.277 HD
ENDBRANCH  19  20
BRANCH  19  24
HETATM   24  O1  UNL     1      -3.893  14.297  48.665  1.00  0.00    -0.369 OA
ATOM     25  H1  UNL     1      -3.916  14.039  47.751  1.00  0.00     0.212 HD
ENDBRANCH  19  24
ENDBRANCH  18  19
ENDBRANCH  16  18
ENDBRANCH   1  16
TORSDOF 5
ENDMDL
MODEL 5
REMARK VINA RESULT: -5.727596001      2.696      3.677
REMARK  5 active torsions:
REMARK  status: ('A' for Active; 'I' for Inactive)
REMARK    1  A    between atoms: N1_1  and  C1_5 
REMARK    2  A    between atoms: C1_5  and  O1_6 
REMARK    3  A    between atoms: C1_5  and  C2_8 
REMARK    4  A    between atoms: C2_8  and  N2_9 
REMARK    5  A    between atoms: N2_9  and  C3_11 
ROOT
HETATM    1  C3  UNL     1      -8.444  12.251  49.209  1.00  0.00     0.132 A 
HETATM    2  N3  UNL     1      -9.286  12.238  50.245  1.00  0.00    -0.337 N 
ATOM      3  H3  UNL     1     -10.166  11.726  50.173  1.00  0.00     0.168 HD
HETATM    4  C4  UNL     1      -8.986  12.896  51.390  1.00  0.00     0.182 A 
HETATM    5  N4  UNL     1      -7.842  13.581  51.530  1.00  0.00    -0.346 N 
ATOM      6  H4  UNL     1      -7.645  14.066  52.406  1.00  0.00     0.167 HD
HETATM    7  C5  UNL     1      -6.956  13.633  50.524  1.00  0.00     0.132 A 
HETATM    8  C6  UNL     1      -5.778  14.336  50.662  1.00  0.00     0.275 A 
HETATM    9  O2  UNL     1      -5.461  14.960  51.704  1.00  0.00    -0.266 OA
HETATM   10  N5  UNL     1      -4.913  14.366  49.635  1.00  0.00    -0.318 N 
ATOM     11  H5  UNL     1      -4.036  14.881  49.715  1.00  0.00     0.169 HD
HETATM   12  C7  UNL     1      -5.217  13.710  48.500  1.00  0.00     0.184 A 
HETATM   13  N6  UNL     1      -6.363  13.020  48.352  1.00  0.00    -0.347 N 
ATOM     14  H6  UNL     1      -6.547  12.540  47.470  1.00  0.00     0.167 HD
HETATM   15  C8  UNL     1      -7.270  12.950  49.341  1.00  0.00     0.110 A 
ENDROOT
BRANCH   1  16
HETATM   16  N2  UNL     1      -8.743  11.624  48.134  1.00  0.00    -0.370 N 
ATOM     17  H2  UNL     1      -7.983  11.364  47.504  1.00  0.00     0.161 HD
BRANCH  16  18
HETATM   18  C2  UNL     1     -10.070  11.265  47.762  1.00  0.00     0.182 C 
BRANCH  18  19
HETATM   19  C1  UNL     1     -10.048   9.789  47.350  1.00  0.00     0.334 C 
BRANCH  19  20
HETATM   20  N1  UNL     1     -11.413   9.322  47.105  1.00  0.00    -0.051 N 
ATOM     21  H13 UNL     1     -11.991  10.033  46.657  1.00  0.00     0.277 HD
ATOM     22  H12 UNL     1     -11.454   8.617  46.369  1.00  0.00     0.277 HD
ATOM     23  H11 UNL     1     -11.818   8.990  47.981  1.00  0.00     0.277 HD
ENDBRANCH  19  20
BRANCH  19  24
HETATM   24  O1  UNL     1      -9.290   9.605  46.208  1.00  0.00    -0.369 OA
ATOM     25  H1  UNL     1      -8.755   8.827  46.308  1.00  0.00     0.212 HD
ENDBRANCH  19  24
ENDBRANCH  18  19
ENDBRANCH  16  18
ENDBRANCH   1  16
TORSDOF 5
ENDMDL
