MODEL 1
REMARK VINA RESULT: -6.503197010      0.000      0.000
REMARK  5 active torsions:
REMARK  status: ('A' for Active; 'I' for Inactive)
REMARK    1  A    between atoms: C2_2  and  N1_5 
REMARK       I    between atoms: N1_5  and  C5_7 
REMARK       I    between atoms: C5_7  and  N4_12 
REMARK    2  A    between atoms: N4_12  and  N5_14 
REMARK    3  A    between atoms: C7_16  and  C8_17 
REMARK    4  A    between atoms: C13_22  and  O1_23 
REMARK    5  A    between atoms: O1_23  and  C14_24 
ROOT
HETATM    1  N1  UNL     1     -22.637  10.775 -20.885  1.00  0.00    -0.216 N 
ATOM      2  H1  UNL     1     -22.451  10.960 -19.899  1.00  0.00     0.178 HD
HETATM    3  C5  UNL     1     -22.597  11.885 -21.770  1.00  0.00     0.702 C 
HETATM    4  N2  UNL     1     -23.461  12.076 -22.700  1.00  0.00    -0.125 N 
ATOM      5  H2  UNL     1     -24.218  11.403 -22.818  1.00  0.00     0.197 HD
HETATM    6  C6  UNL     1     -23.394  13.178 -23.554  1.00  0.00     0.196 C 
HETATM    7  N3  UNL     1     -23.332  14.100 -24.271  1.00  0.00    -0.171 NA
HETATM    8  N4  UNL     1     -21.551  12.858 -21.643  1.00  0.00    -0.132 N 
ATOM      9  H4  UNL     1     -21.692  13.797 -22.016  1.00  0.00     0.205 HD
ENDROOT
BRANCH   1  10
HETATM   10  C2  UNL     1     -22.909   9.437 -21.248  1.00  0.00     0.036 C 
HETATM   11  C1  UNL     1     -22.452   8.501 -20.156  1.00  0.00     0.038 C 
HETATM   12  C3  UNL     1     -24.353   9.132 -21.530  1.00  0.00     0.038 C 
HETATM   13  C4  UNL     1     -22.124   9.069 -22.495  1.00  0.00     0.038 C 
ENDBRANCH   1  10
BRANCH   8  14
HETATM   14  N5  UNL     1     -20.386  12.556 -21.040  1.00  0.00    -0.297 N 
HETATM   15  C7  UNL     1     -19.379  13.064 -20.581  1.00  0.00     0.121 C 
ATOM     16  H5  UNL     1     -20.325  11.544 -20.928  1.00  0.00     0.186 HD
BRANCH  15  17
HETATM   17  C8  UNL     1     -19.059  14.474 -20.537  1.00  0.00     0.014 A 
HETATM   18  C9  UNL     1     -17.879  14.938 -21.040  1.00  0.00     0.015 A 
HETATM   19  C10 UNL     1     -17.566  16.294 -21.001  1.00  0.00     0.001 A 
HETATM   20  C11 UNL     1     -18.457  17.177 -20.448  1.00  0.00     0.003 A 
HETATM   21  C12 UNL     1     -19.660  16.717 -19.933  1.00  0.00     0.038 A 
HETATM   22  C13 UNL     1     -19.963  15.391 -19.973  1.00  0.00     0.086 A 
BRANCH  22  23
HETATM   23  O1  UNL     1     -21.117  14.872 -19.489  1.00  0.00    -0.289 OA
BRANCH  23  24
HETATM   24  C14 UNL     1     -22.395  15.418 -19.514  1.00  0.00     0.505 C 
HETATM   25  F1  UNL     1     -23.279  14.385 -19.193  1.00  0.00    -0.184 F 
HETATM   26  F2  UNL     1     -22.686  15.757 -20.846  1.00  0.00    -0.184 F 
ENDBRANCH  23  24
ENDBRANCH  22  23
ENDBRANCH  15  17
ENDBRANCH   8  14
TORSDOF 5
ENDMDL
MODEL 2
REMARK VINA RESULT: -5.737449988      2.524      4.419
REMARK  5 active torsions:
REMARK  status: ('A' for Active; 'I' for Inactive)
REMARK    1  A    between atoms: C2_2  and  N1_5 
REMARK       I    between atoms: N1_5  and  C5_7 
REMARK       I    between atoms: C5_7  and  N4_12 
REMARK    2  A    between atoms: N4_12  and  N5_14 
REMARK    3  A    between atoms: C7_16  and  C8_17 
REMARK    4  A    between atoms: C13_22  and  O1_23 
REMARK    5  A    between atoms: O1_23  and  C14_24 
ROOT
HETATM    1  N1  UNL     1     -24.319  15.622 -22.361  1.00  0.00    -0.216 N 
ATOM      2  H1  UNL     1     -23.695  16.427 -22.314  1.00  0.00     0.178 HD
HETATM    3  C5  UNL     1     -23.719  14.335 -22.324  1.00  0.00     0.702 C 
HETATM    4  N2  UNL     1     -24.080  13.367 -23.084  1.00  0.00    -0.125 N 
ATOM      5  H2  UNL     1     -24.836  13.517 -23.752  1.00  0.00     0.197 HD
HETATM    6  C6  UNL     1     -23.470  12.113 -23.023  1.00  0.00     0.196 C 
HETATM    7  N3  UNL     1     -22.959  11.062 -22.965  1.00  0.00    -0.171 NA
HETATM    8  N4  UNL     1     -22.653  14.075 -21.400  1.00  0.00    -0.132 N 
ATOM      9  H4  UNL     1     -22.004  13.310 -21.586  1.00  0.00     0.205 HD
ENDROOT
BRANCH   1  10
HETATM   10  C2  UNL     1     -25.704  15.885 -22.457  1.00  0.00     0.036 C 
HETATM   11  C1  UNL     1     -26.113  15.984 -23.907  1.00  0.00     0.038 C 
HETATM   12  C3  UNL     1     -26.596  14.868 -21.803  1.00  0.00     0.038 C 
HETATM   13  C4  UNL     1     -26.020  17.229 -21.822  1.00  0.00     0.038 C 
ENDBRANCH   1  10
BRANCH   8  14
HETATM   14  N5  UNL     1     -22.491  14.822 -20.292  1.00  0.00    -0.297 N 
HETATM   15  C7  UNL     1     -21.661  15.467 -19.678  1.00  0.00     0.121 C 
ATOM     16  H5  UNL     1     -23.378  14.862 -19.789  1.00  0.00     0.186 HD
BRANCH  15  17
HETATM   17  C8  UNL     1     -20.274  15.669 -20.041  1.00  0.00     0.014 A 
HETATM   18  C9  UNL     1     -19.720  16.915 -20.012  1.00  0.00     0.015 A 
HETATM   19  C10 UNL     1     -18.387  17.116 -20.360  1.00  0.00     0.001 A 
HETATM   20  C11 UNL     1     -17.620  16.045 -20.737  1.00  0.00     0.003 A 
HETATM   21  C12 UNL     1     -18.172  14.773 -20.770  1.00  0.00     0.038 A 
HETATM   22  C13 UNL     1     -19.475  14.580 -20.430  1.00  0.00     0.086 A 
BRANCH  22  23
HETATM   23  O1  UNL     1     -20.081  13.368 -20.439  1.00  0.00    -0.289 OA
BRANCH  23  24
HETATM   24  C14 UNL     1     -19.654  12.187 -21.036  1.00  0.00     0.505 C 
HETATM   25  F1  UNL     1     -19.830  12.348 -22.412  1.00  0.00    -0.184 F 
HETATM   26  F2  UNL     1     -20.552  11.174 -20.661  1.00  0.00    -0.184 F 
ENDBRANCH  23  24
ENDBRANCH  22  23
ENDBRANCH  15  17
ENDBRANCH   8  14
TORSDOF 5
ENDMDL
MODEL 3
REMARK VINA RESULT: -5.713819968      6.501      9.302
REMARK  5 active torsions:
REMARK  status: ('A' for Active; 'I' for Inactive)
REMARK    1  A    between atoms: C2_2  and  N1_5 
REMARK       I    between atoms: N1_5  and  C5_7 
REMARK       I    between atoms: C5_7  and  N4_12 
REMARK    2  A    between atoms: N4_12  and  N5_14 
REMARK    3  A    between atoms: C7_16  and  C8_17 
REMARK    4  A    between atoms: C13_22  and  O1_23 
REMARK    5  A    between atoms: O1_23  and  C14_24 
ROOT
HETATM    1  N1  UNL     1     -17.404  17.420 -12.578  1.00  0.00    -0.216 N 
ATOM      2  H1  UNL     1     -17.689  18.399 -12.598  1.00  0.00     0.178 HD
HETATM    3  C5  UNL     1     -18.350  16.461 -13.029  1.00  0.00     0.702 C 
HETATM    4  N2  UNL     1     -18.565  15.347 -12.430  1.00  0.00    -0.125 N 
ATOM      5  H2  UNL     1     -18.036  15.129 -11.586  1.00  0.00     0.197 HD
HETATM    6  C6  UNL     1     -19.502  14.426 -12.899  1.00  0.00     0.196 C 
HETATM    7  N3  UNL     1     -20.285  13.653 -13.299  1.00  0.00    -0.171 NA
HETATM    8  N4  UNL     1     -19.118  16.724 -14.212  1.00  0.00    -0.132 N 
ATOM      9  H4  UNL     1     -20.004  16.238 -14.351  1.00  0.00     0.205 HD
ENDROOT
BRANCH   1  10
HETATM   10  C2  UNL     1     -16.103  17.138 -12.105  1.00  0.00     0.036 C 
HETATM   11  C1  UNL     1     -16.146  16.818 -10.630  1.00  0.00     0.038 C 
HETATM   12  C3  UNL     1     -15.404  16.001 -12.794  1.00  0.00     0.038 C 
HETATM   13  C4  UNL     1     -15.219  18.364 -12.259  1.00  0.00     0.038 C 
ENDBRANCH   1  10
BRANCH   8  14
HETATM   14  N5  UNL     1     -18.693  17.599 -15.141  1.00  0.00    -0.297 N 
HETATM   15  C7  UNL     1     -18.996  18.089 -16.214  1.00  0.00     0.121 C 
ATOM     16  H5  UNL     1     -17.800  17.991 -14.840  1.00  0.00     0.186 HD
BRANCH  15  17
HETATM   17  C8  UNL     1     -20.184  17.809 -16.992  1.00  0.00     0.014 A 
HETATM   18  C9  UNL     1     -21.426  18.034 -16.476  1.00  0.00     0.015 A 
HETATM   19  C10 UNL     1     -22.571  17.768 -17.220  1.00  0.00     0.001 A 
HETATM   20  C11 UNL     1     -22.450  17.270 -18.491  1.00  0.00     0.003 A 
HETATM   21  C12 UNL     1     -21.192  17.037 -19.028  1.00  0.00     0.038 A 
HETATM   22  C13 UNL     1     -20.074  17.299 -18.298  1.00  0.00     0.086 A 
BRANCH  22  23
HETATM   23  O1  UNL     1     -18.816  17.096 -18.756  1.00  0.00    -0.289 OA
BRANCH  23  24
HETATM   24  C14 UNL     1     -18.402  16.738 -20.034  1.00  0.00     0.505 C 
HETATM   25  F1  UNL     1     -17.007  16.822 -20.042  1.00  0.00    -0.184 F 
HETATM   26  F2  UNL     1     -18.841  17.738 -20.917  1.00  0.00    -0.184 F 
ENDBRANCH  23  24
ENDBRANCH  22  23
ENDBRANCH  15  17
ENDBRANCH   8  14
TORSDOF 5
ENDMDL
MODEL 4
REMARK VINA RESULT: -5.654263332      2.946      6.659
REMARK  5 active torsions:
REMARK  status: ('A' for Active; 'I' for Inactive)
REMARK    1  A    between atoms: C2_2  and  N1_5 
REMARK       I    between atoms: N1_5  and  C5_7 
REMARK       I    between atoms: C5_7  and  N4_12 
REMARK    2  A    between atoms: N4_12  and  N5_14 
REMARK    3  A    between atoms: C7_16  and  C8_17 
REMARK    4  A    between atoms: C13_22  and  O1_23 
REMARK    5  A    between atoms: O1_23  and  C14_24 
ROOT
HETATM    1  N1  UNL     1     -22.023  15.861 -19.358  1.00  0.00    -0.216 N 
ATOM      2  H1  UNL     1     -22.665  15.244 -18.861  1.00  0.00     0.178 HD
HETATM    3  C5  UNL     1     -20.906  15.258 -19.994  1.00  0.00     0.702 C 
HETATM    4  N2  UNL     1     -19.720  15.745 -19.950  1.00  0.00    -0.125 N 
ATOM      5  H2  UNL     1     -19.560  16.610 -19.434  1.00  0.00     0.197 HD
HETATM    6  C6  UNL     1     -18.644  15.127 -20.587  1.00  0.00     0.196 C 
HETATM    7  N3  UNL     1     -17.744  14.608 -21.126  1.00  0.00    -0.171 NA
HETATM    8  N4  UNL     1     -21.082  14.039 -20.732  1.00  0.00    -0.132 N 
ATOM      9  H4  UNL     1     -20.280  13.431 -20.893  1.00  0.00     0.205 HD
ENDROOT
BRANCH   1  10
HETATM   10  C2  UNL     1     -22.323  17.242 -19.351  1.00  0.00     0.036 C 
HETATM   11  C1  UNL     1     -21.712  17.899 -18.137  1.00  0.00     0.038 C 
HETATM   12  C3  UNL     1     -21.859  18.004 -20.560  1.00  0.00     0.038 C 
HETATM   13  C4  UNL     1     -23.825  17.445 -19.247  1.00  0.00     0.038 C 
ENDBRANCH   1  10
BRANCH   8  14
HETATM   14  N5  UNL     1     -22.287  13.684 -21.215  1.00  0.00    -0.297 N 
HETATM   15  C7  UNL     1     -23.071  12.752 -21.258  1.00  0.00     0.121 C 
ATOM     16  H5  UNL     1     -22.684  14.473 -21.724  1.00  0.00     0.186 HD
BRANCH  15  17
HETATM   17  C8  UNL     1     -22.899  11.443 -20.665  1.00  0.00     0.014 A 
HETATM   18  C9  UNL     1     -23.694  11.034 -19.635  1.00  0.00     0.015 A 
HETATM   19  C10 UNL     1     -23.534   9.776 -19.062  1.00  0.00     0.001 A 
HETATM   20  C11 UNL     1     -22.562   8.935 -19.538  1.00  0.00     0.003 A 
HETATM   21  C12 UNL     1     -21.747   9.340 -20.585  1.00  0.00     0.038 A 
HETATM   22  C13 UNL     1     -21.906  10.571 -21.144  1.00  0.00     0.086 A 
BRANCH  22  23
HETATM   23  O1  UNL     1     -21.148  11.032 -22.168  1.00  0.00    -0.289 OA
BRANCH  23  24
HETATM   24  C14 UNL     1     -19.772  10.938 -22.343  1.00  0.00     0.505 C 
HETATM   25  F1  UNL     1     -19.338  12.190 -22.784  1.00  0.00    -0.184 F 
HETATM   26  F2  UNL     1     -19.540  10.062 -23.416  1.00  0.00    -0.184 F 
ENDBRANCH  23  24
ENDBRANCH  22  23
ENDBRANCH  15  17
ENDBRANCH   8  14
TORSDOF 5
ENDMDL
MODEL 5
REMARK VINA RESULT: -5.653971923      7.978     10.432
REMARK  5 active torsions:
REMARK  status: ('A' for Active; 'I' for Inactive)
REMARK    1  A    between atoms: C2_2  and  N1_5 
REMARK       I    between atoms: N1_5  and  C5_7 
REMARK       I    between atoms: C5_7  and  N4_12 
REMARK    2  A    between atoms: N4_12  and  N5_14 
REMARK    3  A    between atoms: C7_16  and  C8_17 
REMARK    4  A    between atoms: C13_22  and  O1_23 
REMARK    5  A    between atoms: O1_23  and  C14_24 
ROOT
HETATM    1  N1  UNL     1     -19.700  17.655 -13.771  1.00  0.00    -0.216 N 
ATOM      2  H1  UNL     1     -20.508  17.505 -13.166  1.00  0.00     0.178 HD
HETATM    3  C5  UNL     1     -18.454  17.136 -13.328  1.00  0.00     0.702 C 
HETATM    4  N2  UNL     1     -17.350  17.783 -13.414  1.00  0.00    -0.125 N 
ATOM      5  H2  UNL     1     -17.355  18.719 -13.819  1.00  0.00     0.197 HD
HETATM    6  C6  UNL     1     -16.142  17.244 -12.968  1.00  0.00     0.196 C 
HETATM    7  N3  UNL     1     -15.130  16.787 -12.599  1.00  0.00    -0.171 NA
HETATM    8  N4  UNL     1     -18.397  15.824 -12.750  1.00  0.00    -0.132 N 
ATOM      9  H4  UNL     1     -17.620  15.581 -12.136  1.00  0.00     0.205 HD
ENDROOT
BRANCH   1  10
HETATM   10  C2  UNL     1     -19.919  18.360 -14.975  1.00  0.00     0.036 C 
HETATM   11  C1  UNL     1     -19.531  19.809 -14.805  1.00  0.00     0.038 C 
HETATM   12  C3  UNL     1     -19.179  17.831 -16.171  1.00  0.00     0.038 C 
HETATM   13  C4  UNL     1     -21.398  18.343 -15.323  1.00  0.00     0.038 C 
ENDBRANCH   1  10
BRANCH   8  14
HETATM   14  N5  UNL     1     -19.350  14.908 -13.003  1.00  0.00    -0.297 N 
HETATM   15  C7  UNL     1     -19.601  13.722 -12.887  1.00  0.00     0.121 C 
ATOM     16  H5  UNL     1     -20.142  15.370 -13.449  1.00  0.00     0.186 HD
BRANCH  15  17
HETATM   17  C8  UNL     1     -18.749  12.705 -12.308  1.00  0.00     0.014 A 
HETATM   18  C9  UNL     1     -18.149  12.903 -11.099  1.00  0.00     0.015 A 
HETATM   19  C10 UNL     1     -17.329  11.929 -10.537  1.00  0.00     0.001 A 
HETATM   20  C11 UNL     1     -17.120  10.753 -11.209  1.00  0.00     0.003 A 
HETATM   21  C12 UNL     1     -17.723  10.540 -12.439  1.00  0.00     0.038 A 
HETATM   22  C13 UNL     1     -18.525  11.494 -12.986  1.00  0.00     0.086 A 
BRANCH  22  23
HETATM   23  O1  UNL     1     -19.146  11.356 -14.182  1.00  0.00    -0.289 OA
BRANCH  23  24
HETATM   24  C14 UNL     1     -20.249  10.572 -14.505  1.00  0.00     0.505 C 
HETATM   25  F1  UNL     1     -21.331  11.090 -13.789  1.00  0.00    -0.184 F 
HETATM   26  F2  UNL     1     -20.028   9.291 -13.973  1.00  0.00    -0.184 F 
ENDBRANCH  23  24
ENDBRANCH  22  23
ENDBRANCH  15  17
ENDBRANCH   8  14
TORSDOF 5
ENDMDL
