MODEL 1
REMARK VINA RESULT: -5.615147932      0.000      0.000
REMARK  5 active torsions:
REMARK  status: ('A' for Active; 'I' for Inactive)
REMARK    1  A    between atoms: N1_2  and  C3_4 
REMARK    2  A    between atoms: C4_7  and  N3_8 
REMARK    3  A    between atoms: C6_13  and  O1_14 
REMARK    4  A    between atoms: O1_14  and  C7_15 
REMARK    5  A    between atoms: C7_15  and  C8_16 
ROOT
HETATM    1  C3  UNL     1     -18.715  17.144 -14.035  1.00  0.00     0.683 A 
HETATM    2  N2  UNL     1     -17.642  17.908 -13.784  1.00  0.00    -0.175 N 
ATOM      3  H2  UNL     1     -17.531  18.782 -14.297  1.00  0.00     0.186 HD
HETATM    4  C4  UNL     1     -16.712  17.569 -12.888  1.00  0.00     0.141 A 
HETATM    5  C5  UNL     1     -16.827  16.375 -12.160  1.00  0.00     0.129 A 
HETATM    6 CL1  UNL     1     -15.501  15.956 -11.061  1.00  0.00    -0.076 Cl
HETATM    7  C6  UNL     1     -17.907  15.587 -12.395  1.00  0.00     0.184 A 
HETATM    8  N4  UNL     1     -18.818  16.012 -13.339  1.00  0.00    -0.169 N 
ATOM      9  H4  UNL     1     -19.628  15.417 -13.517  1.00  0.00     0.186 HD
ENDROOT
BRANCH   7  10
HETATM   10  O1  UNL     1     -18.163  14.406 -11.761  1.00  0.00    -0.322 OA
BRANCH  10  11
HETATM   11  C7  UNL     1     -17.951  13.099 -12.158  1.00  0.00     0.082 C 
HETATM   12  C9  UNL     1     -16.659  13.059 -12.953  1.00  0.00     0.040 C 
HETATM   13  C10 UNL     1     -16.182  11.673 -13.259  1.00  0.00     0.003 C 
HETATM   14  C11 UNL     1     -16.192  10.754 -12.076  1.00  0.00     0.000 C 
HETATM   15  C12 UNL     1     -17.345  10.966 -11.145  1.00  0.00     0.003 C 
HETATM   16  C13 UNL     1     -17.630  12.376 -10.787  1.00  0.00     0.040 C 
BRANCH  11  17
HETATM   17  C8  UNL     1     -18.954  12.297 -12.852  1.00  0.00     0.153 C 
HETATM   18 CL2  UNL     1     -20.567  12.992 -13.056  1.00  0.00    -0.127 Cl
ENDBRANCH  11  17
ENDBRANCH  10  11
ENDBRANCH   7  10
BRANCH   4  19
HETATM   19  N3  UNL     1     -15.684  18.293 -12.641  1.00  0.00    -0.384 N 
ATOM     20  H32 UNL     1     -15.492  18.492 -11.660  1.00  0.00     0.157 HD
ATOM     21  H31 UNL     1     -15.076  18.662 -13.373  1.00  0.00     0.157 HD
ENDBRANCH   4  19
BRANCH   1  22
HETATM   22  N1  UNL     1     -19.704  17.519 -15.002  1.00  0.00    -0.226 N 
HETATM   23  C1  UNL     1     -21.089  17.612 -14.670  1.00  0.00     0.168 C 
HETATM   24  C2  UNL     1     -19.281  17.813 -16.357  1.00  0.00     0.168 C 
ENDBRANCH   1  22
TORSDOF 5
ENDMDL
MODEL 2
REMARK VINA RESULT: -5.357901057      1.851      3.481
REMARK  5 active torsions:
REMARK  status: ('A' for Active; 'I' for Inactive)
REMARK    1  A    between atoms: N1_2  and  C3_4 
REMARK    2  A    between atoms: C4_7  and  N3_8 
REMARK    3  A    between atoms: C6_13  and  O1_14 
REMARK    4  A    between atoms: O1_14  and  C7_15 
REMARK    5  A    between atoms: C7_15  and  C8_16 
ROOT
HETATM    1  C3  UNL     1     -15.573  17.536 -11.811  1.00  0.00     0.683 A 
HETATM    2  N2  UNL     1     -16.216  18.208 -12.778  1.00  0.00    -0.175 N 
ATOM      3  H2  UNL     1     -15.816  19.084 -13.115  1.00  0.00     0.186 HD
HETATM    4  C4  UNL     1     -17.359  17.777 -13.315  1.00  0.00     0.141 A 
HETATM    5  C5  UNL     1     -17.942  16.577 -12.880  1.00  0.00     0.129 A 
HETATM    6 CL1  UNL     1     -19.507  16.126 -13.580  1.00  0.00    -0.076 Cl
HETATM    7  C6  UNL     1     -17.307  15.877 -11.905  1.00  0.00     0.184 A 
HETATM    8  N4  UNL     1     -16.132  16.396 -11.404  1.00  0.00    -0.169 N 
ATOM      9  H4  UNL     1     -15.658  15.871 -10.669  1.00  0.00     0.186 HD
ENDROOT
BRANCH   7  10
HETATM   10  O1  UNL     1     -17.742  14.692 -11.387  1.00  0.00    -0.322 OA
BRANCH  10  11
HETATM   11  C7  UNL     1     -17.712  13.410 -11.904  1.00  0.00     0.082 C 
HETATM   12  C9  UNL     1     -16.497  13.303 -12.807  1.00  0.00     0.040 C 
HETATM   13  C10 UNL     1     -16.206  11.906 -13.263  1.00  0.00     0.003 C 
HETATM   14  C11 UNL     1     -16.232  10.892 -12.161  1.00  0.00     0.000 C 
HETATM   15  C12 UNL     1     -17.278  11.143 -11.121  1.00  0.00     0.003 C 
HETATM   16  C13 UNL     1     -17.373  12.537 -10.628  1.00  0.00     0.040 C 
BRANCH  11  17
HETATM   17  C8  UNL     1     -18.850  12.785 -12.572  1.00  0.00     0.153 C 
HETATM   18 CL2  UNL     1     -20.471  13.284 -12.072  1.00  0.00    -0.127 Cl
ENDBRANCH  11  17
ENDBRANCH  10  11
ENDBRANCH   7  10
BRANCH   4  19
HETATM   19  N3  UNL     1     -17.980  18.413 -14.239  1.00  0.00    -0.384 N 
ATOM     20  H32 UNL     1     -18.989  18.273 -14.288  1.00  0.00     0.157 HD
ATOM     21  H31 UNL     1     -17.509  19.031 -14.900  1.00  0.00     0.157 HD
ENDBRANCH   4  19
BRANCH   1  22
HETATM   22  N1  UNL     1     -14.348  18.012 -11.241  1.00  0.00    -0.226 N 
HETATM   23  C1  UNL     1     -13.819  19.301 -11.551  1.00  0.00     0.168 C 
HETATM   24  C2  UNL     1     -13.627  17.156 -10.318  1.00  0.00     0.168 C 
ENDBRANCH   1  22
TORSDOF 5
ENDMDL
MODEL 3
REMARK VINA RESULT: -5.231681071      8.079      9.760
REMARK  5 active torsions:
REMARK  status: ('A' for Active; 'I' for Inactive)
REMARK    1  A    between atoms: N1_2  and  C3_4 
REMARK    2  A    between atoms: C4_7  and  N3_8 
REMARK    3  A    between atoms: C6_13  and  O1_14 
REMARK    4  A    between atoms: O1_14  and  C7_15 
REMARK    5  A    between atoms: C7_15  and  C8_16 
ROOT
HETATM    1  C3  UNL     1     -20.102  13.038 -21.036  1.00  0.00     0.683 A 
HETATM    2  N2  UNL     1     -18.882  13.544 -21.269  1.00  0.00    -0.175 N 
ATOM      3  H2  UNL     1     -18.208  12.981 -21.787  1.00  0.00     0.186 HD
HETATM    4  C4  UNL     1     -18.516  14.757 -20.849  1.00  0.00     0.141 A 
HETATM    5  C5  UNL     1     -19.413  15.565 -20.134  1.00  0.00     0.129 A 
HETATM    6 CL1  UNL     1     -18.814  17.121 -19.532  1.00  0.00    -0.076 Cl
HETATM    7  C6  UNL     1     -20.655  15.074 -19.889  1.00  0.00     0.184 A 
HETATM    8  N4  UNL     1     -20.950  13.811 -20.356  1.00  0.00    -0.169 N 
ATOM      9  H4  UNL     1     -21.882  13.442 -20.169  1.00  0.00     0.186 HD
ENDROOT
BRANCH   7  10
HETATM   10  O1  UNL     1     -21.638  15.741 -19.219  1.00  0.00    -0.322 OA
BRANCH  10  11
HETATM   11  C7  UNL     1     -22.651  16.564 -19.676  1.00  0.00     0.082 C 
HETATM   12  C9  UNL     1     -23.920  16.195 -18.931  1.00  0.00     0.040 C 
HETATM   13  C10 UNL     1     -25.052  17.149 -19.157  1.00  0.00     0.003 C 
HETATM   14  C11 UNL     1     -24.666  18.590 -19.016  1.00  0.00     0.000 C 
HETATM   15  C12 UNL     1     -23.296  18.911 -19.525  1.00  0.00     0.003 C 
HETATM   16  C13 UNL     1     -22.221  17.979 -19.109  1.00  0.00     0.040 C 
BRANCH  11  17
HETATM   17  C8  UNL     1     -22.969  16.738 -21.090  1.00  0.00     0.153 C 
HETATM   18 CL2  UNL     1     -23.658  15.358 -21.953  1.00  0.00    -0.127 Cl
ENDBRANCH  11  17
ENDBRANCH  10  11
ENDBRANCH   7  10
BRANCH   4  19
HETATM   19  N3  UNL     1     -17.352  15.249 -21.068  1.00  0.00    -0.384 N 
ATOM     20  H32 UNL     1     -17.148  15.526 -22.028  1.00  0.00     0.157 HD
ATOM     21  H31 UNL     1     -16.652  15.366 -20.335  1.00  0.00     0.157 HD
ENDBRANCH   4  19
BRANCH   1  22
HETATM   22  N1  UNL     1     -20.482  11.733 -21.489  1.00  0.00    -0.226 N 
HETATM   23  C1  UNL     1     -19.768  11.053 -22.521  1.00  0.00     0.168 C 
HETATM   24  C2  UNL     1     -21.627  11.086 -20.878  1.00  0.00     0.168 C 
ENDBRANCH   1  22
TORSDOF 5
ENDMDL
MODEL 4
REMARK VINA RESULT: -5.200817135      2.058      4.281
REMARK  5 active torsions:
REMARK  status: ('A' for Active; 'I' for Inactive)
REMARK    1  A    between atoms: N1_2  and  C3_4 
REMARK    2  A    between atoms: C4_7  and  N3_8 
REMARK    3  A    between atoms: C6_13  and  O1_14 
REMARK    4  A    between atoms: O1_14  and  C7_15 
REMARK    5  A    between atoms: C7_15  and  C8_16 
ROOT
HETATM    1  C3  UNL     1     -15.161  17.797 -11.635  1.00  0.00     0.683 A 
HETATM    2  N2  UNL     1     -15.919  18.254 -12.644  1.00  0.00    -0.175 N 
ATOM      3  H2  UNL     1     -15.636  19.110 -13.120  1.00  0.00     0.186 HD
HETATM    4  C4  UNL     1     -17.028  17.632 -13.047  1.00  0.00     0.141 A 
HETATM    5  C5  UNL     1     -17.452  16.451 -12.420  1.00  0.00     0.129 A 
HETATM    6 CL1  UNL     1     -18.987  15.743 -12.956  1.00  0.00    -0.076 Cl
HETATM    7  C6  UNL     1     -16.699  15.968 -11.399  1.00  0.00     0.184 A 
HETATM    8  N4  UNL     1     -15.569  16.673 -11.044  1.00  0.00    -0.169 N 
ATOM      9  H4  UNL     1     -15.006  16.311 -10.275  1.00  0.00     0.186 HD
ENDROOT
BRANCH   7  10
HETATM   10  O1  UNL     1     -16.973  14.829 -10.700  1.00  0.00    -0.322 OA
BRANCH  10  11
HETATM   11  C7  UNL     1     -16.454  13.552 -10.806  1.00  0.00     0.082 C 
HETATM   12  C9  UNL     1     -17.547  12.573 -10.417  1.00  0.00     0.040 C 
HETATM   13  C10 UNL     1     -17.203  11.142 -10.698  1.00  0.00     0.003 C 
HETATM   14  C11 UNL     1     -16.645  10.911 -12.069  1.00  0.00     0.000 C 
HETATM   15  C12 UNL     1     -15.758  12.011 -12.563  1.00  0.00     0.003 C 
HETATM   16  C13 UNL     1     -16.273  13.387 -12.371  1.00  0.00     0.040 C 
BRANCH  11  17
HETATM   17  C8  UNL     1     -15.205  13.136 -10.175  1.00  0.00     0.153 C 
HETATM   18 CL2  UNL     1     -13.722  13.968 -10.661  1.00  0.00    -0.127 Cl
ENDBRANCH  11  17
ENDBRANCH  10  11
ENDBRANCH   7  10
BRANCH   4  19
HETATM   19  N3  UNL     1     -17.758  18.062 -14.010  1.00  0.00    -0.384 N 
ATOM     20  H32 UNL     1     -18.767  18.030 -13.865  1.00  0.00     0.157 HD
ATOM     21  H31 UNL     1     -17.371  18.421 -14.883  1.00  0.00     0.157 HD
ENDBRANCH   4  19
BRANCH   1  22
HETATM   22  N1  UNL     1     -13.974  18.476 -11.209  1.00  0.00    -0.226 N 
HETATM   23  C1  UNL     1     -13.620  19.766 -11.705  1.00  0.00     0.168 C 
HETATM   24  C2  UNL     1     -13.107  17.829 -10.243  1.00  0.00     0.168 C 
ENDBRANCH   1  22
TORSDOF 5
ENDMDL
MODEL 5
REMARK VINA RESULT: -5.114912419      1.358      1.729
REMARK  5 active torsions:
REMARK  status: ('A' for Active; 'I' for Inactive)
REMARK    1  A    between atoms: N1_2  and  C3_4 
REMARK    2  A    between atoms: C4_7  and  N3_8 
REMARK    3  A    between atoms: C6_13  and  O1_14 
REMARK    4  A    between atoms: O1_14  and  C7_15 
REMARK    5  A    between atoms: C7_15  and  C8_16 
ROOT
HETATM    1  C3  UNL     1     -17.656  17.452 -13.373  1.00  0.00     0.683 A 
HETATM    2  N2  UNL     1     -16.611  18.110 -12.849  1.00  0.00    -0.175 N 
ATOM      3  H2  UNL     1     -16.620  19.130 -12.857  1.00  0.00     0.186 HD
HETATM    4  C4  UNL     1     -15.560  17.482 -12.319  1.00  0.00     0.141 A 
HETATM    5  C5  UNL     1     -15.509  16.080 -12.287  1.00  0.00     0.129 A 
HETATM    6 CL1  UNL     1     -14.034  15.329 -11.651  1.00  0.00    -0.076 Cl
HETATM    7  C6  UNL     1     -16.557  15.393 -12.808  1.00  0.00     0.184 A 
HETATM    8  N4  UNL     1     -17.601  16.120 -13.338  1.00  0.00    -0.169 N 
ATOM      9  H4  UNL     1     -18.387  15.603 -13.732  1.00  0.00     0.186 HD
ENDROOT
BRANCH   7  10
HETATM   10  O1  UNL     1     -16.658  14.033 -12.841  1.00  0.00    -0.322 OA
BRANCH  10  11
HETATM   11  C7  UNL     1     -17.386  13.158 -12.055  1.00  0.00     0.082 C 
HETATM   12  C9  UNL     1     -16.639  11.838 -12.018  1.00  0.00     0.040 C 
HETATM   13  C10 UNL     1     -17.189  10.861 -11.025  1.00  0.00     0.003 C 
HETATM   14  C11 UNL     1     -17.440  11.452  -9.671  1.00  0.00     0.000 C 
HETATM   15  C12 UNL     1     -17.942  12.861  -9.700  1.00  0.00     0.003 C 
HETATM   16  C13 UNL     1     -17.219  13.782 -10.609  1.00  0.00     0.040 C 
BRANCH  11  17
HETATM   17  C8  UNL     1     -18.806  12.889 -12.254  1.00  0.00     0.153 C 
HETATM   18 CL2  UNL     1     -19.254  11.717 -13.500  1.00  0.00    -0.127 Cl
ENDBRANCH  11  17
ENDBRANCH  10  11
ENDBRANCH   7  10
BRANCH   4  19
HETATM   19  N3  UNL     1     -14.557  18.103 -11.816  1.00  0.00    -0.384 N 
ATOM     20  H32 UNL     1     -14.462  19.088 -12.061  1.00  0.00     0.157 HD
ATOM     21  H31 UNL     1     -13.877  17.654 -11.202  1.00  0.00     0.157 HD
ENDBRANCH   4  19
BRANCH   1  22
HETATM   22  N1  UNL     1     -18.778  18.138 -13.942  1.00  0.00    -0.226 N 
HETATM   23  C1  UNL     1     -19.412  19.232 -13.280  1.00  0.00     0.168 C 
HETATM   24  C2  UNL     1     -19.280  17.707 -15.233  1.00  0.00     0.168 C 
ENDBRANCH   1  22
TORSDOF 5
ENDMDL
