MODEL 1
REMARK VINA RESULT: -5.739203402      0.000      0.000
REMARK  2 active torsions:
REMARK  status: ('A' for Active; 'I' for Inactive)
REMARK    1  A    between atoms: N2_4  and  N3_6 
REMARK       I    between atoms: N3_6  and  C1_8 
REMARK       I    between atoms: C1_8  and  N4_10 
REMARK       I    between atoms: N4_10  and  C2_12 
REMARK    2  A    between atoms: N6_14  and  N7_16 
ROOT
HETATM    1  N3  UNL     1      76.850  89.747  19.012  1.00  0.00    -0.237 N 
ATOM      2  H3  UNL     1      76.525  89.864  18.052  1.00  0.00     0.193 HD
HETATM    3  C1  UNL     1      77.492  88.538  19.387  1.00  0.00     0.342 C 
HETATM    4  O1  UNL     1      77.876  88.443  20.594  1.00  0.00    -0.245 OA
HETATM    5  N4  UNL     1      77.708  87.477  18.494  1.00  0.00    -0.280 N 
ATOM      6  H4  UNL     1      77.393  87.568  17.529  1.00  0.00     0.173 HD
HETATM    7  C2  UNL     1      78.352  86.284  18.902  1.00  0.00     0.210 C 
HETATM    8  N5  UNL     1      78.777  86.190  20.251  1.00  0.00    -0.062 NA
HETATM    9  N6  UNL     1      78.563  85.296  18.105  1.00  0.00    -0.280 N 
ATOM     10  H6  UNL     1      78.266  85.341  17.130  1.00  0.00     0.189 HD
ENDROOT
BRANCH   1  11
HETATM   11  N2  UNL     1      76.656  90.766  19.919  1.00  0.00    -0.245 N 
HETATM   12  N1  UNL     1      77.619  91.239  20.581  1.00  0.00    -0.331 N 
ATOM     13  H12 UNL     1      78.550  90.850  20.431  1.00  0.00     0.178 HD
ATOM     14  H11 UNL     1      77.475  91.993  21.252  1.00  0.00     0.178 HD
ATOM     15  H2  UNL     1      75.719  91.144  20.056  1.00  0.00     0.208 HD
ENDBRANCH   1  11
BRANCH   9  16
HETATM   16  N7  UNL     1      79.204  84.167  18.602  1.00  0.00    -0.343 N 
ATOM     17  H72 UNL     1      80.211  84.058  18.476  1.00  0.00     0.176 HD
ATOM     18  H71 UNL     1      78.647  83.464  19.088  1.00  0.00     0.176 HD
ENDBRANCH   9  16
TORSDOF 2
ENDMDL
MODEL 2
REMARK VINA RESULT: -5.423798499      1.239      1.664
REMARK  2 active torsions:
REMARK  status: ('A' for Active; 'I' for Inactive)
REMARK    1  A    between atoms: N2_4  and  N3_6 
REMARK       I    between atoms: N3_6  and  C1_8 
REMARK       I    between atoms: C1_8  and  N4_10 
REMARK       I    between atoms: N4_10  and  C2_12 
REMARK    2  A    between atoms: N6_14  and  N7_16 
ROOT
HETATM    1  N3  UNL     1      78.353  89.275  20.931  1.00  0.00    -0.237 N 
ATOM      2  H3  UNL     1      78.516  88.887  21.860  1.00  0.00     0.193 HD
HETATM    3  C1  UNL     1      78.391  88.416  19.802  1.00  0.00     0.342 C 
HETATM    4  O1  UNL     1      78.182  88.950  18.668  1.00  0.00    -0.245 OA
HETATM    5  N4  UNL     1      78.644  87.039  19.896  1.00  0.00    -0.280 N 
ATOM      6  H4  UNL     1      78.810  86.626  20.813  1.00  0.00     0.173 HD
HETATM    7  C2  UNL     1      78.675  86.210  18.748  1.00  0.00     0.210 C 
HETATM    8  N5  UNL     1      78.440  86.817  17.488  1.00  0.00    -0.062 NA
HETATM    9  N6  UNL     1      78.904  84.946  18.805  1.00  0.00    -0.280 N 
ATOM     10  H6  UNL     1      79.076  84.487  19.700  1.00  0.00     0.189 HD
ENDROOT
BRANCH   1  11
HETATM   11  N2  UNL     1      78.101  90.623  20.797  1.00  0.00    -0.245 N 
HETATM   12  N1  UNL     1      77.018  91.037  20.301  1.00  0.00    -0.331 N 
ATOM     13  H12 UNL     1      76.328  90.349  19.999  1.00  0.00     0.178 HD
ATOM     14  H11 UNL     1      76.832  92.034  20.202  1.00  0.00     0.178 HD
ATOM     15  H2  UNL     1      78.801  91.298  21.105  1.00  0.00     0.208 HD
ENDBRANCH   1  11
BRANCH   9  16
HETATM   16  N7  UNL     1      78.913  84.218  17.620  1.00  0.00    -0.343 N 
ATOM     17  H72 UNL     1      78.624  84.664  16.749  1.00  0.00     0.176 HD
ATOM     18  H71 UNL     1      79.212  83.243  17.649  1.00  0.00     0.176 HD
ENDBRANCH   9  16
TORSDOF 2
ENDMDL
MODEL 3
REMARK VINA RESULT: -5.401103034      1.348      1.348
REMARK  2 active torsions:
REMARK  status: ('A' for Active; 'I' for Inactive)
REMARK    1  A    between atoms: N2_4  and  N3_6 
REMARK       I    between atoms: N3_6  and  C1_8 
REMARK       I    between atoms: C1_8  and  N4_10 
REMARK       I    between atoms: N4_10  and  C2_12 
REMARK    2  A    between atoms: N6_14  and  N7_16 
ROOT
HETATM    1  N3  UNL     1      76.596  89.665  19.394  1.00  0.00    -0.237 N 
ATOM      2  H3  UNL     1      75.592  89.504  19.316  1.00  0.00     0.193 HD
HETATM    3  C1  UNL     1      77.498  88.691  18.889  1.00  0.00     0.342 C 
HETATM    4  O1  UNL     1      78.738  88.940  19.011  1.00  0.00    -0.245 OA
HETATM    5  N4  UNL     1      77.075  87.501  18.278  1.00  0.00    -0.280 N 
ATOM      6  H4  UNL     1      76.077  87.316  18.187  1.00  0.00     0.173 HD
HETATM    7  C2  UNL     1      78.002  86.551  17.785  1.00  0.00     0.210 C 
HETATM    8  N5  UNL     1      79.383  86.839  17.926  1.00  0.00    -0.062 NA
HETATM    9  N6  UNL     1      77.642  85.452  17.221  1.00  0.00    -0.280 N 
ATOM     10  H6  UNL     1      76.655  85.223  17.108  1.00  0.00     0.189 HD
ENDROOT
BRANCH   1  11
HETATM   11  N2  UNL     1      77.051  90.822  19.987  1.00  0.00    -0.245 N 
HETATM   12  N1  UNL     1      77.755  90.784  21.033  1.00  0.00    -0.331 N 
ATOM     13  H12 UNL     1      77.982  89.874  21.433  1.00  0.00     0.178 HD
ATOM     14  H11 UNL     1      78.091  91.641  21.472  1.00  0.00     0.178 HD
ATOM     15  H2  UNL     1      76.816  91.724  19.574  1.00  0.00     0.208 HD
ENDBRANCH   1  11
BRANCH   9  16
HETATM   16  N7  UNL     1      78.630  84.583  16.769  1.00  0.00    -0.343 N 
ATOM     17  H72 UNL     1      79.604  84.887  16.753  1.00  0.00     0.176 HD
ATOM     18  H71 UNL     1      78.355  83.651  16.460  1.00  0.00     0.176 HD
ENDBRANCH   9  16
TORSDOF 2
ENDMDL
MODEL 4
REMARK VINA RESULT: -5.223566047      1.757      2.080
REMARK  2 active torsions:
REMARK  status: ('A' for Active; 'I' for Inactive)
REMARK    1  A    between atoms: N2_4  and  N3_6 
REMARK       I    between atoms: N3_6  and  C1_8 
REMARK       I    between atoms: C1_8  and  N4_10 
REMARK       I    between atoms: N4_10  and  C2_12 
REMARK    2  A    between atoms: N6_14  and  N7_16 
ROOT
HETATM    1  N3  UNL     1      77.461  89.810  19.103  1.00  0.00    -0.237 N 
ATOM      2  H3  UNL     1      76.630  90.266  18.726  1.00  0.00     0.193 HD
HETATM    3  C1  UNL     1      77.891  88.577  18.545  1.00  0.00     0.342 C 
HETATM    4  O1  UNL     1      78.930  88.050  19.050  1.00  0.00    -0.245 OA
HETATM    5  N4  UNL     1      77.224  87.943  17.486  1.00  0.00    -0.280 N 
ATOM      6  H4  UNL     1      76.391  88.378  17.090  1.00  0.00     0.173 HD
HETATM    7  C2  UNL     1      77.681  86.713  16.953  1.00  0.00     0.210 C 
HETATM    8  N5  UNL     1      78.842  86.134  17.524  1.00  0.00    -0.062 NA
HETATM    9  N6  UNL     1      77.089  86.110  15.982  1.00  0.00    -0.280 N 
ATOM     10  H6  UNL     1      76.252  86.506  15.555  1.00  0.00     0.189 HD
ENDROOT
BRANCH   1  11
HETATM   11  N2  UNL     1      78.143  90.401  20.143  1.00  0.00    -0.245 N 
HETATM   12  N1  UNL     1      78.212  89.848  21.274  1.00  0.00    -0.331 N 
ATOM     13  H12 UNL     1      77.750  88.948  21.404  1.00  0.00     0.178 HD
ATOM     14  H11 UNL     1      78.717  90.286  22.044  1.00  0.00     0.178 HD
ATOM     15  H2  UNL     1      78.601  91.301  19.996  1.00  0.00     0.208 HD
ENDBRANCH   1  11
BRANCH   9  16
HETATM   16  N7  UNL     1      77.616  84.905  15.530  1.00  0.00    -0.343 N 
ATOM     17  H72 UNL     1      78.514  84.577  15.888  1.00  0.00     0.176 HD
ATOM     18  H71 UNL     1      77.087  84.370  14.841  1.00  0.00     0.176 HD
ENDBRANCH   9  16
TORSDOF 2
ENDMDL
MODEL 5
REMARK VINA RESULT: -5.212752314      3.049      3.499
REMARK  2 active torsions:
REMARK  status: ('A' for Active; 'I' for Inactive)
REMARK    1  A    between atoms: N2_4  and  N3_6 
REMARK       I    between atoms: N3_6  and  C1_8 
REMARK       I    between atoms: C1_8  and  N4_10 
REMARK       I    between atoms: N4_10  and  C2_12 
REMARK    2  A    between atoms: N6_14  and  N7_16 
ROOT
HETATM    1  N3  UNL     1      78.441  89.601  17.674  1.00  0.00    -0.237 N 
ATOM      2  H3  UNL     1      77.733  90.313  17.491  1.00  0.00     0.193 HD
HETATM    3  C1  UNL     1      78.213  88.268  17.244  1.00  0.00     0.342 C 
HETATM    4  O1  UNL     1      79.124  87.420  17.497  1.00  0.00    -0.245 OA
HETATM    5  N4  UNL     1      77.049  87.870  16.570  1.00  0.00    -0.280 N 
ATOM      6  H4  UNL     1      76.326  88.562  16.374  1.00  0.00     0.173 HD
HETATM    7  C2  UNL     1      76.853  86.530  16.154  1.00  0.00     0.210 C 
HETATM    8  N5  UNL     1      77.877  85.593  16.441  1.00  0.00    -0.062 NA
HETATM    9  N6  UNL     1      75.796  86.138  15.534  1.00  0.00    -0.280 N 
ATOM     10  H6  UNL     1      75.046  86.794  15.317  1.00  0.00     0.189 HD
ENDROOT
BRANCH   1  11
HETATM   11  N2  UNL     1      79.598  89.953  18.334  1.00  0.00    -0.245 N 
HETATM   12  N1  UNL     1      80.731  89.686  17.849  1.00  0.00    -0.331 N 
ATOM     13  H12 UNL     1      80.773  89.202  16.952  1.00  0.00     0.178 HD
ATOM     14  H11 UNL     1      81.587  89.946  18.338  1.00  0.00     0.178 HD
ATOM     15  H2  UNL     1      79.538  90.437  19.230  1.00  0.00     0.208 HD
ENDBRANCH   1  11
BRANCH   9  16
HETATM   16  N7  UNL     1      75.699  84.800  15.168  1.00  0.00    -0.343 N 
ATOM     17  H72 UNL     1      74.794  84.329  15.201  1.00  0.00     0.176 HD
ATOM     18  H71 UNL     1      76.545  84.313  14.871  1.00  0.00     0.176 HD
ENDBRANCH   9  16
TORSDOF 2
ENDMDL
