MODEL 1
REMARK VINA RESULT: -5.698884549      0.000      0.000
REMARK  2 active torsions:
REMARK  status: ('A' for Active; 'I' for Inactive)
REMARK    1  A    between atoms: N1_1  and  N2_4 
REMARK       I    between atoms: N2_4  and  C1_6 
REMARK       I    between atoms: C1_6  and  N3_8 
REMARK    2  A    between atoms: N5_13  and  O2_15 
ROOT
HETATM    1  N2  UNL     1      76.758  89.713  19.180  1.00  0.00    -0.257 N 
ATOM      2  H2  UNL     1      76.237  89.631  18.307  1.00  0.00     0.191 HD
HETATM    3  C1  UNL     1      77.585  88.658  19.585  1.00  0.00     0.356 C 
HETATM    4  O1  UNL     1      78.199  88.851  20.703  1.00  0.00    -0.244 OA
HETATM    5  N3  UNL     1      77.838  87.444  18.963  1.00  0.00    -0.112 N 
HETATM    6  C2  UNL     1      78.632  86.258  19.277  1.00  0.00     0.294 C 
HETATM    7  N4  UNL     1      77.597  85.579  18.544  1.00  0.00    -0.207 N 
ATOM      8  H4  UNL     1      77.156  84.660  18.560  1.00  0.00     0.179 HD
HETATM    9  C3  UNL     1      77.468  86.796  17.774  1.00  0.00     0.706 C 
HETATM   10  N5  UNL     1      77.170  87.059  16.547  1.00  0.00    -0.098 N 
ATOM     11  H5  UNL     1      76.937  86.283  15.927  1.00  0.00     0.213 HD
ENDROOT
BRANCH   1  12
HETATM   12  N1  UNL     1      76.632  90.863  19.937  1.00  0.00    -0.341 N 
ATOM     13  H12 UNL     1      76.265  90.779  20.885  1.00  0.00     0.177 HD
ATOM     14  H11 UNL     1      76.895  91.777  19.567  1.00  0.00     0.177 HD
ENDBRANCH   1  12
BRANCH  10  15
HETATM   15  O2  UNL     1      77.152  88.320  16.038  1.00  0.00    -0.276 OA
ATOM     16  H2  UNL     1      76.729  89.051  16.473  1.00  0.00     0.245 HD
ENDBRANCH  10  15
TORSDOF 2
ENDMDL
MODEL 2
REMARK VINA RESULT: -5.697279165      1.843      3.640
REMARK  2 active torsions:
REMARK  status: ('A' for Active; 'I' for Inactive)
REMARK    1  A    between atoms: N1_1  and  N2_4 
REMARK       I    between atoms: N2_4  and  C1_6 
REMARK       I    between atoms: C1_6  and  N3_8 
REMARK    2  A    between atoms: N5_13  and  O2_15 
ROOT
HETATM    1  N2  UNL     1      77.195  88.413  16.732  1.00  0.00    -0.257 N 
ATOM      2  H2  UNL     1      76.867  89.364  16.903  1.00  0.00     0.191 HD
HETATM    3  C1  UNL     1      78.039  87.802  17.668  1.00  0.00     0.356 C 
HETATM    4  O1  UNL     1      78.405  86.603  17.363  1.00  0.00    -0.244 OA
HETATM    5  N3  UNL     1      78.536  88.295  18.865  1.00  0.00    -0.112 N 
HETATM    6  C2  UNL     1      79.433  87.796  19.904  1.00  0.00     0.294 C 
HETATM    7  N4  UNL     1      79.773  89.187  20.042  1.00  0.00    -0.207 N 
ATOM      8  H4  UNL     1      80.594  89.728  20.309  1.00  0.00     0.179 HD
HETATM    9  C3  UNL     1      78.416  89.467  19.629  1.00  0.00     0.706 C 
HETATM   10  N5  UNL     1      77.558  90.388  19.914  1.00  0.00    -0.098 N 
ATOM     11  H5  UNL     1      77.841  91.135  20.548  1.00  0.00     0.213 HD
ENDROOT
BRANCH   1  12
HETATM   12  N1  UNL     1      76.796  87.758  15.582  1.00  0.00    -0.341 N 
ATOM     13  H12 UNL     1      77.497  87.234  15.058  1.00  0.00     0.177 HD
ATOM     14  H11 UNL     1      75.830  87.792  15.257  1.00  0.00     0.177 HD
ENDBRANCH   1  12
BRANCH  10  15
HETATM   15  O2  UNL     1      76.295  90.412  19.410  1.00  0.00    -0.276 OA
ATOM     16  H2  UNL     1      75.517  90.359  19.952  1.00  0.00     0.245 HD
ENDBRANCH  10  15
TORSDOF 2
ENDMDL
MODEL 3
REMARK VINA RESULT: -5.685062561      1.979      3.594
REMARK  2 active torsions:
REMARK  status: ('A' for Active; 'I' for Inactive)
REMARK    1  A    between atoms: N1_1  and  N2_4 
REMARK       I    between atoms: N2_4  and  C1_6 
REMARK       I    between atoms: C1_6  and  N3_8 
REMARK    2  A    between atoms: N5_13  and  O2_15 
ROOT
HETATM    1  N2  UNL     1      78.874  85.939  18.269  1.00  0.00    -0.257 N 
ATOM      2  H2  UNL     1      78.828  86.292  17.313  1.00  0.00     0.191 HD
HETATM    3  C1  UNL     1      78.842  86.848  19.335  1.00  0.00     0.356 C 
HETATM    4  O1  UNL     1      78.909  86.309  20.505  1.00  0.00    -0.244 OA
HETATM    5  N3  UNL     1      78.749  88.231  19.315  1.00  0.00    -0.112 N 
HETATM    6  C2  UNL     1      78.740  89.289  20.323  1.00  0.00     0.294 C 
HETATM    7  N4  UNL     1      79.375  90.053  19.283  1.00  0.00    -0.207 N 
ATOM      8  H4  UNL     1      80.049  90.816  19.228  1.00  0.00     0.179 HD
HETATM    9  C3  UNL     1      78.621  89.244  18.352  1.00  0.00     0.706 C 
HETATM   10  N5  UNL     1      78.090  89.459  17.195  1.00  0.00    -0.098 N 
ATOM     11  H5  UNL     1      78.211  90.377  16.769  1.00  0.00     0.213 HD
ENDROOT
BRANCH   1  12
HETATM   12  N1  UNL     1      78.966  84.577  18.483  1.00  0.00    -0.341 N 
ATOM     13  H12 UNL     1      78.789  84.223  19.423  1.00  0.00     0.177 HD
ATOM     14  H11 UNL     1      79.203  83.933  17.728  1.00  0.00     0.177 HD
ENDBRANCH   1  12
BRANCH  10  15
HETATM   15  O2  UNL     1      77.376  88.521  16.517  1.00  0.00    -0.276 OA
ATOM     16  H2  UNL     1      76.798  88.729  15.793  1.00  0.00     0.245 HD
ENDBRANCH  10  15
TORSDOF 2
ENDMDL
MODEL 4
REMARK VINA RESULT: -5.532345554      2.194      3.993
REMARK  2 active torsions:
REMARK  status: ('A' for Active; 'I' for Inactive)
REMARK    1  A    between atoms: N1_1  and  N2_4 
REMARK       I    between atoms: N2_4  and  C1_6 
REMARK       I    between atoms: C1_6  and  N3_8 
REMARK    2  A    between atoms: N5_13  and  O2_15 
ROOT
HETATM    1  N2  UNL     1      76.978  87.183  18.353  1.00  0.00    -0.257 N 
ATOM      2  H2  UNL     1      76.504  87.896  18.908  1.00  0.00     0.191 HD
HETATM    3  C1  UNL     1      78.331  87.352  18.035  1.00  0.00     0.356 C 
HETATM    4  O1  UNL     1      78.842  86.402  17.327  1.00  0.00    -0.244 OA
HETATM    5  N3  UNL     1      79.196  88.384  18.368  1.00  0.00    -0.112 N 
HETATM    6  C2  UNL     1      80.592  88.705  18.084  1.00  0.00     0.294 C 
HETATM    7  N4  UNL     1      80.121  90.061  18.164  1.00  0.00    -0.207 N 
ATOM      8  H4  UNL     1      80.362  90.958  17.743  1.00  0.00     0.179 HD
HETATM    9  C3  UNL     1      79.147  89.572  19.114  1.00  0.00     0.706 C 
HETATM   10  N5  UNL     1      78.576  90.071  20.158  1.00  0.00    -0.098 N 
ATOM     11  H5  UNL     1      78.795  91.033  20.417  1.00  0.00     0.213 HD
ENDROOT
BRANCH   1  12
HETATM   12  N1  UNL     1      76.269  86.073  17.933  1.00  0.00    -0.341 N 
ATOM     13  H12 UNL     1      75.960  85.403  18.637  1.00  0.00     0.177 HD
ATOM     14  H11 UNL     1      76.056  85.918  16.947  1.00  0.00     0.177 HD
ENDBRANCH   1  12
BRANCH  10  15
HETATM   15  O2  UNL     1      77.697  89.378  20.930  1.00  0.00    -0.276 OA
ATOM     16  H2  UNL     1      77.952  88.644  21.478  1.00  0.00     0.245 HD
ENDBRANCH  10  15
TORSDOF 2
ENDMDL
MODEL 5
REMARK VINA RESULT: -5.431778031      2.245      3.968
REMARK  2 active torsions:
REMARK  status: ('A' for Active; 'I' for Inactive)
REMARK    1  A    between atoms: N1_1  and  N2_4 
REMARK       I    between atoms: N2_4  and  C1_6 
REMARK       I    between atoms: C1_6  and  N3_8 
REMARK    2  A    between atoms: N5_13  and  O2_15 
ROOT
HETATM    1  N2  UNL     1      79.088  86.260  18.085  1.00  0.00    -0.257 N 
ATOM      2  H2  UNL     1      80.026  86.642  17.956  1.00  0.00     0.191 HD
HETATM    3  C1  UNL     1      78.062  87.104  18.530  1.00  0.00     0.356 C 
HETATM    4  O1  UNL     1      76.914  86.532  18.666  1.00  0.00    -0.244 OA
HETATM    5  N3  UNL     1      78.101  88.454  18.844  1.00  0.00    -0.112 N 
HETATM    6  C2  UNL     1      77.140  89.435  19.343  1.00  0.00     0.294 C 
HETATM    7  N4  UNL     1      78.306  90.014  19.955  1.00  0.00    -0.207 N 
ATOM      8  H4  UNL     1      78.514  90.549  20.798  1.00  0.00     0.179 HD
HETATM    9  C3  UNL     1      79.047  89.491  18.830  1.00  0.00     0.706 C 
HETATM   10  N5  UNL     1      80.081  89.888  18.167  1.00  0.00    -0.098 N 
ATOM     11  H5  UNL     1      80.548  90.745  18.465  1.00  0.00     0.213 HD
ENDROOT
BRANCH   1  12
HETATM   12  N1  UNL     1      78.859  84.924  17.815  1.00  0.00    -0.341 N 
ATOM     13  H12 UNL     1      78.191  84.688  17.082  1.00  0.00     0.177 HD
ATOM     14  H11 UNL     1      79.341  84.186  18.329  1.00  0.00     0.177 HD
ENDBRANCH   1  12
BRANCH  10  15
HETATM   15  O2  UNL     1      80.579  89.221  17.092  1.00  0.00    -0.276 OA
ATOM     16  H2  UNL     1      81.185  89.611  16.473  1.00  0.00     0.245 HD
ENDBRANCH  10  15
TORSDOF 2
ENDMDL
