MODEL 1
REMARK VINA RESULT: -6.789401777      0.000      0.000
REMARK  5 active torsions:
REMARK  status: ('A' for Active; 'I' for Inactive)
REMARK    1  A    between atoms: C2_2  and  C3_3 
REMARK    2  A    between atoms: C3_3  and  C4_4 
REMARK    3  A    between atoms: N5_18  and  C9_19 
REMARK    4  A    between atoms: C9_19  and  C10_20 
REMARK       I    between atoms: C10_20  and  N6_22 
REMARK    5  A    between atoms: N6_22  and  C11_24 
ROOT
HETATM    1  C4  UNL     1       3.093  -6.854 -52.931  1.00  0.00     0.009 C 
HETATM    2  N1  UNL     1       4.063  -7.542 -52.344  1.00  0.00    -0.313 N 
ATOM      3  H1  UNL     1       3.878  -7.855 -51.391  1.00  0.00     0.170 HD
HETATM    4  C5  UNL     1       5.350  -7.901 -52.892  1.00  0.00     0.348 C 
HETATM    5  O1  UNL     1       6.363  -7.901 -52.179  1.00  0.00    -0.245 OA
HETATM    6  N2  UNL     1       5.565  -8.278 -54.249  1.00  0.00    -0.166 N 
HETATM    7  C6  UNL     1       4.737  -7.861 -55.344  1.00  0.00     0.210 A 
HETATM    8  N3  UNL     1       3.752  -7.049 -55.318  1.00  0.00    -0.355 N 
ATOM      9  H3  UNL     1       3.317  -6.915 -56.230  1.00  0.00     0.163 HD
HETATM   10  C7  UNL     1       3.124  -6.281 -54.270  1.00  0.00     0.175 C 
HETATM   11  N4  UNL     1       5.219  -8.466 -56.536  1.00  0.00    -0.277 N 
ATOM     12  H4  UNL     1       4.832  -8.358 -57.474  1.00  0.00     0.173 HD
HETATM   13  C8  UNL     1       6.362  -9.263 -56.162  1.00  0.00     0.344 A 
HETATM   14  O2  UNL     1       7.065  -9.953 -56.935  1.00  0.00    -0.245 OA
HETATM   15  N5  UNL     1       6.546  -9.120 -54.731  1.00  0.00    -0.220 N 
ENDROOT
BRANCH  15  16
HETATM   16  C9  UNL     1       7.566  -9.742 -53.927  1.00  0.00     0.257 C 
BRANCH  16  17
HETATM   17  C10 UNL     1       8.854  -9.007 -54.098  1.00  0.00     0.238 C 
HETATM   18  O3  UNL     1       9.384  -8.358 -53.151  1.00  0.00    -0.272 OA
HETATM   19  N6  UNL     1       9.536  -9.015 -55.343  1.00  0.00    -0.352 N 
ATOM     20  H6  UNL     1       9.134  -9.531 -56.126  1.00  0.00     0.163 HD
BRANCH  19  21
HETATM   21  C11 UNL     1      10.780  -8.315 -55.529  1.00  0.00     0.022 C 
HETATM   22  C12 UNL     1      11.783  -8.666 -54.487  1.00  0.00     0.037 C 
HETATM   23  C13 UNL     1      11.309  -8.655 -56.919  1.00  0.00     0.037 C 
HETATM   24  C14 UNL     1      10.534  -6.815 -55.492  1.00  0.00     0.037 C 
ENDBRANCH  19  21
ENDBRANCH  16  17
ENDBRANCH  15  16
BRANCH   1  25
HETATM   25  C3  UNL     1       1.893  -6.661 -52.093  1.00  0.00     0.054 C 
BRANCH  25  26
HETATM   26  C2  UNL     1       1.143  -5.406 -52.192  1.00  0.00     0.001 C 
HETATM   27  C1  UNL     1       1.863  -4.200 -51.671  1.00  0.00     0.005 C 
ENDBRANCH  25  26
ENDBRANCH   1  25
TORSDOF 5
ENDMDL
MODEL 2
REMARK VINA RESULT: -6.557334789      0.850      1.240
REMARK  5 active torsions:
REMARK  status: ('A' for Active; 'I' for Inactive)
REMARK    1  A    between atoms: C2_2  and  C3_3 
REMARK    2  A    between atoms: C3_3  and  C4_4 
REMARK    3  A    between atoms: N5_18  and  C9_19 
REMARK    4  A    between atoms: C9_19  and  C10_20 
REMARK       I    between atoms: C10_20  and  N6_22 
REMARK    5  A    between atoms: N6_22  and  C11_24 
ROOT
HETATM    1  C4  UNL     1       3.159  -6.746 -53.438  1.00  0.00     0.009 C 
HETATM    2  N1  UNL     1       4.044  -7.577 -52.904  1.00  0.00    -0.313 N 
ATOM      3  H1  UNL     1       3.761  -8.041 -52.041  1.00  0.00     0.170 HD
HETATM    4  C5  UNL     1       5.362  -7.902 -53.398  1.00  0.00     0.348 C 
HETATM    5  O1  UNL     1       6.304  -8.081 -52.614  1.00  0.00    -0.245 OA
HETATM    6  N2  UNL     1       5.686  -8.048 -54.777  1.00  0.00    -0.166 N 
HETATM    7  C6  UNL     1       4.978  -7.402 -55.846  1.00  0.00     0.210 A 
HETATM    8  N3  UNL     1       4.026  -6.556 -55.757  1.00  0.00    -0.355 N 
ATOM      9  H3  UNL     1       3.682  -6.241 -56.664  1.00  0.00     0.163 HD
HETATM   10  C7  UNL     1       3.334  -5.950 -54.645  1.00  0.00     0.175 C 
HETATM   11  N4  UNL     1       5.544  -7.815 -57.082  1.00  0.00    -0.277 N 
ATOM     12  H4  UNL     1       5.249  -7.524 -58.014  1.00  0.00     0.173 HD
HETATM   13  C8  UNL     1       6.616  -8.725 -56.763  1.00  0.00     0.344 A 
HETATM   14  O2  UNL     1       7.361  -9.306 -57.585  1.00  0.00    -0.245 OA
HETATM   15  N5  UNL     1       6.674  -8.844 -55.319  1.00  0.00    -0.220 N 
ENDROOT
BRANCH  15  16
HETATM   16  C9  UNL     1       7.592  -9.650 -54.556  1.00  0.00     0.257 C 
BRANCH  16  17
HETATM   17  C10 UNL     1       8.914  -8.961 -54.474  1.00  0.00     0.238 C 
HETATM   18  O3  UNL     1       9.328  -8.435 -53.402  1.00  0.00    -0.272 OA
HETATM   19  N6  UNL     1       9.760  -8.873 -55.612  1.00  0.00    -0.352 N 
ATOM     20  H6  UNL     1       9.453  -9.288 -56.492  1.00  0.00     0.163 HD
BRANCH  19  21
HETATM   21  C11 UNL     1      11.039  -8.214 -55.554  1.00  0.00     0.022 C 
HETATM   22  C12 UNL     1      11.934  -8.815 -54.528  1.00  0.00     0.037 C 
HETATM   23  C13 UNL     1      11.676  -8.301 -56.938  1.00  0.00     0.037 C 
HETATM   24  C14 UNL     1      10.842  -6.740 -55.237  1.00  0.00     0.037 C 
ENDBRANCH  19  21
ENDBRANCH  16  17
ENDBRANCH  15  16
BRANCH   1  25
HETATM   25  C3  UNL     1       1.895  -6.639 -52.681  1.00  0.00     0.054 C 
BRANCH  25  26
HETATM   26  C2  UNL     1       1.644  -7.561 -51.570  1.00  0.00     0.001 C 
HETATM   27  C1  UNL     1       1.102  -8.898 -51.972  1.00  0.00     0.005 C 
ENDBRANCH  25  26
ENDBRANCH   1  25
TORSDOF 5
ENDMDL
MODEL 3
REMARK VINA RESULT: -6.556280854      1.539      2.021
REMARK  5 active torsions:
REMARK  status: ('A' for Active; 'I' for Inactive)
REMARK    1  A    between atoms: C2_2  and  C3_3 
REMARK    2  A    between atoms: C3_3  and  C4_4 
REMARK    3  A    between atoms: N5_18  and  C9_19 
REMARK    4  A    between atoms: C9_19  and  C10_20 
REMARK       I    between atoms: C10_20  and  N6_22 
REMARK    5  A    between atoms: N6_22  and  C11_24 
ROOT
HETATM    1  C4  UNL     1       3.760  -7.665 -52.766  1.00  0.00     0.009 C 
HETATM    2  N1  UNL     1       4.839  -8.437 -52.741  1.00  0.00    -0.313 N 
ATOM      3  H1  UNL     1       4.881  -9.126 -51.990  1.00  0.00     0.170 HD
HETATM    4  C5  UNL     1       5.961  -8.418 -53.650  1.00  0.00     0.348 C 
HETATM    5  O1  UNL     1       7.112  -8.611 -53.237  1.00  0.00    -0.245 OA
HETATM    6  N2  UNL     1       5.850  -8.190 -55.052  1.00  0.00    -0.166 N 
HETATM    7  C6  UNL     1       4.790  -7.445 -55.669  1.00  0.00     0.210 A 
HETATM    8  N3  UNL     1       3.842  -6.811 -55.096  1.00  0.00    -0.355 N 
ATOM      9  H3  UNL     1       3.205  -6.360 -55.753  1.00  0.00     0.163 HD
HETATM   10  C7  UNL     1       3.479  -6.597 -53.716  1.00  0.00     0.175 C 
HETATM   11  N4  UNL     1       4.978  -7.465 -57.077  1.00  0.00    -0.277 N 
ATOM     12  H4  UNL     1       4.383  -7.023 -57.778  1.00  0.00     0.173 HD
HETATM   13  C8  UNL     1       6.174  -8.233 -57.324  1.00  0.00     0.344 A 
HETATM   14  O2  UNL     1       6.675  -8.480 -58.445  1.00  0.00    -0.245 OA
HETATM   15  N5  UNL     1       6.689  -8.667 -56.039  1.00  0.00    -0.220 N 
ENDROOT
BRANCH  15  16
HETATM   16  C9  UNL     1       7.867  -9.461 -55.806  1.00  0.00     0.257 C 
BRANCH  16  17
HETATM   17  C10 UNL     1       9.080  -8.597 -55.903  1.00  0.00     0.238 C 
HETATM   18  O3  UNL     1       9.912  -8.716 -56.848  1.00  0.00    -0.272 OA
HETATM   19  N6  UNL     1       9.343  -7.600 -54.927  1.00  0.00    -0.352 N 
ATOM     20  H6  UNL     1       8.690  -7.479 -54.152  1.00  0.00     0.163 HD
BRANCH  19  21
HETATM   21  C11 UNL     1      10.507  -6.756 -55.002  1.00  0.00     0.022 C 
HETATM   22  C12 UNL     1      10.624  -6.078 -56.322  1.00  0.00     0.037 C 
HETATM   23  C13 UNL     1      10.416  -5.728 -53.878  1.00  0.00     0.037 C 
HETATM   24  C14 UNL     1      11.758  -7.584 -54.759  1.00  0.00     0.037 C 
ENDBRANCH  19  21
ENDBRANCH  16  17
ENDBRANCH  15  16
BRANCH   1  25
HETATM   25  C3  UNL     1       2.790  -7.943 -51.687  1.00  0.00     0.054 C 
BRANCH  25  26
HETATM   26  C2  UNL     1       1.356  -7.846 -51.970  1.00  0.00     0.001 C 
HETATM   27  C1  UNL     1       0.640  -6.762 -51.225  1.00  0.00     0.005 C 
ENDBRANCH  25  26
ENDBRANCH   1  25
TORSDOF 5
ENDMDL
MODEL 4
REMARK VINA RESULT: -6.533358808      2.395      3.238
REMARK  5 active torsions:
REMARK  status: ('A' for Active; 'I' for Inactive)
REMARK    1  A    between atoms: C2_2  and  C3_3 
REMARK    2  A    between atoms: C3_3  and  C4_4 
REMARK    3  A    between atoms: N5_18  and  C9_19 
REMARK    4  A    between atoms: C9_19  and  C10_20 
REMARK       I    between atoms: C10_20  and  N6_22 
REMARK    5  A    between atoms: N6_22  and  C11_24 
ROOT
HETATM    1  C4  UNL     1       3.595  -7.671 -52.772  1.00  0.00     0.009 C 
HETATM    2  N1  UNL     1       4.755  -8.292 -52.940  1.00  0.00    -0.313 N 
ATOM      3  H1  UNL     1       4.913  -9.113 -52.356  1.00  0.00     0.170 HD
HETATM    4  C5  UNL     1       5.822  -7.944 -53.850  1.00  0.00     0.348 C 
HETATM    5  O1  UNL     1       7.006  -8.077 -53.516  1.00  0.00    -0.245 OA
HETATM    6  N2  UNL     1       5.617  -7.440 -55.167  1.00  0.00    -0.166 N 
HETATM    7  C6  UNL     1       4.449  -6.717 -55.583  1.00  0.00     0.210 A 
HETATM    8  N3  UNL     1       3.463  -6.340 -54.865  1.00  0.00    -0.355 N 
ATOM      9  H3  UNL     1       2.747  -5.842 -55.394  1.00  0.00     0.163 HD
HETATM   10  C7  UNL     1       3.147  -6.469 -53.463  1.00  0.00     0.175 C 
HETATM   11  N4  UNL     1       4.568  -6.416 -56.967  1.00  0.00    -0.277 N 
ATOM     12  H4  UNL     1       3.892  -5.913 -57.541  1.00  0.00     0.173 HD
HETATM   13  C8  UNL     1       5.830  -6.962 -57.401  1.00  0.00     0.344 A 
HETATM   14  O2  UNL     1       6.300  -6.903 -58.561  1.00  0.00    -0.245 OA
HETATM   15  N5  UNL     1       6.454  -7.591 -56.253  1.00  0.00    -0.220 N 
ENDROOT
BRANCH  15  16
HETATM   16  C9  UNL     1       7.726  -8.266 -56.225  1.00  0.00     0.257 C 
BRANCH  16  17
HETATM   17  C10 UNL     1       7.820  -9.204 -57.382  1.00  0.00     0.238 C 
HETATM   18  O3  UNL     1       7.223 -10.318 -57.390  1.00  0.00    -0.272 OA
HETATM   19  N6  UNL     1       8.593  -8.871 -58.526  1.00  0.00    -0.352 N 
ATOM     20  H6  UNL     1       9.087  -7.979 -58.550  1.00  0.00     0.163 HD
BRANCH  19  21
HETATM   21  C11 UNL     1       8.696  -9.761 -59.653  1.00  0.00     0.022 C 
HETATM   22  C12 UNL     1       8.739 -11.189 -59.239  1.00  0.00     0.037 C 
HETATM   23  C13 UNL     1       7.502  -9.504 -60.568  1.00  0.00     0.037 C 
HETATM   24  C14 UNL     1       9.953  -9.440 -60.447  1.00  0.00     0.037 C 
ENDBRANCH  19  21
ENDBRANCH  16  17
ENDBRANCH  15  16
BRANCH   1  25
HETATM   25  C3  UNL     1       2.719  -8.288 -51.757  1.00  0.00     0.054 C 
BRANCH  25  26
HETATM   26  C2  UNL     1       1.266  -8.245 -51.942  1.00  0.00     0.001 C 
HETATM   27  C1  UNL     1       0.549  -7.257 -51.075  1.00  0.00     0.005 C 
ENDBRANCH  25  26
ENDBRANCH   1  25
TORSDOF 5
ENDMDL
MODEL 5
REMARK VINA RESULT: -6.503777137      4.362      5.839
REMARK  5 active torsions:
REMARK  status: ('A' for Active; 'I' for Inactive)
REMARK    1  A    between atoms: C2_2  and  C3_3 
REMARK    2  A    between atoms: C3_3  and  C4_4 
REMARK    3  A    between atoms: N5_18  and  C9_19 
REMARK    4  A    between atoms: C9_19  and  C10_20 
REMARK       I    between atoms: C10_20  and  N6_22 
REMARK    5  A    between atoms: N6_22  and  C11_24 
ROOT
HETATM    1  C4  UNL     1       2.099  -5.384 -53.007  1.00  0.00     0.009 C 
HETATM    2  N1  UNL     1       2.916  -6.070 -53.795  1.00  0.00    -0.313 N 
ATOM      3  H1  UNL     1       2.737  -7.072 -53.864  1.00  0.00     0.170 HD
HETATM    4  C5  UNL     1       4.029  -5.569 -54.567  1.00  0.00     0.348 C 
HETATM    5  O1  UNL     1       5.065  -6.236 -54.690  1.00  0.00    -0.245 OA
HETATM    6  N2  UNL     1       4.036  -4.311 -55.236  1.00  0.00    -0.166 N 
HETATM    7  C6  UNL     1       3.250  -3.179 -54.838  1.00  0.00     0.210 A 
HETATM    8  N3  UNL     1       2.498  -3.069 -53.812  1.00  0.00    -0.355 N 
ATOM      9  H3  UNL     1       2.037  -2.161 -53.747  1.00  0.00     0.163 HD
HETATM   10  C7  UNL     1       2.162  -3.956 -52.725  1.00  0.00     0.175 C 
HETATM   11  N4  UNL     1       3.473  -2.121 -55.761  1.00  0.00    -0.277 N 
ATOM     12  H4  UNL     1       3.050  -1.193 -55.737  1.00  0.00     0.173 HD
HETATM   13  C8  UNL     1       4.413  -2.616 -56.737  1.00  0.00     0.344 A 
HETATM   14  O2  UNL     1       4.863  -1.979 -57.717  1.00  0.00    -0.245 OA
HETATM   15  N5  UNL     1       4.740  -3.982 -56.377  1.00  0.00    -0.220 N 
ENDROOT
BRANCH  15  16
HETATM   16  C9  UNL     1       5.639  -4.865 -57.073  1.00  0.00     0.257 C 
BRANCH  16  17
HETATM   17  C10 UNL     1       4.920  -5.520 -58.205  1.00  0.00     0.238 C 
HETATM   18  O3  UNL     1       3.679  -5.365 -58.388  1.00  0.00    -0.272 OA
HETATM   19  N6  UNL     1       5.615  -6.348 -59.126  1.00  0.00    -0.352 N 
ATOM     20  H6  UNL     1       6.618  -6.493 -59.006  1.00  0.00     0.163 HD
BRANCH  19  21
HETATM   21  C11 UNL     1       4.941  -6.988 -60.226  1.00  0.00     0.022 C 
HETATM   22  C12 UNL     1       3.697  -7.682 -59.794  1.00  0.00     0.037 C 
HETATM   23  C13 UNL     1       4.625  -5.922 -61.270  1.00  0.00     0.037 C 
HETATM   24  C14 UNL     1       5.870  -8.000 -60.878  1.00  0.00     0.037 C 
ENDBRANCH  19  21
ENDBRANCH  16  17
ENDBRANCH  15  16
BRANCH   1  25
HETATM   25  C3  UNL     1       1.054  -6.201 -52.359  1.00  0.00     0.054 C 
BRANCH  25  26
HETATM   26  C2  UNL     1       1.448  -7.309 -51.485  1.00  0.00     0.001 C 
HETATM   27  C1  UNL     1       1.245  -8.674 -52.068  1.00  0.00     0.005 C 
ENDBRANCH  25  26
ENDBRANCH   1  25
TORSDOF 5
ENDMDL
