MODEL 1
REMARK VINA RESULT: -9.613942311      0.000      0.000
REMARK  5 active torsions:
REMARK  status: ('A' for Active; 'I' for Inactive)
REMARK       I    between atoms: N1_2  and  C2_4 
REMARK       I    between atoms: C2_4  and  N2_5 
REMARK    1  A    between atoms: N4_9  and  C4_11 
REMARK    2  A    between atoms: C7_15  and  C8_16 
REMARK    3  A    between atoms: C8_16  and  O1_17 
REMARK    4  A    between atoms: C8_16  and  N5_19 
REMARK    5  A    between atoms: N6_22  and  C11_23 
ROOT
HETATM    1  C4  UNL     1     -21.313   9.269   0.796  1.00  0.00     0.145 A 
HETATM    2  C5  UNL     1     -20.822   8.241   1.551  1.00  0.00     0.081 A 
HETATM    3 CL1  UNL     1     -19.450   7.207   1.205  1.00  0.00    -0.080 Cl
HETATM    4  C6  UNL     1     -21.586   8.126   2.725  1.00  0.00     0.062 A 
HETATM    5  C7  UNL     1     -22.540   9.099   2.665  1.00  0.00     0.088 A 
HETATM    6  N7  UNL     1     -22.363   9.779   1.497  1.00  0.00    -0.332 N 
HETATM    7  C19 UNL     1     -23.141  10.888   1.017  1.00  0.00     0.158 C 
ENDROOT
BRANCH   5   8
HETATM    8  C8  UNL     1     -23.604   9.427   3.612  1.00  0.00     0.166 C 
BRANCH   8   9
HETATM    9  O1  UNL     1     -23.249   9.964   4.749  1.00  0.00    -0.344 OA
ATOM     10  H1  UNL     1     -23.742   9.714   5.522  1.00  0.00     0.219 HD
ENDBRANCH   8   9
BRANCH   8  11
HETATM   11  N5  UNL     1     -24.961   9.246   3.476  1.00  0.00    -0.354 N 
HETATM   12  C9  UNL     1     -25.652   7.995   3.437  1.00  0.00     0.169 C 
HETATM   13  C10 UNL     1     -27.149   8.165   3.256  1.00  0.00     0.078 C 
HETATM   14  N6  UNL     1     -27.725   9.205   4.004  1.00  0.00    -0.386 N 
HETATM   15  C17 UNL     1     -26.884  10.278   4.397  1.00  0.00     0.142 C 
HETATM   16  C18 UNL     1     -25.783  10.494   3.358  1.00  0.00     0.145 C 
BRANCH  14  17
HETATM   17  C11 UNL     1     -29.078   9.501   3.782  1.00  0.00     0.083 C 
HETATM   18  C12 UNL     1     -29.749  10.305   4.864  1.00  0.00     0.025 C 
HETATM   19  C13 UNL     1     -31.162  10.632   4.438  1.00  0.00     0.002 C 
HETATM   20  C14 UNL     1     -31.628   9.767   3.294  1.00  0.00     0.000 C 
HETATM   21  C15 UNL     1     -30.752   9.930   2.072  1.00  0.00     0.002 C 
HETATM   22  C16 UNL     1     -29.309  10.204   2.466  1.00  0.00     0.025 C 
ENDBRANCH  14  17
ENDBRANCH   8  11
ENDBRANCH   5   8
BRANCH   1  23
HETATM   23  N4  UNL     1     -20.874   9.723  -0.476  1.00  0.00    -0.175 N 
HETATM   24  C2  UNL     1     -21.299   9.292  -1.590  1.00  0.00     0.679 C 
HETATM   25  N1  UNL     1     -22.283   8.287  -1.690  1.00  0.00    -0.230 N 
HETATM   26  N2  UNL     1     -20.800   9.804  -2.842  1.00  0.00    -0.190 N 
HETATM   27  C1  UNL     1     -22.376   7.427  -2.878  1.00  0.00     0.165 C 
ATOM     28  H1  UNL     1     -22.943   8.155  -0.924  1.00  0.00     0.177 HD
HETATM   29  C3  UNL     1     -19.926  10.719  -2.933  1.00  0.00     0.207 C 
ATOM     30  H2  UNL     1     -21.171   9.408  -3.705  1.00  0.00     0.184 HD
HETATM   31  N3  UNL     1     -19.344  11.336  -1.797  1.00  0.00    -0.096 NA
ATOM     32  H4  UNL     1     -20.163  10.453  -0.495  1.00  0.00     0.186 HD
ENDBRANCH   1  23
TORSDOF 5
ENDMDL
MODEL 2
REMARK VINA RESULT: -9.541843496      1.910      2.603
REMARK  5 active torsions:
REMARK  status: ('A' for Active; 'I' for Inactive)
REMARK       I    between atoms: N1_2  and  C2_4 
REMARK       I    between atoms: C2_4  and  N2_5 
REMARK    1  A    between atoms: N4_9  and  C4_11 
REMARK    2  A    between atoms: C7_15  and  C8_16 
REMARK    3  A    between atoms: C8_16  and  O1_17 
REMARK    4  A    between atoms: C8_16  and  N5_19 
REMARK    5  A    between atoms: N6_22  and  C11_23 
ROOT
HETATM    1  C4  UNL     1     -20.976  10.245  -1.022  1.00  0.00     0.145 A 
HETATM    2  C5  UNL     1     -21.823  11.318  -1.011  1.00  0.00     0.081 A 
HETATM    3 CL1  UNL     1     -21.940  12.612  -2.187  1.00  0.00    -0.080 Cl
HETATM    4  C6  UNL     1     -22.656  11.235   0.117  1.00  0.00     0.062 A 
HETATM    5  C7  UNL     1     -22.300  10.098   0.781  1.00  0.00     0.088 A 
HETATM    6  N7  UNL     1     -21.287   9.513   0.083  1.00  0.00    -0.332 N 
HETATM    7  C19 UNL     1     -20.602   8.293   0.414  1.00  0.00     0.158 C 
ENDROOT
BRANCH   5   8
HETATM    8  C8  UNL     1     -22.832   9.532   2.020  1.00  0.00     0.166 C 
BRANCH   8   9
HETATM    9  O1  UNL     1     -21.967   9.121   2.909  1.00  0.00    -0.344 OA
ATOM     10  H1  UNL     1     -22.252   8.445   3.514  1.00  0.00     0.219 HD
ENDBRANCH   8   9
BRANCH   8  11
HETATM   11  N5  UNL     1     -24.145   9.365   2.394  1.00  0.00    -0.354 N 
HETATM   12  C9  UNL     1     -24.681   8.278   3.154  1.00  0.00     0.169 C 
HETATM   13  C10 UNL     1     -26.178   8.402   3.368  1.00  0.00     0.078 C 
HETATM   14  N6  UNL     1     -26.631   9.697   3.671  1.00  0.00    -0.386 N 
HETATM   15  C17 UNL     1     -25.835  10.791   3.245  1.00  0.00     0.142 C 
HETATM   16  C18 UNL     1     -25.098  10.436   1.953  1.00  0.00     0.145 C 
BRANCH  14  17
HETATM   17  C11 UNL     1     -28.016   9.906   3.749  1.00  0.00     0.083 C 
HETATM   18  C12 UNL     1     -28.791   9.569   2.503  1.00  0.00     0.025 C 
HETATM   19  C13 UNL     1     -30.268   9.745   2.772  1.00  0.00     0.002 C 
HETATM   20  C14 UNL     1     -30.529  10.557   4.015  1.00  0.00     0.000 C 
HETATM   21  C15 UNL     1     -29.931   9.911   5.245  1.00  0.00     0.002 C 
HETATM   22  C16 UNL     1     -28.649   9.169   4.906  1.00  0.00     0.025 C 
ENDBRANCH  14  17
ENDBRANCH   8  11
ENDBRANCH   5   8
BRANCH   1  23
HETATM   23  N4  UNL     1     -19.948   9.935  -1.952  1.00  0.00    -0.175 N 
HETATM   24  C2  UNL     1     -20.080   9.173  -2.957  1.00  0.00     0.679 C 
HETATM   25  N1  UNL     1     -21.296   8.534  -3.270  1.00  0.00    -0.230 N 
HETATM   26  N2  UNL     1     -18.984   8.908  -3.855  1.00  0.00    -0.190 N 
HETATM   27  C1  UNL     1     -21.323   7.286  -4.047  1.00  0.00     0.165 C 
ATOM     28  H1  UNL     1     -22.174   8.945  -2.953  1.00  0.00     0.177 HD
HETATM   29  C3  UNL     1     -17.827   9.413  -3.729  1.00  0.00     0.207 C 
ATOM     30  H2  UNL     1     -19.148   8.276  -4.639  1.00  0.00     0.184 HD
HETATM   31  N3  UNL     1     -17.492  10.301  -2.676  1.00  0.00    -0.096 NA
ATOM     32  H4  UNL     1     -19.033  10.360  -1.800  1.00  0.00     0.186 HD
ENDBRANCH   1  23
TORSDOF 5
ENDMDL
MODEL 3
REMARK VINA RESULT: -9.506604056      1.519      1.779
REMARK  5 active torsions:
REMARK  status: ('A' for Active; 'I' for Inactive)
REMARK       I    between atoms: N1_2  and  C2_4 
REMARK       I    between atoms: C2_4  and  N2_5 
REMARK    1  A    between atoms: N4_9  and  C4_11 
REMARK    2  A    between atoms: C7_15  and  C8_16 
REMARK    3  A    between atoms: C8_16  and  O1_17 
REMARK    4  A    between atoms: C8_16  and  N5_19 
REMARK    5  A    between atoms: N6_22  and  C11_23 
ROOT
HETATM    1  C4  UNL     1     -22.858   9.732   0.931  1.00  0.00     0.145 A 
HETATM    2  C5  UNL     1     -22.501   8.437   1.188  1.00  0.00     0.081 A 
HETATM    3 CL1  UNL     1     -21.425   7.411   0.261  1.00  0.00    -0.080 Cl
HETATM    4  C6  UNL     1     -23.124   8.016   2.375  1.00  0.00     0.062 A 
HETATM    5  C7  UNL     1     -23.856   9.073   2.827  1.00  0.00     0.088 A 
HETATM    6  N7  UNL     1     -23.686  10.100   1.947  1.00  0.00    -0.332 N 
HETATM    7  C19 UNL     1     -24.270  11.410   2.025  1.00  0.00     0.158 C 
ENDROOT
BRANCH   5   8
HETATM    8  C8  UNL     1     -24.705   9.186   4.011  1.00  0.00     0.166 C 
BRANCH   8   9
HETATM    9  O1  UNL     1     -24.114   9.169   5.177  1.00  0.00    -0.344 OA
ATOM     10  H1  UNL     1     -23.352   8.608   5.271  1.00  0.00     0.219 HD
ENDBRANCH   8   9
BRANCH   8  11
HETATM   11  N5  UNL     1     -26.074   9.310   4.079  1.00  0.00    -0.354 N 
HETATM   12  C9  UNL     1     -26.818   9.973   5.104  1.00  0.00     0.169 C 
HETATM   13  C10 UNL     1     -28.316   9.900   4.873  1.00  0.00     0.078 C 
HETATM   14  N6  UNL     1     -28.724  10.092   3.543  1.00  0.00    -0.386 N 
HETATM   15  C17 UNL     1     -27.786   9.804   2.518  1.00  0.00     0.142 C 
HETATM   16  C18 UNL     1     -26.849   8.680   2.960  1.00  0.00     0.145 C 
BRANCH  14  17
HETATM   17  C11 UNL     1     -30.080   9.905   3.239  1.00  0.00     0.083 C 
HETATM   18  C12 UNL     1     -31.048  10.347   4.305  1.00  0.00     0.025 C 
HETATM   19  C13 UNL     1     -32.461  10.180   3.794  1.00  0.00     0.002 C 
HETATM   20  C14 UNL     1     -32.529   9.284   2.584  1.00  0.00     0.000 C 
HETATM   21  C15 UNL     1     -31.708   9.826   1.436  1.00  0.00     0.002 C 
HETATM   22  C16 UNL     1     -30.480  10.566   1.942  1.00  0.00     0.025 C 
ENDBRANCH  14  17
ENDBRANCH   8  11
ENDBRANCH   5   8
BRANCH   1  23
HETATM   23  N4  UNL     1     -22.493  10.550  -0.171  1.00  0.00    -0.175 N 
HETATM   24  C2  UNL     1     -22.758  10.297  -1.385  1.00  0.00     0.679 C 
HETATM   25  N1  UNL     1     -23.465   9.145  -1.784  1.00  0.00    -0.230 N 
HETATM   26  N2  UNL     1     -22.349  11.180  -2.450  1.00  0.00    -0.190 N 
HETATM   27  C1  UNL     1     -23.301   8.579  -3.130  1.00  0.00     0.165 C 
ATOM     28  H1  UNL     1     -24.102   8.697  -1.126  1.00  0.00     0.177 HD
HETATM   29  C3  UNL     1     -21.719  12.266  -2.266  1.00  0.00     0.207 C 
ATOM     30  H2  UNL     1     -22.580  10.916  -3.408  1.00  0.00     0.184 HD
HETATM   31  N3  UNL     1     -21.348  12.725  -0.977  1.00  0.00    -0.096 NA
ATOM     32  H4  UNL     1     -21.979  11.407   0.029  1.00  0.00     0.186 HD
ENDBRANCH   1  23
TORSDOF 5
ENDMDL
MODEL 4
REMARK VINA RESULT: -9.341603827      1.836      2.660
REMARK  5 active torsions:
REMARK  status: ('A' for Active; 'I' for Inactive)
REMARK       I    between atoms: N1_2  and  C2_4 
REMARK       I    between atoms: C2_4  and  N2_5 
REMARK    1  A    between atoms: N4_9  and  C4_11 
REMARK    2  A    between atoms: C7_15  and  C8_16 
REMARK    3  A    between atoms: C8_16  and  O1_17 
REMARK    4  A    between atoms: C8_16  and  N5_19 
REMARK    5  A    between atoms: N6_22  and  C11_23 
ROOT
HETATM    1  C4  UNL     1     -21.932   9.609  -1.116  1.00  0.00     0.145 A 
HETATM    2  C5  UNL     1     -22.019  10.946  -0.841  1.00  0.00     0.081 A 
HETATM    3 CL1  UNL     1     -21.623  12.291  -1.891  1.00  0.00    -0.080 Cl
HETATM    4  C6  UNL     1     -22.521  11.115   0.460  1.00  0.00     0.062 A 
HETATM    5  C7  UNL     1     -22.736   9.866   0.961  1.00  0.00     0.088 A 
HETATM    6  N7  UNL     1     -22.376   8.969  -0.000  1.00  0.00    -0.332 N 
HETATM    7  C19 UNL     1     -22.436   7.536   0.090  1.00  0.00     0.158 C 
ENDROOT
BRANCH   5   8
HETATM    8  C8  UNL     1     -23.240   9.455   2.270  1.00  0.00     0.166 C 
BRANCH   8   9
HETATM    9  O1  UNL     1     -22.360   9.251   3.214  1.00  0.00    -0.344 OA
ATOM     10  H1  UNL     1     -21.694   8.592   3.054  1.00  0.00     0.219 HD
ENDBRANCH   8   9
BRANCH   8  11
HETATM   11  N5  UNL     1     -24.543   9.247   2.662  1.00  0.00    -0.354 N 
HETATM   12  C9  UNL     1     -25.032   8.147   3.434  1.00  0.00     0.169 C 
HETATM   13  C10 UNL     1     -26.529   8.223   3.667  1.00  0.00     0.078 C 
HETATM   14  N6  UNL     1     -27.021   9.503   3.971  1.00  0.00    -0.386 N 
HETATM   15  C17 UNL     1     -26.267  10.621   3.528  1.00  0.00     0.142 C 
HETATM   16  C18 UNL     1     -25.535  10.283   2.229  1.00  0.00     0.145 C 
BRANCH  14  17
HETATM   17  C11 UNL     1     -28.411   9.667   4.066  1.00  0.00     0.083 C 
HETATM   18  C12 UNL     1     -28.883  10.531   5.205  1.00  0.00     0.025 C 
HETATM   19  C13 UNL     1     -30.383  10.698   5.115  1.00  0.00     0.002 C 
HETATM   20  C14 UNL     1     -31.017   9.679   4.202  1.00  0.00     0.000 C 
HETATM   21  C15 UNL     1     -30.478   9.773   2.792  1.00  0.00     0.002 C 
HETATM   22  C16 UNL     1     -29.020  10.200   2.791  1.00  0.00     0.025 C 
ENDBRANCH  14  17
ENDBRANCH   8  11
ENDBRANCH   5   8
BRANCH   1  23
HETATM   23  N4  UNL     1     -21.453   8.976  -2.294  1.00  0.00    -0.175 N 
HETATM   24  C2  UNL     1     -20.266   9.057  -2.733  1.00  0.00     0.679 C 
HETATM   25  N1  UNL     1     -19.264   9.803  -2.080  1.00  0.00    -0.230 N 
HETATM   26  N2  UNL     1     -19.857   8.384  -3.941  1.00  0.00    -0.190 N 
HETATM   27  C1  UNL     1     -18.112  10.341  -2.817  1.00  0.00     0.165 C 
ATOM     28  H1  UNL     1     -19.340   9.973  -1.077  1.00  0.00     0.177 HD
HETATM   29  C3  UNL     1     -20.627   7.658  -4.641  1.00  0.00     0.207 C 
ATOM     30  H2  UNL     1     -18.892   8.497  -4.250  1.00  0.00     0.184 HD
HETATM   31  N3  UNL     1     -21.985   7.436  -4.302  1.00  0.00    -0.096 NA
ATOM     32  H4  UNL     1     -22.114   8.412  -2.827  1.00  0.00     0.186 HD
ENDBRANCH   1  23
TORSDOF 5
ENDMDL
MODEL 5
REMARK VINA RESULT: -9.319284307      1.193      1.707
REMARK  5 active torsions:
REMARK  status: ('A' for Active; 'I' for Inactive)
REMARK       I    between atoms: N1_2  and  C2_4 
REMARK       I    between atoms: C2_4  and  N2_5 
REMARK    1  A    between atoms: N4_9  and  C4_11 
REMARK    2  A    between atoms: C7_15  and  C8_16 
REMARK    3  A    between atoms: C8_16  and  O1_17 
REMARK    4  A    between atoms: C8_16  and  N5_19 
REMARK    5  A    between atoms: N6_22  and  C11_23 
ROOT
HETATM    1  C4  UNL     1     -22.328   8.970  -0.184  1.00  0.00     0.145 A 
HETATM    2  C5  UNL     1     -21.923   7.847   0.482  1.00  0.00     0.081 A 
HETATM    3 CL1  UNL     1     -20.807   6.612  -0.065  1.00  0.00    -0.080 Cl
HETATM    4  C6  UNL     1     -22.531   7.819   1.748  1.00  0.00     0.062 A 
HETATM    5  C7  UNL     1     -23.304   8.939   1.834  1.00  0.00     0.088 A 
HETATM    6  N7  UNL     1     -23.172   9.622   0.663  1.00  0.00    -0.332 N 
HETATM    7  C19 UNL     1     -23.806  10.863   0.310  1.00  0.00     0.158 C 
ENDROOT
BRANCH   5   8
HETATM    8  C8  UNL     1     -24.160   9.405   2.924  1.00  0.00     0.166 C 
BRANCH   8   9
HETATM    9  O1  UNL     1     -23.596  10.113   3.867  1.00  0.00    -0.344 OA
ATOM     10  H1  UNL     1     -22.701  10.396   3.723  1.00  0.00     0.219 HD
ENDBRANCH   8   9
BRANCH   8  11
HETATM   11  N5  UNL     1     -25.509   9.200   3.105  1.00  0.00    -0.354 N 
HETATM   12  C9  UNL     1     -26.126   8.025   3.636  1.00  0.00     0.169 C 
HETATM   13  C10 UNL     1     -27.639   8.133   3.677  1.00  0.00     0.078 C 
HETATM   14  N6  UNL     1     -28.137   9.377   4.096  1.00  0.00    -0.386 N 
HETATM   15  C17 UNL     1     -27.302  10.512   3.926  1.00  0.00     0.142 C 
HETATM   16  C18 UNL     1     -26.407  10.330   2.700  1.00  0.00     0.145 C 
BRANCH  14  17
HETATM   17  C11 UNL     1     -29.522   9.587   4.029  1.00  0.00     0.083 C 
HETATM   18  C12 UNL     1     -30.120  10.331   5.193  1.00  0.00     0.025 C 
HETATM   19  C13 UNL     1     -31.589  10.570   4.930  1.00  0.00     0.002 C 
HETATM   20  C14 UNL     1     -32.121   9.692   3.826  1.00  0.00     0.000 C 
HETATM   21  C15 UNL     1     -31.396   9.927   2.520  1.00  0.00     0.002 C 
HETATM   22  C16 UNL     1     -29.940  10.291   2.760  1.00  0.00     0.025 C 
ENDBRANCH  14  17
ENDBRANCH   8  11
ENDBRANCH   5   8
BRANCH   1  23
HETATM   23  N4  UNL     1     -21.992   9.392  -1.498  1.00  0.00    -0.175 N 
HETATM   24  C2  UNL     1     -20.821   9.665  -1.898  1.00  0.00     0.679 C 
HETATM   25  N1  UNL     1     -19.692   9.576  -1.060  1.00  0.00    -0.230 N 
HETATM   26  N2  UNL     1     -20.562  10.089  -3.252  1.00  0.00    -0.190 N 
HETATM   27  C1  UNL     1     -18.486  10.376  -1.316  1.00  0.00     0.165 C 
ATOM     28  H1  UNL     1     -19.712   8.944  -0.259  1.00  0.00     0.177 HD
HETATM   29  C3  UNL     1     -21.460  10.207  -4.140  1.00  0.00     0.207 C 
ATOM     30  H2  UNL     1     -19.600  10.307  -3.511  1.00  0.00     0.184 HD
HETATM   31  N3  UNL     1     -22.827   9.931  -3.885  1.00  0.00    -0.096 NA
ATOM     32  H4  UNL     1     -22.753   9.480  -2.172  1.00  0.00     0.186 HD
ENDBRANCH   1  23
TORSDOF 5
ENDMDL
