MODEL 1
REMARK VINA RESULT: -5.359202868      0.000      0.000
REMARK  4 active torsions:
REMARK  status: ('A' for Active; 'I' for Inactive)
REMARK    1  A    between atoms: N1_1  and  C1_5 
REMARK    2  A    between atoms: C2_9  and  N3_10 
REMARK    3  A    between atoms: N3_10  and  N4_11 
REMARK    4  A    between atoms: N4_11  and  C3_13 
ROOT
HETATM    1  C1  UNL     1      -6.504 -82.547   4.349  1.00  0.00     0.430 A 
HETATM    2  N2  UNL     1      -5.230 -81.940   3.928  1.00  0.00    -0.019 N 
ATOM      3  H21 UNL     1      -4.253 -82.214   4.031  1.00  0.00     0.281 HD
ATOM      4  H22 UNL     1      -4.711 -81.116   4.229  1.00  0.00     0.281 HD
HETATM    5  C2  UNL     1      -6.230 -82.172   2.907  1.00  0.00     0.358 A 
ENDROOT
BRANCH   5   6
HETATM    6  N3  UNL     1      -5.941 -83.227   1.988  1.00  0.00    -0.103 NA
BRANCH   6   7
HETATM    7  N4  UNL     1      -6.866 -83.373   0.977  1.00  0.00    -0.302 N 
ATOM      8  H4  UNL     1      -6.967 -82.631   0.284  1.00  0.00     0.182 HD
BRANCH   7   9
HETATM    9  C3  UNL     1      -7.684 -84.532   0.873  1.00  0.00     0.044 A 
HETATM   10  C4  UNL     1      -8.670 -84.558  -0.091  1.00  0.00     0.030 A 
HETATM   11  C5  UNL     1      -9.459 -85.683  -0.188  1.00  0.00     0.002 A 
HETATM   12  C6  UNL     1      -9.288 -86.783   0.654  1.00  0.00     0.000 A 
HETATM   13  C7  UNL     1      -8.295 -86.751   1.621  1.00  0.00     0.002 A 
HETATM   14  C8  UNL     1      -7.504 -85.623   1.718  1.00  0.00     0.030 A 
ENDBRANCH   7   9
ENDBRANCH   6   7
ENDBRANCH   5   6
BRANCH   1  15
HETATM   15  N1  UNL     1      -6.440 -83.932   4.743  1.00  0.00    -0.047 N 
ATOM     16  H13 UNL     1      -5.841 -84.449   4.100  1.00  0.00     0.276 HD
ATOM     17  H12 UNL     1      -5.902 -84.023   5.606  1.00  0.00     0.276 HD
ATOM     18  H11 UNL     1      -7.336 -84.408   4.841  1.00  0.00     0.276 HD
ENDBRANCH   1  15
TORSDOF 4
ENDMDL
MODEL 2
REMARK VINA RESULT: -5.340667757      0.070      1.386
REMARK  4 active torsions:
REMARK  status: ('A' for Active; 'I' for Inactive)
REMARK    1  A    between atoms: N1_1  and  C1_5 
REMARK    2  A    between atoms: C2_9  and  N3_10 
REMARK    3  A    between atoms: N3_10  and  N4_11 
REMARK    4  A    between atoms: N4_11  and  C3_13 
ROOT
HETATM    1  C1  UNL     1      -6.507 -82.532   4.360  1.00  0.00     0.430 A 
HETATM    2  N2  UNL     1      -5.238 -81.919   3.934  1.00  0.00    -0.019 N 
ATOM      3  H21 UNL     1      -4.258 -82.182   4.042  1.00  0.00     0.281 HD
ATOM      4  H22 UNL     1      -4.727 -81.086   4.225  1.00  0.00     0.281 HD
HETATM    5  C2  UNL     1      -6.233 -82.173   2.914  1.00  0.00     0.358 A 
ENDROOT
BRANCH   5   6
HETATM    6  N3  UNL     1      -5.933 -83.237   2.009  1.00  0.00    -0.103 NA
BRANCH   6   7
HETATM    7  N4  UNL     1      -6.841 -83.388   0.983  1.00  0.00    -0.302 N 
ATOM      8  H4  UNL     1      -6.928 -82.651   0.283  1.00  0.00     0.182 HD
BRANCH   7   9
HETATM    9  C3  UNL     1      -7.661 -84.545   0.875  1.00  0.00     0.044 A 
HETATM   10  C4  UNL     1      -7.493 -85.558   1.796  1.00  0.00     0.030 A 
HETATM   11  C5  UNL     1      -8.290 -86.678   1.688  1.00  0.00     0.002 A 
HETATM   12  C6  UNL     1      -9.250 -86.809   0.683  1.00  0.00     0.000 A 
HETATM   13  C7  UNL     1      -9.414 -85.787  -0.239  1.00  0.00     0.002 A 
HETATM   14  C8  UNL     1      -8.614 -84.666  -0.130  1.00  0.00     0.030 A 
ENDBRANCH   7   9
ENDBRANCH   6   7
ENDBRANCH   5   6
BRANCH   1  15
HETATM   15  N1  UNL     1      -6.431 -83.911   4.772  1.00  0.00    -0.047 N 
ATOM     16  H13 UNL     1      -5.549 -84.318   4.463  1.00  0.00     0.276 HD
ATOM     17  H12 UNL     1      -6.312 -83.964   5.784  1.00  0.00     0.276 HD
ATOM     18  H11 UNL     1      -7.208 -84.505   4.482  1.00  0.00     0.276 HD
ENDBRANCH   1  15
TORSDOF 4
ENDMDL
MODEL 3
REMARK VINA RESULT: -5.198540234      1.418      2.057
REMARK  4 active torsions:
REMARK  status: ('A' for Active; 'I' for Inactive)
REMARK    1  A    between atoms: N1_1  and  C1_5 
REMARK    2  A    between atoms: C2_9  and  N3_10 
REMARK    3  A    between atoms: N3_10  and  N4_11 
REMARK    4  A    between atoms: N4_11  and  C3_13 
ROOT
HETATM    1  C1  UNL     1      -5.879 -81.343   4.226  1.00  0.00     0.430 A 
HETATM    2  N2  UNL     1      -6.434 -80.633   3.062  1.00  0.00    -0.019 N 
ATOM      3  H21 UNL     1      -6.044 -79.973   2.389  1.00  0.00     0.281 HD
ATOM      4  H22 UNL     1      -7.103 -79.871   2.956  1.00  0.00     0.281 HD
HETATM    5  C2  UNL     1      -6.560 -82.076   3.088  1.00  0.00     0.358 A 
ENDROOT
BRANCH   5   6
HETATM    6  N3  UNL     1      -5.734 -82.785   2.164  1.00  0.00    -0.103 NA
BRANCH   6   7
HETATM    7  N4  UNL     1      -6.022 -84.128   2.054  1.00  0.00    -0.302 N 
ATOM      8  H4  UNL     1      -5.745 -84.759   2.807  1.00  0.00     0.182 HD
BRANCH   7   9
HETATM    9  C3  UNL     1      -6.693 -84.659   0.918  1.00  0.00     0.044 A 
HETATM   10  C4  UNL     1      -5.952 -84.947  -0.209  1.00  0.00     0.030 A 
HETATM   11  C5  UNL     1      -6.608 -85.461  -1.308  1.00  0.00     0.002 A 
HETATM   12  C6  UNL     1      -7.984 -85.694  -1.307  1.00  0.00     0.000 A 
HETATM   13  C7  UNL     1      -8.723 -85.402  -0.170  1.00  0.00     0.002 A 
HETATM   14  C8  UNL     1      -8.065 -84.887   0.930  1.00  0.00     0.030 A 
ENDBRANCH   7   9
ENDBRANCH   6   7
ENDBRANCH   5   6
BRANCH   1  15
HETATM   15  N1  UNL     1      -4.441 -81.366   4.321  1.00  0.00    -0.047 N 
ATOM     16  H13 UNL     1      -4.157 -81.805   5.197  1.00  0.00     0.276 HD
ATOM     17  H12 UNL     1      -4.059 -82.033   3.650  1.00  0.00     0.276 HD
ATOM     18  H11 UNL     1      -3.975 -80.465   4.218  1.00  0.00     0.276 HD
ENDBRANCH   1  15
TORSDOF 4
ENDMDL
MODEL 4
REMARK VINA RESULT: -5.180420141      1.551      1.882
REMARK  4 active torsions:
REMARK  status: ('A' for Active; 'I' for Inactive)
REMARK    1  A    between atoms: N1_1  and  C1_5 
REMARK    2  A    between atoms: C2_9  and  N3_10 
REMARK    3  A    between atoms: N3_10  and  N4_11 
REMARK    4  A    between atoms: N4_11  and  C3_13 
ROOT
HETATM    1  C1  UNL     1      -6.221 -82.156   4.041  1.00  0.00     0.430 A 
HETATM    2  N2  UNL     1      -5.570 -82.739   2.856  1.00  0.00    -0.019 N 
ATOM      3  H21 UNL     1      -4.988 -83.563   2.707  1.00  0.00     0.281 HD
ATOM      4  H22 UNL     1      -4.780 -82.456   2.278  1.00  0.00     0.281 HD
HETATM    5  C2  UNL     1      -6.996 -82.497   2.785  1.00  0.00     0.358 A 
ENDROOT
BRANCH   5   6
HETATM    6  N3  UNL     1      -7.823 -83.662   2.807  1.00  0.00    -0.103 NA
BRANCH   6   7
HETATM    7  N4  UNL     1      -7.245 -84.783   2.253  1.00  0.00    -0.302 N 
ATOM      8  H4  UNL     1      -6.687 -85.399   2.845  1.00  0.00     0.182 HD
BRANCH   7   9
HETATM    9  C3  UNL     1      -7.406 -85.105   0.877  1.00  0.00     0.044 A 
HETATM   10  C4  UNL     1      -8.667 -85.425   0.419  1.00  0.00     0.030 A 
HETATM   11  C5  UNL     1      -8.819 -85.736  -0.915  1.00  0.00     0.002 A 
HETATM   12  C6  UNL     1      -7.741 -85.734  -1.803  1.00  0.00     0.000 A 
HETATM   13  C7  UNL     1      -6.476 -85.411  -1.337  1.00  0.00     0.002 A 
HETATM   14  C8  UNL     1      -6.325 -85.100   0.001  1.00  0.00     0.030 A 
ENDBRANCH   7   9
ENDBRANCH   6   7
ENDBRANCH   5   6
BRANCH   1  15
HETATM   15  N1  UNL     1      -6.323 -83.020   5.190  1.00  0.00    -0.047 N 
ATOM     16  H13 UNL     1      -6.985 -82.630   5.861  1.00  0.00     0.276 HD
ATOM     17  H12 UNL     1      -6.807 -83.881   4.935  1.00  0.00     0.276 HD
ATOM     18  H11 UNL     1      -5.445 -83.241   5.659  1.00  0.00     0.276 HD
ENDBRANCH   1  15
TORSDOF 4
ENDMDL
MODEL 5
REMARK VINA RESULT: -5.160055981      1.551      2.023
REMARK  4 active torsions:
REMARK  status: ('A' for Active; 'I' for Inactive)
REMARK    1  A    between atoms: N1_1  and  C1_5 
REMARK    2  A    between atoms: C2_9  and  N3_10 
REMARK    3  A    between atoms: N3_10  and  N4_11 
REMARK    4  A    between atoms: N4_11  and  C3_13 
ROOT
HETATM    1  C1  UNL     1      -6.198 -82.151   4.100  1.00  0.00     0.430 A 
HETATM    2  N2  UNL     1      -5.502 -82.738   2.943  1.00  0.00    -0.019 N 
ATOM      3  H21 UNL     1      -4.930 -83.573   2.815  1.00  0.00     0.281 HD
ATOM      4  H22 UNL     1      -4.679 -82.466   2.406  1.00  0.00     0.281 HD
HETATM    5  C2  UNL     1      -6.918 -82.466   2.804  1.00  0.00     0.358 A 
ENDROOT
BRANCH   5   6
HETATM    6  N3  UNL     1      -7.767 -83.614   2.776  1.00  0.00    -0.103 NA
BRANCH   6   7
HETATM    7  N4  UNL     1      -7.188 -84.741   2.235  1.00  0.00    -0.302 N 
ATOM      8  H4  UNL     1      -6.621 -85.344   2.832  1.00  0.00     0.182 HD
BRANCH   7   9
HETATM    9  C3  UNL     1      -7.358 -85.086   0.866  1.00  0.00     0.044 A 
HETATM   10  C4  UNL     1      -6.252 -85.074   0.042  1.00  0.00     0.030 A 
HETATM   11  C5  UNL     1      -6.422 -85.410  -1.284  1.00  0.00     0.002 A 
HETATM   12  C6  UNL     1      -7.669 -85.756  -1.807  1.00  0.00     0.000 A 
HETATM   13  C7  UNL     1      -8.777 -85.766  -0.973  1.00  0.00     0.002 A 
HETATM   14  C8  UNL     1      -8.606 -85.430   0.356  1.00  0.00     0.030 A 
ENDBRANCH   7   9
ENDBRANCH   6   7
ENDBRANCH   5   6
BRANCH   1  15
HETATM   15  N1  UNL     1      -6.373 -83.023   5.235  1.00  0.00    -0.047 N 
ATOM     16  H13 UNL     1      -7.327 -82.948   5.586  1.00  0.00     0.276 HD
ATOM     17  H12 UNL     1      -6.366 -83.996   4.929  1.00  0.00     0.276 HD
ATOM     18  H11 UNL     1      -5.711 -82.894   6.000  1.00  0.00     0.276 HD
ENDBRANCH   1  15
TORSDOF 4
ENDMDL
