MODEL 1
REMARK VINA RESULT: -4.572455928      0.000      0.000
REMARK  5 active torsions:
REMARK  status: ('A' for Active; 'I' for Inactive)
REMARK    1  A    between atoms: N1_1  and  C1_4 
REMARK    2  A    between atoms: C2_7  and  C3_8 
REMARK    3  A    between atoms: N3_10  and  C4_11 
REMARK    4  A    between atoms: C4_11  and  C5_12 
REMARK    5  A    between atoms: C5_12  and  N4_13 
ROOT
HETATM    1  C1  UNL     1      45.116 -30.795   1.660  1.00  0.00     0.692 A 
HETATM    2  N2  UNL     1      45.166 -30.633   0.332  1.00  0.00    -0.177 N 
ATOM      3  H2  UNL     1      44.497 -31.012  -0.338  1.00  0.00     0.185 HD
HETATM    4  C2  UNL     1      46.267 -29.871   0.021  1.00  0.00     0.124 A 
HETATM    5  N3  UNL     1      46.849 -29.601   1.189  1.00  0.00    -0.263 N 
HETATM    6  N5  UNL     1      46.155 -30.158   2.205  1.00  0.00    -0.129 N 
ATOM      7  H5  UNL     1      46.381 -30.103   3.197  1.00  0.00     0.206 HD
ENDROOT
BRANCH   5   8
HETATM    8  C4  UNL     1      48.082 -28.860   1.355  1.00  0.00     0.178 C 
BRANCH   8   9
HETATM    9  C5  UNL     1      48.748 -29.031   2.669  1.00  0.00     0.251 C 
BRANCH   9  10
HETATM   10  N4  UNL     1      50.055 -28.476   2.735  1.00  0.00    -0.078 N 
ATOM     11  H43 UNL     1      50.248 -27.916   1.904  1.00  0.00     0.274 HD
ATOM     12  H42 UNL     1      50.099 -27.748   3.448  1.00  0.00     0.274 HD
ATOM     13  H41 UNL     1      50.793 -29.164   2.881  1.00  0.00     0.274 HD
ENDBRANCH   9  10
ENDBRANCH   8   9
ENDBRANCH   5   8
BRANCH   4  14
HETATM   14  C3  UNL     1      46.633 -29.454  -1.370  1.00  0.00     0.164 C 
HETATM   15  S1  UNL     1      45.474 -30.188  -2.572  1.00  0.00    -0.090 SA
ENDBRANCH   4  14
BRANCH   1  16
HETATM   16  N1  UNL     1      44.204 -31.462   2.321  1.00  0.00    -0.233 N 
ATOM     17  H12 UNL     1      43.389 -31.054   2.780  1.00  0.00     0.174 HD
ATOM     18  H11 UNL     1      44.184 -32.472   2.465  1.00  0.00     0.174 HD
ENDBRANCH   1  16
TORSDOF 5
ENDMDL
MODEL 2
REMARK VINA RESULT: -4.447506505      1.888      2.896
REMARK  5 active torsions:
REMARK  status: ('A' for Active; 'I' for Inactive)
REMARK    1  A    between atoms: N1_1  and  C1_4 
REMARK    2  A    between atoms: C2_7  and  C3_8 
REMARK    3  A    between atoms: N3_10  and  C4_11 
REMARK    4  A    between atoms: C4_11  and  C5_12 
REMARK    5  A    between atoms: C5_12  and  N4_13 
ROOT
HETATM    1  C1  UNL     1      46.371 -29.638  -1.051  1.00  0.00     0.692 A 
HETATM    2  N2  UNL     1      45.433 -30.397  -0.469  1.00  0.00    -0.177 N 
ATOM      3  H2  UNL     1      44.690 -30.899  -0.956  1.00  0.00     0.185 HD
HETATM    4  C2  UNL     1      45.637 -30.388   0.890  1.00  0.00     0.124 A 
HETATM    5  N3  UNL     1      46.703 -29.611   1.080  1.00  0.00    -0.263 N 
HETATM    6  N5  UNL     1      47.166 -29.144  -0.100  1.00  0.00    -0.129 N 
ATOM      7  H5  UNL     1      47.970 -28.532  -0.237  1.00  0.00     0.206 HD
ENDROOT
BRANCH   5   8
HETATM    8  C4  UNL     1      47.263 -29.264   2.370  1.00  0.00     0.178 C 
BRANCH   8   9
HETATM    9  C5  UNL     1      48.729 -29.037   2.380  1.00  0.00     0.251 C 
BRANCH   9  10
HETATM   10  N4  UNL     1      49.146 -27.976   3.230  1.00  0.00    -0.078 N 
ATOM     11  H43 UNL     1      48.791 -27.083   2.887  1.00  0.00     0.274 HD
ATOM     12  H42 UNL     1      48.661 -28.024   4.126  1.00  0.00     0.274 HD
ATOM     13  H41 UNL     1      50.155 -27.929   3.372  1.00  0.00     0.274 HD
ENDBRANCH   9  10
ENDBRANCH   8   9
ENDBRANCH   5   8
BRANCH   4  14
HETATM   14  C3  UNL     1      44.802 -31.154   1.869  1.00  0.00     0.164 C 
HETATM   15  S1  UNL     1      43.115 -31.383   1.213  1.00  0.00    -0.090 SA
ENDBRANCH   4  14
BRANCH   1  16
HETATM   16  N1  UNL     1      46.494 -29.414  -2.335  1.00  0.00    -0.233 N 
ATOM     17  H12 UNL     1      45.831 -29.708  -3.052  1.00  0.00     0.174 HD
ATOM     18  H11 UNL     1      47.262 -28.919  -2.787  1.00  0.00     0.174 HD
ENDBRANCH   1  16
TORSDOF 5
ENDMDL
MODEL 3
REMARK VINA RESULT: -4.346086124      2.370      4.167
REMARK  5 active torsions:
REMARK  status: ('A' for Active; 'I' for Inactive)
REMARK    1  A    between atoms: N1_1  and  C1_4 
REMARK    2  A    between atoms: C2_7  and  C3_8 
REMARK    3  A    between atoms: N3_10  and  C4_11 
REMARK    4  A    between atoms: C4_11  and  C5_12 
REMARK    5  A    between atoms: C5_12  and  N4_13 
ROOT
HETATM    1  C1  UNL     1      47.688 -28.988   1.735  1.00  0.00     0.692 A 
HETATM    2  N2  UNL     1      46.735 -29.850   2.114  1.00  0.00    -0.177 N 
ATOM      3  H2  UNL     1      46.577 -30.178   3.067  1.00  0.00     0.185 HD
HETATM    4  C2  UNL     1      46.007 -30.218   1.008  1.00  0.00     0.124 A 
HETATM    5  N3  UNL     1      46.556 -29.558  -0.010  1.00  0.00    -0.263 N 
HETATM    6  N5  UNL     1      47.587 -28.797   0.418  1.00  0.00    -0.129 N 
ATOM      7  H5  UNL     1      48.176 -28.194  -0.156  1.00  0.00     0.206 HD
ENDROOT
BRANCH   5   8
HETATM    8  C4  UNL     1      46.149 -29.672  -1.396  1.00  0.00     0.178 C 
BRANCH   8   9
HETATM    9  C5  UNL     1      47.229 -30.036  -2.343  1.00  0.00     0.251 C 
BRANCH   9  10
HETATM   10  N4  UNL     1      46.936 -29.738  -3.702  1.00  0.00    -0.078 N 
ATOM     11  H43 UNL     1      45.932 -29.607  -3.831  1.00  0.00     0.274 HD
ATOM     12  H42 UNL     1      47.264 -28.802  -3.942  1.00  0.00     0.274 HD
ATOM     13  H41 UNL     1      47.296 -30.423  -4.366  1.00  0.00     0.274 HD
ENDBRANCH   9  10
ENDBRANCH   8   9
ENDBRANCH   5   8
BRANCH   4  14
HETATM   14  C3  UNL     1      44.833 -31.147   1.049  1.00  0.00     0.164 C 
HETATM   15  S1  UNL     1      44.506 -31.674   2.764  1.00  0.00    -0.090 SA
ENDBRANCH   4  14
BRANCH   1  16
HETATM   16  N1  UNL     1      48.572 -28.423   2.518  1.00  0.00    -0.233 N 
ATOM     17  H12 UNL     1      48.525 -27.466   2.868  1.00  0.00     0.174 HD
ATOM     18  H11 UNL     1      49.419 -28.859   2.881  1.00  0.00     0.174 HD
ENDBRANCH   1  16
TORSDOF 5
ENDMDL
MODEL 4
REMARK VINA RESULT: -4.165317705      6.448      7.660
REMARK  5 active torsions:
REMARK  status: ('A' for Active; 'I' for Inactive)
REMARK    1  A    between atoms: N1_1  and  C1_4 
REMARK    2  A    between atoms: C2_7  and  C3_8 
REMARK    3  A    between atoms: N3_10  and  C4_11 
REMARK    4  A    between atoms: C4_11  and  C5_12 
REMARK    5  A    between atoms: C5_12  and  N4_13 
ROOT
HETATM    1  C1  UNL     1      44.319 -27.622  -3.983  1.00  0.00     0.692 A 
HETATM    2  N2  UNL     1      44.390 -26.389  -4.500  1.00  0.00    -0.177 N 
ATOM      3  H2  UNL     1      45.135 -26.040  -5.102  1.00  0.00     0.185 HD
HETATM    4  C2  UNL     1      43.294 -25.672  -4.084  1.00  0.00     0.124 A 
HETATM    5  N3  UNL     1      42.594 -26.510  -3.320  1.00  0.00    -0.263 N 
HETATM    6  N5  UNL     1      43.208 -27.711  -3.249  1.00  0.00    -0.129 N 
ATOM      7  H5  UNL     1      42.884 -28.529  -2.733  1.00  0.00     0.206 HD
ENDROOT
BRANCH   5   8
HETATM    8  C4  UNL     1      41.373 -26.176  -2.616  1.00  0.00     0.178 C 
BRANCH   8   9
HETATM    9  C5  UNL     1      40.478 -27.322  -2.328  1.00  0.00     0.251 C 
BRANCH   9  10
HETATM   10  N4  UNL     1      40.452 -27.710  -0.960  1.00  0.00    -0.078 N 
ATOM     11  H43 UNL     1      41.206 -28.368  -0.761  1.00  0.00     0.274 HD
ATOM     12  H42 UNL     1      40.737 -26.934  -0.363  1.00  0.00     0.274 HD
ATOM     13  H41 UNL     1      39.556 -28.088  -0.651  1.00  0.00     0.274 HD
ENDBRANCH   9  10
ENDBRANCH   8   9
ENDBRANCH   5   8
BRANCH   4  14
HETATM   14  C3  UNL     1      43.013 -24.258  -4.490  1.00  0.00     0.164 C 
HETATM   15  S1  UNL     1      44.300 -23.667  -5.640  1.00  0.00    -0.090 SA
ENDBRANCH   4  14
BRANCH   1  16
HETATM   16  N1  UNL     1      45.188 -28.585  -4.163  1.00  0.00    -0.233 N 
ATOM     17  H12 UNL     1      45.253 -29.174  -4.993  1.00  0.00     0.174 HD
ATOM     18  H11 UNL     1      45.912 -28.872  -3.505  1.00  0.00     0.174 HD
ENDBRANCH   1  16
TORSDOF 5
ENDMDL
MODEL 5
REMARK VINA RESULT: -4.164389615      6.703      7.925
REMARK  5 active torsions:
REMARK  status: ('A' for Active; 'I' for Inactive)
REMARK    1  A    between atoms: N1_1  and  C1_4 
REMARK    2  A    between atoms: C2_7  and  C3_8 
REMARK    3  A    between atoms: N3_10  and  C4_11 
REMARK    4  A    between atoms: C4_11  and  C5_12 
REMARK    5  A    between atoms: C5_12  and  N4_13 
ROOT
HETATM    1  C1  UNL     1      40.758 -26.179  -2.834  1.00  0.00     0.692 A 
HETATM    2  N2  UNL     1      41.706 -27.120  -2.745  1.00  0.00    -0.177 N 
ATOM      3  H2  UNL     1      41.681 -27.932  -2.128  1.00  0.00     0.185 HD
HETATM    4  C2  UNL     1      42.718 -26.813  -3.623  1.00  0.00     0.124 A 
HETATM    5  N3  UNL     1      42.338 -25.681  -4.215  1.00  0.00    -0.263 N 
HETATM    6  N5  UNL     1      41.137 -25.279  -3.743  1.00  0.00    -0.129 N 
ATOM      7  H5  UNL     1      40.621 -24.447  -4.028  1.00  0.00     0.206 HD
ENDROOT
BRANCH   5   8
HETATM    8  C4  UNL     1      43.118 -24.945  -5.188  1.00  0.00     0.178 C 
BRANCH   8   9
HETATM    9  C5  UNL     1      44.014 -23.907  -4.625  1.00  0.00     0.251 C 
BRANCH   9  10
HETATM   10  N4  UNL     1      43.769 -22.597  -5.119  1.00  0.00    -0.078 N 
ATOM     11  H43 UNL     1      43.962 -22.551  -6.120  1.00  0.00     0.274 HD
ATOM     12  H42 UNL     1      42.769 -22.399  -5.127  1.00  0.00     0.274 HD
ATOM     13  H41 UNL     1      44.275 -21.863  -4.623  1.00  0.00     0.274 HD
ENDBRANCH   9  10
ENDBRANCH   8   9
ENDBRANCH   5   8
BRANCH   4  14
HETATM   14  C3  UNL     1      43.937 -27.658  -3.827  1.00  0.00     0.164 C 
HETATM   15  S1  UNL     1      43.491 -29.426  -3.784  1.00  0.00    -0.090 SA
ENDBRANCH   4  14
BRANCH   1  16
HETATM   16  N1  UNL     1      39.643 -26.141  -2.148  1.00  0.00    -0.233 N 
ATOM     17  H12 UNL     1      38.704 -26.180  -2.544  1.00  0.00     0.174 HD
ATOM     18  H11 UNL     1      39.564 -26.068  -1.134  1.00  0.00     0.174 HD
ENDBRANCH   1  16
TORSDOF 5
ENDMDL
