MODEL 1
REMARK VINA RESULT: -5.415806944      0.000      0.000
REMARK  4 active torsions:
REMARK  status: ('A' for Active; 'I' for Inactive)
REMARK    1  A    between atoms: C2_2  and  C3_3 
REMARK    2  A    between atoms: C3_3  and  C4_4 
REMARK    3  A    between atoms: N1_5  and  N2_7 
REMARK    4  A    between atoms: N2_7  and  C5_9 
ROOT
HETATM    1  C5  UNL     1      44.534 -23.991  -5.320  1.00  0.00     0.704 C 
HETATM    2  N3  UNL     1      44.625 -23.055  -6.191  1.00  0.00    -0.223 N 
ATOM      3  H3  UNL     1      43.845 -22.402  -6.273  1.00  0.00     0.177 HD
HETATM    4  C6  UNL     1      45.764 -22.864  -7.065  1.00  0.00     0.156 C 
HETATM    5  C7  UNL     1      46.563 -24.158  -7.161  1.00  0.00     0.155 C 
HETATM    6  N4  UNL     1      46.857 -24.536  -5.770  1.00  0.00    -0.125 NA
HETATM    7  N5  UNL     1      45.625 -24.897  -5.210  1.00  0.00    -0.135 N 
ATOM      8  H5  UNL     1      45.512 -25.792  -4.732  1.00  0.00     0.201 HD
ENDROOT
BRANCH   1   9
HETATM    9  N2  UNL     1      43.396 -24.154  -4.472  1.00  0.00    -0.132 N 
ATOM     10  H2  UNL     1      42.536 -23.659  -4.706  1.00  0.00     0.205 HD
BRANCH   9  11
HETATM   11  N1  UNL     1      43.417 -24.963  -3.339  1.00  0.00    -0.301 N 
HETATM   12  C4  UNL     1      42.352 -25.555  -2.976  1.00  0.00     0.084 C 
ATOM     13  H1  UNL     1      44.278 -25.079  -2.806  1.00  0.00     0.186 HD
BRANCH  12  14
HETATM   14  C3  UNL     1      41.110 -25.386  -3.748  1.00  0.00     0.072 C 
BRANCH  14  15
HETATM   15  C2  UNL     1      39.937 -25.791  -2.934  1.00  0.00    -0.032 C 
HETATM   16  C1  UNL     1      40.129 -26.574  -1.889  1.00  0.00     0.007 C 
ENDBRANCH  14  15
ENDBRANCH  12  14
ENDBRANCH   9  11
ENDBRANCH   1   9
TORSDOF 4
ENDMDL
MODEL 2
REMARK VINA RESULT: -5.331612612      1.989      2.722
REMARK  4 active torsions:
REMARK  status: ('A' for Active; 'I' for Inactive)
REMARK    1  A    between atoms: C2_2  and  C3_3 
REMARK    2  A    between atoms: C3_3  and  C4_4 
REMARK    3  A    between atoms: N1_5  and  N2_7 
REMARK    4  A    between atoms: N2_7  and  C5_9 
ROOT
HETATM    1  C5  UNL     1      42.733 -25.084  -4.255  1.00  0.00     0.704 C 
HETATM    2  N3  UNL     1      43.022 -24.528  -5.374  1.00  0.00    -0.223 N 
ATOM      3  H3  UNL     1      42.449 -24.759  -6.185  1.00  0.00     0.177 HD
HETATM    4  C6  UNL     1      44.112 -23.593  -5.559  1.00  0.00     0.156 C 
HETATM    5  C7  UNL     1      45.126 -23.750  -4.431  1.00  0.00     0.155 C 
HETATM    6  N4  UNL     1      44.346 -23.617  -3.190  1.00  0.00    -0.125 NA
HETATM    7  N5  UNL     1      43.537 -24.758  -3.129  1.00  0.00    -0.135 N 
ATOM      8  H5  UNL     1      43.524 -25.342  -2.293  1.00  0.00     0.201 HD
ENDROOT
BRANCH   1   9
HETATM    9  N2  UNL     1      41.651 -26.005  -4.104  1.00  0.00    -0.132 N 
ATOM     10  H2  UNL     1      41.841 -27.003  -4.196  1.00  0.00     0.205 HD
BRANCH   9  11
HETATM   11  N1  UNL     1      40.349 -25.592  -3.836  1.00  0.00    -0.301 N 
HETATM   12  C4  UNL     1      39.867 -25.765  -2.673  1.00  0.00     0.084 C 
ATOM     13  H1  UNL     1      39.787 -25.154  -4.566  1.00  0.00     0.186 HD
BRANCH  12  14
HETATM   14  C3  UNL     1      40.681 -26.396  -1.620  1.00  0.00     0.072 C 
BRANCH  14  15
HETATM   15  C2  UNL     1      40.114 -27.717  -1.252  1.00  0.00    -0.032 C 
HETATM   16  C1  UNL     1      40.428 -28.769  -1.984  1.00  0.00     0.007 C 
ENDBRANCH  14  15
ENDBRANCH  12  14
ENDBRANCH   9  11
ENDBRANCH   1   9
TORSDOF 4
ENDMDL
MODEL 3
REMARK VINA RESULT: -5.278570836      0.618      1.424
REMARK  4 active torsions:
REMARK  status: ('A' for Active; 'I' for Inactive)
REMARK    1  A    between atoms: C2_2  and  C3_3 
REMARK    2  A    between atoms: C3_3  and  C4_4 
REMARK    3  A    between atoms: N1_5  and  N2_7 
REMARK    4  A    between atoms: N2_7  and  C5_9 
ROOT
HETATM    1  C5  UNL     1      44.307 -24.010  -5.245  1.00  0.00     0.704 C 
HETATM    2  N3  UNL     1      45.413 -24.653  -5.162  1.00  0.00    -0.223 N 
ATOM      3  H3  UNL     1      45.583 -25.206  -4.322  1.00  0.00     0.177 HD
HETATM    4  C6  UNL     1      46.437 -24.644  -6.186  1.00  0.00     0.156 C 
HETATM    5  C7  UNL     1      46.257 -23.428  -7.087  1.00  0.00     0.155 C 
HETATM    6  N4  UNL     1      44.862 -23.493  -7.550  1.00  0.00    -0.125 NA
HETATM    7  N5  UNL     1      44.077 -23.241  -6.418  1.00  0.00    -0.135 N 
ATOM      8  H5  UNL     1      43.354 -22.521  -6.436  1.00  0.00     0.201 HD
ENDROOT
BRANCH   1   9
HETATM    9  N2  UNL     1      43.316 -24.037  -4.216  1.00  0.00    -0.132 N 
ATOM     10  H2  UNL     1      42.564 -23.349  -4.242  1.00  0.00     0.205 HD
BRANCH   9  11
HETATM   11  N1  UNL     1      43.337 -24.968  -3.181  1.00  0.00    -0.301 N 
HETATM   12  C4  UNL     1      42.279 -25.614  -2.901  1.00  0.00     0.084 C 
ATOM     13  H1  UNL     1      44.195 -25.131  -2.653  1.00  0.00     0.186 HD
BRANCH  12  14
HETATM   14  C3  UNL     1      41.043 -25.378  -3.665  1.00  0.00     0.072 C 
BRANCH  14  15
HETATM   15  C2  UNL     1      39.860 -25.813  -2.882  1.00  0.00    -0.032 C 
HETATM   16  C1  UNL     1      40.044 -26.599  -1.838  1.00  0.00     0.007 C 
ENDBRANCH  14  15
ENDBRANCH  12  14
ENDBRANCH   9  11
ENDBRANCH   1   9
TORSDOF 4
ENDMDL
MODEL 4
REMARK VINA RESULT: -5.228390467      1.574      1.861
REMARK  4 active torsions:
REMARK  status: ('A' for Active; 'I' for Inactive)
REMARK    1  A    between atoms: C2_2  and  C3_3 
REMARK    2  A    between atoms: C3_3  and  C4_4 
REMARK    3  A    between atoms: N1_5  and  N2_7 
REMARK    4  A    between atoms: N2_7  and  C5_9 
ROOT
HETATM    1  C5  UNL     1      44.363 -23.206  -4.697  1.00  0.00     0.704 C 
HETATM    2  N3  UNL     1      45.003 -22.570  -3.786  1.00  0.00    -0.223 N 
ATOM      3  H3  UNL     1      44.749 -22.745  -2.814  1.00  0.00     0.177 HD
HETATM    4  C6  UNL     1      46.065 -21.621  -4.050  1.00  0.00     0.156 C 
HETATM    5  C7  UNL     1      45.968 -21.124  -5.488  1.00  0.00     0.155 C 
HETATM    6  N4  UNL     1      45.949 -22.339  -6.317  1.00  0.00    -0.125 NA
HETATM    7  N5  UNL     1      44.722 -22.959  -6.051  1.00  0.00    -0.135 N 
ATOM      8  H5  UNL     1      44.098 -23.227  -6.812  1.00  0.00     0.201 HD
ENDROOT
BRANCH   1   9
HETATM    9  N2  UNL     1      43.318 -24.136  -4.405  1.00  0.00    -0.132 N 
ATOM     10  H2  UNL     1      42.526 -24.199  -5.044  1.00  0.00     0.205 HD
BRANCH   9  11
HETATM   11  N1  UNL     1      43.342 -24.959  -3.283  1.00  0.00    -0.301 N 
HETATM   12  C4  UNL     1      42.277 -25.552  -2.921  1.00  0.00     0.084 C 
ATOM     13  H1  UNL     1      44.206 -25.086  -2.756  1.00  0.00     0.186 HD
BRANCH  12  14
HETATM   14  C3  UNL     1      41.032 -25.368  -3.685  1.00  0.00     0.072 C 
BRANCH  14  15
HETATM   15  C2  UNL     1      39.861 -25.784  -2.872  1.00  0.00    -0.032 C 
HETATM   16  C1  UNL     1      40.056 -26.595  -1.848  1.00  0.00     0.007 C 
ENDBRANCH  14  15
ENDBRANCH  12  14
ENDBRANCH   9  11
ENDBRANCH   1   9
TORSDOF 4
ENDMDL
MODEL 5
REMARK VINA RESULT: -5.200321497      2.293      5.978
REMARK  4 active torsions:
REMARK  status: ('A' for Active; 'I' for Inactive)
REMARK    1  A    between atoms: C2_2  and  C3_3 
REMARK    2  A    between atoms: C3_3  and  C4_4 
REMARK    3  A    between atoms: N1_5  and  N2_7 
REMARK    4  A    between atoms: N2_7  and  C5_9 
ROOT
HETATM    1  C5  UNL     1      41.725 -26.235  -2.778  1.00  0.00     0.704 C 
HETATM    2  N3  UNL     1      41.228 -26.465  -1.619  1.00  0.00    -0.223 N 
ATOM      3  H3  UNL     1      41.600 -25.940  -0.828  1.00  0.00     0.177 HD
HETATM    4  C6  UNL     1      40.174 -27.424  -1.361  1.00  0.00     0.156 C 
HETATM    5  C7  UNL     1      40.102 -28.432  -2.503  1.00  0.00     0.155 C 
HETATM    6  N4  UNL     1      39.973 -27.623  -3.725  1.00  0.00    -0.125 NA
HETATM    7  N5  UNL     1      41.203 -26.971  -3.877  1.00  0.00    -0.135 N 
ATOM      8  H5  UNL     1      41.714 -27.023  -4.759  1.00  0.00     0.201 HD
ENDROOT
BRANCH   1   9
HETATM    9  N2  UNL     1      42.766 -25.283  -3.001  1.00  0.00    -0.132 N 
ATOM     10  H2  UNL     1      42.627 -24.323  -2.685  1.00  0.00     0.205 HD
BRANCH   9  11
HETATM   11  N1  UNL     1      43.961 -25.615  -3.631  1.00  0.00    -0.301 N 
HETATM   12  C4  UNL     1      44.452 -24.823  -4.496  1.00  0.00     0.084 C 
ATOM     13  H1  UNL     1      44.440 -26.486  -3.401  1.00  0.00     0.186 HD
BRANCH  12  14
HETATM   14  C3  UNL     1      43.759 -23.566  -4.826  1.00  0.00     0.072 C 
BRANCH  14  15
HETATM   15  C2  UNL     1      44.729 -22.443  -4.889  1.00  0.00    -0.032 C 
HETATM   16  C1  UNL     1      45.320 -22.052  -3.775  1.00  0.00     0.007 C 
ENDBRANCH  14  15
ENDBRANCH  12  14
ENDBRANCH   9  11
ENDBRANCH   1   9
TORSDOF 4
ENDMDL
