MODEL 1
REMARK VINA RESULT: -5.025649978      0.000      0.000
REMARK  5 active torsions:
REMARK  status: ('A' for Active; 'I' for Inactive)
REMARK    1  A    between atoms: N1_1  and  C1_4 
REMARK    2  A    between atoms: N5_14  and  C5_15 
REMARK    3  A    between atoms: C5_15  and  C6_16 
REMARK    4  A    between atoms: C6_16  and  C7_17 
REMARK    5  A    between atoms: C7_17  and  N6_18 
ROOT
HETATM    1  C1  UNL     1     -24.196 -13.416 -43.582  1.00  0.00     0.132 A 
HETATM    2  N2  UNL     1     -24.569 -14.199 -44.620  1.00  0.00    -0.337 N 
ATOM      3  H2  UNL     1     -24.258 -13.992 -45.570  1.00  0.00     0.168 HD
HETATM    4  C2  UNL     1     -25.358 -15.258 -44.370  1.00  0.00     0.183 A 
HETATM    5  N3  UNL     1     -25.779 -15.550 -43.126  1.00  0.00    -0.335 N 
ATOM      6  H3  UNL     1     -26.377 -16.363 -42.985  1.00  0.00     0.168 HD
HETATM    7  C3  UNL     1     -25.433 -14.797 -42.058  1.00  0.00     0.155 A 
HETATM    8  C4  UNL     1     -24.628 -13.711 -42.281  1.00  0.00     0.138 A 
HETATM    9  N4  UNL     1     -24.656 -13.436 -40.995  1.00  0.00    -0.290 N 
ATOM     10  H4  UNL     1     -24.245 -12.710 -40.406  1.00  0.00     0.187 HD
HETATM   11  N5  UNL     1     -25.429 -14.479 -40.775  1.00  0.00    -0.274 N 
ENDROOT
BRANCH  11  12
HETATM   12  C5  UNL     1     -26.035 -15.047 -39.585  1.00  0.00     0.152 C 
BRANCH  12  13
HETATM   13  C6  UNL     1     -25.057 -15.891 -38.805  1.00  0.00     0.049 C 
BRANCH  13  14
HETATM   14  C7  UNL     1     -25.602 -16.237 -37.456  1.00  0.00     0.231 C 
BRANCH  14  15
HETATM   15  N6  UNL     1     -24.610 -16.535 -36.477  1.00  0.00    -0.079 N 
ATOM     16  H63 UNL     1     -23.770 -16.906 -36.923  1.00  0.00     0.274 HD
ATOM     17  H62 UNL     1     -24.233 -15.675 -36.080  1.00  0.00     0.274 HD
ATOM     18  H61 UNL     1     -24.923 -17.161 -35.734  1.00  0.00     0.274 HD
ENDBRANCH  14  15
ENDBRANCH  13  14
ENDBRANCH  12  13
ENDBRANCH  11  12
BRANCH   1  19
HETATM   19  N1  UNL     1     -23.442 -12.388 -43.749  1.00  0.00    -0.383 N 
ATOM     20  H12 UNL     1     -23.150 -12.157 -44.699  1.00  0.00     0.157 HD
ATOM     21  H11 UNL     1     -23.139 -11.813 -42.964  1.00  0.00     0.157 HD
ENDBRANCH   1  19
TORSDOF 5
ENDMDL
MODEL 2
REMARK VINA RESULT: -4.991329812      1.974      2.214
REMARK  5 active torsions:
REMARK  status: ('A' for Active; 'I' for Inactive)
REMARK    1  A    between atoms: N1_1  and  C1_4 
REMARK    2  A    between atoms: N5_14  and  C5_15 
REMARK    3  A    between atoms: C5_15  and  C6_16 
REMARK    4  A    between atoms: C6_16  and  C7_17 
REMARK    5  A    between atoms: C7_17  and  N6_18 
ROOT
HETATM    1  C1  UNL     1     -25.444 -12.020 -43.099  1.00  0.00     0.132 A 
HETATM    2  N2  UNL     1     -26.620 -11.488 -43.503  1.00  0.00    -0.337 N 
ATOM      3  H2  UNL     1     -26.655 -10.817 -44.271  1.00  0.00     0.168 HD
HETATM    4  C2  UNL     1     -27.743 -11.865 -42.868  1.00  0.00     0.183 A 
HETATM    5  N3  UNL     1     -27.721 -12.748 -41.853  1.00  0.00    -0.335 N 
ATOM      6  H3  UNL     1     -28.599 -13.003 -41.401  1.00  0.00     0.168 HD
HETATM    7  C3  UNL     1     -26.571 -13.306 -41.415  1.00  0.00     0.155 A 
HETATM    8  C4  UNL     1     -25.409 -12.942 -42.043  1.00  0.00     0.138 A 
HETATM    9  N4  UNL     1     -24.735 -13.741 -41.243  1.00  0.00    -0.290 N 
ATOM     10  H4  UNL     1     -23.751 -13.986 -41.136  1.00  0.00     0.187 HD
HETATM   11  N5  UNL     1     -25.849 -14.094 -40.636  1.00  0.00    -0.274 N 
ENDROOT
BRANCH  11  12
HETATM   12  C5  UNL     1     -26.154 -14.996 -39.541  1.00  0.00     0.152 C 
BRANCH  12  13
HETATM   13  C6  UNL     1     -25.256 -14.759 -38.351  1.00  0.00     0.049 C 
BRANCH  13  14
HETATM   14  C7  UNL     1     -24.290 -15.886 -38.173  1.00  0.00     0.231 C 
BRANCH  14  15
HETATM   15  N6  UNL     1     -23.190 -15.592 -37.314  1.00  0.00    -0.079 N 
ATOM     16  H63 UNL     1     -22.420 -15.190 -37.849  1.00  0.00     0.274 HD
ATOM     17  H62 UNL     1     -23.414 -14.803 -36.708  1.00  0.00     0.274 HD
ATOM     18  H61 UNL     1     -22.864 -16.383 -36.759  1.00  0.00     0.274 HD
ENDBRANCH  14  15
ENDBRANCH  13  14
ENDBRANCH  12  13
ENDBRANCH  11  12
BRANCH   1  19
HETATM   19  N1  UNL     1     -24.332 -11.705 -43.662  1.00  0.00    -0.383 N 
ATOM     20  H12 UNL     1     -23.765 -10.976 -43.229  1.00  0.00     0.157 HD
ATOM     21  H11 UNL     1     -24.016 -12.163 -44.516  1.00  0.00     0.157 HD
ENDBRANCH   1  19
TORSDOF 5
ENDMDL
MODEL 3
REMARK VINA RESULT: -4.969307651      1.638      2.159
REMARK  5 active torsions:
REMARK  status: ('A' for Active; 'I' for Inactive)
REMARK    1  A    between atoms: N1_1  and  C1_4 
REMARK    2  A    between atoms: N5_14  and  C5_15 
REMARK    3  A    between atoms: C5_15  and  C6_16 
REMARK    4  A    between atoms: C6_16  and  C7_17 
REMARK    5  A    between atoms: C7_17  and  N6_18 
ROOT
HETATM    1  C1  UNL     1     -25.764 -12.940 -41.335  1.00  0.00     0.132 A 
HETATM    2  N2  UNL     1     -25.739 -13.282 -42.644  1.00  0.00    -0.337 N 
ATOM      3  H2  UNL     1     -25.848 -12.575 -43.371  1.00  0.00     0.168 HD
HETATM    4  C2  UNL     1     -25.566 -14.576 -42.962  1.00  0.00     0.183 A 
HETATM    5  N3  UNL     1     -25.420 -15.525 -42.020  1.00  0.00    -0.335 N 
ATOM      6  H3  UNL     1     -25.293 -16.494 -42.310  1.00  0.00     0.168 HD
HETATM    7  C3  UNL     1     -25.439 -15.232 -40.701  1.00  0.00     0.155 A 
HETATM    8  C4  UNL     1     -25.612 -13.921 -40.344  1.00  0.00     0.138 A 
HETATM    9  N4  UNL     1     -25.544 -14.264 -39.076  1.00  0.00    -0.290 N 
ATOM     10  H4  UNL     1     -25.598 -13.759 -38.191  1.00  0.00     0.187 HD
HETATM   11  N5  UNL     1     -25.377 -15.526 -39.414  1.00  0.00    -0.274 N 
ENDROOT
BRANCH  11  12
HETATM   12  C5  UNL     1     -25.195 -16.752 -38.659  1.00  0.00     0.152 C 
BRANCH  12  13
HETATM   13  C6  UNL     1     -23.735 -17.071 -38.446  1.00  0.00     0.049 C 
BRANCH  13  14
HETATM   14  C7  UNL     1     -23.305 -16.724 -37.057  1.00  0.00     0.231 C 
BRANCH  14  15
HETATM   15  N6  UNL     1     -24.370 -16.638 -36.113  1.00  0.00    -0.079 N 
ATOM     16  H63 UNL     1     -25.254 -16.898 -36.550  1.00  0.00     0.274 HD
ATOM     17  H62 UNL     1     -24.290 -17.382 -35.420  1.00  0.00     0.274 HD
ATOM     18  H61 UNL     1     -24.454 -15.732 -35.652  1.00  0.00     0.274 HD
ENDBRANCH  14  15
ENDBRANCH  13  14
ENDBRANCH  12  13
ENDBRANCH  11  12
BRANCH   1  19
HETATM   19  N1  UNL     1     -25.925 -11.721 -40.959  1.00  0.00    -0.383 N 
ATOM     20  H12 UNL     1     -25.191 -11.050 -41.184  1.00  0.00     0.157 HD
ATOM     21  H11 UNL     1     -26.758 -11.423 -40.452  1.00  0.00     0.157 HD
ENDBRANCH   1  19
TORSDOF 5
ENDMDL
MODEL 4
REMARK VINA RESULT: -4.933796335      1.739      2.027
REMARK  5 active torsions:
REMARK  status: ('A' for Active; 'I' for Inactive)
REMARK    1  A    between atoms: N1_1  and  C1_4 
REMARK    2  A    between atoms: N5_14  and  C5_15 
REMARK    3  A    between atoms: C5_15  and  C6_16 
REMARK    4  A    between atoms: C6_16  and  C7_17 
REMARK    5  A    between atoms: C7_17  and  N6_18 
ROOT
HETATM    1  C1  UNL     1     -26.351 -13.373 -41.912  1.00  0.00     0.132 A 
HETATM    2  N2  UNL     1     -26.127 -14.021 -43.079  1.00  0.00    -0.337 N 
ATOM      3  H2  UNL     1     -26.498 -13.659 -43.958  1.00  0.00     0.168 HD
HETATM    4  C2  UNL     1     -25.404 -15.154 -43.052  1.00  0.00     0.183 A 
HETATM    5  N3  UNL     1     -24.906 -15.649 -41.905  1.00  0.00    -0.335 N 
ATOM      6  H3  UNL     1     -24.363 -16.512 -41.934  1.00  0.00     0.168 HD
HETATM    7  C3  UNL     1     -25.103 -15.038 -40.716  1.00  0.00     0.155 A 
HETATM    8  C4  UNL     1     -25.836 -13.880 -40.711  1.00  0.00     0.138 A 
HETATM    9  N4  UNL     1     -25.679 -13.796 -39.407  1.00  0.00    -0.290 N 
ATOM     10  H4  UNL     1     -25.981 -13.137 -38.689  1.00  0.00     0.187 HD
HETATM   11  N5  UNL     1     -24.974 -14.908 -39.407  1.00  0.00    -0.274 N 
ENDROOT
BRANCH  11  12
HETATM   12  C5  UNL     1     -24.317 -15.680 -38.368  1.00  0.00     0.152 C 
BRANCH  12  13
HETATM   13  C6  UNL     1     -25.172 -16.832 -37.899  1.00  0.00     0.049 C 
BRANCH  13  14
HETATM   14  C7  UNL     1     -25.910 -16.480 -36.647  1.00  0.00     0.231 C 
BRANCH  14  15
HETATM   15  N6  UNL     1     -25.186 -16.727 -35.445  1.00  0.00    -0.079 N 
ATOM     16  H63 UNL     1     -25.536 -17.569 -34.986  1.00  0.00     0.274 HD
ATOM     17  H62 UNL     1     -24.235 -17.026 -35.658  1.00  0.00     0.274 HD
ATOM     18  H61 UNL     1     -25.173 -15.945 -34.790  1.00  0.00     0.274 HD
ENDBRANCH  14  15
ENDBRANCH  13  14
ENDBRANCH  12  13
ENDBRANCH  11  12
BRANCH   1  19
HETATM   19  N1  UNL     1     -27.034 -12.285 -41.865  1.00  0.00    -0.383 N 
ATOM     20  H12 UNL     1     -26.694 -11.483 -42.395  1.00  0.00     0.157 HD
ATOM     21  H11 UNL     1     -27.891 -12.214 -41.318  1.00  0.00     0.157 HD
ENDBRANCH   1  19
TORSDOF 5
ENDMDL
MODEL 5
REMARK VINA RESULT: -4.894799768      1.533      2.406
REMARK  5 active torsions:
REMARK  status: ('A' for Active; 'I' for Inactive)
REMARK    1  A    between atoms: N1_1  and  C1_4 
REMARK    2  A    between atoms: N5_14  and  C5_15 
REMARK    3  A    between atoms: C5_15  and  C6_16 
REMARK    4  A    between atoms: C6_16  and  C7_17 
REMARK    5  A    between atoms: C7_17  and  N6_18 
ROOT
HETATM    1  C1  UNL     1     -25.884 -13.429 -42.983  1.00  0.00     0.132 A 
HETATM    2  N2  UNL     1     -26.181 -12.111 -42.926  1.00  0.00    -0.337 N 
ATOM      3  H2  UNL     1     -26.419 -11.591 -43.772  1.00  0.00     0.168 HD
HETATM    4  C2  UNL     1     -26.155 -11.501 -41.729  1.00  0.00     0.183 A 
HETATM    5  N3  UNL     1     -25.844 -12.166 -40.602  1.00  0.00    -0.335 N 
ATOM      6  H3  UNL     1     -25.837 -11.661 -39.716  1.00  0.00     0.168 HD
HETATM    7  C3  UNL     1     -25.540 -13.483 -40.608  1.00  0.00     0.155 A 
HETATM    8  C4  UNL     1     -25.558 -14.133 -41.814  1.00  0.00     0.138 A 
HETATM    9  N4  UNL     1     -25.216 -15.250 -41.209  1.00  0.00    -0.290 N 
ATOM     10  H4  UNL     1     -25.037 -16.206 -41.515  1.00  0.00     0.187 HD
HETATM   11  N5  UNL     1     -25.197 -14.630 -40.048  1.00  0.00    -0.274 N 
ENDROOT
BRANCH  11  12
HETATM   12  C5  UNL     1     -24.910 -15.051 -38.689  1.00  0.00     0.152 C 
BRANCH  12  13
HETATM   13  C6  UNL     1     -26.111 -15.689 -38.033  1.00  0.00     0.049 C 
BRANCH  13  14
HETATM   14  C7  UNL     1     -25.712 -16.471 -36.823  1.00  0.00     0.231 C 
BRANCH  14  15
HETATM   15  N6  UNL     1     -24.308 -16.505 -36.578  1.00  0.00    -0.079 N 
ATOM     16  H63 UNL     1     -24.038 -15.745 -35.953  1.00  0.00     0.274 HD
ATOM     17  H62 UNL     1     -24.068 -17.306 -35.995  1.00  0.00     0.274 HD
ATOM     18  H61 UNL     1     -23.731 -16.494 -37.420  1.00  0.00     0.274 HD
ENDBRANCH  14  15
ENDBRANCH  13  14
ENDBRANCH  12  13
ENDBRANCH  11  12
BRANCH   1  19
HETATM   19  N1  UNL     1     -25.889 -14.075 -44.095  1.00  0.00    -0.383 N 
ATOM     20  H12 UNL     1     -25.176 -14.790 -44.238  1.00  0.00     0.157 HD
ATOM     21  H11 UNL     1     -26.582 -13.887 -44.819  1.00  0.00     0.157 HD
ENDBRANCH   1  19
TORSDOF 5
ENDMDL
