MODEL 1
REMARK VINA RESULT: -8.108976346      0.000      0.000
REMARK  3 active torsions:
REMARK  status: ('A' for Active; 'I' for Inactive)
REMARK       I    between atoms: C1_2  and  N1_3 
REMARK    1  A    between atoms: C1_2  and  C11_18 
REMARK    2  A    between atoms: N1_3  and  C2_5 
REMARK    3  A    between atoms: C4_8  and  O2_9 
ROOT
HETATM    1  C2  UNL     1       2.071  66.997 190.721  1.00  0.00     0.388 C 
HETATM    2  S1  UNL     1       3.435  67.461 189.715  1.00  0.00    -0.111 SA
HETATM    3  C3  UNL     1       3.308  68.950 188.752  1.00  0.00     0.110 C 
HETATM    4  C4  UNL     1       3.303  70.225 189.626  1.00  0.00     0.133 C 
HETATM    5  C5  UNL     1       2.668  69.760 190.868  1.00  0.00     0.049 C 
HETATM    6  C6  UNL     1       2.354  70.724 191.947  1.00  0.00     0.015 C 
HETATM    7  C7  UNL     1       1.165  69.953 192.553  1.00  0.00     0.016 C 
HETATM    8  C8  UNL     1       0.289  70.034 191.286  1.00  0.00     0.043 C 
HETATM    9  C9  UNL     1       1.301  69.201 190.469  1.00  0.00     0.233 C 
HETATM   10  N2  UNL     1       1.191  67.974 191.208  1.00  0.00     0.126 N 
HETATM   11  C10 UNL     1       1.438  68.459 192.557  1.00  0.00     0.281 C 
ENDROOT
BRANCH   1  12
HETATM   12  N1  UNL     1       1.265  66.023 189.964  1.00  0.00    -0.318 N 
HETATM   13  C1  UNL     1       1.197  64.673 190.307  1.00  0.00     0.264 C 
HETATM   14  O1  UNL     1       1.885  64.309 191.339  1.00  0.00    -0.267 OA
ATOM     15  H1  UNL     1       0.736  66.349 189.156  1.00  0.00     0.165 HD
BRANCH  13  16
HETATM   16  C11 UNL     1       0.432  63.627 189.626  1.00  0.00     0.114 A 
HETATM   17  S2  UNL     1      -1.043  62.897 190.210  1.00  0.00    -0.051 SA
HETATM   18  C12 UNL     1      -1.316  61.817 188.923  1.00  0.00     0.147 A 
HETATM   19 CL1  UNL     1      -2.638  60.652 188.694  1.00  0.00    -0.056 Cl
HETATM   20  N3  UNL     1      -0.293  62.061 188.129  1.00  0.00    -0.330 N 
HETATM   21  C13 UNL     1       0.592  62.957 188.455  1.00  0.00     0.127 A 
ATOM     22  H3  UNL     1      -0.194  61.545 187.255  1.00  0.00     0.168 HD
HETATM   23 CL2  UNL     1       1.975  63.277 187.364  1.00  0.00    -0.063 Cl
ENDBRANCH  13  16
ENDBRANCH   1  12
BRANCH   4  24
HETATM   24  O2  UNL     1       4.568  70.735 189.790  1.00  0.00    -0.394 OA
ATOM     25  H2  UNL     1       5.112  70.577 189.028  1.00  0.00     0.210 HD
ENDBRANCH   4  24
TORSDOF 3
ENDMDL
MODEL 2
REMARK VINA RESULT: -8.090835967      2.786      3.768
REMARK  3 active torsions:
REMARK  status: ('A' for Active; 'I' for Inactive)
REMARK       I    between atoms: C1_2  and  N1_3 
REMARK    1  A    between atoms: C1_2  and  C11_18 
REMARK    2  A    between atoms: N1_3  and  C2_5 
REMARK    3  A    between atoms: C4_8  and  O2_9 
ROOT
HETATM    1  C2  UNL     1       1.966  67.814 190.159  1.00  0.00     0.388 C 
HETATM    2  S1  UNL     1       2.041  67.107 191.765  1.00  0.00    -0.111 SA
HETATM    3  C3  UNL     1       3.460  67.457 192.778  1.00  0.00     0.110 C 
HETATM    4  C4  UNL     1       3.510  68.931 193.241  1.00  0.00     0.133 C 
HETATM    5  C5  UNL     1       2.852  69.639 192.134  1.00  0.00     0.049 C 
HETATM    6  C6  UNL     1       2.799  71.118 192.124  1.00  0.00     0.015 C 
HETATM    7  C7  UNL     1       2.734  71.298 190.594  1.00  0.00     0.016 C 
HETATM    8  C8  UNL     1       4.110  70.659 190.322  1.00  0.00     0.043 C 
HETATM    9  C9  UNL     1       3.645  69.293 190.871  1.00  0.00     0.233 C 
HETATM   10  N2  UNL     1       2.638  69.014 189.885  1.00  0.00     0.126 N 
HETATM   11  C10 UNL     1       1.849  70.235 189.965  1.00  0.00     0.281 C 
ENDROOT
BRANCH   1  12
HETATM   12  N1  UNL     1       2.461  66.810 189.201  1.00  0.00    -0.318 N 
HETATM   13  C1  UNL     1       1.617  66.106 188.343  1.00  0.00     0.264 C 
HETATM   14  O1  UNL     1       0.356  66.381 188.427  1.00  0.00    -0.267 OA
ATOM     15  H1  UNL     1       3.463  66.622 189.164  1.00  0.00     0.165 HD
BRANCH  13  16
HETATM   16  C11 UNL     1       2.004  65.093 187.360  1.00  0.00     0.114 A 
HETATM   17  S2  UNL     1       2.996  65.365 185.948  1.00  0.00    -0.051 SA
HETATM   18  C12 UNL     1       2.998  63.778 185.332  1.00  0.00     0.147 A 
HETATM   19 CL1  UNL     1       3.789  63.139 183.875  1.00  0.00    -0.056 Cl
HETATM   20  N3  UNL     1       2.259  63.134 186.213  1.00  0.00    -0.330 N 
HETATM   21  C13 UNL     1       1.752  63.764 187.231  1.00  0.00     0.127 A 
ATOM     22  H3  UNL     1       2.084  62.136 186.095  1.00  0.00     0.168 HD
HETATM   23 CL2  UNL     1       0.752  62.872 188.418  1.00  0.00    -0.063 Cl
ENDBRANCH  13  16
ENDBRANCH   1  12
BRANCH   4  24
HETATM   24  O2  UNL     1       2.906  69.101 194.464  1.00  0.00    -0.394 OA
ATOM     25  H2  UNL     1       2.464  69.940 194.523  1.00  0.00     0.210 HD
ENDBRANCH   4  24
TORSDOF 3
ENDMDL
MODEL 3
REMARK VINA RESULT: -8.061617608      2.314      3.103
REMARK  3 active torsions:
REMARK  status: ('A' for Active; 'I' for Inactive)
REMARK       I    between atoms: C1_2  and  N1_3 
REMARK    1  A    between atoms: C1_2  and  C11_18 
REMARK    2  A    between atoms: N1_3  and  C2_5 
REMARK    3  A    between atoms: C4_8  and  O2_9 
ROOT
HETATM    1  C2  UNL     1       1.636  65.138 191.087  1.00  0.00     0.388 C 
HETATM    2  S1  UNL     1       2.694  64.332 192.234  1.00  0.00    -0.111 SA
HETATM    3  C3  UNL     1       4.450  64.569 192.076  1.00  0.00     0.110 C 
HETATM    4  C4  UNL     1       4.889  66.009 192.425  1.00  0.00     0.133 C 
HETATM    5  C5  UNL     1       3.717  66.806 192.036  1.00  0.00     0.049 C 
HETATM    6  C6  UNL     1       3.771  68.284 192.095  1.00  0.00     0.015 C 
HETATM    7  C7  UNL     1       2.734  68.558 190.988  1.00  0.00     0.016 C 
HETATM    8  C8  UNL     1       3.551  67.888 189.866  1.00  0.00     0.043 C 
HETATM    9  C9  UNL     1       3.467  66.509 190.556  1.00  0.00     0.233 C 
HETATM   10  N2  UNL     1       2.045  66.327 190.466  1.00  0.00     0.126 N 
HETATM   11  C10 UNL     1       1.585  67.568 191.070  1.00  0.00     0.281 C 
ENDROOT
BRANCH   1  12
HETATM   12  N1  UNL     1       1.316  64.177 190.017  1.00  0.00    -0.318 N 
HETATM   13  C1  UNL     1       0.052  63.609 189.868  1.00  0.00     0.264 C 
HETATM   14  O1  UNL     1      -0.845  63.972 190.726  1.00  0.00    -0.267 OA
ATOM     15  H1  UNL     1       2.050  63.915 189.360  1.00  0.00     0.165 HD
BRANCH  13  16
HETATM   16  C11 UNL     1      -0.369  62.648 188.846  1.00  0.00     0.114 A 
HETATM   17  S2  UNL     1      -1.822  61.680 188.891  1.00  0.00    -0.051 SA
HETATM   18  C12 UNL     1      -1.619  60.852 187.417  1.00  0.00     0.147 A 
HETATM   19 CL1  UNL     1      -2.666  59.634 186.659  1.00  0.00    -0.056 Cl
HETATM   20  N3  UNL     1      -0.479  61.344 186.973  1.00  0.00    -0.330 N 
HETATM   21  C13 UNL     1       0.163  62.239 187.665  1.00  0.00     0.127 A 
ATOM     22  H3  UNL     1      -0.100  61.021 186.084  1.00  0.00     0.168 HD
HETATM   23 CL2  UNL     1       1.709  62.897 187.046  1.00  0.00    -0.063 Cl
ENDBRANCH  13  16
ENDBRANCH   1  12
BRANCH   4  24
HETATM   24  O2  UNL     1       5.243  66.127 193.747  1.00  0.00    -0.394 OA
ATOM     25  H2  UNL     1       5.304  65.279 194.172  1.00  0.00     0.210 HD
ENDBRANCH   4  24
TORSDOF 3
ENDMDL
MODEL 4
REMARK VINA RESULT: -7.951859634      0.955      1.013
REMARK  3 active torsions:
REMARK  status: ('A' for Active; 'I' for Inactive)
REMARK       I    between atoms: C1_2  and  N1_3 
REMARK    1  A    between atoms: C1_2  and  C11_18 
REMARK    2  A    between atoms: N1_3  and  C2_5 
REMARK    3  A    between atoms: C4_8  and  O2_9 
ROOT
HETATM    1  C2  UNL     1       2.190  67.627 191.412  1.00  0.00     0.388 C 
HETATM    2  S1  UNL     1       3.664  68.204 190.650  1.00  0.00    -0.111 SA
HETATM    3  C3  UNL     1       3.603  69.727 189.734  1.00  0.00     0.110 C 
HETATM    4  C4  UNL     1       3.389  70.959 190.643  1.00  0.00     0.133 C 
HETATM    5  C5  UNL     1       2.598  70.407 191.752  1.00  0.00     0.049 C 
HETATM    6  C6  UNL     1       2.066  71.304 192.803  1.00  0.00     0.015 C 
HETATM    7  C7  UNL     1       0.843  70.447 193.185  1.00  0.00     0.016 C 
HETATM    8  C8  UNL     1       0.171  70.541 191.801  1.00  0.00     0.043 C 
HETATM    9  C9  UNL     1       1.343  69.798 191.123  1.00  0.00     0.233 C 
HETATM   10  N2  UNL     1       1.190  68.534 191.790  1.00  0.00     0.126 N 
HETATM   11  C10 UNL     1       1.198  68.970 193.178  1.00  0.00     0.281 C 
ENDROOT
BRANCH   1  12
HETATM   12  N1  UNL     1       1.568  66.648 190.503  1.00  0.00    -0.318 N 
HETATM   13  C1  UNL     1       1.491  65.288 190.799  1.00  0.00     0.264 C 
HETATM   14  O1  UNL     1       1.999  64.918 191.930  1.00  0.00    -0.267 OA
ATOM     15  H1  UNL     1       1.178  66.979 189.621  1.00  0.00     0.165 HD
BRANCH  13  16
HETATM   16  C11 UNL     1       0.898  64.236 189.971  1.00  0.00     0.114 A 
HETATM   17  S2  UNL     1      -0.646  63.468 190.245  1.00  0.00    -0.051 SA
HETATM   18  C12 UNL     1      -0.636  62.401 188.919  1.00  0.00     0.147 A 
HETATM   19 CL1  UNL     1      -1.860  61.213 188.423  1.00  0.00    -0.056 Cl
HETATM   20  N3  UNL     1       0.518  62.676 188.345  1.00  0.00    -0.330 N 
HETATM   21  C13 UNL     1       1.301  63.586 188.848  1.00  0.00     0.127 A 
ATOM     22  H3  UNL     1       0.798  62.175 187.503  1.00  0.00     0.168 HD
HETATM   23 CL2  UNL     1       2.865  63.948 188.055  1.00  0.00    -0.063 Cl
ENDBRANCH  13  16
ENDBRANCH   1  12
BRANCH   4  24
HETATM   24  O2  UNL     1       4.582  71.525 191.022  1.00  0.00    -0.394 OA
ATOM     25  H2  UNL     1       5.315  70.943 190.858  1.00  0.00     0.210 HD
ENDBRANCH   4  24
TORSDOF 3
ENDMDL
MODEL 5
REMARK VINA RESULT: -7.933702707      1.921      2.407
REMARK  3 active torsions:
REMARK  status: ('A' for Active; 'I' for Inactive)
REMARK       I    between atoms: C1_2  and  N1_3 
REMARK    1  A    between atoms: C1_2  and  C11_18 
REMARK    2  A    between atoms: N1_3  and  C2_5 
REMARK    3  A    between atoms: C4_8  and  O2_9 
ROOT
HETATM    1  C2  UNL     1       2.356  67.884 191.631  1.00  0.00     0.388 C 
HETATM    2  S1  UNL     1       3.962  68.568 191.437  1.00  0.00    -0.111 SA
HETATM    3  C3  UNL     1       4.115  70.166 190.672  1.00  0.00     0.110 C 
HETATM    4  C4  UNL     1       3.552  71.303 191.555  1.00  0.00     0.133 C 
HETATM    5  C5  UNL     1       2.479  70.631 192.300  1.00  0.00     0.049 C 
HETATM    6  C6  UNL     1       1.589  71.413 193.188  1.00  0.00     0.015 C 
HETATM    7  C7  UNL     1       0.357  70.492 193.085  1.00  0.00     0.016 C 
HETATM    8  C8  UNL     1       0.162  70.694 191.569  1.00  0.00     0.043 C 
HETATM    9  C9  UNL     1       1.528  70.048 191.253  1.00  0.00     0.233 C 
HETATM   10  N2  UNL     1       1.239  68.726 191.733  1.00  0.00     0.126 N 
HETATM   11  C10 UNL     1       0.776  69.032 193.078  1.00  0.00     0.281 C 
ENDROOT
BRANCH   1  12
HETATM   12  N1  UNL     1       2.114  66.976 190.496  1.00  0.00    -0.318 N 
HETATM   13  C1  UNL     1       1.899  65.608 190.658  1.00  0.00     0.264 C 
HETATM   14  O1  UNL     1       1.922  65.164 191.873  1.00  0.00    -0.267 OA
ATOM     15  H1  UNL     1       2.103  67.364 189.553  1.00  0.00     0.165 HD
BRANCH  13  16
HETATM   16  C11 UNL     1       1.651  64.622 189.604  1.00  0.00     0.114 A 
HETATM   17  S2  UNL     1       2.629  64.385 188.176  1.00  0.00    -0.051 SA
HETATM   18  C12 UNL     1       1.738  63.118 187.469  1.00  0.00     0.147 A 
HETATM   19 CL1  UNL     1       2.037  62.246 185.950  1.00  0.00    -0.056 Cl
HETATM   20  N3  UNL     1       0.762  62.942 188.337  1.00  0.00    -0.330 N 
HETATM   21  C13 UNL     1       0.695  63.677 189.408  1.00  0.00     0.127 A 
ATOM     22  H3  UNL     1       0.056  62.226 188.168  1.00  0.00     0.168 HD
HETATM   23 CL2  UNL     1      -0.638  63.423 190.576  1.00  0.00    -0.063 Cl
ENDBRANCH  13  16
ENDBRANCH   1  12
BRANCH   4  24
HETATM   24  O2  UNL     1       4.528  71.864 192.344  1.00  0.00    -0.394 OA
ATOM     25  H2  UNL     1       4.802  71.275 193.036  1.00  0.00     0.210 HD
ENDBRANCH   4  24
TORSDOF 3
ENDMDL
