MODEL 1
REMARK VINA RESULT: -6.607270796      0.000      0.000
REMARK  1 active torsions:
REMARK  status: ('A' for Active; 'I' for Inactive)
REMARK    1  A    between atoms: C1_2  and  C2_4 
ROOT
HETATM    1  C2  UNL     1      42.699  34.682  56.647  1.00  0.00     0.053 C 
HETATM    2  C3  UNL     1      43.279  35.015  55.331  1.00  0.00     0.025 C 
HETATM    3  C4  UNL     1      42.531  34.550  54.137  1.00  0.00    -0.011 C 
HETATM    4  C5  UNL     1      41.413  35.444  53.701  1.00  0.00     0.007 C 
HETATM    5  C6  UNL     1      40.525  35.937  54.766  1.00  0.00     0.032 C 
HETATM    6  C7  UNL     1      40.350  35.026  55.946  1.00  0.00     0.123 C 
HETATM    7  C8  UNL     1      41.412  35.392  56.957  1.00  0.00     0.052 C 
HETATM    8  O3  UNL     1      40.244  33.710  55.664  1.00  0.00    -0.381 OA
HETATM    9  C9  UNL     1      41.371  32.967  55.580  1.00  0.00     0.123 C 
HETATM   10  C10 UNL     1      42.005  33.147  54.231  1.00  0.00     0.036 C 
HETATM   11  C11 UNL     1      42.368  33.197  56.697  1.00  0.00     0.052 C 
ENDROOT
BRANCH   1  12
HETATM   12  C1  UNL     1      43.695  34.956  57.704  1.00  0.00     0.182 C 
HETATM   13  O1  UNL     1      44.767  34.311  57.783  1.00  0.00    -0.647 OA
HETATM   14  O2  UNL     1      43.411  35.958  58.620  1.00  0.00    -0.647 OA
ENDBRANCH   1  12
TORSDOF 1
ENDMDL
MODEL 2
REMARK VINA RESULT: -6.417023696      3.216      5.219
REMARK  1 active torsions:
REMARK  status: ('A' for Active; 'I' for Inactive)
REMARK    1  A    between atoms: C1_2  and  C2_4 
ROOT
HETATM    1  C2  UNL     1      43.657  32.005  58.909  1.00  0.00     0.053 C 
HETATM    2  C3  UNL     1      43.638  32.553  60.280  1.00  0.00     0.025 C 
HETATM    3  C4  UNL     1      44.456  33.766  60.524  1.00  0.00    -0.011 C 
HETATM    4  C5  UNL     1      43.796  35.059  60.162  1.00  0.00     0.007 C 
HETATM    5  C6  UNL     1      43.110  35.094  58.860  1.00  0.00     0.032 C 
HETATM    6  C7  UNL     1      43.689  34.214  57.791  1.00  0.00     0.123 C 
HETATM    7  C8  UNL     1      42.991  32.877  57.882  1.00  0.00     0.052 C 
HETATM    8  O3  UNL     1      45.038  34.164  57.736  1.00  0.00    -0.381 OA
HETATM    9  C9  UNL     1      45.688  33.246  58.489  1.00  0.00     0.123 C 
HETATM   10  C10 UNL     1      45.821  33.741  59.899  1.00  0.00     0.036 C 
HETATM   11  C11 UNL     1      45.098  31.853  58.442  1.00  0.00     0.052 C 
ENDROOT
BRANCH   1  12
HETATM   12  C1  UNL     1      43.040  30.663  58.910  1.00  0.00     0.182 C 
HETATM   13  O1  UNL     1      42.381  30.240  57.931  1.00  0.00    -0.647 OA
HETATM   14  O2  UNL     1      43.208  29.870  60.036  1.00  0.00    -0.647 OA
ENDBRANCH   1  12
TORSDOF 1
ENDMDL
MODEL 3
REMARK VINA RESULT: -6.051299700      1.510      3.901
REMARK  1 active torsions:
REMARK  status: ('A' for Active; 'I' for Inactive)
REMARK    1  A    between atoms: C1_2  and  C2_4 
ROOT
HETATM    1  C2  UNL     1      41.937  33.930  56.092  1.00  0.00     0.053 C 
HETATM    2  C3  UNL     1      42.717  33.120  57.049  1.00  0.00     0.025 C 
HETATM    3  C4  UNL     1      43.815  33.813  57.767  1.00  0.00    -0.011 C 
HETATM    4  C5  UNL     1      43.395  34.571  58.987  1.00  0.00     0.007 C 
HETATM    5  C6  UNL     1      42.195  35.412  58.845  1.00  0.00     0.032 C 
HETATM    6  C7  UNL     1      41.952  35.981  57.478  1.00  0.00     0.123 C 
HETATM    7  C8  UNL     1      41.088  34.995  56.727  1.00  0.00     0.052 C 
HETATM    8  O3  UNL     1      43.047  36.416  56.818  1.00  0.00    -0.381 OA
HETATM    9  C9  UNL     1      43.739  35.540  56.053  1.00  0.00     0.123 C 
HETATM   10  C10 UNL     1      44.653  34.719  56.913  1.00  0.00     0.036 C 
HETATM   11  C11 UNL     1      42.884  34.668  55.157  1.00  0.00     0.052 C 
ENDROOT
BRANCH   1  12
HETATM   12  C1  UNL     1      41.095  33.037  55.268  1.00  0.00     0.182 C 
HETATM   13  O1  UNL     1      40.212  32.308  55.777  1.00  0.00    -0.647 OA
HETATM   14  O2  UNL     1      41.310  33.024  53.898  1.00  0.00    -0.647 OA
ENDBRANCH   1  12
TORSDOF 1
ENDMDL
MODEL 4
REMARK VINA RESULT: -6.005206047      3.667      4.995
REMARK  1 active torsions:
REMARK  status: ('A' for Active; 'I' for Inactive)
REMARK    1  A    between atoms: C1_2  and  C2_4 
ROOT
HETATM    1  C2  UNL     1      44.214  31.832  58.404  1.00  0.00     0.053 C 
HETATM    2  C3  UNL     1      45.037  30.744  57.840  1.00  0.00     0.025 C 
HETATM    3  C4  UNL     1      44.482  29.371  57.937  1.00  0.00    -0.011 C 
HETATM    4  C5  UNL     1      43.520  28.999  56.853  1.00  0.00     0.007 C 
HETATM    5  C6  UNL     1      42.493  30.001  56.526  1.00  0.00     0.032 C 
HETATM    6  C7  UNL     1      42.053  30.881  57.659  1.00  0.00     0.123 C 
HETATM    7  C8  UNL     1      42.942  32.103  57.651  1.00  0.00     0.052 C 
HETATM    8  O3  UNL     1      41.911  30.273  58.857  1.00  0.00    -0.381 OA
HETATM    9  C9  UNL     1      42.984  30.186  59.676  1.00  0.00     0.123 C 
HETATM   10  C10 UNL     1      43.855  29.038  59.260  1.00  0.00     0.036 C 
HETATM   11  C11 UNL     1      43.781  31.466  59.816  1.00  0.00     0.052 C 
ENDROOT
BRANCH   1  12
HETATM   12  C1  UNL     1      45.024  33.066  58.487  1.00  0.00     0.182 C 
HETATM   13  O1  UNL     1      46.087  33.112  59.150  1.00  0.00    -0.647 OA
HETATM   14  O2  UNL     1      44.574  34.186  57.805  1.00  0.00    -0.647 OA
ENDBRANCH   1  12
TORSDOF 1
ENDMDL
MODEL 5
REMARK VINA RESULT: -5.938055952      2.342      5.033
REMARK  1 active torsions:
REMARK  status: ('A' for Active; 'I' for Inactive)
REMARK    1  A    between atoms: C1_2  and  C2_4 
ROOT
HETATM    1  C2  UNL     1      43.397  34.337  57.944  1.00  0.00     0.053 C 
HETATM    2  C3  UNL     1      43.192  34.928  59.282  1.00  0.00     0.025 C 
HETATM    3  C4  UNL     1      43.941  34.312  60.404  1.00  0.00    -0.011 C 
HETATM    4  C5  UNL     1      45.345  34.801  60.572  1.00  0.00     0.007 C 
HETATM    5  C6  UNL     1      46.150  34.896  59.343  1.00  0.00     0.032 C 
HETATM    6  C7  UNL     1      45.815  33.908  58.264  1.00  0.00     0.123 C 
HETATM    7  C8  UNL     1      44.772  34.548  57.376  1.00  0.00     0.052 C 
HETATM    8  O3  UNL     1      45.535  32.654  58.679  1.00  0.00    -0.381 OA
HETATM    9  C9  UNL     1      44.259  32.344  59.006  1.00  0.00     0.123 C 
HETATM   10  C10 UNL     1      43.960  32.811  60.400  1.00  0.00     0.036 C 
HETATM   11  C11 UNL     1      43.216  32.827  58.021  1.00  0.00     0.052 C 
ENDROOT
BRANCH   1  12
HETATM   12  C1  UNL     1      42.379  34.866  57.014  1.00  0.00     0.182 C 
HETATM   13  O1  UNL     1      41.463  35.628  57.402  1.00  0.00    -0.647 OA
HETATM   14  O2  UNL     1      42.460  34.492  55.680  1.00  0.00    -0.647 OA
ENDBRANCH   1  12
TORSDOF 1
ENDMDL
