MODEL 1
REMARK VINA RESULT: -7.877065643      0.000      0.000
REMARK  11 active torsions:
REMARK  status: ('A' for Active; 'I' for Inactive)
REMARK    1  A    between atoms: C3_5  and  S1_6 
REMARK    2  A    between atoms: S1_6  and  C4_7 
REMARK    3  A    between atoms: C4_7  and  C5_8 
REMARK    4  A    between atoms: C5_8  and  N2_9 
REMARK    5  A    between atoms: C5_8  and  C6_13 
REMARK    6  A    between atoms: N3_16  and  N4_17 
REMARK    7  A    between atoms: N5_21  and  C8_23 
REMARK    8  A    between atoms: C9_25  and  N6_26 
REMARK    9  A    between atoms: C10_31  and  N8_32 
REMARK       I    between atoms: C11_34  and  N10_36 
REMARK   10  A    between atoms: N10_36  and  N11_38 
REMARK   11  A    between atoms: N11_38  and  O3_40 
ROOT
HETATM    1  C1  UNL     1       9.250 -55.062   1.973  1.00  0.00     0.089 C 
HETATM    2  C2  UNL     1       8.953 -55.353   3.414  1.00  0.00     0.095 A 
HETATM    3  N1  UNL     1       7.749 -55.825   3.795  1.00  0.00    -0.324 N 
ATOM      4  H1  UNL     1       7.034 -55.982   3.085  1.00  0.00     0.169 HD
HETATM    5  C3  UNL     1       7.454 -56.100   5.100  1.00  0.00     0.184 A 
HETATM    6  N3  UNL     1       8.414 -55.882   6.015  1.00  0.00    -0.070 N 
HETATM    7  C7  UNL     1       9.626 -55.414   5.686  1.00  0.00     0.707 A 
HETATM    8  N5  UNL     1      10.551 -55.204   6.575  1.00  0.00    -0.179 N 
ATOM      9  H5  UNL     1      10.364 -55.398   7.558  1.00  0.00     0.185 HD
HETATM   10  N12 UNL     1       9.870 -55.158   4.385  1.00  0.00    -0.179 N 
ATOM     11  H12 UNL     1      10.789 -54.799   4.123  1.00  0.00     0.185 HD
ENDROOT
BRANCH   6  12
HETATM   12  N4  UNL     1       8.131 -56.157   7.360  1.00  0.00    -0.322 N 
ATOM     13  H42 UNL     1       8.085 -57.128   7.670  1.00  0.00     0.178 HD
ATOM     14  H41 UNL     1       7.978 -55.373   7.995  1.00  0.00     0.178 HD
ENDBRANCH   6  12
BRANCH   8  15
HETATM   15  C8  UNL     1      11.832 -54.702   6.180  1.00  0.00     0.138 A 
HETATM   16  S2  UNL     1      12.398 -54.381   4.602  1.00  0.00    -0.032 SA
HETATM   17  C9  UNL     1      13.965 -53.828   4.999  1.00  0.00     0.145 A 
HETATM   18  N7  UNL     1      13.977 -53.918   6.330  1.00  0.00    -0.321 N 
HETATM   19  C10 UNL     1      12.916 -54.354   6.942  1.00  0.00     0.144 A 
ATOM     20  H7  UNL     1      14.806 -53.648   6.859  1.00  0.00     0.169 HD
BRANCH  17  21
HETATM   21  N6  UNL     1      14.936 -53.411   4.213  1.00  0.00    -0.380 N 
ATOM     22  H62 UNL     1      14.853 -52.840   3.371  1.00  0.00     0.158 HD
ATOM     23  H61 UNL     1      15.942 -53.567   4.278  1.00  0.00     0.158 HD
ENDBRANCH  17  21
BRANCH  19  24
HETATM   24  N8  UNL     1      12.819 -54.487   8.392  1.00  0.00    -0.313 N 
HETATM   25  C11 UNL     1      13.706 -55.239   8.940  1.00  0.00     0.210 C 
HETATM   26  N9  UNL     1      14.705 -55.888   8.175  1.00  0.00    -0.062 NA
HETATM   27  N10 UNL     1      13.713 -55.447  10.360  1.00  0.00    -0.254 N 
ATOM     28  H10 UNL     1      14.562 -55.722  10.853  1.00  0.00     0.191 HD
ATOM     29  H8  UNL     1      12.096 -54.015   8.934  1.00  0.00     0.170 HD
BRANCH  27  30
HETATM   30  N11 UNL     1      12.511 -55.255  11.036  1.00  0.00    -0.208 N 
ATOM     31  H11 UNL     1      12.078 -56.031  11.537  1.00  0.00     0.215 HD
BRANCH  30  32
HETATM   32  O3  UNL     1      11.961 -54.131  11.029  1.00  0.00    -0.274 OA
ATOM     33  H3  UNL     1      11.167 -53.987  11.531  1.00  0.00     0.246 HD
ENDBRANCH  30  32
ENDBRANCH  27  30
ENDBRANCH  19  24
ENDBRANCH   8  15
BRANCH   5  34
HETATM   34  S1  UNL     1       5.864 -56.718   5.583  1.00  0.00    -0.089 SA
BRANCH  34  35
HETATM   35  C4  UNL     1       4.679 -55.361   5.823  1.00  0.00     0.126 C 
BRANCH  35  36
HETATM   36  C5  UNL     1       5.423 -54.265   6.588  1.00  0.00     0.293 C 
BRANCH  36  37
HETATM   37  N2  UNL     1       5.086 -52.972   5.996  1.00  0.00    -0.064 N 
ATOM     38  H23 UNL     1       5.409 -52.888   5.032  1.00  0.00     0.275 HD
ATOM     39  H22 UNL     1       4.087 -52.872   5.819  1.00  0.00     0.275 HD
ATOM     40  H21 UNL     1       5.452 -52.234   6.597  1.00  0.00     0.275 HD
ENDBRANCH  36  37
BRANCH  36  41
HETATM   41  C6  UNL     1       4.982 -54.328   7.991  1.00  0.00     0.205 C 
HETATM   42  O1  UNL     1       3.832 -53.960   8.315  1.00  0.00    -0.646 OA
HETATM   43  O2  UNL     1       5.836 -54.793   8.971  1.00  0.00    -0.646 OA
ENDBRANCH  36  41
ENDBRANCH  35  36
ENDBRANCH  34  35
ENDBRANCH   5  34
TORSDOF 11
ENDMDL
MODEL 2
REMARK VINA RESULT: -7.359779447      1.157      1.312
REMARK  11 active torsions:
REMARK  status: ('A' for Active; 'I' for Inactive)
REMARK    1  A    between atoms: C3_5  and  S1_6 
REMARK    2  A    between atoms: S1_6  and  C4_7 
REMARK    3  A    between atoms: C4_7  and  C5_8 
REMARK    4  A    between atoms: C5_8  and  N2_9 
REMARK    5  A    between atoms: C5_8  and  C6_13 
REMARK    6  A    between atoms: N3_16  and  N4_17 
REMARK    7  A    between atoms: N5_21  and  C8_23 
REMARK    8  A    between atoms: C9_25  and  N6_26 
REMARK    9  A    between atoms: C10_31  and  N8_32 
REMARK       I    between atoms: C11_34  and  N10_36 
REMARK   10  A    between atoms: N10_36  and  N11_38 
REMARK   11  A    between atoms: N11_38  and  O3_40 
ROOT
HETATM    1  C1  UNL     1      10.014 -54.329   1.108  1.00  0.00     0.089 C 
HETATM    2  C2  UNL     1       9.581 -54.714   2.491  1.00  0.00     0.095 A 
HETATM    3  N1  UNL     1       8.333 -55.164   2.729  1.00  0.00    -0.324 N 
ATOM      4  H1  UNL     1       7.679 -55.239   1.950  1.00  0.00     0.169 HD
HETATM    5  C3  UNL     1       7.913 -55.523   3.979  1.00  0.00     0.184 A 
HETATM    6  N3  UNL     1       8.795 -55.412   4.987  1.00  0.00    -0.070 N 
HETATM    7  C7  UNL     1      10.046 -54.970   4.801  1.00  0.00     0.707 A 
HETATM    8  N5  UNL     1      10.895 -54.864   5.780  1.00  0.00    -0.179 N 
ATOM      9  H5  UNL     1      10.615 -55.122   6.726  1.00  0.00     0.185 HD
HETATM   10  N12 UNL     1      10.414 -54.628   3.550  1.00  0.00    -0.179 N 
ATOM     11  H12 UNL     1      11.363 -54.288   3.396  1.00  0.00     0.185 HD
ENDROOT
BRANCH   6  12
HETATM   12  N4  UNL     1       8.384 -55.775   6.278  1.00  0.00    -0.322 N 
ATOM     13  H42 UNL     1       7.687 -56.510   6.388  1.00  0.00     0.178 HD
ATOM     14  H41 UNL     1       8.798 -55.289   7.074  1.00  0.00     0.178 HD
ENDBRANCH   6  12
BRANCH   8  15
HETATM   15  C8  UNL     1      12.222 -54.386   5.537  1.00  0.00     0.138 A 
HETATM   16  S2  UNL     1      12.967 -54.059   4.036  1.00  0.00    -0.032 SA
HETATM   17  C9  UNL     1      14.491 -53.546   4.612  1.00  0.00     0.145 A 
HETATM   18  N7  UNL     1      14.353 -53.651   5.935  1.00  0.00    -0.321 N 
HETATM   19  C10 UNL     1      13.222 -54.070   6.419  1.00  0.00     0.144 A 
ATOM     20  H7  UNL     1      15.123 -53.406   6.557  1.00  0.00     0.169 HD
BRANCH  17  21
HETATM   21  N6  UNL     1      15.552 -53.141   3.945  1.00  0.00    -0.380 N 
ATOM     22  H62 UNL     1      16.380 -53.686   3.704  1.00  0.00     0.158 HD
ATOM     23  H61 UNL     1      15.762 -52.226   3.544  1.00  0.00     0.158 HD
ENDBRANCH  17  21
BRANCH  19  24
HETATM   24  N8  UNL     1      12.961 -54.218   7.847  1.00  0.00    -0.313 N 
HETATM   25  C11 UNL     1      13.679 -55.094   8.455  1.00  0.00     0.210 C 
HETATM   26  N9  UNL     1      14.656 -55.858   7.771  1.00  0.00    -0.062 NA
HETATM   27  N10 UNL     1      13.514 -55.329   9.861  1.00  0.00    -0.254 N 
ATOM     28  H10 UNL     1      14.265 -55.727  10.425  1.00  0.00     0.191 HD
ATOM     29  H8  UNL     1      12.255 -53.663   8.332  1.00  0.00     0.170 HD
BRANCH  27  30
HETATM   30  N11 UNL     1      12.286 -54.989  10.421  1.00  0.00    -0.208 N 
ATOM     31  H11 UNL     1      11.713 -55.706  10.867  1.00  0.00     0.215 HD
BRANCH  30  32
HETATM   32  O3  UNL     1      11.883 -53.805  10.378  1.00  0.00    -0.274 OA
ATOM     33  H3  UNL     1      11.034 -53.578  10.738  1.00  0.00     0.246 HD
ENDBRANCH  30  32
ENDBRANCH  27  30
ENDBRANCH  19  24
ENDBRANCH   8  15
BRANCH   5  34
HETATM   34  S1  UNL     1       6.267 -56.111   4.273  1.00  0.00    -0.089 SA
BRANCH  34  35
HETATM   35  C4  UNL     1       5.235 -54.819   5.029  1.00  0.00     0.126 C 
BRANCH  35  36
HETATM   36  C5  UNL     1       4.653 -55.421   6.309  1.00  0.00     0.293 C 
BRANCH  36  37
HETATM   37  N2  UNL     1       5.141 -56.792   6.443  1.00  0.00    -0.064 N 
ATOM     38  H23 UNL     1       5.621 -56.950   7.329  1.00  0.00     0.275 HD
ATOM     39  H22 UNL     1       4.385 -57.465   6.571  1.00  0.00     0.275 HD
ATOM     40  H21 UNL     1       5.725 -57.010   5.637  1.00  0.00     0.275 HD
ENDBRANCH  36  37
BRANCH  36  41
HETATM   41  C6  UNL     1       5.110 -54.591   7.435  1.00  0.00     0.205 C 
HETATM   42  O1  UNL     1       6.178 -53.947   7.360  1.00  0.00    -0.646 OA
HETATM   43  O2  UNL     1       4.364 -54.516   8.594  1.00  0.00    -0.646 OA
ENDBRANCH  36  41
ENDBRANCH  35  36
ENDBRANCH  34  35
ENDBRANCH   5  34
TORSDOF 11
ENDMDL
MODEL 3
REMARK VINA RESULT: -7.352965856      1.745      1.985
REMARK  11 active torsions:
REMARK  status: ('A' for Active; 'I' for Inactive)
REMARK    1  A    between atoms: C3_5  and  S1_6 
REMARK    2  A    between atoms: S1_6  and  C4_7 
REMARK    3  A    between atoms: C4_7  and  C5_8 
REMARK    4  A    between atoms: C5_8  and  N2_9 
REMARK    5  A    between atoms: C5_8  and  C6_13 
REMARK    6  A    between atoms: N3_16  and  N4_17 
REMARK    7  A    between atoms: N5_21  and  C8_23 
REMARK    8  A    between atoms: C9_25  and  N6_26 
REMARK    9  A    between atoms: C10_31  and  N8_32 
REMARK       I    between atoms: C11_34  and  N10_36 
REMARK   10  A    between atoms: N10_36  and  N11_38 
REMARK   11  A    between atoms: N11_38  and  O3_40 
ROOT
HETATM    1  C1  UNL     1      10.794 -53.829   1.679  1.00  0.00     0.089 C 
HETATM    2  C2  UNL     1      10.529 -54.271   3.088  1.00  0.00     0.095 A 
HETATM    3  N1  UNL     1       9.300 -54.670   3.472  1.00  0.00    -0.324 N 
ATOM      4  H1  UNL     1       8.544 -54.666   2.787  1.00  0.00     0.169 HD
HETATM    5  C3  UNL     1       9.032 -55.080   4.748  1.00  0.00     0.184 A 
HETATM    6  N3  UNL     1      10.046 -55.073   5.629  1.00  0.00    -0.070 N 
HETATM    7  C7  UNL     1      11.285 -54.685   5.296  1.00  0.00     0.707 A 
HETATM    8  N5  UNL     1      12.262 -54.679   6.153  1.00  0.00    -0.179 N 
ATOM      9  H5  UNL     1      12.097 -54.978   7.114  1.00  0.00     0.185 HD
HETATM   10  N12 UNL     1      11.500 -54.289   4.025  1.00  0.00    -0.179 N 
ATOM     11  H12 UNL     1      12.439 -53.990   3.760  1.00  0.00     0.185 HD
ENDROOT
BRANCH   6  12
HETATM   12  N4  UNL     1       9.792 -55.489   6.944  1.00  0.00    -0.322 N 
ATOM     13  H42 UNL     1       9.983 -54.847   7.713  1.00  0.00     0.178 HD
ATOM     14  H41 UNL     1       9.421 -56.427   7.094  1.00  0.00     0.178 HD
ENDBRANCH   6  12
BRANCH   8  15
HETATM   15  C8  UNL     1      13.570 -54.256   5.754  1.00  0.00     0.138 A 
HETATM   16  S2  UNL     1      14.082 -53.720   4.217  1.00  0.00    -0.032 SA
HETATM   17  C9  UNL     1      15.723 -53.420   4.583  1.00  0.00     0.145 A 
HETATM   18  N7  UNL     1      15.799 -53.748   5.875  1.00  0.00    -0.321 N 
HETATM   19  C10 UNL     1      14.729 -54.169   6.481  1.00  0.00     0.144 A 
ATOM     20  H7  UNL     1      16.682 -53.668   6.378  1.00  0.00     0.169 HD
BRANCH  17  21
HETATM   21  N6  UNL     1      16.692 -52.976   3.810  1.00  0.00    -0.380 N 
ATOM     22  H62 UNL     1      17.178 -53.482   3.069  1.00  0.00     0.158 HD
ATOM     23  H61 UNL     1      17.147 -52.062   3.791  1.00  0.00     0.158 HD
ENDBRANCH  17  21
BRANCH  19  24
HETATM   24  N8  UNL     1      14.697 -54.549   7.889  1.00  0.00    -0.313 N 
HETATM   25  C11 UNL     1      15.215 -55.692   8.168  1.00  0.00     0.210 C 
HETATM   26  N9  UNL     1      15.777 -56.517   7.163  1.00  0.00    -0.062 NA
HETATM   27  N10 UNL     1      15.243 -56.174   9.519  1.00  0.00    -0.254 N 
ATOM     28  H10 UNL     1      15.927 -56.866   9.822  1.00  0.00     0.191 HD
ATOM     29  H8  UNL     1      14.290 -53.947   8.606  1.00  0.00     0.170 HD
BRANCH  27  30
HETATM   30  N11 UNL     1      14.295 -55.655  10.397  1.00  0.00    -0.208 N 
ATOM     31  H11 UNL     1      14.487 -55.630  11.399  1.00  0.00     0.215 HD
BRANCH  30  32
HETATM   32  O3  UNL     1      13.206 -55.220   9.959  1.00  0.00    -0.274 OA
ATOM     33  H3  UNL     1      12.442 -55.196  10.523  1.00  0.00     0.246 HD
ENDBRANCH  30  32
ENDBRANCH  27  30
ENDBRANCH  19  24
ENDBRANCH   8  15
BRANCH   5  34
HETATM   34  S1  UNL     1       7.409 -55.599   5.235  1.00  0.00    -0.089 SA
BRANCH  34  35
HETATM   35  C4  UNL     1       6.442 -54.204   5.886  1.00  0.00     0.126 C 
BRANCH  35  36
HETATM   36  C5  UNL     1       5.625 -54.752   7.058  1.00  0.00     0.293 C 
BRANCH  36  37
HETATM   37  N2  UNL     1       5.048 -56.035   6.665  1.00  0.00    -0.064 N 
ATOM     38  H23 UNL     1       4.445 -56.430   7.387  1.00  0.00     0.275 HD
ATOM     39  H22 UNL     1       4.345 -55.939   5.932  1.00  0.00     0.275 HD
ATOM     40  H21 UNL     1       5.805 -56.665   6.400  1.00  0.00     0.275 HD
ENDBRANCH  36  37
BRANCH  36  41
HETATM   41  C6  UNL     1       6.541 -54.918   8.197  1.00  0.00     0.205 C 
HETATM   42  O1  UNL     1       6.524 -55.963   8.881  1.00  0.00    -0.646 OA
HETATM   43  O2  UNL     1       7.433 -53.917   8.526  1.00  0.00    -0.646 OA
ENDBRANCH  36  41
ENDBRANCH  35  36
ENDBRANCH  34  35
ENDBRANCH   5  34
TORSDOF 11
ENDMDL
MODEL 4
REMARK VINA RESULT: -7.266053714      1.451      1.731
REMARK  11 active torsions:
REMARK  status: ('A' for Active; 'I' for Inactive)
REMARK    1  A    between atoms: C3_5  and  S1_6 
REMARK    2  A    between atoms: S1_6  and  C4_7 
REMARK    3  A    between atoms: C4_7  and  C5_8 
REMARK    4  A    between atoms: C5_8  and  N2_9 
REMARK    5  A    between atoms: C5_8  and  C6_13 
REMARK    6  A    between atoms: N3_16  and  N4_17 
REMARK    7  A    between atoms: N5_21  and  C8_23 
REMARK    8  A    between atoms: C9_25  and  N6_26 
REMARK    9  A    between atoms: C10_31  and  N8_32 
REMARK       I    between atoms: C11_34  and  N10_36 
REMARK   10  A    between atoms: N10_36  and  N11_38 
REMARK   11  A    between atoms: N11_38  and  O3_40 
ROOT
HETATM    1  C1  UNL     1      10.191 -54.242   2.079  1.00  0.00     0.089 C 
HETATM    2  C2  UNL     1      10.116 -54.697   3.506  1.00  0.00     0.095 A 
HETATM    3  N1  UNL     1       8.973 -55.192   4.020  1.00  0.00    -0.324 N 
ATOM      4  H1  UNL     1       8.149 -55.253   3.421  1.00  0.00     0.169 HD
HETATM    5  C3  UNL     1       8.878 -55.616   5.316  1.00  0.00     0.184 A 
HETATM    6  N3  UNL     1       9.979 -55.522   6.082  1.00  0.00    -0.070 N 
HETATM    7  C7  UNL     1      11.138 -55.036   5.618  1.00  0.00     0.707 A 
HETATM    8  N5  UNL     1      12.199 -54.946   6.364  1.00  0.00    -0.179 N 
ATOM      9  H5  UNL     1      12.163 -55.253   7.336  1.00  0.00     0.185 HD
HETATM   10  N12 UNL     1      11.182 -54.631   4.333  1.00  0.00    -0.179 N 
ATOM     11  H12 UNL     1      12.059 -54.258   3.969  1.00  0.00     0.185 HD
ENDROOT
BRANCH   6  12
HETATM   12  N4  UNL     1       9.903 -55.950   7.416  1.00  0.00    -0.322 N 
ATOM     13  H42 UNL     1       9.035 -55.810   7.933  1.00  0.00     0.178 HD
ATOM     14  H41 UNL     1      10.723 -56.391   7.831  1.00  0.00     0.178 HD
ENDBRANCH   6  12
BRANCH   8  15
HETATM   15  C8  UNL     1      13.417 -54.421   5.828  1.00  0.00     0.138 A 
HETATM   16  S2  UNL     1      13.722 -53.880   4.239  1.00  0.00    -0.032 SA
HETATM   17  C9  UNL     1      15.359 -53.429   4.431  1.00  0.00     0.145 A 
HETATM   18  N7  UNL     1      15.592 -53.718   5.713  1.00  0.00    -0.321 N 
HETATM   19  C10 UNL     1      14.630 -54.216   6.431  1.00  0.00     0.144 A 
ATOM     20  H7  UNL     1      16.511 -53.550   6.122  1.00  0.00     0.169 HD
BRANCH  17  21
HETATM   21  N6  UNL     1      16.202 -52.921   3.556  1.00  0.00    -0.380 N 
ATOM     22  H62 UNL     1      17.200 -52.747   3.682  1.00  0.00     0.158 HD
ATOM     23  H61 UNL     1      16.039 -52.603   2.600  1.00  0.00     0.158 HD
ENDBRANCH  17  21
BRANCH  19  24
HETATM   24  N8  UNL     1      14.774 -54.563   7.841  1.00  0.00    -0.313 N 
HETATM   25  C11 UNL     1      15.387 -55.667   8.082  1.00  0.00     0.210 C 
HETATM   26  N9  UNL     1      15.885 -56.482   7.036  1.00  0.00    -0.062 NA
HETATM   27  N10 UNL     1      15.589 -56.114   9.430  1.00  0.00    -0.254 N 
ATOM     28  H10 UNL     1      16.343 -56.757   9.669  1.00  0.00     0.191 HD
ATOM     29  H8  UNL     1      14.411 -53.969   8.587  1.00  0.00     0.170 HD
BRANCH  27  30
HETATM   30  N11 UNL     1      14.713 -55.630  10.397  1.00  0.00    -0.208 N 
ATOM     31  H11 UNL     1      15.059 -55.392  11.327  1.00  0.00     0.215 HD
BRANCH  30  32
HETATM   32  O3  UNL     1      13.499 -55.486  10.128  1.00  0.00    -0.274 OA
ATOM     33  H3  UNL     1      12.841 -55.655  10.792  1.00  0.00     0.246 HD
ENDBRANCH  30  32
ENDBRANCH  27  30
ENDBRANCH  19  24
ENDBRANCH   8  15
BRANCH   5  34
HETATM   34  S1  UNL     1       7.365 -56.262   5.974  1.00  0.00    -0.089 SA
BRANCH  34  35
HETATM   35  C4  UNL     1       5.976 -55.136   5.651  1.00  0.00     0.126 C 
BRANCH  35  36
HETATM   36  C5  UNL     1       6.295 -53.831   6.381  1.00  0.00     0.293 C 
BRANCH  36  37
HETATM   37  N2  UNL     1       5.207 -52.885   6.145  1.00  0.00    -0.064 N 
ATOM     38  H23 UNL     1       5.339 -52.342   5.292  1.00  0.00     0.275 HD
ATOM     39  H22 UNL     1       4.337 -53.348   5.883  1.00  0.00     0.275 HD
ATOM     40  H21 UNL     1       5.103 -52.296   6.971  1.00  0.00     0.275 HD
ENDBRANCH  36  37
BRANCH  36  41
HETATM   41  C6  UNL     1       6.413 -54.144   7.815  1.00  0.00     0.205 C 
HETATM   42  O1  UNL     1       7.483 -53.937   8.426  1.00  0.00    -0.646 OA
HETATM   43  O2  UNL     1       5.341 -54.674   8.504  1.00  0.00    -0.646 OA
ENDBRANCH  36  41
ENDBRANCH  35  36
ENDBRANCH  34  35
ENDBRANCH   5  34
TORSDOF 11
ENDMDL
MODEL 5
REMARK VINA RESULT: -7.089902270      3.868      6.871
REMARK  11 active torsions:
REMARK  status: ('A' for Active; 'I' for Inactive)
REMARK    1  A    between atoms: C3_5  and  S1_6 
REMARK    2  A    between atoms: S1_6  and  C4_7 
REMARK    3  A    between atoms: C4_7  and  C5_8 
REMARK    4  A    between atoms: C5_8  and  N2_9 
REMARK    5  A    between atoms: C5_8  and  C6_13 
REMARK    6  A    between atoms: N3_16  and  N4_17 
REMARK    7  A    between atoms: N5_21  and  C8_23 
REMARK    8  A    between atoms: C9_25  and  N6_26 
REMARK    9  A    between atoms: C10_31  and  N8_32 
REMARK       I    between atoms: C11_34  and  N10_36 
REMARK   10  A    between atoms: N10_36  and  N11_38 
REMARK   11  A    between atoms: N11_38  and  O3_40 
ROOT
HETATM    1  C1  UNL     1      11.653 -53.874   3.603  1.00  0.00     0.089 C 
HETATM    2  C2  UNL     1      10.337 -54.567   3.789  1.00  0.00     0.095 A 
HETATM    3  N1  UNL     1       9.813 -54.748   5.018  1.00  0.00    -0.324 N 
ATOM      4  H1  UNL     1      10.330 -54.407   5.829  1.00  0.00     0.169 HD
HETATM    5  C3  UNL     1       8.615 -55.374   5.216  1.00  0.00     0.184 A 
HETATM    6  N3  UNL     1       7.958 -55.816   4.130  1.00  0.00    -0.070 N 
HETATM    7  C7  UNL     1       8.436 -55.661   2.888  1.00  0.00     0.707 A 
HETATM    8  N5  UNL     1       7.797 -56.091   1.841  1.00  0.00    -0.179 N 
ATOM      9  H5  UNL     1       6.900 -56.563   1.953  1.00  0.00     0.185 HD
HETATM   10  N12 UNL     1       9.623 -55.036   2.744  1.00  0.00    -0.179 N 
ATOM     11  H12 UNL     1       9.998 -54.913   1.803  1.00  0.00     0.185 HD
ENDROOT
BRANCH   6  12
HETATM   12  N4  UNL     1       6.726 -56.463   4.311  1.00  0.00    -0.322 N 
ATOM     13  H42 UNL     1       6.647 -57.188   5.023  1.00  0.00     0.178 HD
ATOM     14  H41 UNL     1       5.942 -56.186   3.721  1.00  0.00     0.178 HD
ENDBRANCH   6  12
BRANCH   8  15
HETATM   15  C8  UNL     1       8.345 -55.904   0.533  1.00  0.00     0.138 A 
HETATM   16  S2  UNL     1       9.563 -56.815  -0.240  1.00  0.00    -0.032 SA
HETATM   17  C9  UNL     1       9.620 -55.964  -1.720  1.00  0.00     0.145 A 
HETATM   18  N7  UNL     1       8.696 -55.017  -1.548  1.00  0.00    -0.321 N 
HETATM   19  C10 UNL     1       8.045 -54.970  -0.425  1.00  0.00     0.144 A 
ATOM     20  H7  UNL     1       8.504 -54.341  -2.287  1.00  0.00     0.169 HD
BRANCH  17  21
HETATM   21  N6  UNL     1      10.373 -56.169  -2.782  1.00  0.00    -0.380 N 
ATOM     22  H62 UNL     1      11.211 -56.746  -2.848  1.00  0.00     0.158 HD
ATOM     23  H61 UNL     1      10.280 -55.802  -3.730  1.00  0.00     0.158 HD
ENDBRANCH  17  21
BRANCH  19  24
HETATM   24  N8  UNL     1       7.012 -53.982  -0.133  1.00  0.00    -0.313 N 
HETATM   25  C11 UNL     1       7.429 -52.878   0.378  1.00  0.00     0.210 C 
HETATM   26  N9  UNL     1       8.803 -52.651   0.634  1.00  0.00    -0.062 NA
HETATM   27  N10 UNL     1       6.507 -51.830   0.708  1.00  0.00    -0.254 N 
ATOM     28  H10 UNL     1       6.807 -50.857   0.771  1.00  0.00     0.191 HD
ATOM     29  H8  UNL     1       6.024 -54.155  -0.321  1.00  0.00     0.170 HD
BRANCH  27  30
HETATM   30  N11 UNL     1       5.183 -52.197   0.938  1.00  0.00    -0.208 N 
ATOM     31  H11 UNL     1       4.429 -51.730   0.435  1.00  0.00     0.215 HD
BRANCH  30  32
HETATM   32  O3  UNL     1       4.918 -53.101   1.763  1.00  0.00    -0.274 OA
ATOM     33  H3  UNL     1       4.103 -53.076   2.249  1.00  0.00     0.246 HD
ENDBRANCH  30  32
ENDBRANCH  27  30
ENDBRANCH  19  24
ENDBRANCH   8  15
BRANCH   5  34
HETATM   34  S1  UNL     1       7.944 -55.606   6.840  1.00  0.00    -0.089 SA
BRANCH  34  35
HETATM   35  C4  UNL     1       6.921 -54.188   7.335  1.00  0.00     0.126 C 
BRANCH  35  36
HETATM   36  C5  UNL     1       5.497 -54.494   6.867  1.00  0.00     0.293 C 
BRANCH  36  37
HETATM   37  N2  UNL     1       4.614 -54.500   8.031  1.00  0.00    -0.064 N 
ATOM     38  H23 UNL     1       4.429 -55.441   8.377  1.00  0.00     0.275 HD
ATOM     39  H22 UNL     1       5.066 -54.129   8.866  1.00  0.00     0.275 HD
ATOM     40  H21 UNL     1       3.760 -53.996   7.793  1.00  0.00     0.275 HD
ENDBRANCH  36  37
BRANCH  36  41
HETATM   41  C6  UNL     1       5.106 -53.438   5.919  1.00  0.00     0.205 C 
HETATM   42  O1  UNL     1       5.055 -52.244   6.282  1.00  0.00    -0.646 OA
HETATM   43  O2  UNL     1       4.788 -53.756   4.614  1.00  0.00    -0.646 OA
ENDBRANCH  36  41
ENDBRANCH  35  36
ENDBRANCH  34  35
ENDBRANCH   5  34
TORSDOF 11
ENDMDL
