MODEL 1
REMARK VINA RESULT: -7.219095515      0.000      0.000
REMARK  10 active torsions:
REMARK  status: ('A' for Active; 'I' for Inactive)
REMARK    1  A    between atoms: C2_2  and  C4_4 
REMARK    2  A    between atoms: C6_10  and  S1_11 
REMARK    3  A    between atoms: S1_11  and  C7_12 
REMARK    4  A    between atoms: C7_12  and  C8_13 
REMARK    5  A    between atoms: N6_21  and  N7_22 
REMARK    6  A    between atoms: N7_22  and  C10_24 
REMARK    7  A    between atoms: C10_24  and  N8_25 
REMARK    8  A    between atoms: C11_32  and  N12_33 
REMARK    9  A    between atoms: C12_36  and  N13_37 
REMARK   10  A    between atoms: N13_37  and  N14_39 
ROOT
HETATM    1  C4  UNL     1      11.203 -53.311   1.714  1.00  0.00     0.086 A 
HETATM    2  N1  UNL     1      12.518 -53.078   1.676  1.00  0.00    -0.330 N 
ATOM      3  H1  UNL     1      13.024 -52.716   0.868  1.00  0.00     0.168 HD
HETATM    4  C5  UNL     1      13.079 -53.393   2.867  1.00  0.00     0.140 A 
HETATM    5  N2  UNL     1      14.335 -53.346   3.341  1.00  0.00    -0.319 N 
ATOM      6  H2  UNL     1      15.073 -53.011   2.722  1.00  0.00     0.169 HD
HETATM    7  C6  UNL     1      14.668 -53.714   4.573  1.00  0.00     0.169 A 
HETATM    8  N6  UNL     1      13.711 -54.160   5.410  1.00  0.00    -0.216 N 
HETATM    9  C12 UNL     1      12.411 -54.236   5.002  1.00  0.00     0.174 A 
HETATM   10  C13 UNL     1      12.074 -53.844   3.694  1.00  0.00     0.126 A 
HETATM   11  N15 UNL     1      10.963 -53.783   2.974  1.00  0.00    -0.339 N 
ATOM     12  H15 UNL     1      10.042 -54.055   3.318  1.00  0.00     0.167 HD
ENDROOT
BRANCH   8  13
HETATM   13  N7  UNL     1      14.060 -54.543   6.696  1.00  0.00    -0.305 N 
ATOM     14  H7  UNL     1      14.437 -53.806   7.293  1.00  0.00     0.183 HD
BRANCH  13  15
HETATM   15  C10 UNL     1      13.959 -55.842   7.293  1.00  0.00     0.309 C 
BRANCH  15  16
HETATM   16  N8  UNL     1      15.258 -56.146   7.941  1.00  0.00    -0.088 N 
HETATM   17  N9  UNL     1      16.378 -56.540   7.372  1.00  0.00    -0.209 N 
HETATM   18  N10 UNL     1      17.323 -56.712   8.271  1.00  0.00    -0.213 N 
ATOM     19  H9  UNL     1      16.498 -56.691   6.370  1.00  0.00     0.210 HD
HETATM   20  N11 UNL     1      16.785 -56.421   9.425  1.00  0.00    -0.115 N 
ATOM     21  H10 UNL     1      18.283 -57.012   8.102  1.00  0.00     0.210 HD
HETATM   22  C11 UNL     1      15.507 -56.067   9.255  1.00  0.00     0.711 A 
ATOM     23  H11 UNL     1      17.269 -56.457  10.322  1.00  0.00     0.207 HD
BRANCH  22  24
HETATM   24  N12 UNL     1      14.671 -55.714  10.186  1.00  0.00    -0.232 N 
ATOM     25 2H12 UNL     1      14.160 -54.833  10.242  1.00  0.00     0.174 HD
ATOM     26 1H12 UNL     1      14.399 -56.262  11.002  1.00  0.00     0.174 HD
ENDBRANCH  22  24
ENDBRANCH  15  16
ENDBRANCH  13  15
ENDBRANCH   8  13
BRANCH   7  27
HETATM   27  S1  UNL     1      16.374 -53.631   5.157  1.00  0.00    -0.084 SA
BRANCH  27  28
HETATM   28  C7  UNL     1      17.265 -52.311   4.350  1.00  0.00     0.160 C 
BRANCH  28  29
HETATM   29  C8  UNL     1      18.083 -51.481   5.269  1.00  0.00     0.106 A 
HETATM   30  N3  UNL     1      19.255 -50.854   4.983  1.00  0.00    -0.339 N 
HETATM   31  C9  UNL     1      19.717 -50.193   6.046  1.00  0.00     0.198 A 
ATOM     32  H3  UNL     1      19.719 -50.886   4.075  1.00  0.00     0.168 HD
HETATM   33  N4  UNL     1      18.823 -50.401   7.034  1.00  0.00    -0.295 N 
HETATM   34  N5  UNL     1      17.851 -51.168   6.567  1.00  0.00    -0.287 N 
ATOM     35  H4  UNL     1      18.885 -50.029   7.981  1.00  0.00     0.187 HD
ATOM     36  H5  UNL     1      17.043 -51.479   7.107  1.00  0.00     0.188 HD
ENDBRANCH  28  29
ENDBRANCH  27  28
ENDBRANCH   7  27
BRANCH   9  37
HETATM   37  N13 UNL     1      11.488 -54.643   5.746  1.00  0.00    -0.289 N 
ATOM     38  H13 UNL     1      11.440 -55.661   5.774  1.00  0.00     0.188 HD
BRANCH  37  39
HETATM   39  N14 UNL     1      10.548 -54.072   6.515  1.00  0.00    -0.344 N 
ATOM     40 2H14 UNL     1       9.794 -54.731   6.710  1.00  0.00     0.176 HD
ATOM     41 1H14 UNL     1      10.408 -53.157   6.943  1.00  0.00     0.176 HD
ENDBRANCH  37  39
ENDBRANCH   9  37
BRANCH   1  42
HETATM   42  C2  UNL     1      10.188 -53.112   0.633  1.00  0.00     0.045 C 
HETATM   43  C1  UNL     1       8.835 -53.491   1.210  1.00  0.00     0.017 C 
HETATM   44  C3  UNL     1      10.525 -53.887  -0.595  1.00  0.00     0.017 C 
ENDBRANCH   1  42
TORSDOF 10
ENDMDL
MODEL 2
REMARK VINA RESULT: -7.130704365      1.637      1.790
REMARK  10 active torsions:
REMARK  status: ('A' for Active; 'I' for Inactive)
REMARK    1  A    between atoms: C2_2  and  C4_4 
REMARK    2  A    between atoms: C6_10  and  S1_11 
REMARK    3  A    between atoms: S1_11  and  C7_12 
REMARK    4  A    between atoms: C7_12  and  C8_13 
REMARK    5  A    between atoms: N6_21  and  N7_22 
REMARK    6  A    between atoms: N7_22  and  C10_24 
REMARK    7  A    between atoms: C10_24  and  N8_25 
REMARK    8  A    between atoms: C11_32  and  N12_33 
REMARK    9  A    between atoms: C12_36  and  N13_37 
REMARK   10  A    between atoms: N13_37  and  N14_39 
ROOT
HETATM    1  C4  UNL     1      11.259 -53.363   1.512  1.00  0.00     0.086 A 
HETATM    2  N1  UNL     1      12.556 -53.048   1.558  1.00  0.00    -0.330 N 
ATOM      3  H1  UNL     1      13.089 -52.651   0.784  1.00  0.00     0.168 HD
HETATM    4  C5  UNL     1      13.060 -53.333   2.782  1.00  0.00     0.140 A 
HETATM    5  N2  UNL     1      14.278 -53.210   3.335  1.00  0.00    -0.319 N 
ATOM      6  H2  UNL     1      15.031 -52.826   2.764  1.00  0.00     0.169 HD
HETATM    7  C6  UNL     1      14.555 -53.564   4.585  1.00  0.00     0.169 A 
HETATM    8  N6  UNL     1      13.578 -54.074   5.358  1.00  0.00    -0.216 N 
HETATM    9  C12 UNL     1      12.314 -54.230   4.868  1.00  0.00     0.174 A 
HETATM   10  C13 UNL     1      12.035 -53.852   3.543  1.00  0.00     0.126 A 
HETATM   11  N15 UNL     1      10.970 -53.857   2.754  1.00  0.00    -0.339 N 
ATOM     12  H15 UNL     1      10.049 -54.188   3.038  1.00  0.00     0.167 HD
ENDROOT
BRANCH   8  13
HETATM   13  N7  UNL     1      13.868 -54.442   6.663  1.00  0.00    -0.305 N 
ATOM     14  H7  UNL     1      14.194 -53.693   7.275  1.00  0.00     0.183 HD
BRANCH  13  15
HETATM   15  C10 UNL     1      13.769 -55.741   7.262  1.00  0.00     0.309 C 
BRANCH  15  16
HETATM   16  N8  UNL     1      15.078 -56.053   7.885  1.00  0.00    -0.088 N 
HETATM   17  N9  UNL     1      16.191 -56.432   7.292  1.00  0.00    -0.209 N 
HETATM   18  N10 UNL     1      17.150 -56.620   8.174  1.00  0.00    -0.213 N 
ATOM     19  H9  UNL     1      16.297 -56.563   6.286  1.00  0.00     0.210 HD
HETATM   20  N11 UNL     1      16.628 -56.353   9.341  1.00  0.00    -0.115 N 
ATOM     21  H10 UNL     1      18.108 -56.914   7.985  1.00  0.00     0.210 HD
HETATM   22  C11 UNL     1      15.346 -56.000   9.197  1.00  0.00     0.711 A 
ATOM     23  H11 UNL     1      17.124 -56.407  10.230  1.00  0.00     0.207 HD
BRANCH  22  24
HETATM   24  N12 UNL     1      14.523 -55.668  10.147  1.00  0.00    -0.232 N 
ATOM     25 2H12 UNL     1      13.666 -56.156  10.406  1.00  0.00     0.174 HD
ATOM     26 1H12 UNL     1      14.608 -54.872  10.778  1.00  0.00     0.174 HD
ENDBRANCH  22  24
ENDBRANCH  15  16
ENDBRANCH  13  15
ENDBRANCH   8  13
BRANCH   7  27
HETATM   27  S1  UNL     1      16.213 -53.376   5.276  1.00  0.00    -0.084 SA
BRANCH  27  28
HETATM   28  C7  UNL     1      17.453 -53.429   3.992  1.00  0.00     0.160 C 
BRANCH  28  29
HETATM   29  C8  UNL     1      18.714 -54.098   4.396  1.00  0.00     0.106 A 
HETATM   30  N3  UNL     1      19.864 -54.180   3.675  1.00  0.00    -0.339 N 
HETATM   31  C9  UNL     1      20.802 -54.855   4.343  1.00  0.00     0.198 A 
ATOM     32  H3  UNL     1      19.993 -53.778   2.746  1.00  0.00     0.168 HD
HETATM   33  N4  UNL     1      20.240 -55.213   5.516  1.00  0.00    -0.295 N 
HETATM   34  N5  UNL     1      18.997 -54.761   5.544  1.00  0.00    -0.287 N 
ATOM     35  H4  UNL     1      20.697 -55.744   6.257  1.00  0.00     0.187 HD
ATOM     36  H5  UNL     1      18.346 -54.892   6.318  1.00  0.00     0.188 HD
ENDBRANCH  28  29
ENDBRANCH  27  28
ENDBRANCH   7  27
BRANCH   9  37
HETATM   37  N13 UNL     1      11.373 -54.698   5.552  1.00  0.00    -0.289 N 
ATOM     38  H13 UNL     1      11.384 -55.717   5.571  1.00  0.00     0.188 HD
BRANCH  37  39
HETATM   39  N14 UNL     1      10.355 -54.192   6.265  1.00  0.00    -0.344 N 
ATOM     40 2H14 UNL     1       9.481 -54.664   6.029  1.00  0.00     0.176 HD
ATOM     41 1H14 UNL     1      10.245 -53.465   6.971  1.00  0.00     0.176 HD
ENDBRANCH  37  39
ENDBRANCH   9  37
BRANCH   1  42
HETATM   42  C2  UNL     1      10.304 -53.223   0.370  1.00  0.00     0.045 C 
HETATM   43  C1  UNL     1       8.944 -52.889   0.957  1.00  0.00     0.017 C 
HETATM   44  C3  UNL     1      10.274 -54.445  -0.484  1.00  0.00     0.017 C 
ENDBRANCH   1  42
TORSDOF 10
ENDMDL
MODEL 3
REMARK VINA RESULT: -7.030264284      2.685      6.067
REMARK  10 active torsions:
REMARK  status: ('A' for Active; 'I' for Inactive)
REMARK    1  A    between atoms: C2_2  and  C4_4 
REMARK    2  A    between atoms: C6_10  and  S1_11 
REMARK    3  A    between atoms: S1_11  and  C7_12 
REMARK    4  A    between atoms: C7_12  and  C8_13 
REMARK    5  A    between atoms: N6_21  and  N7_22 
REMARK    6  A    between atoms: N7_22  and  C10_24 
REMARK    7  A    between atoms: C10_24  and  N8_25 
REMARK    8  A    between atoms: C11_32  and  N12_33 
REMARK    9  A    between atoms: C12_36  and  N13_37 
REMARK   10  A    between atoms: N13_37  and  N14_39 
ROOT
HETATM    1  C4  UNL     1      16.248 -52.223   1.701  1.00  0.00     0.086 A 
HETATM    2  N1  UNL     1      14.959 -52.518   1.888  1.00  0.00    -0.330 N 
ATOM      3  H1  UNL     1      14.216 -52.345   1.211  1.00  0.00     0.168 HD
HETATM    4  C5  UNL     1      14.783 -53.080   3.107  1.00  0.00     0.140 A 
HETATM    5  N2  UNL     1      13.710 -53.546   3.768  1.00  0.00    -0.319 N 
ATOM      6  H2  UNL     1      12.801 -53.495   3.308  1.00  0.00     0.169 HD
HETATM    7  C6  UNL     1      13.770 -54.068   4.987  1.00  0.00     0.169 A 
HETATM    8  N6  UNL     1      14.959 -54.146   5.615  1.00  0.00    -0.216 N 
HETATM    9  C12 UNL     1      16.095 -53.693   5.009  1.00  0.00     0.174 A 
HETATM   10  C13 UNL     1      16.017 -53.142   3.718  1.00  0.00     0.126 A 
HETATM   11  N15 UNL     1      16.873 -52.622   2.850  1.00  0.00    -0.339 N 
ATOM     12  H15 UNL     1      17.874 -52.529   3.019  1.00  0.00     0.167 HD
ENDROOT
BRANCH   8  13
HETATM   13  N7  UNL     1      15.019 -54.692   6.888  1.00  0.00    -0.305 N 
ATOM     14  H7  UNL     1      15.117 -54.025   7.654  1.00  0.00     0.183 HD
BRANCH  13  15
HETATM   15  C10 UNL     1      14.962 -56.074   7.263  1.00  0.00     0.309 C 
BRANCH  15  16
HETATM   16  N8  UNL     1      16.067 -56.331   8.217  1.00  0.00    -0.088 N 
HETATM   17  N9  UNL     1      17.285 -56.759   7.954  1.00  0.00    -0.209 N 
HETATM   18  N10 UNL     1      17.990 -56.869   9.061  1.00  0.00    -0.213 N 
ATOM     19  H9  UNL     1      17.634 -56.975   7.021  1.00  0.00     0.210 HD
HETATM   20  N11 UNL     1      17.200 -56.504  10.033  1.00  0.00    -0.115 N 
ATOM     21  H10 UNL     1      18.958 -57.178   9.142  1.00  0.00     0.210 HD
HETATM   22  C11 UNL     1      16.002 -56.165   9.546  1.00  0.00     0.711 A 
ATOM     23  H11 UNL     1      17.458 -56.481  11.020  1.00  0.00     0.207 HD
BRANCH  22  24
HETATM   24  N12 UNL     1      14.975 -55.754  10.229  1.00  0.00    -0.232 N 
ATOM     25 2H12 UNL     1      14.195 -55.199   9.879  1.00  0.00     0.174 HD
ATOM     26 1H12 UNL     1      14.793 -55.923  11.218  1.00  0.00     0.174 HD
ENDBRANCH  22  24
ENDBRANCH  15  16
ENDBRANCH  13  15
ENDBRANCH   8  13
BRANCH   7  27
HETATM   27  S1  UNL     1      12.293 -54.678   5.828  1.00  0.00    -0.084 SA
BRANCH  27  28
HETATM   28  C7  UNL     1      10.880 -54.662   4.737  1.00  0.00     0.160 C 
BRANCH  28  29
HETATM   29  C8  UNL     1       9.576 -54.805   5.431  1.00  0.00     0.106 A 
HETATM   30  N3  UNL     1       9.257 -54.355   6.674  1.00  0.00    -0.339 N 
HETATM   31  C9  UNL     1       7.994 -54.657   6.983  1.00  0.00     0.198 A 
ATOM     32  H3  UNL     1       9.898 -53.853   7.288  1.00  0.00     0.168 HD
HETATM   33  N4  UNL     1       7.495 -55.314   5.916  1.00  0.00    -0.295 N 
HETATM   34  N5  UNL     1       8.440 -55.400   4.994  1.00  0.00    -0.287 N 
ATOM     35  H4  UNL     1       6.548 -55.683   5.834  1.00  0.00     0.187 HD
ATOM     36  H5  UNL     1       8.329 -55.850   4.086  1.00  0.00     0.188 HD
ENDBRANCH  28  29
ENDBRANCH  27  28
ENDBRANCH   7  27
BRANCH   9  37
HETATM   37  N13 UNL     1      17.223 -53.748   5.553  1.00  0.00    -0.289 N 
ATOM     38  H13 UNL     1      17.368 -52.981   6.209  1.00  0.00     0.188 HD
BRANCH  37  39
HETATM   39  N14 UNL     1      18.287 -54.564   5.488  1.00  0.00    -0.344 N 
ATOM     40 2H14 UNL     1      18.639 -54.620   4.532  1.00  0.00     0.176 HD
ATOM     41 1H14 UNL     1      18.817 -55.129   6.150  1.00  0.00     0.176 HD
ENDBRANCH  37  39
ENDBRANCH   9  37
BRANCH   1  42
HETATM   42  C2  UNL     1      16.899 -51.593   0.511  1.00  0.00     0.045 C 
HETATM   43  C1  UNL     1      16.336 -52.275  -0.723  1.00  0.00     0.017 C 
HETATM   44  C3  UNL     1      18.386 -51.673   0.582  1.00  0.00     0.017 C 
ENDBRANCH   1  42
TORSDOF 10
ENDMDL
MODEL 4
REMARK VINA RESULT: -6.980137009      2.810      5.905
REMARK  10 active torsions:
REMARK  status: ('A' for Active; 'I' for Inactive)
REMARK    1  A    between atoms: C2_2  and  C4_4 
REMARK    2  A    between atoms: C6_10  and  S1_11 
REMARK    3  A    between atoms: S1_11  and  C7_12 
REMARK    4  A    between atoms: C7_12  and  C8_13 
REMARK    5  A    between atoms: N6_21  and  N7_22 
REMARK    6  A    between atoms: N7_22  and  C10_24 
REMARK    7  A    between atoms: C10_24  and  N8_25 
REMARK    8  A    between atoms: C11_32  and  N12_33 
REMARK    9  A    between atoms: C12_36  and  N13_37 
REMARK   10  A    between atoms: N13_37  and  N14_39 
ROOT
HETATM    1  C4  UNL     1      11.616 -53.182   1.317  1.00  0.00     0.086 A 
HETATM    2  N1  UNL     1      10.751 -53.735   2.171  1.00  0.00    -0.330 N 
ATOM      3  H1  UNL     1       9.772 -53.936   1.964  1.00  0.00     0.168 HD
HETATM    4  C5  UNL     1      11.362 -53.989   3.352  1.00  0.00     0.140 A 
HETATM    5  N2  UNL     1      10.951 -54.524   4.513  1.00  0.00    -0.319 N 
ATOM      6  H2  UNL     1       9.979 -54.826   4.588  1.00  0.00     0.169 HD
HETATM    7  C6  UNL     1      11.741 -54.682   5.569  1.00  0.00     0.169 A 
HETATM    8  N6  UNL     1      13.029 -54.291   5.494  1.00  0.00    -0.216 N 
HETATM    9  C12 UNL     1      13.521 -53.739   4.347  1.00  0.00     0.174 A 
HETATM   10  C13 UNL     1      12.673 -53.578   3.238  1.00  0.00     0.126 A 
HETATM   11  N15 UNL     1      12.792 -53.099   2.008  1.00  0.00    -0.339 N 
ATOM     12  H15 UNL     1      13.656 -52.717   1.624  1.00  0.00     0.167 HD
ENDROOT
BRANCH   8  13
HETATM   13  N7  UNL     1      13.852 -54.457   6.596  1.00  0.00    -0.305 N 
ATOM     14  H7  UNL     1      13.721 -53.788   7.355  1.00  0.00     0.183 HD
BRANCH  13  15
HETATM   15  C10 UNL     1      14.865 -55.450   6.805  1.00  0.00     0.309 C 
BRANCH  15  16
HETATM   16  N8  UNL     1      14.986 -55.672   8.266  1.00  0.00    -0.088 N 
HETATM   17  N9  UNL     1      14.123 -55.361   9.211  1.00  0.00    -0.209 N 
HETATM   18  N10 UNL     1      14.579 -55.713  10.395  1.00  0.00    -0.213 N 
ATOM     19  H9  UNL     1      13.223 -54.910   9.048  1.00  0.00     0.210 HD
HETATM   20  N11 UNL     1      15.749 -56.253  10.188  1.00  0.00    -0.115 N 
ATOM     21  H10 UNL     1      14.113 -55.588  11.293  1.00  0.00     0.210 HD
HETATM   22  C11 UNL     1      16.032 -56.243   8.881  1.00  0.00     0.711 A 
ATOM     23  H11 UNL     1      16.358 -56.628  10.916  1.00  0.00     0.207 HD
BRANCH  22  24
HETATM   24  N12 UNL     1      17.111 -56.701   8.318  1.00  0.00    -0.232 N 
ATOM     25 2H12 UNL     1      17.929 -56.158   8.041  1.00  0.00     0.174 HD
ATOM     26 1H12 UNL     1      17.305 -57.671   8.069  1.00  0.00     0.174 HD
ENDBRANCH  22  24
ENDBRANCH  15  16
ENDBRANCH  13  15
ENDBRANCH   8  13
BRANCH   7  27
HETATM   27  S1  UNL     1      11.133 -55.407   7.106  1.00  0.00    -0.084 SA
BRANCH  27  28
HETATM   28  C7  UNL     1       9.629 -56.328   6.830  1.00  0.00     0.160 C 
BRANCH  28  29
HETATM   29  C8  UNL     1       8.390 -55.570   7.133  1.00  0.00     0.106 A 
HETATM   30  N3  UNL     1       7.328 -55.997   7.867  1.00  0.00    -0.339 N 
HETATM   31  C9  UNL     1       6.385 -55.055   7.939  1.00  0.00     0.198 A 
ATOM     32  H3  UNL     1       7.260 -56.916   8.304  1.00  0.00     0.168 HD
HETATM   33  N4  UNL     1       6.853 -54.003   7.236  1.00  0.00    -0.295 N 
HETATM   34  N5  UNL     1       8.047 -54.314   6.758  1.00  0.00    -0.287 N 
ATOM     35  H4  UNL     1       6.368 -53.117   7.097  1.00  0.00     0.187 HD
ATOM     36  H5  UNL     1       8.626 -53.696   6.190  1.00  0.00     0.188 HD
ENDBRANCH  28  29
ENDBRANCH  27  28
ENDBRANCH   7  27
BRANCH   9  37
HETATM   37  N13 UNL     1      14.712 -53.364   4.231  1.00  0.00    -0.289 N 
ATOM     38  H13 UNL     1      15.005 -52.775   5.010  1.00  0.00     0.188 HD
BRANCH  37  39
HETATM   39  N14 UNL     1      15.696 -53.544   3.337  1.00  0.00    -0.344 N 
ATOM     40 2H14 UNL     1      15.960 -54.528   3.286  1.00  0.00     0.176 HD
ATOM     41 1H14 UNL     1      16.234 -52.946   2.710  1.00  0.00     0.176 HD
ENDBRANCH  37  39
ENDBRANCH   9  37
BRANCH   1  42
HETATM   42  C2  UNL     1      11.382 -52.736  -0.092  1.00  0.00     0.045 C 
HETATM   43  C1  UNL     1       9.890 -52.843  -0.355  1.00  0.00     0.017 C 
HETATM   44  C3  UNL     1      12.192 -53.522  -1.066  1.00  0.00     0.017 C 
ENDBRANCH   1  42
TORSDOF 10
ENDMDL
MODEL 5
REMARK VINA RESULT: -6.941856789      4.230      8.616
REMARK  10 active torsions:
REMARK  status: ('A' for Active; 'I' for Inactive)
REMARK    1  A    between atoms: C2_2  and  C4_4 
REMARK    2  A    between atoms: C6_10  and  S1_11 
REMARK    3  A    between atoms: S1_11  and  C7_12 
REMARK    4  A    between atoms: C7_12  and  C8_13 
REMARK    5  A    between atoms: N6_21  and  N7_22 
REMARK    6  A    between atoms: N7_22  and  C10_24 
REMARK    7  A    between atoms: C10_24  and  N8_25 
REMARK    8  A    between atoms: C11_32  and  N12_33 
REMARK    9  A    between atoms: C12_36  and  N13_37 
REMARK   10  A    between atoms: N13_37  and  N14_39 
ROOT
HETATM    1  C4  UNL     1      12.901 -54.275   5.269  1.00  0.00     0.086 A 
HETATM    2  N1  UNL     1      12.238 -53.898   4.172  1.00  0.00    -0.330 N 
ATOM      3  H1  UNL     1      12.607 -53.278   3.451  1.00  0.00     0.168 HD
HETATM    4  C5  UNL     1      11.007 -54.460   4.158  1.00  0.00     0.140 A 
HETATM    5  N2  UNL     1       9.972 -54.405   3.303  1.00  0.00    -0.319 N 
ATOM      6  H2  UNL     1      10.070 -53.835   2.462  1.00  0.00     0.169 HD
HETATM    7  C6  UNL     1       8.829 -55.053   3.493  1.00  0.00     0.169 A 
HETATM    8  N6  UNL     1       8.675 -55.812   4.596  1.00  0.00    -0.216 N 
HETATM    9  C12 UNL     1       9.681 -55.918   5.511  1.00  0.00     0.174 A 
HETATM   10  C13 UNL     1      10.887 -55.226   5.297  1.00  0.00     0.126 A 
HETATM   11  N15 UNL     1      12.037 -55.095   5.940  1.00  0.00    -0.339 N 
ATOM     12  H15 UNL     1      12.252 -55.548   6.828  1.00  0.00     0.167 HD
ENDROOT
BRANCH   8  13
HETATM   13  N7  UNL     1       7.481 -56.488   4.792  1.00  0.00    -0.305 N 
ATOM     14  H7  UNL     1       7.249 -57.195   4.094  1.00  0.00     0.183 HD
BRANCH  13  15
HETATM   15  C10 UNL     1       6.531 -56.319   5.852  1.00  0.00     0.309 C 
BRANCH  15  16
HETATM   16  N8  UNL     1       6.027 -54.926   5.791  1.00  0.00    -0.088 N 
HETATM   17  N9  UNL     1       5.183 -54.403   4.924  1.00  0.00    -0.209 N 
HETATM   18  N10 UNL     1       4.972 -53.131   5.187  1.00  0.00    -0.213 N 
ATOM     19  H9  UNL     1       4.752 -54.915   4.155  1.00  0.00     0.210 HD
HETATM   20  N11 UNL     1       5.696 -52.851   6.236  1.00  0.00    -0.115 N 
ATOM     21  H10 UNL     1       4.365 -52.492   4.674  1.00  0.00     0.210 HD
HETATM   22  C11 UNL     1       6.362 -53.940   6.635  1.00  0.00     0.711 A 
ATOM     23  H11 UNL     1       5.747 -51.936   6.686  1.00  0.00     0.207 HD
BRANCH  22  24
HETATM   24  N12 UNL     1       7.175 -54.024   7.646  1.00  0.00    -0.232 N 
ATOM     25 2H12 UNL     1       7.096 -54.661   8.438  1.00  0.00     0.174 HD
ATOM     26 1H12 UNL     1       8.015 -53.467   7.801  1.00  0.00     0.174 HD
ENDBRANCH  22  24
ENDBRANCH  15  16
ENDBRANCH  13  15
ENDBRANCH   8  13
BRANCH   7  27
HETATM   27  S1  UNL     1       7.470 -54.942   2.309  1.00  0.00    -0.084 SA
BRANCH  27  28
HETATM   28  C7  UNL     1       8.007 -54.182   0.786  1.00  0.00     0.160 C 
BRANCH  28  29
HETATM   29  C8  UNL     1       7.572 -52.772   0.625  1.00  0.00     0.106 A 
HETATM   30  N3  UNL     1       8.362 -51.695   0.371  1.00  0.00    -0.339 N 
HETATM   31  C9  UNL     1       7.637 -50.578   0.287  1.00  0.00     0.198 A 
ATOM     32  H3  UNL     1       9.375 -51.736   0.261  1.00  0.00     0.168 HD
HETATM   33  N4  UNL     1       6.356 -50.947   0.491  1.00  0.00    -0.295 N 
HETATM   34  N5  UNL     1       6.321 -52.254   0.692  1.00  0.00    -0.287 N 
ATOM     35  H4  UNL     1       5.549 -50.323   0.491  1.00  0.00     0.187 HD
ATOM     36  H5  UNL     1       5.474 -52.795   0.871  1.00  0.00     0.188 HD
ENDBRANCH  28  29
ENDBRANCH  27  28
ENDBRANCH   7  27
BRANCH   9  37
HETATM   37  N13 UNL     1       9.584 -56.614   6.549  1.00  0.00    -0.289 N 
ATOM     38  H13 UNL     1       9.464 -57.603   6.337  1.00  0.00     0.188 HD
BRANCH  37  39
HETATM   39  N14 UNL     1       9.599 -56.380   7.871  1.00  0.00    -0.344 N 
ATOM     40 2H14 UNL     1       8.674 -56.096   8.196  1.00  0.00     0.176 HD
ATOM     41 1H14 UNL     1      10.297 -56.418   8.614  1.00  0.00     0.176 HD
ENDBRANCH  37  39
ENDBRANCH   9  37
BRANCH   1  42
HETATM   42  C2  UNL     1      14.284 -53.901   5.699  1.00  0.00     0.045 C 
HETATM   43  C1  UNL     1      15.077 -53.587   4.442  1.00  0.00     0.017 C 
HETATM   44  C3  UNL     1      14.918 -54.968   6.524  1.00  0.00     0.017 C 
ENDBRANCH   1  42
TORSDOF 10
ENDMDL
