MODEL 1
REMARK VINA RESULT: -4.644087977      0.000      0.000
REMARK  3 active torsions:
REMARK  status: ('A' for Active; 'I' for Inactive)
REMARK    1  A    between atoms: C4_4  and  N1_5 
REMARK    2  A    between atoms: N1_5  and  N2_7 
REMARK    3  A    between atoms: N2_7  and  C5_9 
ROOT
HETATM    1  N1  UNL     1     -21.764   9.819  -5.894  1.00  0.00    -0.307 N 
ATOM      2  H1  UNL     1     -21.918   9.627  -6.884  1.00  0.00     0.186 HD
ENDROOT
BRANCH   1   3
HETATM    3  C4  UNL     1     -22.202  10.926  -5.397  1.00  0.00     0.004 C 
HETATM    4  C3  UNL     1     -21.540  12.244  -5.592  1.00  0.00     0.054 C 
HETATM    5  C2  UNL     1     -22.078  13.027  -4.412  1.00  0.00     0.006 C 
HETATM    6  C1  UNL     1     -23.559  12.629  -4.459  1.00  0.00     0.006 C 
HETATM    7  C6  UNL     1     -23.414  11.106  -4.558  1.00  0.00     0.054 C 
ENDBRANCH   1   3
BRANCH   1   8
HETATM    8  N2  UNL     1     -21.089   8.878  -5.123  1.00  0.00    -0.277 N 
ATOM      9  H2  UNL     1     -21.597   8.103  -4.697  1.00  0.00     0.189 HD
BRANCH   8  10
HETATM   10  C5  UNL     1     -19.769   8.997  -4.944  1.00  0.00     0.209 A 
HETATM   11  N3  UNL     1     -18.786   8.216  -5.319  1.00  0.00    -0.228 N 
HETATM   12  O1  UNL     1     -17.775   8.815  -4.884  1.00  0.00    -0.194 OA
ATOM     13  H3  UNL     1     -18.833   7.338  -5.836  1.00  0.00     0.198 HD
HETATM   14  S1  UNL     1     -18.649  10.005  -4.260  1.00  0.00     0.100 SA
ENDBRANCH   8  10
ENDBRANCH   1   8
TORSDOF 3
ENDMDL
MODEL 2
REMARK VINA RESULT: -4.642915592      3.346      4.088
REMARK  3 active torsions:
REMARK  status: ('A' for Active; 'I' for Inactive)
REMARK    1  A    between atoms: C4_4  and  N1_5 
REMARK    2  A    between atoms: N1_5  and  N2_7 
REMARK    3  A    between atoms: N2_7  and  C5_9 
ROOT
HETATM    1  N1  UNL     1     -20.733   7.348  -5.103  1.00  0.00    -0.307 N 
ATOM      2  H1  UNL     1     -20.917   6.665  -4.368  1.00  0.00     0.186 HD
ENDROOT
BRANCH   1   3
HETATM    3  C4  UNL     1     -20.258   8.502  -4.779  1.00  0.00     0.004 C 
HETATM    4  C3  UNL     1     -21.094   9.650  -4.335  1.00  0.00     0.054 C 
HETATM    5  C2  UNL     1     -20.179  10.820  -4.634  1.00  0.00     0.006 C 
HETATM    6  C1  UNL     1     -18.845  10.281  -4.100  1.00  0.00     0.006 C 
HETATM    7  C6  UNL     1     -18.829   8.909  -4.783  1.00  0.00     0.054 C 
ENDBRANCH   1   3
BRANCH   1   8
HETATM    8  N2  UNL     1     -21.003   7.003  -6.424  1.00  0.00    -0.277 N 
ATOM      9  H2  UNL     1     -21.784   7.434  -6.918  1.00  0.00     0.189 HD
BRANCH   8  10
HETATM   10  C5  UNL     1     -20.231   6.103  -7.042  1.00  0.00     0.209 A 
HETATM   11  N3  UNL     1     -18.999   6.195  -7.478  1.00  0.00    -0.228 N 
HETATM   12  O1  UNL     1     -18.792   5.058  -7.965  1.00  0.00    -0.194 OA
ATOM     13  H3  UNL     1     -18.366   6.993  -7.433  1.00  0.00     0.198 HD
HETATM   14  S1  UNL     1     -20.263   4.542  -7.590  1.00  0.00     0.100 SA
ENDBRANCH   8  10
ENDBRANCH   1   8
TORSDOF 3
ENDMDL
MODEL 3
REMARK VINA RESULT: -4.638155378      0.158      1.226
REMARK  3 active torsions:
REMARK  status: ('A' for Active; 'I' for Inactive)
REMARK    1  A    between atoms: C4_4  and  N1_5 
REMARK    2  A    between atoms: N1_5  and  N2_7 
REMARK    3  A    between atoms: N2_7  and  C5_9 
ROOT
HETATM    1  N1  UNL     1     -21.730   9.812  -5.869  1.00  0.00    -0.307 N 
ATOM      2  H1  UNL     1     -21.889   9.654  -6.864  1.00  0.00     0.186 HD
ENDROOT
BRANCH   1   3
HETATM    3  C4  UNL     1     -22.165  10.902  -5.332  1.00  0.00     0.004 C 
HETATM    4  C3  UNL     1     -23.453  11.008  -4.595  1.00  0.00     0.054 C 
HETATM    5  C2  UNL     1     -23.732  12.494  -4.690  1.00  0.00     0.006 C 
HETATM    6  C1  UNL     1     -22.342  13.064  -4.375  1.00  0.00     0.006 C 
HETATM    7  C6  UNL     1     -21.495  12.227  -5.340  1.00  0.00     0.054 C 
ENDBRANCH   1   3
BRANCH   1   8
HETATM    8  N2  UNL     1     -21.051   8.846  -5.134  1.00  0.00    -0.277 N 
ATOM      9  H2  UNL     1     -21.553   8.046  -4.749  1.00  0.00     0.189 HD
BRANCH   8  10
HETATM   10  C5  UNL     1     -19.735   8.973  -4.934  1.00  0.00     0.209 A 
HETATM   11  N3  UNL     1     -18.738   8.219  -5.327  1.00  0.00    -0.228 N 
HETATM   12  O1  UNL     1     -17.739   8.813  -4.857  1.00  0.00    -0.194 OA
ATOM     13  H3  UNL     1     -18.768   7.361  -5.879  1.00  0.00     0.198 HD
HETATM   14  S1  UNL     1     -18.636   9.967  -4.198  1.00  0.00     0.100 SA
ENDBRANCH   8  10
ENDBRANCH   1   8
TORSDOF 3
ENDMDL
MODEL 4
REMARK VINA RESULT: -4.603667374      3.321      3.955
REMARK  3 active torsions:
REMARK  status: ('A' for Active; 'I' for Inactive)
REMARK    1  A    between atoms: C4_4  and  N1_5 
REMARK    2  A    between atoms: N1_5  and  N2_7 
REMARK    3  A    between atoms: N2_7  and  C5_9 
ROOT
HETATM    1  N1  UNL     1     -20.689   7.364  -5.089  1.00  0.00    -0.307 N 
ATOM      2  H1  UNL     1     -20.768   6.701  -4.317  1.00  0.00     0.186 HD
ENDROOT
BRANCH   1   3
HETATM    3  C4  UNL     1     -20.268   8.558  -4.844  1.00  0.00     0.004 C 
HETATM    4  C3  UNL     1     -18.830   8.936  -4.783  1.00  0.00     0.054 C 
HETATM    5  C2  UNL     1     -18.887  10.200  -3.950  1.00  0.00     0.006 C 
HETATM    6  C1  UNL     1     -20.087  10.909  -4.592  1.00  0.00     0.006 C 
HETATM    7  C6  UNL     1     -21.101   9.760  -4.583  1.00  0.00     0.054 C 
ENDBRANCH   1   3
BRANCH   1   8
HETATM    8  N2  UNL     1     -21.038   6.950  -6.370  1.00  0.00    -0.277 N 
ATOM      9  H2  UNL     1     -21.890   7.301  -6.809  1.00  0.00     0.189 HD
BRANCH   8  10
HETATM   10  C5  UNL     1     -20.251   6.089  -7.024  1.00  0.00     0.209 A 
HETATM   11  N3  UNL     1     -19.020   6.219  -7.451  1.00  0.00    -0.228 N 
HETATM   12  O1  UNL     1     -18.794   5.107  -7.986  1.00  0.00    -0.194 OA
ATOM     13  H3  UNL     1     -18.399   7.024  -7.370  1.00  0.00     0.198 HD
HETATM   14  S1  UNL     1     -20.258   4.553  -7.639  1.00  0.00     0.100 SA
ENDBRANCH   8  10
ENDBRANCH   1   8
TORSDOF 3
ENDMDL
MODEL 5
REMARK VINA RESULT: -4.508019876      1.018      1.357
REMARK  3 active torsions:
REMARK  status: ('A' for Active; 'I' for Inactive)
REMARK    1  A    between atoms: C4_4  and  N1_5 
REMARK    2  A    between atoms: N1_5  and  N2_7 
REMARK    3  A    between atoms: N2_7  and  C5_9 
ROOT
HETATM    1  N1  UNL     1     -21.478   8.531  -5.902  1.00  0.00    -0.307 N 
ATOM      2  H1  UNL     1     -21.555   8.228  -6.872  1.00  0.00     0.186 HD
ENDROOT
BRANCH   1   3
HETATM    3  C4  UNL     1     -22.298   9.425  -5.460  1.00  0.00     0.004 C 
HETATM    4  C3  UNL     1     -22.076  10.890  -5.589  1.00  0.00     0.054 C 
HETATM    5  C2  UNL     1     -22.957  11.425  -4.478  1.00  0.00     0.006 C 
HETATM    6  C1  UNL     1     -24.219  10.576  -4.682  1.00  0.00     0.006 C 
HETATM    7  C6  UNL     1     -23.583   9.183  -4.757  1.00  0.00     0.054 C 
ENDBRANCH   1   3
BRANCH   1   8
HETATM    8  N2  UNL     1     -20.494   7.967  -5.095  1.00  0.00    -0.277 N 
ATOM      9  H2  UNL     1     -20.678   7.100  -4.592  1.00  0.00     0.189 HD
BRANCH   8  10
HETATM   10  C5  UNL     1     -19.306   8.571  -4.984  1.00  0.00     0.209 A 
HETATM   11  N3  UNL     1     -18.131   8.225  -5.447  1.00  0.00    -0.228 N 
HETATM   12  O1  UNL     1     -17.391   9.153  -5.043  1.00  0.00    -0.194 OA
ATOM     13  H3  UNL     1     -17.880   7.405  -5.999  1.00  0.00     0.198 HD
HETATM   14  S1  UNL     1     -18.602   9.913  -4.320  1.00  0.00     0.100 SA
ENDBRANCH   8  10
ENDBRANCH   1   8
TORSDOF 3
ENDMDL
