MODEL 1
REMARK VINA RESULT: -7.381624658      0.000      0.000
REMARK  3 active torsions:
REMARK  status: ('A' for Active; 'I' for Inactive)
REMARK    1  A    between atoms: C3_3  and  C4_4 
REMARK    2  A    between atoms: C9_12  and  C10_13 
REMARK    3  A    between atoms: C10_13  and  O4_15 
ROOT
HETATM    1  C1  UNL     1      52.068  43.393  66.529  1.00  0.00     0.015 C 
HETATM    2  C2  UNL     1      52.539  42.183  66.791  1.00  0.00    -0.068 C 
HETATM    3  C3  UNL     1      51.875  40.945  67.290  1.00  0.00     0.130 C 
HETATM    4  C5  UNL     1      53.149  40.176  67.102  1.00  0.00     0.075 C 
HETATM    5  S1  UNL     1      53.166  39.223  65.541  1.00  0.00    -0.152 SA
HETATM    6  C6  UNL     1      53.865  40.566  64.499  1.00  0.00     0.014 C 
HETATM    7  C7  UNL     1      52.704  41.306  63.857  1.00  0.00     0.027 C 
HETATM    8  C8  UNL     1      54.698  39.953  63.415  1.00  0.00     0.027 C 
HETATM    9  C9  UNL     1      54.587  41.357  65.503  1.00  0.00     0.112 C 
HETATM   10  C12 UNL     1      53.798  41.476  66.757  1.00  0.00     0.045 C 
ENDROOT
BRANCH   9  11
HETATM   11  C10 UNL     1      55.877  40.743  65.862  1.00  0.00     0.264 C 
HETATM   12  O3  UNL     1      56.338  40.879  67.001  1.00  0.00    -0.265 OA
BRANCH  11  13
HETATM   13  O4  UNL     1      56.574  40.012  64.917  1.00  0.00    -0.326 OA
HETATM   14  C11 UNL     1      57.988  39.985  64.832  1.00  0.00     0.213 C 
ENDBRANCH  11  13
ENDBRANCH   9  11
BRANCH   3  15
HETATM   15  C4  UNL     1      51.397  41.034  68.693  1.00  0.00     0.182 C 
HETATM   16  O1  UNL     1      52.083  40.606  69.675  1.00  0.00    -0.647 OA
HETATM   17  O2  UNL     1      50.171  41.591  68.991  1.00  0.00    -0.647 OA
ENDBRANCH   3  15
TORSDOF 3
ENDMDL
MODEL 2
REMARK VINA RESULT: -7.195216126      2.539      5.130
REMARK  3 active torsions:
REMARK  status: ('A' for Active; 'I' for Inactive)
REMARK    1  A    between atoms: C3_3  and  C4_4 
REMARK    2  A    between atoms: C9_12  and  C10_13 
REMARK    3  A    between atoms: C10_13  and  O4_15 
ROOT
HETATM    1  C1  UNL     1      56.264  40.941  66.243  1.00  0.00     0.015 C 
HETATM    2  C2  UNL     1      55.177  40.685  65.530  1.00  0.00    -0.068 C 
HETATM    3  C3  UNL     1      54.585  39.406  65.043  1.00  0.00     0.130 C 
HETATM    4  C5  UNL     1      53.389  40.147  64.526  1.00  0.00     0.075 C 
HETATM    5  S1  UNL     1      51.966  40.064  65.673  1.00  0.00    -0.152 SA
HETATM    6  C6  UNL     1      52.417  41.551  66.654  1.00  0.00     0.014 C 
HETATM    7  C7  UNL     1      53.220  41.085  67.857  1.00  0.00     0.027 C 
HETATM    8  C8  UNL     1      51.162  42.207  67.143  1.00  0.00     0.027 C 
HETATM    9  C9  UNL     1      53.206  42.308  65.675  1.00  0.00     0.112 C 
HETATM   10  C12 UNL     1      54.098  41.408  64.898  1.00  0.00     0.045 C 
ENDROOT
BRANCH   9  11
HETATM   11  C10 UNL     1      52.348  43.009  64.704  1.00  0.00     0.264 C 
HETATM   12  O3  UNL     1      51.989  42.442  63.665  1.00  0.00    -0.265 OA
BRANCH  11  13
HETATM   13  O4  UNL     1      51.947  44.308  64.958  1.00  0.00    -0.326 OA
HETATM   14  C11 UNL     1      52.181  45.389  64.072  1.00  0.00     0.213 C 
ENDBRANCH  11  13
ENDBRANCH   9  11
BRANCH   3  15
HETATM   15  C4  UNL     1      55.394  38.718  64.005  1.00  0.00     0.182 C 
HETATM   16  O1  UNL     1      55.489  37.451  63.944  1.00  0.00    -0.647 OA
HETATM   17  O2  UNL     1      56.085  39.437  63.053  1.00  0.00    -0.647 OA
ENDBRANCH   3  15
TORSDOF 3
ENDMDL
MODEL 3
REMARK VINA RESULT: -7.002348237      2.298      3.138
REMARK  3 active torsions:
REMARK  status: ('A' for Active; 'I' for Inactive)
REMARK    1  A    between atoms: C3_3  and  C4_4 
REMARK    2  A    between atoms: C9_12  and  C10_13 
REMARK    3  A    between atoms: C10_13  and  O4_15 
ROOT
HETATM    1  C1  UNL     1      52.433  44.135  63.633  1.00  0.00     0.015 C 
HETATM    2  C2  UNL     1      52.175  43.618  64.825  1.00  0.00    -0.068 C 
HETATM    3  C3  UNL     1      50.928  43.577  65.642  1.00  0.00     0.130 C 
HETATM    4  C5  UNL     1      51.610  42.703  66.652  1.00  0.00     0.075 C 
HETATM    5  S1  UNL     1      51.207  40.933  66.428  1.00  0.00    -0.152 SA
HETATM    6  C6  UNL     1      52.569  40.570  65.248  1.00  0.00     0.014 C 
HETATM    7  C7  UNL     1      52.015  40.717  63.841  1.00  0.00     0.027 C 
HETATM    8  C8  UNL     1      53.010  39.150  65.441  1.00  0.00     0.027 C 
HETATM    9  C9  UNL     1      53.543  41.606  65.612  1.00  0.00     0.112 C 
HETATM   10  C12 UNL     1      52.867  42.904  65.873  1.00  0.00     0.045 C 
ENDROOT
BRANCH   9  11
HETATM   11  C10 UNL     1      54.288  41.255  66.834  1.00  0.00     0.264 C 
HETATM   12  O3  UNL     1      53.704  41.179  67.921  1.00  0.00    -0.265 OA
BRANCH  11  13
HETATM   13  O4  UNL     1      55.647  41.011  66.760  1.00  0.00    -0.326 OA
HETATM   14  C11 UNL     1      56.318  40.665  65.561  1.00  0.00     0.213 C 
ENDBRANCH  11  13
ENDBRANCH   9  11
BRANCH   3  15
HETATM   15  C4  UNL     1      50.492  44.902  66.152  1.00  0.00     0.182 C 
HETATM   16  O1  UNL     1      49.278  45.279  66.117  1.00  0.00    -0.647 OA
HETATM   17  O2  UNL     1      51.400  45.789  66.691  1.00  0.00    -0.647 OA
ENDBRANCH   3  15
TORSDOF 3
ENDMDL
MODEL 4
REMARK VINA RESULT: -6.803319176      1.524      4.904
REMARK  3 active torsions:
REMARK  status: ('A' for Active; 'I' for Inactive)
REMARK    1  A    between atoms: C3_3  and  C4_4 
REMARK    2  A    between atoms: C9_12  and  C10_13 
REMARK    3  A    between atoms: C10_13  and  O4_15 
ROOT
HETATM    1  C1  UNL     1      53.776  39.335  63.822  1.00  0.00     0.015 C 
HETATM    2  C2  UNL     1      53.809  40.103  64.900  1.00  0.00    -0.068 C 
HETATM    3  C3  UNL     1      54.860  41.013  65.441  1.00  0.00     0.130 C 
HETATM    4  C5  UNL     1      53.918  41.478  66.510  1.00  0.00     0.075 C 
HETATM    5  S1  UNL     1      53.124  43.073  66.096  1.00  0.00    -0.152 SA
HETATM    6  C6  UNL     1      51.691  42.350  65.199  1.00  0.00     0.014 C 
HETATM    7  C7  UNL     1      52.040  42.314  63.721  1.00  0.00     0.027 C 
HETATM    8  C8  UNL     1      50.503  43.244  65.387  1.00  0.00     0.027 C 
HETATM    9  C9  UNL     1      51.608  41.023  65.820  1.00  0.00     0.112 C 
HETATM   10  C12 UNL     1      52.962  40.442  66.020  1.00  0.00     0.045 C 
ENDROOT
BRANCH   9  11
HETATM   11  C10 UNL     1      50.962  41.075  67.143  1.00  0.00     0.264 C 
HETATM   12  O3  UNL     1      49.771  40.764  67.269  1.00  0.00    -0.265 OA
BRANCH  11  13
HETATM   13  O4  UNL     1      51.693  41.475  68.246  1.00  0.00    -0.326 OA
HETATM   14  C11 UNL     1      51.579  40.874  69.524  1.00  0.00     0.213 C 
ENDBRANCH  11  13
ENDBRANCH   9  11
BRANCH   3  15
HETATM   15  C4  UNL     1      56.074  40.314  65.934  1.00  0.00     0.182 C 
HETATM   16  O1  UNL     1      56.829  40.809  66.830  1.00  0.00    -0.647 OA
HETATM   17  O2  UNL     1      56.437  39.081  65.432  1.00  0.00    -0.647 OA
ENDBRANCH   3  15
TORSDOF 3
ENDMDL
MODEL 5
REMARK VINA RESULT: -6.684057016      2.591      3.483
REMARK  3 active torsions:
REMARK  status: ('A' for Active; 'I' for Inactive)
REMARK    1  A    between atoms: C3_3  and  C4_4 
REMARK    2  A    between atoms: C9_12  and  C10_13 
REMARK    3  A    between atoms: C10_13  and  O4_15 
ROOT
HETATM    1  C1  UNL     1      53.450  41.097  68.052  1.00  0.00     0.015 C 
HETATM    2  C2  UNL     1      53.000  40.731  66.862  1.00  0.00    -0.068 C 
HETATM    3  C3  UNL     1      52.280  41.486  65.796  1.00  0.00     0.130 C 
HETATM    4  C5  UNL     1      52.371  40.300  64.883  1.00  0.00     0.075 C 
HETATM    5  S1  UNL     1      53.748  40.443  63.688  1.00  0.00    -0.152 SA
HETATM    6  C6  UNL     1      55.022  39.668  64.762  1.00  0.00     0.014 C 
HETATM    7  C7  UNL     1      55.747  40.782  65.498  1.00  0.00     0.027 C 
HETATM    8  C8  UNL     1      56.010  38.946  63.897  1.00  0.00     0.027 C 
HETATM    9  C9  UNL     1      54.188  38.830  65.632  1.00  0.00     0.112 C 
HETATM   10  C12 UNL     1      52.950  39.547  66.036  1.00  0.00     0.045 C 
ENDROOT
BRANCH   9  11
HETATM   11  C10 UNL     1      53.766  37.589  64.958  1.00  0.00     0.264 C 
HETATM   12  O3  UNL     1      54.398  37.162  63.984  1.00  0.00    -0.265 OA
BRANCH  11  13
HETATM   13  O4  UNL     1      52.659  36.902  65.421  1.00  0.00    -0.326 OA
HETATM   14  C11 UNL     1      52.646  35.507  65.665  1.00  0.00     0.213 C 
ENDBRANCH  11  13
ENDBRANCH   9  11
BRANCH   3  15
HETATM   15  C4  UNL     1      50.899  41.890  66.165  1.00  0.00     0.182 C 
HETATM   16  O1  UNL     1      50.391  42.995  65.793  1.00  0.00    -0.647 OA
HETATM   17  O2  UNL     1      50.103  41.071  66.936  1.00  0.00    -0.647 OA
ENDBRANCH   3  15
TORSDOF 3
ENDMDL
