MODEL 1
REMARK VINA RESULT: -6.296854067      0.000      0.000
REMARK  6 active torsions:
REMARK  status: ('A' for Active; 'I' for Inactive)
REMARK    1  A    between atoms: O1_2  and  C2_3 
REMARK    2  A    between atoms: C2_3  and  C3_5 
REMARK    3  A    between atoms: C4_6  and  N1_7 
REMARK       I    between atoms: N1_7  and  C5_8 
REMARK    4  A    between atoms: N1_7  and  C7_11 
REMARK    5  A    between atoms: C7_11  and  O4_12 
REMARK    6  A    between atoms: C7_11  and  N2_14 
ROOT
HETATM    1  N1  UNL     1      51.982  42.311  65.909  1.00  0.00    -0.278 N 
HETATM    2  C5  UNL     1      50.919  41.938  66.825  1.00  0.00     0.223 C 
HETATM    3  C6  UNL     1      50.669  40.466  67.118  1.00  0.00     0.117 C 
HETATM    4  O3  UNL     1      50.158  42.685  67.426  1.00  0.00    -0.273 OA
ENDROOT
BRANCH   1   5
HETATM    5  C4  UNL     1      52.684  41.175  65.308  1.00  0.00     0.119 A 
HETATM    6  C3  UNL     1      53.993  41.083  64.734  1.00  0.00     0.119 A 
HETATM    7  C10 UNL     1      53.829  40.551  66.115  1.00  0.00    -0.011 A 
HETATM    8  C11 UNL     1      54.452  41.245  67.266  1.00  0.00     0.018 C 
HETATM    9  C12 UNL     1      53.658  39.052  66.312  1.00  0.00     0.018 C 
BRANCH   6  10
HETATM   10  C2  UNL     1      54.259  40.052  63.644  1.00  0.00     0.265 C 
HETATM   11  O2  UNL     1      53.323  39.408  63.121  1.00  0.00    -0.265 OA
BRANCH  10  12
HETATM   12  O1  UNL     1      55.547  39.828  63.231  1.00  0.00    -0.326 OA
HETATM   13  C1  UNL     1      56.302  38.673  63.630  1.00  0.00     0.213 C 
ENDBRANCH  10  12
ENDBRANCH   6  10
ENDBRANCH   1   5
BRANCH   1  14
HETATM   14  C7  UNL     1      52.198  43.630  65.549  1.00  0.00     0.223 C 
BRANCH  14  15
HETATM   15  O4  UNL     1      52.540  44.371  66.611  1.00  0.00    -0.332 OA
ATOM     16  H4  UNL     1      52.586  45.293  66.386  1.00  0.00     0.221 HD
ENDBRANCH  14  15
BRANCH  14  17
HETATM   17  N2  UNL     1      52.163  44.427  64.412  1.00  0.00    -0.356 N 
HETATM   18  C8  UNL     1      52.190  44.124  63.017  1.00  0.00     0.152 C 
HETATM   19  C9  UNL     1      52.100  45.942  64.623  1.00  0.00     0.152 C 
ENDBRANCH  14  17
ENDBRANCH   1  14
TORSDOF 6
ENDMDL
MODEL 2
REMARK VINA RESULT: -6.108988444      1.992      3.839
REMARK  6 active torsions:
REMARK  status: ('A' for Active; 'I' for Inactive)
REMARK    1  A    between atoms: O1_2  and  C2_3 
REMARK    2  A    between atoms: C2_3  and  C3_5 
REMARK    3  A    between atoms: C4_6  and  N1_7 
REMARK       I    between atoms: N1_7  and  C5_8 
REMARK    4  A    between atoms: N1_7  and  C7_11 
REMARK    5  A    between atoms: C7_11  and  O4_12 
REMARK    6  A    between atoms: C7_11  and  N2_14 
ROOT
HETATM    1  N1  UNL     1      52.737  41.825  66.701  1.00  0.00    -0.278 N 
HETATM    2  C5  UNL     1      52.109  43.042  66.217  1.00  0.00     0.223 C 
HETATM    3  C6  UNL     1      52.688  43.745  64.997  1.00  0.00     0.117 C 
HETATM    4  O3  UNL     1      51.127  43.607  66.678  1.00  0.00    -0.273 OA
ENDROOT
BRANCH   1   5
HETATM    5  C4  UNL     1      53.937  41.430  65.960  1.00  0.00     0.119 A 
HETATM    6  C3  UNL     1      54.788  40.287  66.101  1.00  0.00     0.119 A 
HETATM    7  C10 UNL     1      53.803  40.254  64.985  1.00  0.00    -0.011 A 
HETATM    8  C11 UNL     1      52.653  39.321  65.027  1.00  0.00     0.018 C 
HETATM    9  C12 UNL     1      54.270  40.601  63.579  1.00  0.00     0.018 C 
BRANCH   6  10
HETATM   10  C2  UNL     1      56.255  40.397  65.700  1.00  0.00     0.265 C 
HETATM   11  O2  UNL     1      56.905  41.444  65.906  1.00  0.00    -0.265 OA
BRANCH  10  12
HETATM   12  O1  UNL     1      56.869  39.326  65.103  1.00  0.00    -0.326 OA
HETATM   13  C1  UNL     1      57.830  39.471  64.045  1.00  0.00     0.213 C 
ENDBRANCH  10  12
ENDBRANCH   6  10
ENDBRANCH   1   5
BRANCH   1  14
HETATM   14  C7  UNL     1      52.297  41.192  67.851  1.00  0.00     0.223 C 
BRANCH  14  15
HETATM   15  O4  UNL     1      53.187  41.323  68.844  1.00  0.00    -0.332 OA
ATOM     16  H4  UNL     1      52.805  41.083  69.680  1.00  0.00     0.221 HD
ENDBRANCH  14  15
BRANCH  14  17
HETATM   17  N2  UNL     1      51.207  40.453  68.292  1.00  0.00    -0.356 N 
HETATM   18  C8  UNL     1      49.802  40.710  68.295  1.00  0.00     0.152 C 
HETATM   19  C9  UNL     1      51.497  39.091  68.927  1.00  0.00     0.152 C 
ENDBRANCH  14  17
ENDBRANCH   1  14
TORSDOF 6
ENDMDL
MODEL 3
REMARK VINA RESULT: -6.095839404      2.504      5.945
REMARK  6 active torsions:
REMARK  status: ('A' for Active; 'I' for Inactive)
REMARK    1  A    between atoms: O1_2  and  C2_3 
REMARK    2  A    between atoms: C2_3  and  C3_5 
REMARK    3  A    between atoms: C4_6  and  N1_7 
REMARK       I    between atoms: N1_7  and  C5_8 
REMARK    4  A    between atoms: N1_7  and  C7_11 
REMARK    5  A    between atoms: C7_11  and  O4_12 
REMARK    6  A    between atoms: C7_11  and  N2_14 
ROOT
HETATM    1  N1  UNL     1      52.995  39.507  65.230  1.00  0.00    -0.278 N 
HETATM    2  C5  UNL     1      53.175  40.041  63.892  1.00  0.00     0.223 C 
HETATM    3  C6  UNL     1      52.567  41.392  63.542  1.00  0.00     0.117 C 
HETATM    4  O3  UNL     1      53.779  39.528  62.960  1.00  0.00    -0.273 OA
ENDROOT
BRANCH   1   5
HETATM    5  C4  UNL     1      52.170  40.341  66.106  1.00  0.00     0.119 A 
HETATM    6  C3  UNL     1      51.977  40.300  67.525  1.00  0.00     0.119 A 
HETATM    7  C10 UNL     1      52.899  41.347  67.005  1.00  0.00    -0.011 A 
HETATM    8  C11 UNL     1      54.354  41.263  67.266  1.00  0.00     0.018 C 
HETATM    9  C12 UNL     1      52.380  42.768  66.836  1.00  0.00     0.018 C 
BRANCH   6  10
HETATM   10  C2  UNL     1      50.660  40.795  68.112  1.00  0.00     0.265 C 
HETATM   11  O2  UNL     1      49.597  40.734  67.458  1.00  0.00    -0.265 OA
BRANCH  10  12
HETATM   12  O1  UNL     1      50.645  41.315  69.381  1.00  0.00    -0.326 OA
HETATM   13  C1  UNL     1      51.536  40.870  70.415  1.00  0.00     0.213 C 
ENDBRANCH  10  12
ENDBRANCH   6  10
ENDBRANCH   1   5
BRANCH   1  14
HETATM   14  C7  UNL     1      53.458  38.248  65.575  1.00  0.00     0.223 C 
BRANCH  14  15
HETATM   15  O4  UNL     1      54.759  38.117  65.284  1.00  0.00    -0.332 OA
ATOM     16  H4  UNL     1      55.167  37.456  65.831  1.00  0.00     0.221 HD
ENDBRANCH  14  15
BRANCH  14  17
HETATM   17  N2  UNL     1      52.980  37.069  66.131  1.00  0.00    -0.356 N 
HETATM   18  C8  UNL     1      52.466  36.749  67.424  1.00  0.00     0.152 C 
HETATM   19  C9  UNL     1      52.992  35.823  65.243  1.00  0.00     0.152 C 
ENDBRANCH  14  17
ENDBRANCH   1  14
TORSDOF 6
ENDMDL
MODEL 4
REMARK VINA RESULT: -6.030468253      2.332      5.617
REMARK  6 active torsions:
REMARK  status: ('A' for Active; 'I' for Inactive)
REMARK    1  A    between atoms: O1_2  and  C2_3 
REMARK    2  A    between atoms: C2_3  and  C3_5 
REMARK    3  A    between atoms: C4_6  and  N1_7 
REMARK       I    between atoms: N1_7  and  C5_8 
REMARK    4  A    between atoms: N1_7  and  C7_11 
REMARK    5  A    between atoms: C7_11  and  O4_12 
REMARK    6  A    between atoms: C7_11  and  N2_14 
ROOT
HETATM    1  N1  UNL     1      52.974  39.957  64.759  1.00  0.00    -0.278 N 
HETATM    2  C5  UNL     1      53.021  40.798  63.575  1.00  0.00     0.223 C 
HETATM    3  C6  UNL     1      52.301  42.139  63.585  1.00  0.00     0.117 C 
HETATM    4  O3  UNL     1      53.591  40.564  62.518  1.00  0.00    -0.273 OA
ENDROOT
BRANCH   1   5
HETATM    5  C4  UNL     1      52.159  40.497  65.849  1.00  0.00     0.119 A 
HETATM    6  C3  UNL     1      52.049  40.097  67.220  1.00  0.00     0.119 A 
HETATM    7  C10 UNL     1      52.886  41.295  66.938  1.00  0.00    -0.011 A 
HETATM    8  C11 UNL     1      54.357  41.241  67.107  1.00  0.00     0.018 C 
HETATM    9  C12 UNL     1      52.288  42.678  67.150  1.00  0.00     0.018 C 
BRANCH   6  10
HETATM   10  C2  UNL     1      50.745  40.349  67.967  1.00  0.00     0.265 C 
HETATM   11  O2  UNL     1      49.724  40.750  67.369  1.00  0.00    -0.265 OA
BRANCH  10  12
HETATM   12  O1  UNL     1      50.694  40.130  69.320  1.00  0.00    -0.326 OA
HETATM   13  C1  UNL     1      51.543  40.819  70.251  1.00  0.00     0.213 C 
ENDBRANCH  10  12
ENDBRANCH   6  10
ENDBRANCH   1   5
BRANCH   1  14
HETATM   14  C7  UNL     1      53.545  38.696  64.773  1.00  0.00     0.223 C 
BRANCH  14  15
HETATM   15  O4  UNL     1      52.752  37.814  65.397  1.00  0.00    -0.332 OA
ATOM     16  H4  UNL     1      52.898  37.827  66.336  1.00  0.00     0.221 HD
ENDBRANCH  14  15
BRANCH  14  17
HETATM   17  N2  UNL     1      54.701  38.061  64.338  1.00  0.00    -0.356 N 
HETATM   18  C8  UNL     1      56.080  38.428  64.383  1.00  0.00     0.152 C 
HETATM   19  C9  UNL     1      54.536  36.705  63.649  1.00  0.00     0.152 C 
ENDBRANCH  14  17
ENDBRANCH   1  14
TORSDOF 6
ENDMDL
MODEL 5
REMARK VINA RESULT: -6.020348650      1.825      2.211
REMARK  6 active torsions:
REMARK  status: ('A' for Active; 'I' for Inactive)
REMARK    1  A    between atoms: O1_2  and  C2_3 
REMARK    2  A    between atoms: C2_3  and  C3_5 
REMARK    3  A    between atoms: C4_6  and  N1_7 
REMARK       I    between atoms: N1_7  and  C5_8 
REMARK    4  A    between atoms: N1_7  and  C7_11 
REMARK    5  A    between atoms: C7_11  and  O4_12 
REMARK    6  A    between atoms: C7_11  and  N2_14 
ROOT
HETATM    1  N1  UNL     1      52.701  40.556  65.206  1.00  0.00    -0.278 N 
HETATM    2  C5  UNL     1      51.923  39.986  66.292  1.00  0.00     0.223 C 
HETATM    3  C6  UNL     1      52.381  38.684  66.933  1.00  0.00     0.117 C 
HETATM    4  O3  UNL     1      50.898  40.434  66.788  1.00  0.00    -0.273 OA
ENDROOT
BRANCH   1   5
HETATM    5  C4  UNL     1      53.854  39.748  64.803  1.00  0.00     0.119 A 
HETATM    6  C3  UNL     1      54.987  40.076  63.989  1.00  0.00     0.119 A 
HETATM    7  C10 UNL     1      55.201  40.070  65.462  1.00  0.00    -0.011 A 
HETATM    8  C11 UNL     1      55.439  41.337  66.192  1.00  0.00     0.018 C 
HETATM    9  C12 UNL     1      55.843  38.851  66.108  1.00  0.00     0.018 C 
BRANCH   6  10
HETATM   10  C2  UNL     1      55.684  38.972  63.204  1.00  0.00     0.265 C 
HETATM   11  O2  UNL     1      55.164  37.844  63.073  1.00  0.00    -0.265 OA
BRANCH  10  12
HETATM   12  O1  UNL     1      56.905  39.224  62.632  1.00  0.00    -0.326 OA
HETATM   13  C1  UNL     1      58.132  39.204  63.377  1.00  0.00     0.213 C 
ENDBRANCH  10  12
ENDBRANCH   6  10
ENDBRANCH   1   5
BRANCH   1  14
HETATM   14  C7  UNL     1      52.285  41.695  64.538  1.00  0.00     0.223 C 
BRANCH  14  15
HETATM   15  O4  UNL     1      51.717  41.386  63.365  1.00  0.00    -0.332 OA
ATOM     16  H4  UNL     1      52.373  41.257  62.690  1.00  0.00     0.221 HD
ENDBRANCH  14  15
BRANCH  14  17
HETATM   17  N2  UNL     1      52.281  43.073  64.713  1.00  0.00    -0.356 N 
HETATM   18  C8  UNL     1      52.196  44.164  63.795  1.00  0.00     0.152 C 
HETATM   19  C9  UNL     1      52.408  43.595  66.146  1.00  0.00     0.152 C 
ENDBRANCH  14  17
ENDBRANCH   1  14
TORSDOF 6
ENDMDL
