MODEL 1
REMARK VINA RESULT: -6.721758946      0.000      0.000
REMARK  3 active torsions:
REMARK  status: ('A' for Active; 'I' for Inactive)
REMARK    1  A    between atoms: N1_2  and  C2_4 
REMARK    2  A    between atoms: C2_4  and  C3_6 
REMARK    3  A    between atoms: C3_6  and  C4_7 
ROOT
HETATM    1  C4  UNL     1      52.871  40.769  66.415  1.00  0.00     0.232 C 
HETATM    2  C5  UNL     1      54.356  40.615  66.403  1.00  0.00     0.079 C 
HETATM    3  C6  UNL     1      54.643  39.765  65.178  1.00  0.00     0.127 C 
HETATM    4  C7  UNL     1      53.309  39.668  64.503  1.00  0.00     0.313 C 
HETATM    5  N2  UNL     1      52.532  40.805  65.021  1.00  0.00     0.092 N 
HETATM    6  C8  UNL     1      52.999  41.990  64.344  1.00  0.00     0.310 C 
HETATM    7  C9  UNL     1      55.711  40.381  64.309  1.00  0.00     0.083 C 
HETATM    8  C10 UNL     1      56.869  39.430  64.520  1.00  0.00     0.092 C 
HETATM    9  C11 UNL     1      57.140  38.597  63.285  1.00  0.00     0.049 C 
HETATM   10  C12 UNL     1      58.103  40.237  64.803  1.00  0.00     0.049 C 
HETATM   11  O1  UNL     1      56.467  38.668  65.593  1.00  0.00    -0.230 OA
HETATM   12  O2  UNL     1      55.163  38.518  65.517  1.00  0.00    -0.227 OA
ENDROOT
BRANCH   1  13
HETATM   13  C3  UNL     1      52.418  41.985  67.177  1.00  0.00     0.105 C 
BRANCH  13  14
HETATM   14  C2  UNL     1      50.972  42.045  67.373  1.00  0.00     0.075 C 
HETATM   15  S1  UNL     1      50.264  40.940  68.338  1.00  0.00    -0.066 SA
BRANCH  14  16
HETATM   16  N1  UNL     1      50.165  43.017  66.762  1.00  0.00    -0.389 N 
HETATM   17  C1  UNL     1      50.745  44.159  66.116  1.00  0.00     0.147 C 
ATOM     18  H1  UNL     1      49.151  42.910  66.777  1.00  0.00     0.159 HD
ENDBRANCH  14  16
ENDBRANCH  13  14
ENDBRANCH   1  13
TORSDOF 3
ENDMDL
MODEL 2
REMARK VINA RESULT: -6.641949223      1.431      1.797
REMARK  3 active torsions:
REMARK  status: ('A' for Active; 'I' for Inactive)
REMARK    1  A    between atoms: N1_2  and  C2_4 
REMARK    2  A    between atoms: C2_4  and  C3_6 
REMARK    3  A    between atoms: C3_6  and  C4_7 
ROOT
HETATM    1  C4  UNL     1      52.741  40.558  66.411  1.00  0.00     0.232 C 
HETATM    2  C5  UNL     1      54.225  40.403  66.444  1.00  0.00     0.079 C 
HETATM    3  C6  UNL     1      54.568  39.723  65.130  1.00  0.00     0.127 C 
HETATM    4  C7  UNL     1      53.266  39.719  64.390  1.00  0.00     0.313 C 
HETATM    5  N2  UNL     1      52.462  40.779  65.021  1.00  0.00     0.092 N 
HETATM    6  C8  UNL     1      52.955  42.043  64.528  1.00  0.00     0.310 C 
HETATM    7  C9  UNL     1      55.671  40.447  64.399  1.00  0.00     0.083 C 
HETATM    8  C10 UNL     1      56.822  39.473  64.532  1.00  0.00     0.092 C 
HETATM    9  C11 UNL     1      57.150  38.812  63.210  1.00  0.00     0.049 C 
HETATM   10  C12 UNL     1      58.040  40.232  64.973  1.00  0.00     0.049 C 
HETATM   11  O1  UNL     1      56.376  38.576  65.475  1.00  0.00    -0.230 OA
HETATM   12  O2  UNL     1      55.077  38.441  65.323  1.00  0.00    -0.227 OA
ENDROOT
BRANCH   1  13
HETATM   13  C3  UNL     1      52.250  41.662  67.307  1.00  0.00     0.105 C 
BRANCH  13  14
HETATM   14  C2  UNL     1      51.571  41.182  68.507  1.00  0.00     0.075 C 
HETATM   15  S1  UNL     1      49.966  40.913  68.447  1.00  0.00    -0.066 SA
BRANCH  14  16
HETATM   16  N1  UNL     1      52.246  40.943  69.714  1.00  0.00    -0.389 N 
HETATM   17  C1  UNL     1      51.543  40.936  70.965  1.00  0.00     0.147 C 
ATOM     18  H1  UNL     1      53.251  40.772  69.702  1.00  0.00     0.159 HD
ENDBRANCH  14  16
ENDBRANCH  13  14
ENDBRANCH   1  13
TORSDOF 3
ENDMDL
MODEL 3
REMARK VINA RESULT: -6.639243068      3.196      5.966
REMARK  3 active torsions:
REMARK  status: ('A' for Active; 'I' for Inactive)
REMARK    1  A    between atoms: N1_2  and  C2_4 
REMARK    2  A    between atoms: C2_4  and  C3_6 
REMARK    3  A    between atoms: C3_6  and  C4_7 
ROOT
HETATM    1  C4  UNL     1      54.004  39.946  64.817  1.00  0.00     0.232 C 
HETATM    2  C5  UNL     1      53.773  41.337  64.327  1.00  0.00     0.079 C 
HETATM    3  C6  UNL     1      52.459  41.754  64.964  1.00  0.00     0.127 C 
HETATM    4  C7  UNL     1      52.156  40.628  65.905  1.00  0.00     0.313 C 
HETATM    5  N2  UNL     1      53.449  39.966  66.141  1.00  0.00     0.092 N 
HETATM    6  C8  UNL     1      54.191  40.789  67.065  1.00  0.00     0.310 C 
HETATM    7  C9  UNL     1      52.571  43.093  65.648  1.00  0.00     0.083 C 
HETATM    8  C10 UNL     1      51.739  43.976  64.742  1.00  0.00     0.092 C 
HETATM    9  C11 UNL     1      50.438  44.383  65.399  1.00  0.00     0.049 C 
HETATM   10  C12 UNL     1      52.514  45.229  64.455  1.00  0.00     0.049 C 
HETATM   11  O1  UNL     1      51.545  43.195  63.625  1.00  0.00    -0.230 OA
HETATM   12  O2  UNL     1      51.455  41.943  64.017  1.00  0.00    -0.227 OA
ENDROOT
BRANCH   1  13
HETATM   13  C3  UNL     1      55.454  39.548  64.778  1.00  0.00     0.105 C 
BRANCH  13  14
HETATM   14  C2  UNL     1      55.726  38.422  63.891  1.00  0.00     0.075 C 
HETATM   15  S1  UNL     1      54.560  37.311  63.650  1.00  0.00    -0.066 SA
BRANCH  14  16
HETATM   16  N1  UNL     1      56.956  38.255  63.235  1.00  0.00    -0.389 N 
HETATM   17  C1  UNL     1      57.984  39.251  63.329  1.00  0.00     0.147 C 
ATOM     18  H1  UNL     1      57.122  37.413  62.684  1.00  0.00     0.159 HD
ENDBRANCH  14  16
ENDBRANCH  13  14
ENDBRANCH   1  13
TORSDOF 3
ENDMDL
MODEL 4
REMARK VINA RESULT: -6.595070726      3.797      5.846
REMARK  3 active torsions:
REMARK  status: ('A' for Active; 'I' for Inactive)
REMARK    1  A    between atoms: N1_2  and  C2_4 
REMARK    2  A    between atoms: C2_4  and  C3_6 
REMARK    3  A    between atoms: C3_6  and  C4_7 
ROOT
HETATM    1  C4  UNL     1      52.038  39.802  66.922  1.00  0.00     0.232 C 
HETATM    2  C5  UNL     1      51.598  40.867  65.973  1.00  0.00     0.079 C 
HETATM    3  C6  UNL     1      51.685  42.154  66.774  1.00  0.00     0.127 C 
HETATM    4  C7  UNL     1      52.343  41.725  68.050  1.00  0.00     0.313 C 
HETATM    5  N2  UNL     1      53.027  40.463  67.724  1.00  0.00     0.092 N 
HETATM    6  C8  UNL     1      54.228  40.801  66.998  1.00  0.00     0.310 C 
HETATM    7  C9  UNL     1      52.452  43.221  66.033  1.00  0.00     0.083 C 
HETATM    8  C10 UNL     1      51.355  44.202  65.679  1.00  0.00     0.092 C 
HETATM    9  C11 UNL     1      51.464  45.478  66.485  1.00  0.00     0.049 C 
HETATM   10  C12 UNL     1      51.492  44.568  64.229  1.00  0.00     0.049 C 
HETATM   11  O1  UNL     1      50.200  43.503  65.950  1.00  0.00    -0.230 OA
HETATM   12  O2  UNL     1      50.432  42.724  66.984  1.00  0.00    -0.227 OA
ENDROOT
BRANCH   1  13
HETATM   13  C3  UNL     1      52.553  38.574  66.222  1.00  0.00     0.105 C 
BRANCH  13  14
HETATM   14  C2  UNL     1      52.375  37.346  66.991  1.00  0.00     0.075 C 
HETATM   15  S1  UNL     1      52.451  35.916  66.216  1.00  0.00    -0.066 SA
BRANCH  14  16
HETATM   16  N1  UNL     1      52.137  37.347  68.374  1.00  0.00    -0.389 N 
HETATM   17  C1  UNL     1      52.599  36.272  69.204  1.00  0.00     0.147 C 
ATOM     18  H1  UNL     1      51.629  38.124  68.796  1.00  0.00     0.159 HD
ENDBRANCH  14  16
ENDBRANCH  13  14
ENDBRANCH   1  13
TORSDOF 3
ENDMDL
MODEL 5
REMARK VINA RESULT: -6.337551624      3.095      5.934
REMARK  3 active torsions:
REMARK  status: ('A' for Active; 'I' for Inactive)
REMARK    1  A    between atoms: N1_2  and  C2_4 
REMARK    2  A    between atoms: C2_4  and  C3_6 
REMARK    3  A    between atoms: C3_6  and  C4_7 
ROOT
HETATM    1  C4  UNL     1      52.990  40.130  64.647  1.00  0.00     0.232 C 
HETATM    2  C5  UNL     1      52.498  41.446  64.142  1.00  0.00     0.079 C 
HETATM    3  C6  UNL     1      52.177  42.241  65.395  1.00  0.00     0.127 C 
HETATM    4  C7  UNL     1      52.691  41.370  66.501  1.00  0.00     0.313 C 
HETATM    5  N2  UNL     1      53.670  40.476  65.862  1.00  0.00     0.092 N 
HETATM    6  C8  UNL     1      54.875  41.241  65.650  1.00  0.00     0.310 C 
HETATM    7  C9  UNL     1      52.812  43.608  65.366  1.00  0.00     0.083 C 
HETATM    8  C10 UNL     1      51.607  44.507  65.192  1.00  0.00     0.092 C 
HETATM    9  C11 UNL     1      51.309  45.294  66.451  1.00  0.00     0.049 C 
HETATM   10  C12 UNL     1      51.901  45.494  64.100  1.00  0.00     0.049 C 
HETATM   11  O1  UNL     1      50.597  43.630  64.867  1.00  0.00    -0.230 OA
HETATM   12  O2  UNL     1      50.815  42.505  65.513  1.00  0.00    -0.227 OA
ENDROOT
BRANCH   1  13
HETATM   13  C3  UNL     1      53.861  39.414  63.652  1.00  0.00     0.105 C 
BRANCH  13  14
HETATM   14  C2  UNL     1      54.411  38.159  64.155  1.00  0.00     0.075 C 
HETATM   15  S1  UNL     1      53.549  37.301  65.238  1.00  0.00    -0.066 SA
BRANCH  14  16
HETATM   16  N1  UNL     1      55.658  37.660  63.744  1.00  0.00    -0.389 N 
HETATM   17  C1  UNL     1      56.781  38.534  63.564  1.00  0.00     0.147 C 
ATOM     18  H1  UNL     1      55.767  36.661  63.570  1.00  0.00     0.159 HD
ENDBRANCH  14  16
ENDBRANCH  13  14
ENDBRANCH   1  13
TORSDOF 3
ENDMDL
