MODEL 1
REMARK VINA RESULT: -6.856550439      0.000      0.000
REMARK  7 active torsions:
REMARK  status: ('A' for Active; 'I' for Inactive)
REMARK       I    between atoms: N1_2  and  C2_4 
REMARK       I    between atoms: C2_4  and  N2_6 
REMARK    1  A    between atoms: N2_6  and  N3_8 
REMARK    2  A    between atoms: C3_10  and  N4_11 
REMARK    3  A    between atoms: C3_10  and  C5_15 
REMARK    4  A    between atoms: N4_11  and  O2_13 
REMARK       I    between atoms: C5_15  and  N5_17 
REMARK    5  A    between atoms: N5_17  and  N6_19 
REMARK       I    between atoms: N6_19  and  C6_21 
REMARK    6  A    between atoms: C6_21  and  C7_23 
REMARK       I    between atoms: C7_23  and  N7_25 
REMARK    7  A    between atoms: N7_25  and  O6_27 
ROOT
HETATM    1  N3  UNL     1      20.963   5.213  -3.097  1.00  0.00    -0.276 N 
ATOM      2  H3  UNL     1      20.249   5.267  -3.823  1.00  0.00     0.189 HD
HETATM    3  C3  UNL     1      22.094   4.651  -3.351  1.00  0.00     0.211 C 
ENDROOT
BRANCH   3   4
HETATM    4  N4  UNL     1      23.079   4.579  -2.357  1.00  0.00    -0.245 N 
ATOM      5  H4  UNL     1      22.801   4.521  -1.378  1.00  0.00     0.196 HD
BRANCH   4   6
HETATM    6  O2  UNL     1      24.401   4.585  -2.681  1.00  0.00    -0.283 OA
HETATM    7  C4  UNL     1      25.000   3.377  -2.353  1.00  0.00     0.237 C 
ENDBRANCH   4   6
ENDBRANCH   3   4
BRANCH   3   8
HETATM    8  C5  UNL     1      22.274   4.088  -4.714  1.00  0.00     0.307 C 
HETATM    9  O3  UNL     1      22.245   2.852  -4.842  1.00  0.00    -0.262 OA
HETATM   10  N5  UNL     1      22.466   4.953  -5.801  1.00  0.00    -0.260 N 
ATOM     11  H5  UNL     1      22.472   5.944  -5.561  1.00  0.00     0.190 HD
BRANCH  10  12
HETATM   12  N6  UNL     1      22.643   4.695  -7.097  1.00  0.00    -0.259 N 
HETATM   13  C6  UNL     1      22.118   5.319  -8.227  1.00  0.00     0.329 C 
HETATM   14  O4  UNL     1      21.342   6.295  -8.275  1.00  0.00    -0.261 OA
ATOM     15  H6  UNL     1      23.264   3.910  -7.295  1.00  0.00     0.190 HD
BRANCH  13  16
HETATM   16  C7  UNL     1      22.511   4.780  -9.551  1.00  0.00     0.334 C 
HETATM   17  O5  UNL     1      23.320   5.420 -10.234  1.00  0.00    -0.260 OA
HETATM   18  N7  UNL     1      21.951   3.561  -9.977  1.00  0.00    -0.227 N 
ATOM     19  H7  UNL     1      21.288   3.066  -9.381  1.00  0.00     0.198 HD
BRANCH  18  20
HETATM   20  O6  UNL     1      22.295   3.054 -11.171  1.00  0.00    -0.282 OA
HETATM   21  C8  UNL     1      21.199   2.448 -11.749  1.00  0.00     0.237 C 
ENDBRANCH  18  20
ENDBRANCH  13  16
ENDBRANCH  10  12
ENDBRANCH   3   8
BRANCH   1  22
HETATM   22  N2  UNL     1      20.710   5.752  -1.832  1.00  0.00    -0.250 N 
HETATM   23  C2  UNL     1      19.814   6.801  -1.554  1.00  0.00     0.334 C 
HETATM   24  N1  UNL     1      19.635   7.278  -0.223  1.00  0.00    -0.346 N 
HETATM   25  O1  UNL     1      19.135   7.363  -2.456  1.00  0.00    -0.246 OA
HETATM   26  C1  UNL     1      18.754   8.335   0.161  1.00  0.00     0.151 C 
ATOM     27  H1  UNL     1      20.179   6.829   0.514  1.00  0.00     0.163 HD
ATOM     28  H2  UNL     1      21.217   5.350  -1.043  1.00  0.00     0.192 HD
ENDBRANCH   1  22
TORSDOF 7
ENDMDL
MODEL 2
REMARK VINA RESULT: -6.600629282      1.840      7.927
REMARK  7 active torsions:
REMARK  status: ('A' for Active; 'I' for Inactive)
REMARK       I    between atoms: N1_2  and  C2_4 
REMARK       I    between atoms: C2_4  and  N2_6 
REMARK    1  A    between atoms: N2_6  and  N3_8 
REMARK    2  A    between atoms: C3_10  and  N4_11 
REMARK    3  A    between atoms: C3_10  and  C5_15 
REMARK    4  A    between atoms: N4_11  and  O2_13 
REMARK       I    between atoms: C5_15  and  N5_17 
REMARK    5  A    between atoms: N5_17  and  N6_19 
REMARK       I    between atoms: N6_19  and  C6_21 
REMARK    6  A    between atoms: C6_21  and  C7_23 
REMARK       I    between atoms: C7_23  and  N7_25 
REMARK    7  A    between atoms: N7_25  and  O6_27 
ROOT
HETATM    1  N3  UNL     1      22.089   4.545  -4.985  1.00  0.00    -0.276 N 
ATOM      2  H3  UNL     1      21.623   5.437  -5.147  1.00  0.00     0.189 HD
HETATM    3  C3  UNL     1      22.221   4.101  -3.783  1.00  0.00     0.211 C 
ENDROOT
BRANCH   3   4
HETATM    4  N4  UNL     1      22.858   2.873  -3.557  1.00  0.00    -0.245 N 
ATOM      5  H4  UNL     1      22.323   2.092  -3.179  1.00  0.00     0.196 HD
BRANCH   4   6
HETATM    6  O2  UNL     1      24.180   2.709  -3.836  1.00  0.00    -0.283 OA
HETATM    7  C4  UNL     1      24.963   3.004  -2.730  1.00  0.00     0.237 C 
ENDBRANCH   4   6
ENDBRANCH   3   4
BRANCH   3   8
HETATM    8  C5  UNL     1      21.688   4.951  -2.689  1.00  0.00     0.307 C 
HETATM    9  O3  UNL     1      22.359   5.047  -1.647  1.00  0.00    -0.262 OA
HETATM   10  N5  UNL     1      20.464   5.614  -2.860  1.00  0.00    -0.260 N 
ATOM     11  H5  UNL     1      20.013   5.450  -3.759  1.00  0.00     0.190 HD
BRANCH  10  12
HETATM   12  N6  UNL     1      19.792   6.423  -2.040  1.00  0.00    -0.259 N 
HETATM   13  C6  UNL     1      18.466   6.852  -2.073  1.00  0.00     0.329 C 
HETATM   14  O4  UNL     1      17.584   6.558  -2.906  1.00  0.00    -0.261 OA
ATOM     15  H6  UNL     1      20.338   6.790  -1.260  1.00  0.00     0.190 HD
BRANCH  13  16
HETATM   16  C7  UNL     1      18.017   7.771  -1.000  1.00  0.00     0.334 C 
HETATM   17  O5  UNL     1      16.818   8.066  -0.937  1.00  0.00    -0.260 OA
HETATM   18  N7  UNL     1      18.973   8.268  -0.094  1.00  0.00    -0.227 N 
ATOM     19  H7  UNL     1      19.953   7.998  -0.182  1.00  0.00     0.198 HD
BRANCH  18  20
HETATM   20  O6  UNL     1      18.588   9.100   0.886  1.00  0.00    -0.282 OA
HETATM   21  C8  UNL     1      19.698   9.669   1.473  1.00  0.00     0.237 C 
ENDBRANCH  18  20
ENDBRANCH  13  16
ENDBRANCH  10  12
ENDBRANCH   3   8
BRANCH   1  22
HETATM   22  N2  UNL     1      22.580   3.811  -6.069  1.00  0.00    -0.250 N 
HETATM   23  C2  UNL     1      22.214   3.996  -7.416  1.00  0.00     0.334 C 
HETATM   24  N1  UNL     1      22.776   3.186  -8.444  1.00  0.00    -0.346 N 
HETATM   25  O1  UNL     1      21.384   4.876  -7.773  1.00  0.00    -0.246 OA
HETATM   26  C1  UNL     1      22.469   3.294  -9.836  1.00  0.00     0.151 C 
ATOM     27  H1  UNL     1      23.449   2.472  -8.166  1.00  0.00     0.163 HD
ATOM     28  H2  UNL     1      23.261   3.079  -5.867  1.00  0.00     0.192 HD
ENDBRANCH   1  22
TORSDOF 7
ENDMDL
MODEL 3
REMARK VINA RESULT: -6.581441468      1.764      7.965
REMARK  7 active torsions:
REMARK  status: ('A' for Active; 'I' for Inactive)
REMARK       I    between atoms: N1_2  and  C2_4 
REMARK       I    between atoms: C2_4  and  N2_6 
REMARK    1  A    between atoms: N2_6  and  N3_8 
REMARK    2  A    between atoms: C3_10  and  N4_11 
REMARK    3  A    between atoms: C3_10  and  C5_15 
REMARK    4  A    between atoms: N4_11  and  O2_13 
REMARK       I    between atoms: C5_15  and  N5_17 
REMARK    5  A    between atoms: N5_17  and  N6_19 
REMARK       I    between atoms: N6_19  and  C6_21 
REMARK    6  A    between atoms: C6_21  and  C7_23 
REMARK       I    between atoms: C7_23  and  N7_25 
REMARK    7  A    between atoms: N7_25  and  O6_27 
ROOT
HETATM    1  N3  UNL     1      22.675   4.903  -5.408  1.00  0.00    -0.276 N 
ATOM      2  H3  UNL     1      22.313   5.849  -5.293  1.00  0.00     0.189 HD
HETATM    3  C3  UNL     1      22.763   4.123  -4.386  1.00  0.00     0.211 C 
ENDROOT
BRANCH   3   4
HETATM    4  N4  UNL     1      23.256   2.820  -4.541  1.00  0.00    -0.245 N 
ATOM      5  H4  UNL     1      22.651   2.026  -4.333  1.00  0.00     0.196 HD
BRANCH   4   6
HETATM    6  O2  UNL     1      24.531   2.600  -4.964  1.00  0.00    -0.283 OA
HETATM    7  C4  UNL     1      25.449   3.197  -4.112  1.00  0.00     0.237 C 
ENDBRANCH   4   6
ENDBRANCH   3   4
BRANCH   3   8
HETATM    8  C5  UNL     1      22.338   4.679  -3.076  1.00  0.00     0.307 C 
HETATM    9  O3  UNL     1      23.125   4.582  -2.120  1.00  0.00    -0.262 OA
HETATM   10  N5  UNL     1      21.081   5.290  -2.958  1.00  0.00    -0.260 N 
ATOM     11  H5  UNL     1      20.530   5.301  -3.816  1.00  0.00     0.190 HD
BRANCH  10  12
HETATM   12  N6  UNL     1      20.486   5.858  -1.908  1.00  0.00    -0.259 N 
HETATM   13  C6  UNL     1      19.437   6.774  -1.844  1.00  0.00     0.329 C 
HETATM   14  O4  UNL     1      18.800   7.279  -2.791  1.00  0.00    -0.261 OA
ATOM     15  H6  UNL     1      20.860   5.576  -1.002  1.00  0.00     0.190 HD
BRANCH  13  16
HETATM   16  C7  UNL     1      19.002   7.223  -0.501  1.00  0.00     0.334 C 
HETATM   17  O5  UNL     1      18.558   6.382   0.290  1.00  0.00    -0.260 OA
HETATM   18  N7  UNL     1      19.116   8.588  -0.176  1.00  0.00    -0.227 N 
ATOM     19  H7  UNL     1      19.489   9.248  -0.859  1.00  0.00     0.198 HD
BRANCH  18  20
HETATM   20  O6  UNL     1      18.730   9.016   1.036  1.00  0.00    -0.282 OA
HETATM   21  C8  UNL     1      19.731   9.782   1.596  1.00  0.00     0.237 C 
ENDBRANCH  18  20
ENDBRANCH  13  16
ENDBRANCH  10  12
ENDBRANCH   3   8
BRANCH   1  22
HETATM   22  N2  UNL     1      23.072   4.459  -6.672  1.00  0.00    -0.250 N 
HETATM   23  C2  UNL     1      22.206   4.126  -7.732  1.00  0.00     0.334 C 
HETATM   24  N1  UNL     1      22.719   3.678  -8.983  1.00  0.00    -0.346 N 
HETATM   25  O1  UNL     1      20.952   4.207  -7.626  1.00  0.00    -0.246 OA
HETATM   26  C1  UNL     1      21.926   3.317 -10.115  1.00  0.00     0.151 C 
ATOM     27  H1  UNL     1      23.733   3.610  -9.079  1.00  0.00     0.163 HD
ATOM     28  H2  UNL     1      24.073   4.369  -6.843  1.00  0.00     0.192 HD
ENDBRANCH   1  22
TORSDOF 7
ENDMDL
MODEL 4
REMARK VINA RESULT: -6.279611662      4.156      7.774
REMARK  7 active torsions:
REMARK  status: ('A' for Active; 'I' for Inactive)
REMARK       I    between atoms: N1_2  and  C2_4 
REMARK       I    between atoms: C2_4  and  N2_6 
REMARK    1  A    between atoms: N2_6  and  N3_8 
REMARK    2  A    between atoms: C3_10  and  N4_11 
REMARK    3  A    between atoms: C3_10  and  C5_15 
REMARK    4  A    between atoms: N4_11  and  O2_13 
REMARK       I    between atoms: C5_15  and  N5_17 
REMARK    5  A    between atoms: N5_17  and  N6_19 
REMARK       I    between atoms: N6_19  and  C6_21 
REMARK    6  A    between atoms: C6_21  and  C7_23 
REMARK       I    between atoms: C7_23  and  N7_25 
REMARK    7  A    between atoms: N7_25  and  O6_27 
ROOT
HETATM    1  N3  UNL     1      21.214   2.352  -3.842  1.00  0.00    -0.276 N 
ATOM      2  H3  UNL     1      20.258   2.452  -3.499  1.00  0.00     0.189 HD
HETATM    3  C3  UNL     1      22.068   3.295  -3.641  1.00  0.00     0.211 C 
ENDROOT
BRANCH   3   4
HETATM    4  N4  UNL     1      23.382   3.159  -4.106  1.00  0.00    -0.245 N 
ATOM      5  H4  UNL     1      23.682   3.686  -4.927  1.00  0.00     0.196 HD
BRANCH   4   6
HETATM    6  O2  UNL     1      24.266   2.335  -3.479  1.00  0.00    -0.283 OA
HETATM    7  C4  UNL     1      25.179   3.061  -2.730  1.00  0.00     0.237 C 
ENDBRANCH   4   6
ENDBRANCH   3   4
BRANCH   3   8
HETATM    8  C5  UNL     1      21.583   4.500  -2.922  1.00  0.00     0.307 C 
HETATM    9  O3  UNL     1      22.340   5.024  -2.087  1.00  0.00    -0.262 OA
HETATM   10  N5  UNL     1      20.306   5.008  -3.203  1.00  0.00    -0.260 N 
ATOM     11  H5  UNL     1      19.785   4.485  -3.906  1.00  0.00     0.190 HD
BRANCH  10  12
HETATM   12  N6  UNL     1      19.660   6.063  -2.702  1.00  0.00    -0.259 N 
HETATM   13  C6  UNL     1      18.297   6.289  -2.519  1.00  0.00     0.329 C 
HETATM   14  O4  UNL     1      17.348   5.526  -2.791  1.00  0.00    -0.261 OA
ATOM     15  H6  UNL     1      20.263   6.830  -2.405  1.00  0.00     0.190 HD
BRANCH  13  16
HETATM   16  C7  UNL     1      17.893   7.589  -1.932  1.00  0.00     0.334 C 
HETATM   17  O5  UNL     1      17.108   8.305  -2.565  1.00  0.00    -0.260 OA
HETATM   18  N7  UNL     1      18.416   7.955  -0.677  1.00  0.00    -0.227 N 
ATOM     19  H7  UNL     1      19.061   7.333  -0.190  1.00  0.00     0.198 HD
BRANCH  18  20
HETATM   20  O6  UNL     1      18.061   9.126  -0.127  1.00  0.00    -0.282 OA
HETATM   21  C8  UNL     1      18.892   9.408   0.937  1.00  0.00     0.237 C 
ENDBRANCH  18  20
ENDBRANCH  13  16
ENDBRANCH  10  12
ENDBRANCH   3   8
BRANCH   1  22
HETATM   22  N2  UNL     1      21.589   1.192  -4.526  1.00  0.00    -0.250 N 
HETATM   23  C2  UNL     1      20.746   0.100  -4.807  1.00  0.00     0.334 C 
HETATM   24  N1  UNL     1      21.235  -1.039  -5.511  1.00  0.00    -0.346 N 
HETATM   25  O1  UNL     1      19.536   0.075  -4.456  1.00  0.00    -0.246 OA
HETATM   26  C1  UNL     1      20.462  -2.195  -5.843  1.00  0.00     0.151 C 
ATOM     27  H1  UNL     1      22.213  -1.029  -5.800  1.00  0.00     0.163 HD
ATOM     28  H2  UNL     1      22.554   1.132  -4.849  1.00  0.00     0.192 HD
ENDBRANCH   1  22
TORSDOF 7
ENDMDL
MODEL 5
REMARK VINA RESULT: -6.261570092      4.118      6.072
REMARK  7 active torsions:
REMARK  status: ('A' for Active; 'I' for Inactive)
REMARK       I    between atoms: N1_2  and  C2_4 
REMARK       I    between atoms: C2_4  and  N2_6 
REMARK    1  A    between atoms: N2_6  and  N3_8 
REMARK    2  A    between atoms: C3_10  and  N4_11 
REMARK    3  A    between atoms: C3_10  and  C5_15 
REMARK    4  A    between atoms: N4_11  and  O2_13 
REMARK       I    between atoms: C5_15  and  N5_17 
REMARK    5  A    between atoms: N5_17  and  N6_19 
REMARK       I    between atoms: N6_19  and  C6_21 
REMARK    6  A    between atoms: C6_21  and  C7_23 
REMARK       I    between atoms: C7_23  and  N7_25 
REMARK    7  A    between atoms: N7_25  and  O6_27 
ROOT
HETATM    1  N3  UNL     1      18.660   7.397  -1.935  1.00  0.00    -0.276 N 
ATOM      2  H3  UNL     1      18.891   6.900  -2.795  1.00  0.00     0.189 HD
HETATM    3  C3  UNL     1      19.540   7.503  -1.001  1.00  0.00     0.211 C 
ENDROOT
BRANCH   3   4
HETATM    4  N4  UNL     1      19.227   8.188   0.181  1.00  0.00    -0.245 N 
ATOM      5  H4  UNL     1      18.336   8.011   0.644  1.00  0.00     0.196 HD
BRANCH   4   6
HETATM    6  O2  UNL     1      20.096   9.087   0.719  1.00  0.00    -0.283 OA
HETATM    7  C4  UNL     1      19.466   9.888   1.660  1.00  0.00     0.237 C 
ENDBRANCH   4   6
ENDBRANCH   3   4
BRANCH   3   8
HETATM    8  C5  UNL     1      20.857   6.860  -1.241  1.00  0.00     0.307 C 
HETATM    9  O3  UNL     1      21.858   7.365  -0.703  1.00  0.00    -0.262 OA
HETATM   10  N5  UNL     1      20.934   5.718  -2.051  1.00  0.00    -0.260 N 
ATOM     11  H5  UNL     1      20.042   5.407  -2.434  1.00  0.00     0.190 HD
BRANCH  10  12
HETATM   12  N6  UNL     1      21.981   4.972  -2.405  1.00  0.00    -0.259 N 
HETATM   13  C6  UNL     1      22.152   4.098  -3.477  1.00  0.00     0.329 C 
HETATM   14  O4  UNL     1      21.333   3.813  -4.374  1.00  0.00    -0.261 OA
ATOM     15  H6  UNL     1      22.791   5.055  -1.790  1.00  0.00     0.190 HD
BRANCH  13  16
HETATM   16  C7  UNL     1      23.457   3.403  -3.592  1.00  0.00     0.334 C 
HETATM   17  O5  UNL     1      23.480   2.263  -4.071  1.00  0.00    -0.260 OA
HETATM   18  N7  UNL     1      24.617   4.070  -3.155  1.00  0.00    -0.227 N 
ATOM     19  H7  UNL     1      24.552   5.011  -2.766  1.00  0.00     0.198 HD
BRANCH  18  20
HETATM   20  O6  UNL     1      25.808   3.460  -3.251  1.00  0.00    -0.282 OA
HETATM   21  C8  UNL     1      26.103   2.829  -2.061  1.00  0.00     0.237 C 
ENDBRANCH  18  20
ENDBRANCH  13  16
ENDBRANCH  10  12
ENDBRANCH   3   8
BRANCH   1  22
HETATM   22  N2  UNL     1      17.390   7.960  -1.777  1.00  0.00    -0.250 N 
HETATM   23  C2  UNL     1      16.232   7.266  -1.378  1.00  0.00     0.334 C 
HETATM   24  N1  UNL     1      14.982   7.940  -1.253  1.00  0.00    -0.346 N 
HETATM   25  O1  UNL     1      16.243   6.033  -1.115  1.00  0.00    -0.246 OA
HETATM   26  C1  UNL     1      13.754   7.327  -0.857  1.00  0.00     0.151 C 
ATOM     27  H1  UNL     1      14.963   8.938  -1.463  1.00  0.00     0.163 HD
ATOM     28  H2  UNL     1      17.294   8.957  -1.967  1.00  0.00     0.192 HD
ENDBRANCH   1  22
TORSDOF 7
ENDMDL
