MODEL 1
REMARK VINA RESULT: -6.756219452      0.000      0.000
REMARK  7 active torsions:
REMARK  status: ('A' for Active; 'I' for Inactive)
REMARK    1  A    between atoms: C2_2  and  C3_3 
REMARK    2  A    between atoms: C3_3  and  O1_4 
REMARK    3  A    between atoms: C3_3  and  C4_6 
REMARK    4  A    between atoms: C4_6  and  C5_7 
REMARK    5  A    between atoms: C6_10  and  O4_11 
REMARK    6  A    between atoms: C21_27  and  C23_29 
REMARK       I    between atoms: C23_29  and  N1_31 
REMARK    7  A    between atoms: N1_31  and  C24_33 
ROOT
HETATM    1  C4  UNL     1      -4.975  -8.394  -6.788  1.00  0.00     0.111 C 
HETATM    2  C6  UNL     1      -5.264  -7.510  -5.633  1.00  0.00     0.141 C 
HETATM    3  C7  UNL     1      -6.624  -7.620  -4.902  1.00  0.00     0.043 C 
HETATM    4  C8  UNL     1      -7.519  -7.783  -6.055  1.00  0.00    -0.033 C 
HETATM    5  C9  UNL     1      -7.313  -6.479  -6.655  1.00  0.00     0.016 C 
HETATM    6  C10 UNL     1      -8.931  -8.004  -6.252  1.00  0.00     0.002 C 
HETATM    7  C11 UNL     1      -9.261  -9.361  -5.605  1.00  0.00     0.006 C 
HETATM    8  C12 UNL     1      -8.204 -10.130  -6.388  1.00  0.00     0.007 C 
HETATM    9  C13 UNL     1      -7.095  -9.144  -6.368  1.00  0.00     0.007 C 
HETATM   10  C14 UNL     1      -6.114  -9.098  -7.466  1.00  0.00     0.001 C 
HETATM   11  C15 UNL     1      -5.714 -10.575  -7.677  1.00  0.00     0.021 C 
HETATM   12  C16 UNL     1      -6.771  -8.603  -8.667  1.00  0.00    -0.011 C 
HETATM   13  C17 UNL     1      -8.158  -8.171  -8.752  1.00  0.00    -0.061 C 
HETATM   14  C18 UNL     1      -9.171  -8.253  -7.725  1.00  0.00     0.020 C 
HETATM   15  C19 UNL     1     -10.245  -7.316  -8.321  1.00  0.00     0.011 C 
HETATM   16  C20 UNL     1     -10.346  -7.980  -9.713  1.00  0.00     0.024 C 
HETATM   17  C21 UNL     1      -8.964  -8.612  -9.960  1.00  0.00     0.061 C 
HETATM   18  C22 UNL     1      -8.434  -7.929 -11.239  1.00  0.00     0.030 C 
ENDROOT
BRANCH   1  19
HETATM   19  C3  UNL     1      -4.006  -7.744  -7.758  1.00  0.00     0.140 C 
BRANCH  19  20
HETATM   20  C2  UNL     1      -4.687  -6.881  -8.755  1.00  0.00     0.028 C 
HETATM   21  C1  UNL     1      -4.114  -5.469  -8.594  1.00  0.00     0.007 C 
ENDBRANCH  19  20
BRANCH  19  22
HETATM   22  O1  UNL     1      -3.031  -7.075  -7.029  1.00  0.00    -0.394 OA
ATOM     23  H1  UNL     1      -2.327  -7.642  -6.734  1.00  0.00     0.210 HD
ENDBRANCH  19  22
ENDBRANCH   1  19
BRANCH   1  24
HETATM   24  C5  UNL     1      -4.082  -9.471  -6.187  1.00  0.00     0.188 C 
HETATM   25  O2  UNL     1      -2.940  -9.753  -6.693  1.00  0.00    -0.647 OA
HETATM   26  O3  UNL     1      -4.382 -10.229  -5.094  1.00  0.00    -0.647 OA
ENDBRANCH   1  24
BRANCH   2  27
HETATM   27  O4  UNL     1      -4.312  -7.586  -4.606  1.00  0.00    -0.394 OA
ATOM     28  H4  UNL     1      -4.681  -7.775  -3.752  1.00  0.00     0.210 HD
ENDBRANCH   2  27
BRANCH  17  29
HETATM   29  C23 UNL     1      -9.174  -9.977 -10.283  1.00  0.00     0.230 C 
HETATM   30  O5  UNL     1     -10.101 -10.491 -10.963  1.00  0.00    -0.272 OA
HETATM   31  N1  UNL     1      -8.242 -10.938  -9.796  1.00  0.00    -0.356 N 
ATOM     32  H1  UNL     1      -7.457 -10.601  -9.241  1.00  0.00     0.162 HD
BRANCH  31  33
HETATM   33  C24 UNL     1      -8.338 -12.370 -10.041  1.00  0.00     0.076 C 
HETATM   34  C25 UNL     1      -8.754 -13.156  -8.850  1.00  0.00     0.032 C 
HETATM   35  C26 UNL     1      -7.012 -12.924 -10.541  1.00  0.00     0.032 C 
ENDBRANCH  31  33
ENDBRANCH  17  29
TORSDOF 7
ENDMDL
MODEL 2
REMARK VINA RESULT: -6.429320430      2.587      5.485
REMARK  7 active torsions:
REMARK  status: ('A' for Active; 'I' for Inactive)
REMARK    1  A    between atoms: C2_2  and  C3_3 
REMARK    2  A    between atoms: C3_3  and  O1_4 
REMARK    3  A    between atoms: C3_3  and  C4_6 
REMARK    4  A    between atoms: C4_6  and  C5_7 
REMARK    5  A    between atoms: C6_10  and  O4_11 
REMARK    6  A    between atoms: C21_27  and  C23_29 
REMARK       I    between atoms: C23_29  and  N1_31 
REMARK    7  A    between atoms: N1_31  and  C24_33 
ROOT
HETATM    1  C4  UNL     1      -6.563  -9.888  -7.373  1.00  0.00     0.111 C 
HETATM    2  C6  UNL     1      -7.526 -10.301  -6.324  1.00  0.00     0.141 C 
HETATM    3  C7  UNL     1      -8.633  -9.320  -5.868  1.00  0.00     0.043 C 
HETATM    4  C8  UNL     1      -7.861  -8.071  -5.827  1.00  0.00    -0.033 C 
HETATM    5  C9  UNL     1      -6.955  -8.429  -4.752  1.00  0.00     0.016 C 
HETATM    6  C10 UNL     1      -8.144  -6.682  -5.554  1.00  0.00     0.002 C 
HETATM    7  C11 UNL     1      -9.142  -6.215  -6.629  1.00  0.00     0.006 C 
HETATM    8  C12 UNL     1      -8.271  -6.649  -7.802  1.00  0.00     0.007 C 
HETATM    9  C13 UNL     1      -7.745  -7.933  -7.275  1.00  0.00     0.007 C 
HETATM   10  C14 UNL     1      -6.424  -8.430  -7.698  1.00  0.00     0.001 C 
HETATM   11  C15 UNL     1      -6.435  -8.273  -9.234  1.00  0.00     0.021 C 
HETATM   12  C16 UNL     1      -5.393  -7.570  -7.136  1.00  0.00    -0.011 C 
HETATM   13  C17 UNL     1      -5.629  -6.437  -6.253  1.00  0.00    -0.061 C 
HETATM   14  C18 UNL     1      -6.900  -5.876  -5.860  1.00  0.00     0.020 C 
HETATM   15  C19 UNL     1      -6.457  -4.991  -4.674  1.00  0.00     0.011 C 
HETATM   16  C20 UNL     1      -5.340  -4.213  -5.406  1.00  0.00     0.024 C 
HETATM   17  C21 UNL     1      -4.841  -5.166  -6.508  1.00  0.00     0.061 C 
HETATM   18  C22 UNL     1      -3.345  -5.388  -6.199  1.00  0.00     0.030 C 
ENDROOT
BRANCH   1  19
HETATM   19  C3  UNL     1      -5.231 -10.600  -7.216  1.00  0.00     0.140 C 
BRANCH  19  20
HETATM   20  C2  UNL     1      -4.344  -9.942  -6.224  1.00  0.00     0.028 C 
HETATM   21  C1  UNL     1      -3.415 -11.024  -5.665  1.00  0.00     0.007 C 
ENDBRANCH  19  20
BRANCH  19  22
HETATM   22  O1  UNL     1      -5.473 -11.938  -6.932  1.00  0.00    -0.394 OA
ATOM     23  H1  UNL     1      -6.317 -12.241  -7.247  1.00  0.00     0.210 HD
ENDBRANCH  19  22
ENDBRANCH   1  19
BRANCH   1  24
HETATM   24  C5  UNL     1      -7.094 -10.573  -8.625  1.00  0.00     0.188 C 
HETATM   25  O2  UNL     1      -6.353 -11.337  -9.337  1.00  0.00    -0.647 OA
HETATM   26  O3  UNL     1      -8.361 -10.455  -9.113  1.00  0.00    -0.647 OA
ENDBRANCH   1  24
BRANCH   2  27
HETATM   27  O4  UNL     1      -8.216 -11.486  -6.621  1.00  0.00    -0.394 OA
ATOM     28  H4  UNL     1      -9.161 -11.399  -6.592  1.00  0.00     0.210 HD
ENDBRANCH   2  27
BRANCH  17  29
HETATM   29  C23 UNL     1      -4.904  -4.460  -7.737  1.00  0.00     0.230 C 
HETATM   30  O5  UNL     1      -5.681  -3.528  -8.070  1.00  0.00    -0.272 OA
HETATM   31  N1  UNL     1      -3.989  -4.817  -8.768  1.00  0.00    -0.356 N 
ATOM     32  H1  UNL     1      -3.320  -5.562  -8.576  1.00  0.00     0.162 HD
BRANCH  31  33
HETATM   33  C24 UNL     1      -3.946  -4.187 -10.080  1.00  0.00     0.076 C 
HETATM   34  C25 UNL     1      -4.611  -4.977 -11.149  1.00  0.00     0.032 C 
HETATM   35  C26 UNL     1      -2.509  -3.921 -10.507  1.00  0.00     0.032 C 
ENDBRANCH  31  33
ENDBRANCH  17  29
TORSDOF 7
ENDMDL
MODEL 3
REMARK VINA RESULT: -6.272916737      1.900      2.585
REMARK  7 active torsions:
REMARK  status: ('A' for Active; 'I' for Inactive)
REMARK    1  A    between atoms: C2_2  and  C3_3 
REMARK    2  A    between atoms: C3_3  and  O1_4 
REMARK    3  A    between atoms: C3_3  and  C4_6 
REMARK    4  A    between atoms: C4_6  and  C5_7 
REMARK    5  A    between atoms: C6_10  and  O4_11 
REMARK    6  A    between atoms: C21_27  and  C23_29 
REMARK       I    between atoms: C23_29  and  N1_31 
REMARK    7  A    between atoms: N1_31  and  C24_33 
ROOT
HETATM    1  C4  UNL     1      -4.804  -7.196  -6.712  1.00  0.00     0.111 C 
HETATM    2  C6  UNL     1      -5.599  -5.945  -6.686  1.00  0.00     0.141 C 
HETATM    3  C7  UNL     1      -7.078  -5.983  -6.233  1.00  0.00     0.043 C 
HETATM    4  C8  UNL     1      -7.514  -7.218  -6.899  1.00  0.00    -0.033 C 
HETATM    5  C9  UNL     1      -7.362  -6.772  -8.270  1.00  0.00     0.016 C 
HETATM    6  C10 UNL     1      -8.726  -7.999  -6.951  1.00  0.00     0.002 C 
HETATM    7  C11 UNL     1      -9.000  -8.488  -5.518  1.00  0.00     0.006 C 
HETATM    8  C12 UNL     1      -7.629  -9.132  -5.345  1.00  0.00     0.007 C 
HETATM    9  C13 UNL     1      -6.779  -8.118  -6.016  1.00  0.00     0.007 C 
HETATM   10  C14 UNL     1      -5.522  -8.514  -6.676  1.00  0.00     0.001 C 
HETATM   11  C15 UNL     1      -4.821  -9.420  -5.642  1.00  0.00     0.021 C 
HETATM   12  C16 UNL     1      -5.838  -9.296  -7.863  1.00  0.00    -0.011 C 
HETATM   13  C17 UNL     1      -7.179  -9.589  -8.347  1.00  0.00    -0.061 C 
HETATM   14  C18 UNL     1      -8.435  -9.277  -7.707  1.00  0.00     0.020 C 
HETATM   15  C19 UNL     1      -9.411  -9.512  -8.881  1.00  0.00     0.011 C 
HETATM   16  C20 UNL     1      -8.942 -10.936  -9.254  1.00  0.00     0.024 C 
HETATM   17  C21 UNL     1      -7.464 -11.001  -8.826  1.00  0.00     0.061 C 
HETATM   18  C22 UNL     1      -6.683 -11.297 -10.124  1.00  0.00     0.030 C 
ENDROOT
BRANCH   1  19
HETATM   19  C3  UNL     1      -3.706  -7.137  -7.759  1.00  0.00     0.140 C 
BRANCH  19  20
HETATM   20  C2  UNL     1      -4.140  -7.677  -9.073  1.00  0.00     0.028 C 
HETATM   21  C1  UNL     1      -4.045  -6.529 -10.083  1.00  0.00     0.007 C 
ENDBRANCH  19  20
BRANCH  19  22
HETATM   22  O1  UNL     1      -3.232  -5.834  -7.832  1.00  0.00    -0.394 OA
ATOM     23  H1  UNL     1      -2.293  -5.768  -7.701  1.00  0.00     0.210 HD
ENDBRANCH  19  22
ENDBRANCH   1  19
BRANCH   1  24
HETATM   24  C5  UNL     1      -3.974  -7.109  -5.439  1.00  0.00     0.188 C 
HETATM   25  O2  UNL     1      -2.698  -7.219  -5.462  1.00  0.00    -0.647 OA
HETATM   26  O3  UNL     1      -4.469  -6.918  -4.183  1.00  0.00    -0.647 OA
ENDBRANCH   1  24
BRANCH   2  27
HETATM   27  O4  UNL     1      -5.027  -4.924  -5.912  1.00  0.00    -0.394 OA
ATOM     28  H4  UNL     1      -5.540  -4.126  -5.887  1.00  0.00     0.210 HD
ENDBRANCH   2  27
BRANCH  17  29
HETATM   29  C23 UNL     1      -7.315 -12.137  -7.991  1.00  0.00     0.230 C 
HETATM   30  O5  UNL     1      -6.448 -12.352  -7.104  1.00  0.00    -0.272 OA
HETATM   31  N1  UNL     1      -8.241 -13.209  -8.136  1.00  0.00    -0.356 N 
ATOM     32  H1  UNL     1      -8.979 -13.110  -8.832  1.00  0.00     0.162 HD
BRANCH  31  33
HETATM   33  C24 UNL     1      -8.202 -14.437  -7.355  1.00  0.00     0.076 C 
HETATM   34  C25 UNL     1      -8.633 -15.643  -8.110  1.00  0.00     0.032 C 
HETATM   35  C26 UNL     1      -9.070 -14.316  -6.111  1.00  0.00     0.032 C 
ENDBRANCH  31  33
ENDBRANCH  17  29
TORSDOF 7
ENDMDL
MODEL 4
REMARK VINA RESULT: -6.249903842      2.500      5.163
REMARK  7 active torsions:
REMARK  status: ('A' for Active; 'I' for Inactive)
REMARK    1  A    between atoms: C2_2  and  C3_3 
REMARK    2  A    between atoms: C3_3  and  O1_4 
REMARK    3  A    between atoms: C3_3  and  C4_6 
REMARK    4  A    between atoms: C4_6  and  C5_7 
REMARK    5  A    between atoms: C6_10  and  O4_11 
REMARK    6  A    between atoms: C21_27  and  C23_29 
REMARK       I    between atoms: C23_29  and  N1_31 
REMARK    7  A    between atoms: N1_31  and  C24_33 
ROOT
HETATM    1  C4  UNL     1      -5.036  -9.805  -7.100  1.00  0.00     0.111 C 
HETATM    2  C6  UNL     1      -4.205  -9.526  -8.296  1.00  0.00     0.141 C 
HETATM    3  C7  UNL     1      -3.944  -8.062  -8.725  1.00  0.00     0.043 C 
HETATM    4  C8  UNL     1      -5.279  -7.491  -8.503  1.00  0.00    -0.033 C 
HETATM    5  C9  UNL     1      -5.993  -8.250  -9.512  1.00  0.00     0.016 C 
HETATM    6  C10 UNL     1      -5.881  -6.184  -8.603  1.00  0.00     0.002 C 
HETATM    7  C11 UNL     1      -5.153  -5.283  -7.589  1.00  0.00     0.006 C 
HETATM    8  C12 UNL     1      -5.411  -6.204  -6.401  1.00  0.00     0.007 C 
HETATM    9  C13 UNL     1      -5.202  -7.524  -7.046  1.00  0.00     0.007 C 
HETATM   10  C14 UNL     1      -5.915  -8.717  -6.556  1.00  0.00     0.001 C 
HETATM   11  C15 UNL     1      -5.731  -8.665  -5.024  1.00  0.00     0.021 C 
HETATM   12  C16 UNL     1      -7.330  -8.585  -6.874  1.00  0.00    -0.011 C 
HETATM   13  C17 UNL     1      -7.930  -7.480  -7.606  1.00  0.00    -0.061 C 
HETATM   14  C18 UNL     1      -7.287  -6.266  -8.051  1.00  0.00     0.020 C 
HETATM   15  C19 UNL     1      -8.348  -5.738  -9.043  1.00  0.00     0.011 C 
HETATM   16  C20 UNL     1      -9.563  -5.793  -8.090  1.00  0.00     0.024 C 
HETATM   17  C21 UNL     1      -9.240  -6.916  -7.087  1.00  0.00     0.061 C 
HETATM   18  C22 UNL     1     -10.375  -7.947  -7.259  1.00  0.00     0.030 C 
ENDROOT
BRANCH   1  19
HETATM   19  C3  UNL     1      -5.737 -11.147  -7.210  1.00  0.00     0.140 C 
BRANCH  19  20
HETATM   20  C2  UNL     1      -7.023 -11.062  -7.948  1.00  0.00     0.028 C 
HETATM   21  C1  UNL     1      -6.877 -11.924  -9.206  1.00  0.00     0.007 C 
ENDBRANCH  19  20
BRANCH  19  22
HETATM   22  O1  UNL     1      -4.852 -12.067  -7.757  1.00  0.00    -0.394 OA
ATOM     23  H1  UNL     1      -4.550 -11.827  -8.626  1.00  0.00     0.210 HD
ENDBRANCH  19  22
ENDBRANCH   1  19
BRANCH   1  24
HETATM   24  C5  UNL     1      -4.006 -10.122  -6.025  1.00  0.00     0.188 C 
HETATM   25  O2  UNL     1      -4.072 -11.193  -5.327  1.00  0.00    -0.647 OA
HETATM   26  O3  UNL     1      -2.943  -9.334  -5.691  1.00  0.00    -0.647 OA
ENDBRANCH   1  24
BRANCH   2  27
HETATM   27  O4  UNL     1      -2.929 -10.106  -8.249  1.00  0.00    -0.394 OA
ATOM     28  H4  UNL     1      -2.706 -10.478  -7.404  1.00  0.00     0.210 HD
ENDBRANCH   2  27
BRANCH  17  29
HETATM   29  C23 UNL     1      -9.376  -6.372  -5.784  1.00  0.00     0.230 C 
HETATM   30  O5  UNL     1      -8.781  -6.707  -4.726  1.00  0.00    -0.272 OA
HETATM   31  N1  UNL     1     -10.298  -5.304  -5.590  1.00  0.00    -0.356 N 
ATOM     32  H1  UNL     1     -10.817  -4.970  -6.401  1.00  0.00     0.162 HD
BRANCH  31  33
HETATM   33  C24 UNL     1     -10.547  -4.658  -4.309  1.00  0.00     0.076 C 
HETATM   34  C25 UNL     1     -11.937  -4.159  -4.148  1.00  0.00     0.032 C 
HETATM   35  C26 UNL     1      -9.592  -3.493  -4.095  1.00  0.00     0.032 C 
ENDBRANCH  31  33
ENDBRANCH  17  29
TORSDOF 7
ENDMDL
MODEL 5
REMARK VINA RESULT: -6.160008804      2.471      3.708
REMARK  7 active torsions:
REMARK  status: ('A' for Active; 'I' for Inactive)
REMARK    1  A    between atoms: C2_2  and  C3_3 
REMARK    2  A    between atoms: C3_3  and  O1_4 
REMARK    3  A    between atoms: C3_3  and  C4_6 
REMARK    4  A    between atoms: C4_6  and  C5_7 
REMARK    5  A    between atoms: C6_10  and  O4_11 
REMARK    6  A    between atoms: C21_27  and  C23_29 
REMARK       I    between atoms: C23_29  and  N1_31 
REMARK    7  A    between atoms: N1_31  and  C24_33 
ROOT
HETATM    1  C4  UNL     1      -5.769  -8.096  -6.152  1.00  0.00     0.111 C 
HETATM    2  C6  UNL     1      -6.814  -8.511  -5.186  1.00  0.00     0.141 C 
HETATM    3  C7  UNL     1      -8.156  -9.083  -5.704  1.00  0.00     0.043 C 
HETATM    4  C8  UNL     1      -8.397  -8.176  -6.835  1.00  0.00    -0.033 C 
HETATM    5  C9  UNL     1      -8.568  -6.951  -6.078  1.00  0.00     0.016 C 
HETATM    6  C10 UNL     1      -9.391  -8.051  -7.873  1.00  0.00     0.002 C 
HETATM    7  C11 UNL     1      -9.317  -9.337  -8.715  1.00  0.00     0.006 C 
HETATM    8  C12 UNL     1      -7.826  -9.209  -9.003  1.00  0.00     0.007 C 
HETATM    9  C13 UNL     1      -7.346  -8.731  -7.682  1.00  0.00     0.007 C 
HETATM   10  C14 UNL     1      -6.152  -7.873  -7.585  1.00  0.00     0.001 C 
HETATM   11  C15 UNL     1      -5.108  -8.575  -8.481  1.00  0.00     0.021 C 
HETATM   12  C16 UNL     1      -6.462  -6.566  -8.146  1.00  0.00    -0.011 C 
HETATM   13  C17 UNL     1      -7.760  -6.158  -8.665  1.00  0.00    -0.061 C 
HETATM   14  C18 UNL     1      -8.937  -6.976  -8.836  1.00  0.00     0.020 C 
HETATM   15  C19 UNL     1     -10.005  -5.881  -9.055  1.00  0.00     0.011 C 
HETATM   16  C20 UNL     1      -9.288  -5.121 -10.194  1.00  0.00     0.024 C 
HETATM   17  C21 UNL     1      -7.786  -5.373  -9.964  1.00  0.00     0.061 C 
HETATM   18  C22 UNL     1      -7.172  -3.972  -9.759  1.00  0.00     0.030 C 
ENDROOT
BRANCH   1  19
HETATM   19  C3  UNL     1      -4.892  -6.994  -5.584  1.00  0.00     0.140 C 
BRANCH  19  20
HETATM   20  C2  UNL     1      -5.413  -5.637  -5.885  1.00  0.00     0.028 C 
HETATM   21  C1  UNL     1      -5.721  -4.966  -4.542  1.00  0.00     0.007 C 
ENDBRANCH  19  20
BRANCH  19  22
HETATM   22  O1  UNL     1      -4.714  -7.224  -4.226  1.00  0.00    -0.394 OA
ATOM     23  H1  UNL     1      -3.807  -7.384  -3.988  1.00  0.00     0.210 HD
ENDBRANCH  19  22
ENDBRANCH   1  19
BRANCH   1  24
HETATM   24  C5  UNL     1      -4.791  -9.263  -6.130  1.00  0.00     0.188 C 
HETATM   25  O2  UNL     1      -3.544  -9.089  -5.897  1.00  0.00    -0.647 OA
HETATM   26  O3  UNL     1      -5.113 -10.569  -6.351  1.00  0.00    -0.647 OA
ENDBRANCH   1  24
BRANCH   2  27
HETATM   27  O4  UNL     1      -6.377  -9.455  -4.245  1.00  0.00    -0.394 OA
ATOM     28  H4  UNL     1      -6.945 -10.211  -4.165  1.00  0.00     0.210 HD
ENDBRANCH   2  27
BRANCH  17  29
HETATM   29  C23 UNL     1      -7.251  -5.880 -11.176  1.00  0.00     0.230 C 
HETATM   30  O5  UNL     1      -7.809  -6.608 -12.038  1.00  0.00    -0.272 OA
HETATM   31  N1  UNL     1      -5.906  -5.554 -11.509  1.00  0.00    -0.356 N 
ATOM     32  H1  UNL     1      -5.385  -4.962 -10.863  1.00  0.00     0.162 HD
BRANCH  31  33
HETATM   33  C24 UNL     1      -5.226  -6.012 -12.712  1.00  0.00     0.076 C 
HETATM   34  C25 UNL     1      -4.385  -7.220 -12.505  1.00  0.00     0.032 C 
HETATM   35  C26 UNL     1      -4.347  -4.911 -13.290  1.00  0.00     0.032 C 
ENDBRANCH  31  33
ENDBRANCH  17  29
TORSDOF 7
ENDMDL
