MODEL 1
REMARK VINA RESULT: -7.619948310      0.000      0.000
REMARK  6 active torsions:
REMARK  status: ('A' for Active; 'I' for Inactive)
REMARK    1  A    between atoms: C7_12  and  N3_13 
REMARK    2  A    between atoms: N3_13  and  C8_15 
REMARK    3  A    between atoms: C8_15  and  C9_16 
REMARK    4  A    between atoms: C9_16  and  C10_17 
REMARK    5  A    between atoms: C10_17  and  N4_18 
REMARK    6  A    between atoms: C16_28  and  C17_29 
ROOT
HETATM    1  N1  UNL     1       8.968  53.049  88.119  1.00  0.00    -0.401 N 
ATOM      2  H11 UNL     1       9.293  53.641  87.356  1.00  0.00     0.156 HD
ATOM      3  H12 UNL     1       8.023  52.664  88.138  1.00  0.00     0.156 HD
HETATM    4  C1  UNL     1       9.745  52.783  89.084  1.00  0.00     0.031 C 
HETATM    5  C2  UNL     1       9.269  51.918  90.199  1.00  0.00     0.059 C 
HETATM    6  C3  UNL     1      10.231  51.990  91.380  1.00  0.00     0.011 C 
HETATM    7  C4  UNL     1      10.779  53.430  91.440  1.00  0.00     0.044 C 
HETATM    8  C5  UNL     1      11.655  53.622  90.316  1.00  0.00     0.001 A 
HETATM    9  C6  UNL     1      11.096  53.334  89.058  1.00  0.00     0.080 A 
HETATM   10  N2  UNL     1      11.783  53.533  87.939  1.00  0.00    -0.188 N 
ATOM     11  H2  UNL     1      11.359  53.320  87.037  1.00  0.00     0.184 HD
HETATM   12  C7  UNL     1      13.028  54.013  87.994  1.00  0.00     0.700 A 
HETATM   13  N5  UNL     1      13.597  54.297  89.192  1.00  0.00    -0.086 N 
HETATM   14  N6  UNL     1      14.784  54.768  89.514  1.00  0.00    -0.290 N 
ATOM     15  H6  UNL     1      15.507  55.007  88.835  1.00  0.00     0.187 HD
HETATM   16  C15 UNL     1      14.928  54.893  90.820  1.00  0.00     0.122 A 
HETATM   17  C16 UNL     1      13.724  54.463  91.415  1.00  0.00     0.021 A 
HETATM   18  C23 UNL     1      12.920  54.104  90.366  1.00  0.00     0.095 A 
ENDROOT
BRANCH  12  19
HETATM   19  N3  UNL     1      13.696  54.211  86.931  1.00  0.00    -0.224 N 
ATOM     20  H3  UNL     1      14.421  54.927  86.995  1.00  0.00     0.177 HD
BRANCH  19  21
HETATM   21  C8  UNL     1      13.575  53.577  85.668  1.00  0.00     0.140 C 
BRANCH  21  22
HETATM   22  C9  UNL     1      14.947  53.422  85.014  1.00  0.00     0.050 C 
BRANCH  22  23
HETATM   23  C10 UNL     1      14.740  53.172  83.559  1.00  0.00     0.274 C 
BRANCH  23  24
HETATM   24  N4  UNL     1      14.985  51.799  83.233  1.00  0.00     0.092 N 
HETATM   25  C11 UNL     1      16.072  51.672  82.263  1.00  0.00     0.298 C 
HETATM   26  C12 UNL     1      15.537  51.986  80.896  1.00  0.00     0.198 C 
HETATM   27  O1  UNL     1      14.694  50.954  80.480  1.00  0.00    -0.388 OA
HETATM   28  C13 UNL     1      14.134  50.293  81.576  1.00  0.00     0.198 C 
HETATM   29  C14 UNL     1      13.746  51.297  82.634  1.00  0.00     0.298 C 
ENDBRANCH  23  24
ENDBRANCH  22  23
ENDBRANCH  21  22
ENDBRANCH  19  21
ENDBRANCH  12  19
BRANCH  17  30
HETATM   30  C17 UNL     1      13.496  54.371  92.845  1.00  0.00    -0.022 A 
HETATM   31  C18 UNL     1      13.072  55.422  93.648  1.00  0.00     0.012 A 
HETATM   32  C19 UNL     1      12.861  55.300  94.991  1.00  0.00     0.001 A 
HETATM   33  C20 UNL     1      13.072  54.087  95.611  1.00  0.00     0.000 A 
HETATM   34  C21 UNL     1      13.494  53.014  94.850  1.00  0.00     0.001 A 
HETATM   35  C22 UNL     1      13.703  53.162  93.477  1.00  0.00     0.012 A 
ENDBRANCH  17  30
TORSDOF 6
ENDMDL
MODEL 2
REMARK VINA RESULT: -7.257289123      1.564      1.907
REMARK  6 active torsions:
REMARK  status: ('A' for Active; 'I' for Inactive)
REMARK    1  A    between atoms: C7_12  and  N3_13 
REMARK    2  A    between atoms: N3_13  and  C8_15 
REMARK    3  A    between atoms: C8_15  and  C9_16 
REMARK    4  A    between atoms: C9_16  and  C10_17 
REMARK    5  A    between atoms: C10_17  and  N4_18 
REMARK    6  A    between atoms: C16_28  and  C17_29 
ROOT
HETATM    1  N1  UNL     1       8.830  52.981  88.365  1.00  0.00    -0.401 N 
ATOM      2  H11 UNL     1       9.155  53.564  87.594  1.00  0.00     0.156 HD
ATOM      3  H12 UNL     1       7.884  52.600  88.391  1.00  0.00     0.156 HD
HETATM    4  C1  UNL     1       9.609  52.724  89.330  1.00  0.00     0.031 C 
HETATM    5  C2  UNL     1       9.134  51.873  90.456  1.00  0.00     0.059 C 
HETATM    6  C3  UNL     1      10.100  51.955  91.633  1.00  0.00     0.011 C 
HETATM    7  C4  UNL     1      10.653  53.393  91.675  1.00  0.00     0.044 C 
HETATM    8  C5  UNL     1      11.526  53.568  90.546  1.00  0.00     0.001 A 
HETATM    9  C6  UNL     1      10.962  53.268  89.293  1.00  0.00     0.080 A 
HETATM   10  N2  UNL     1      11.646  53.452  88.170  1.00  0.00    -0.188 N 
ATOM     11  H2  UNL     1      11.218  53.230  87.271  1.00  0.00     0.184 HD
HETATM   12  C7  UNL     1      12.893  53.928  88.214  1.00  0.00     0.700 A 
HETATM   13  N5  UNL     1      13.468  54.223  89.408  1.00  0.00    -0.086 N 
HETATM   14  N6  UNL     1      14.658  54.693  89.720  1.00  0.00    -0.290 N 
ATOM     15  H6  UNL     1      15.378  54.922  89.035  1.00  0.00     0.187 HD
HETATM   16  C15 UNL     1      14.806  54.832  91.024  1.00  0.00     0.122 A 
HETATM   17  C16 UNL     1      13.602  54.414  91.628  1.00  0.00     0.021 A 
HETATM   18  C23 UNL     1      12.793  54.046  90.586  1.00  0.00     0.095 A 
ENDROOT
BRANCH  12  19
HETATM   19  N3  UNL     1      13.559  54.111  87.147  1.00  0.00    -0.224 N 
ATOM     20  H3  UNL     1      14.511  54.453  87.276  1.00  0.00     0.177 HD
BRANCH  19  21
HETATM   21  C8  UNL     1      13.160  53.908  85.801  1.00  0.00     0.140 C 
BRANCH  21  22
HETATM   22  C9  UNL     1      14.296  53.276  84.998  1.00  0.00     0.050 C 
BRANCH  22  23
HETATM   23  C10 UNL     1      13.715  52.206  84.138  1.00  0.00     0.274 C 
BRANCH  23  24
HETATM   24  N4  UNL     1      12.443  51.779  84.638  1.00  0.00     0.092 N 
HETATM   25  C11 UNL     1      12.538  50.464  85.273  1.00  0.00     0.298 C 
HETATM   26  C12 UNL     1      12.562  49.413  84.202  1.00  0.00     0.198 C 
HETATM   27  O1  UNL     1      11.300  49.326  83.610  1.00  0.00    -0.388 OA
HETATM   28  C13 UNL     1      10.612  50.537  83.719  1.00  0.00     0.198 C 
HETATM   29  C14 UNL     1      11.559  51.686  83.473  1.00  0.00     0.298 C 
ENDBRANCH  23  24
ENDBRANCH  22  23
ENDBRANCH  21  22
ENDBRANCH  19  21
ENDBRANCH  12  19
BRANCH  17  30
HETATM   30  C17 UNL     1      13.380  54.339  93.059  1.00  0.00    -0.022 A 
HETATM   31  C18 UNL     1      12.910  55.386  93.843  1.00  0.00     0.012 A 
HETATM   32  C19 UNL     1      12.705  55.280  95.189  1.00  0.00     0.001 A 
HETATM   33  C20 UNL     1      12.969  54.089  95.831  1.00  0.00     0.000 A 
HETATM   34  C21 UNL     1      13.438  53.022  95.090  1.00  0.00     0.001 A 
HETATM   35  C22 UNL     1      13.639  53.152  93.714  1.00  0.00     0.012 A 
ENDBRANCH  17  30
TORSDOF 6
ENDMDL
MODEL 3
REMARK VINA RESULT: -7.249778029      3.195      8.255
REMARK  6 active torsions:
REMARK  status: ('A' for Active; 'I' for Inactive)
REMARK    1  A    between atoms: C7_12  and  N3_13 
REMARK    2  A    between atoms: N3_13  and  C8_15 
REMARK    3  A    between atoms: C8_15  and  C9_16 
REMARK    4  A    between atoms: C9_16  and  C10_17 
REMARK    5  A    between atoms: C10_17  and  N4_18 
REMARK    6  A    between atoms: C16_28  and  C17_29 
ROOT
HETATM    1  N1  UNL     1      11.506  47.648  88.503  1.00  0.00    -0.401 N 
ATOM      2  H11 UNL     1      11.436  48.249  89.323  1.00  0.00     0.156 HD
ATOM      3  H12 UNL     1      11.530  46.631  88.580  1.00  0.00     0.156 HD
HETATM    4  C1  UNL     1      11.578  48.166  87.349  1.00  0.00     0.031 C 
HETATM    5  C2  UNL     1      11.680  47.288  86.150  1.00  0.00     0.059 C 
HETATM    6  C3  UNL     1      12.069  48.103  84.921  1.00  0.00     0.011 C 
HETATM    7  C4  UNL     1      13.030  49.213  85.391  1.00  0.00     0.044 C 
HETATM    8  C5  UNL     1      12.273  50.161  86.164  1.00  0.00     0.001 A 
HETATM    9  C6  UNL     1      11.544  49.620  87.238  1.00  0.00     0.080 A 
HETATM   10  N2  UNL     1      10.857  50.401  88.064  1.00  0.00    -0.188 N 
ATOM     11  H2  UNL     1      10.337  49.989  88.838  1.00  0.00     0.184 HD
HETATM   12  C7  UNL     1      10.848  51.724  87.884  1.00  0.00     0.700 A 
HETATM   13  N5  UNL     1      11.538  52.276  86.855  1.00  0.00    -0.086 N 
HETATM   14  N6  UNL     1      11.688  53.525  86.464  1.00  0.00    -0.290 N 
ATOM     15  H6  UNL     1      11.262  54.325  86.934  1.00  0.00     0.187 HD
HETATM   16  C15 UNL     1      12.455  53.619  85.394  1.00  0.00     0.122 A 
HETATM   17  C16 UNL     1      12.846  52.310  85.045  1.00  0.00     0.021 A 
HETATM   18  C23 UNL     1      12.257  51.503  85.983  1.00  0.00     0.095 A 
ENDROOT
BRANCH  12  19
HETATM   19  N3  UNL     1      10.198  52.484  88.669  1.00  0.00    -0.224 N 
ATOM     20  H3  UNL     1       9.769  53.301  88.235  1.00  0.00     0.177 HD
BRANCH  19  21
HETATM   21  C8  UNL     1       9.985  52.352  90.065  1.00  0.00     0.140 C 
BRANCH  21  22
HETATM   22  C9  UNL     1      10.387  53.637  90.790  1.00  0.00     0.050 C 
BRANCH  22  23
HETATM   23  C10 UNL     1      11.737  53.428  91.387  1.00  0.00     0.274 C 
BRANCH  23  24
HETATM   24  N4  UNL     1      12.502  54.638  91.362  1.00  0.00     0.092 N 
HETATM   25  C11 UNL     1      12.641  55.149  89.999  1.00  0.00     0.298 C 
HETATM   26  C12 UNL     1      13.709  54.363  89.296  1.00  0.00     0.198 C 
HETATM   27  O1  UNL     1      14.956  54.698  89.828  1.00  0.00    -0.388 OA
HETATM   28  C13 UNL     1      14.834  55.142  91.147  1.00  0.00     0.198 C 
HETATM   29  C14 UNL     1      13.827  54.291  91.882  1.00  0.00     0.298 C 
ENDBRANCH  23  24
ENDBRANCH  22  23
ENDBRANCH  21  22
ENDBRANCH  19  21
ENDBRANCH  12  19
BRANCH  17  30
HETATM   30  C17 UNL     1      13.634  51.967  83.877  1.00  0.00    -0.022 A 
HETATM   31  C18 UNL     1      13.163  51.243  82.789  1.00  0.00     0.012 A 
HETATM   32  C19 UNL     1      13.930  50.942  81.701  1.00  0.00     0.001 A 
HETATM   33  C20 UNL     1      15.242  51.362  81.649  1.00  0.00     0.000 A 
HETATM   34  C21 UNL     1      15.752  52.085  82.710  1.00  0.00     0.001 A 
HETATM   35  C22 UNL     1      14.948  52.383  83.813  1.00  0.00     0.012 A 
ENDBRANCH  17  30
TORSDOF 6
ENDMDL
MODEL 4
REMARK VINA RESULT: -7.245436286      3.359      8.375
REMARK  6 active torsions:
REMARK  status: ('A' for Active; 'I' for Inactive)
REMARK    1  A    between atoms: C7_12  and  N3_13 
REMARK    2  A    between atoms: N3_13  and  C8_15 
REMARK    3  A    between atoms: C8_15  and  C9_16 
REMARK    4  A    between atoms: C9_16  and  C10_17 
REMARK    5  A    between atoms: C10_17  and  N4_18 
REMARK    6  A    between atoms: C16_28  and  C17_29 
ROOT
HETATM    1  N1  UNL     1      10.927  47.558  87.821  1.00  0.00    -0.401 N 
ATOM      2  H11 UNL     1      10.974  48.063  88.705  1.00  0.00     0.156 HD
ATOM      3  H12 UNL     1      10.750  46.554  87.783  1.00  0.00     0.156 HD
HETATM    4  C1  UNL     1      11.102  48.180  86.732  1.00  0.00     0.031 C 
HETATM    5  C2  UNL     1      11.033  47.442  85.440  1.00  0.00     0.059 C 
HETATM    6  C3  UNL     1      11.578  48.301  84.303  1.00  0.00     0.011 C 
HETATM    7  C4  UNL     1      12.736  49.141  84.877  1.00  0.00     0.044 C 
HETATM    8  C5  UNL     1      12.178  50.123  85.766  1.00  0.00     0.001 A 
HETATM    9  C6  UNL     1      11.355  49.616  86.786  1.00  0.00     0.080 A 
HETATM   10  N2  UNL     1      10.832  50.416  87.709  1.00  0.00    -0.188 N 
ATOM     11  H2  UNL     1      10.239  50.028  88.442  1.00  0.00     0.184 HD
HETATM   12  C7  UNL     1      11.084  51.727  87.680  1.00  0.00     0.700 A 
HETATM   13  N5  UNL     1      11.872  52.248  86.706  1.00  0.00    -0.086 N 
HETATM   14  N6  UNL     1      12.265  53.480  86.456  1.00  0.00    -0.290 N 
ATOM     15  H6  UNL     1      12.003  54.288  87.021  1.00  0.00     0.187 HD
HETATM   16  C15 UNL     1      13.038  53.544  85.388  1.00  0.00     0.122 A 
HETATM   17  C16 UNL     1      13.165  52.233  84.886  1.00  0.00     0.021 A 
HETATM   18  C23 UNL     1      12.427  51.455  85.738  1.00  0.00     0.095 A 
ENDROOT
BRANCH  12  19
HETATM   19  N3  UNL     1      10.593  52.504  88.558  1.00  0.00    -0.224 N 
ATOM     20  H3  UNL     1      10.196  53.374  88.203  1.00  0.00     0.177 HD
BRANCH  19  21
HETATM   21  C8  UNL     1      10.522  52.330  89.964  1.00  0.00     0.140 C 
BRANCH  21  22
HETATM   22  C9  UNL     1      10.715  53.667  90.679  1.00  0.00     0.050 C 
BRANCH  22  23
HETATM   23  C10 UNL     1      11.704  54.468  89.902  1.00  0.00     0.274 C 
BRANCH  23  24
HETATM   24  N4  UNL     1      13.036  53.990  90.120  1.00  0.00     0.092 N 
HETATM   25  C11 UNL     1      13.378  54.006  91.542  1.00  0.00     0.298 C 
HETATM   26  C12 UNL     1      13.729  55.411  91.938  1.00  0.00     0.198 C 
HETATM   27  O1  UNL     1      14.957  55.758  91.370  1.00  0.00    -0.388 OA
HETATM   28  C13 UNL     1      15.195  55.026  90.205  1.00  0.00     0.198 C 
HETATM   29  C14 UNL     1      13.921  54.913  89.404  1.00  0.00     0.298 C 
ENDBRANCH  23  24
ENDBRANCH  22  23
ENDBRANCH  21  22
ENDBRANCH  19  21
ENDBRANCH  12  19
BRANCH  17  30
HETATM   30  C17 UNL     1      13.874  51.879  83.671  1.00  0.00    -0.022 A 
HETATM   31  C18 UNL     1      13.302  51.235  82.580  1.00  0.00     0.012 A 
HETATM   32  C19 UNL     1      13.997  50.920  81.448  1.00  0.00     0.001 A 
HETATM   33  C20 UNL     1      15.333  51.244  81.351  1.00  0.00     0.000 A 
HETATM   34  C21 UNL     1      15.942  51.885  82.413  1.00  0.00     0.001 A 
HETATM   35  C22 UNL     1      15.212  52.198  83.562  1.00  0.00     0.012 A 
ENDBRANCH  17  30
TORSDOF 6
ENDMDL
MODEL 5
REMARK VINA RESULT: -7.224878133      3.150      8.365
REMARK  6 active torsions:
REMARK  status: ('A' for Active; 'I' for Inactive)
REMARK    1  A    between atoms: C7_12  and  N3_13 
REMARK    2  A    between atoms: N3_13  and  C8_15 
REMARK    3  A    between atoms: C8_15  and  C9_16 
REMARK    4  A    between atoms: C9_16  and  C10_17 
REMARK    5  A    between atoms: C10_17  and  N4_18 
REMARK    6  A    between atoms: C16_28  and  C17_29 
ROOT
HETATM    1  N1  UNL     1       7.269  51.338  83.999  1.00  0.00    -0.401 N 
ATOM      2  H11 UNL     1       7.073  51.340  84.999  1.00  0.00     0.156 HD
ATOM      3  H12 UNL     1       6.599  50.978  83.318  1.00  0.00     0.156 HD
HETATM    4  C1  UNL     1       8.377  51.783  83.575  1.00  0.00     0.031 C 
HETATM    5  C2  UNL     1       8.663  51.781  82.113  1.00  0.00     0.059 C 
HETATM    6  C3  UNL     1      10.142  52.054  81.857  1.00  0.00     0.011 C 
HETATM    7  C4  UNL     1      10.936  51.391  82.999  1.00  0.00     0.044 C 
HETATM    8  C5  UNL     1      10.689  52.133  84.206  1.00  0.00     0.001 A 
HETATM    9  C6  UNL     1       9.335  52.298  84.547  1.00  0.00     0.080 A 
HETATM   10  N2  UNL     1       8.979  52.909  85.672  1.00  0.00    -0.188 N 
ATOM     11  H2  UNL     1       7.992  53.016  85.901  1.00  0.00     0.184 HD
HETATM   12  C7  UNL     1       9.913  53.382  86.502  1.00  0.00     0.700 A 
HETATM   13  N5  UNL     1      11.228  53.242  86.199  1.00  0.00    -0.086 N 
HETATM   14  N6  UNL     1      12.322  53.611  86.833  1.00  0.00    -0.290 N 
ATOM     15  H6  UNL     1      12.325  54.101  87.728  1.00  0.00     0.187 HD
HETATM   16  C15 UNL     1      13.413  53.273  86.172  1.00  0.00     0.122 A 
HETATM   17  C16 UNL     1      13.001  52.620  84.992  1.00  0.00     0.021 A 
HETATM   18  C23 UNL     1      11.632  52.618  85.049  1.00  0.00     0.095 A 
ENDROOT
BRANCH  12  19
HETATM   19  N3  UNL     1       9.587  53.966  87.583  1.00  0.00    -0.224 N 
ATOM     20  H3  UNL     1       9.421  54.969  87.507  1.00  0.00     0.177 HD
BRANCH  19  21
HETATM   21  C8  UNL     1       9.422  53.416  88.879  1.00  0.00     0.140 C 
BRANCH  21  22
HETATM   22  C9  UNL     1      10.084  54.310  89.927  1.00  0.00     0.050 C 
BRANCH  22  23
HETATM   23  C10 UNL     1      11.429  53.745  90.235  1.00  0.00     0.274 C 
BRANCH  23  24
HETATM   24  N4  UNL     1      12.216  54.674  90.988  1.00  0.00     0.092 N 
HETATM   25  C11 UNL     1      13.003  55.537  90.108  1.00  0.00     0.298 C 
HETATM   26  C12 UNL     1      14.206  54.775  89.634  1.00  0.00     0.198 C 
HETATM   27  O1  UNL     1      15.096  54.607  90.697  1.00  0.00    -0.388 OA
HETATM   28  C13 UNL     1      14.422  54.629  91.921  1.00  0.00     0.198 C 
HETATM   29  C14 UNL     1      13.126  53.865  91.804  1.00  0.00     0.298 C 
ENDBRANCH  23  24
ENDBRANCH  22  23
ENDBRANCH  21  22
ENDBRANCH  19  21
ENDBRANCH  12  19
BRANCH  17  30
HETATM   30  C17 UNL     1      13.895  52.157  83.949  1.00  0.00    -0.022 A 
HETATM   31  C18 UNL     1      13.631  51.093  83.095  1.00  0.00     0.012 A 
HETATM   32  C19 UNL     1      14.493  50.684  82.118  1.00  0.00     0.001 A 
HETATM   33  C20 UNL     1      15.694  51.340  81.946  1.00  0.00     0.000 A 
HETATM   34  C21 UNL     1      15.997  52.404  82.773  1.00  0.00     0.001 A 
HETATM   35  C22 UNL     1      15.100  52.805  83.765  1.00  0.00     0.012 A 
ENDBRANCH  17  30
TORSDOF 6
ENDMDL
