MODEL 1
REMARK VINA RESULT: -8.108589919      0.000      0.000
REMARK  8 active torsions:
REMARK  status: ('A' for Active; 'I' for Inactive)
REMARK    1  A    between atoms: C3_3  and  C4_4 
REMARK    2  A    between atoms: C4_4  and  O1_6 
REMARK    3  A    between atoms: O1_6  and  C6_7 
REMARK    4  A    between atoms: C8_9  and  N1_10 
REMARK       I    between atoms: N2_13  and  C11_14 
REMARK    5  A    between atoms: C14_23  and  N6_24 
REMARK    6  A    between atoms: N6_24  and  C15_26 
REMARK    7  A    between atoms: C15_26  and  C16_27 
REMARK    8  A    between atoms: N7_30  and  C19_31 
ROOT
HETATM    1  C1  UNL     1      11.241  56.045  95.050  1.00  0.00     0.112 C 
HETATM    2  C2  UNL     1      12.022  55.180  94.161  1.00  0.00    -0.108 C 
HETATM    3  C3  UNL     1      12.646  54.458  93.422  1.00  0.00    -0.075 C 
ENDROOT
BRANCH   3   4
HETATM    4  C4  UNL     1      13.414  53.557  92.526  1.00  0.00     0.205 C 
HETATM    5  C5  UNL     1      13.872  54.447  91.370  1.00  0.00     0.054 C 
BRANCH   4   6
HETATM    6  O1  UNL     1      12.520  52.582  92.093  1.00  0.00    -0.318 OA
BRANCH   6   7
HETATM    7  C6  UNL     1      11.652  52.608  91.051  1.00  0.00     0.162 A 
HETATM    8  C7  UNL     1      10.344  53.002  91.224  1.00  0.00     0.105 A 
HETATM    9  C8  UNL     1       9.453  53.033  90.178  1.00  0.00     0.123 A 
HETATM   10  N5  UNL     1       9.914  52.657  88.952  1.00  0.00    -0.177 N 
HETATM   11  C14 UNL     1      11.188  52.270  88.768  1.00  0.00     0.681 A 
ATOM     12  H5  UNL     1       9.278  52.669  88.156  1.00  0.00     0.185 HD
HETATM   13  N8  UNL     1      12.045  52.250  89.823  1.00  0.00    -0.170 N 
ATOM     14  H8  UNL     1      13.011  51.956  89.675  1.00  0.00     0.186 HD
BRANCH   9  15
HETATM   15  N1  UNL     1       8.104  53.420  90.285  1.00  0.00    -0.364 N 
HETATM   16  C9  UNL     1       7.436  54.230  89.292  1.00  0.00     0.144 C 
HETATM   17  C10 UNL     1       6.515  53.283  88.538  1.00  0.00     0.145 C 
HETATM   18  N2  UNL     1       5.733  52.571  89.543  1.00  0.00    -0.353 N 
HETATM   19  C11 UNL     1       4.795  51.615  89.065  1.00  0.00     0.184 C 
HETATM   20  C12 UNL     1       5.862  52.782  90.953  1.00  0.00     0.145 C 
HETATM   21  N3  UNL     1       4.514  50.600  89.811  1.00  0.00    -0.374 N 
HETATM   22  N4  UNL     1       4.166  51.747  87.806  1.00  0.00    -0.064 NA
ATOM     23  H32 UNL     1       4.967  50.506  90.720  1.00  0.00     0.158 HD
ATOM     24  H31 UNL     1       3.841  49.914  89.469  1.00  0.00     0.158 HD
HETATM   25  C13 UNL     1       7.278  53.017  91.420  1.00  0.00     0.144 C 
ENDBRANCH   9  15
BRANCH  11  26
HETATM   26  N6  UNL     1      11.669  51.908  87.627  1.00  0.00    -0.226 N 
ATOM     27  H6  UNL     1      12.678  51.801  87.518  1.00  0.00     0.177 HD
BRANCH  26  28
HETATM   28  C15 UNL     1      10.790  51.647  86.487  1.00  0.00     0.142 C 
BRANCH  28  29
HETATM   29  C16 UNL     1      11.049  52.753  85.454  1.00  0.00     0.007 C 
HETATM   30  C17 UNL     1      10.638  52.322  84.082  1.00  0.00     0.036 C 
HETATM   31  C18 UNL     1      11.628  51.487  83.368  1.00  0.00     0.273 C 
HETATM   32  N7  UNL     1      12.963  51.513  83.904  1.00  0.00     0.093 N 
HETATM   33  C25 UNL     1      13.353  52.770  84.450  1.00  0.00     0.273 C 
HETATM   34  C26 UNL     1      12.462  53.233  85.544  1.00  0.00     0.036 C 
BRANCH  32  35
HETATM   35  C19 UNL     1      13.870  50.975  82.946  1.00  0.00     0.223 C 
HETATM   36  C20 UNL     1      13.214  50.396  81.712  1.00  0.00     0.036 C 
HETATM   37  C21 UNL     1      13.770  50.998  80.444  1.00  0.00     0.002 C 
HETATM   38  C22 UNL     1      15.256  50.975  80.349  1.00  0.00     0.000 C 
HETATM   39  C23 UNL     1      15.922  51.193  81.685  1.00  0.00     0.002 C 
HETATM   40  C24 UNL     1      14.955  51.982  82.549  1.00  0.00     0.036 C 
ENDBRANCH  32  35
ENDBRANCH  28  29
ENDBRANCH  26  28
ENDBRANCH  11  26
ENDBRANCH   6   7
ENDBRANCH   4   6
ENDBRANCH   3   4
TORSDOF 8
ENDMDL
MODEL 2
REMARK VINA RESULT: -8.022839705      2.944      5.050
REMARK  8 active torsions:
REMARK  status: ('A' for Active; 'I' for Inactive)
REMARK    1  A    between atoms: C3_3  and  C4_4 
REMARK    2  A    between atoms: C4_4  and  O1_6 
REMARK    3  A    between atoms: O1_6  and  C6_7 
REMARK    4  A    between atoms: C8_9  and  N1_10 
REMARK       I    between atoms: N2_13  and  C11_14 
REMARK    5  A    between atoms: C14_23  and  N6_24 
REMARK    6  A    between atoms: N6_24  and  C15_26 
REMARK    7  A    between atoms: C15_26  and  C16_27 
REMARK    8  A    between atoms: N7_30  and  C19_31 
ROOT
HETATM    1  C1  UNL     1      11.445  56.439  95.065  1.00  0.00     0.112 C 
HETATM    2  C2  UNL     1      11.985  55.331  94.273  1.00  0.00    -0.108 C 
HETATM    3  C3  UNL     1      12.411  54.414  93.613  1.00  0.00    -0.075 C 
ENDROOT
BRANCH   3   4
HETATM    4  C4  UNL     1      12.929  53.276  92.813  1.00  0.00     0.205 C 
HETATM    5  C5  UNL     1      13.788  53.917  91.724  1.00  0.00     0.054 C 
BRANCH   4   6
HETATM    6  O1  UNL     1      11.816  52.638  92.273  1.00  0.00    -0.318 OA
BRANCH   6   7
HETATM    7  C6  UNL     1      11.704  51.920  91.128  1.00  0.00     0.162 A 
HETATM    8  C7  UNL     1      11.983  50.572  91.103  1.00  0.00     0.105 A 
HETATM    9  C8  UNL     1      11.873  49.831  89.950  1.00  0.00     0.123 A 
HETATM   10  N5  UNL     1      11.476  50.485  88.823  1.00  0.00    -0.177 N 
HETATM   11  C14 UNL     1      11.199  51.800  88.832  1.00  0.00     0.681 A 
ATOM     12  H5  UNL     1      11.385  49.964  87.951  1.00  0.00     0.185 HD
HETATM   13  N8  UNL     1      11.317  52.504  89.988  1.00  0.00    -0.170 N 
ATOM     14  H8  UNL     1      11.105  53.502  89.987  1.00  0.00     0.186 HD
BRANCH   9  15
HETATM   15  N1  UNL     1      12.147  48.454  89.852  1.00  0.00    -0.364 N 
HETATM   16  C9  UNL     1      11.461  47.578  88.931  1.00  0.00     0.144 C 
HETATM   17  C10 UNL     1      12.459  47.277  87.825  1.00  0.00     0.145 C 
HETATM   18  N2  UNL     1      13.686  46.831  88.478  1.00  0.00    -0.353 N 
HETATM   19  C11 UNL     1      14.777  46.494  87.630  1.00  0.00     0.184 C 
HETATM   20  C12 UNL     1      13.840  46.718  89.897  1.00  0.00     0.145 C 
HETATM   21  N3  UNL     1      15.977  46.653  88.077  1.00  0.00    -0.374 N 
HETATM   22  N4  UNL     1      14.583  45.993  86.323  1.00  0.00    -0.064 NA
ATOM     23  H32 UNL     1      16.116  47.014  89.021  1.00  0.00     0.158 HD
ATOM     24  H31 UNL     1      16.760  46.411  87.469  1.00  0.00     0.158 HD
HETATM   25  C13 UNL     1      13.162  47.813  90.685  1.00  0.00     0.144 C 
ENDBRANCH   9  15
BRANCH  11  26
HETATM   26  N6  UNL     1      10.818  52.460  87.791  1.00  0.00    -0.226 N 
ATOM     27  H6  UNL     1      10.566  53.444  87.884  1.00  0.00     0.177 HD
BRANCH  26  28
HETATM   28  C15 UNL     1      10.741  51.817  86.478  1.00  0.00     0.142 C 
BRANCH  28  29
HETATM   29  C16 UNL     1      11.049  52.894  85.429  1.00  0.00     0.007 C 
HETATM   30  C17 UNL     1      10.653  52.446  84.058  1.00  0.00     0.036 C 
HETATM   31  C18 UNL     1      11.634  51.571  83.380  1.00  0.00     0.273 C 
HETATM   32  N7  UNL     1      12.958  51.572  83.942  1.00  0.00     0.093 N 
HETATM   33  C25 UNL     1      13.372  52.829  84.470  1.00  0.00     0.273 C 
HETATM   34  C26 UNL     1      12.473  53.339  85.537  1.00  0.00     0.036 C 
BRANCH  32  35
HETATM   35  C19 UNL     1      13.869  50.991  83.012  1.00  0.00     0.223 C 
HETATM   36  C20 UNL     1      13.229  50.465  81.747  1.00  0.00     0.036 C 
HETATM   37  C21 UNL     1      13.870  51.046  80.509  1.00  0.00     0.002 C 
HETATM   38  C22 UNL     1      15.354  50.935  80.471  1.00  0.00     0.000 C 
HETATM   39  C23 UNL     1      15.979  51.099  81.835  1.00  0.00     0.002 C 
HETATM   40  C24 UNL     1      15.027  51.935  82.671  1.00  0.00     0.036 C 
ENDBRANCH  32  35
ENDBRANCH  28  29
ENDBRANCH  26  28
ENDBRANCH  11  26
ENDBRANCH   6   7
ENDBRANCH   4   6
ENDBRANCH   3   4
TORSDOF 8
ENDMDL
MODEL 3
REMARK VINA RESULT: -7.920330912      3.142      4.807
REMARK  8 active torsions:
REMARK  status: ('A' for Active; 'I' for Inactive)
REMARK    1  A    between atoms: C3_3  and  C4_4 
REMARK    2  A    between atoms: C4_4  and  O1_6 
REMARK    3  A    between atoms: O1_6  and  C6_7 
REMARK    4  A    between atoms: C8_9  and  N1_10 
REMARK       I    between atoms: N2_13  and  C11_14 
REMARK    5  A    between atoms: C14_23  and  N6_24 
REMARK    6  A    between atoms: N6_24  and  C15_26 
REMARK    7  A    between atoms: C15_26  and  C16_27 
REMARK    8  A    between atoms: N7_30  and  C19_31 
ROOT
HETATM    1  C1  UNL     1      11.222  57.504  95.377  1.00  0.00     0.112 C 
HETATM    2  C2  UNL     1      11.518  56.149  94.903  1.00  0.00    -0.108 C 
HETATM    3  C3  UNL     1      11.756  55.038  94.494  1.00  0.00    -0.075 C 
ENDROOT
BRANCH   3   4
HETATM    4  C4  UNL     1      12.030  53.668  93.993  1.00  0.00     0.205 C 
HETATM    5  C5  UNL     1      13.268  53.207  94.763  1.00  0.00     0.054 C 
BRANCH   4   6
HETATM    6  O1  UNL     1      12.296  53.794  92.633  1.00  0.00    -0.318 OA
BRANCH   6   7
HETATM    7  C6  UNL     1      12.039  52.931  91.619  1.00  0.00     0.162 A 
HETATM    8  C7  UNL     1      11.893  51.582  91.852  1.00  0.00     0.105 A 
HETATM    9  C8  UNL     1      11.632  50.695  90.835  1.00  0.00     0.123 A 
HETATM   10  N5  UNL     1      11.523  51.204  89.575  1.00  0.00    -0.177 N 
HETATM   11  C14 UNL     1      11.662  52.518  89.332  1.00  0.00     0.681 A 
ATOM     12  H5  UNL     1      11.330  50.572  88.799  1.00  0.00     0.185 HD
HETATM   13  N8  UNL     1      11.920  53.369  90.361  1.00  0.00    -0.170 N 
ATOM     14  H8  UNL     1      12.024  54.366  90.168  1.00  0.00     0.186 HD
BRANCH   9  15
HETATM   15  N1  UNL     1      11.477  49.307  91.001  1.00  0.00    -0.364 N 
HETATM   16  C9  UNL     1      11.643  48.361  89.922  1.00  0.00     0.144 C 
HETATM   17  C10 UNL     1      12.973  47.670  90.178  1.00  0.00     0.145 C 
HETATM   18  N2  UNL     1      12.941  47.200  91.559  1.00  0.00    -0.353 N 
HETATM   19  C11 UNL     1      14.097  46.518  92.032  1.00  0.00     0.184 C 
HETATM   20  C12 UNL     1      11.829  47.387  92.442  1.00  0.00     0.145 C 
HETATM   21  N3  UNL     1      14.384  46.589  93.288  1.00  0.00    -0.374 N 
HETATM   22  N4  UNL     1      14.931  45.772  91.169  1.00  0.00    -0.064 NA
ATOM     23  H32 UNL     1      13.782  47.128  93.910  1.00  0.00     0.158 HD
ATOM     24  H31 UNL     1      15.213  46.101  93.627  1.00  0.00     0.158 HD
HETATM   25  C13 UNL     1      11.138  48.722  92.296  1.00  0.00     0.144 C 
ENDBRANCH   9  15
BRANCH  11  26
HETATM   26  N6  UNL     1      11.565  53.044  88.158  1.00  0.00    -0.226 N 
ATOM     27  H6  UNL     1      11.398  54.047  88.069  1.00  0.00     0.177 HD
BRANCH  26  28
HETATM   28  C15 UNL     1      11.692  52.225  86.953  1.00  0.00     0.142 C 
BRANCH  28  29
HETATM   29  C16 UNL     1      11.782  53.187  85.760  1.00  0.00     0.007 C 
HETATM   30  C17 UNL     1      11.096  52.625  84.555  1.00  0.00     0.036 C 
HETATM   31  C18 UNL     1      11.898  51.657  83.776  1.00  0.00     0.273 C 
HETATM   32  N7  UNL     1      13.312  51.667  84.042  1.00  0.00     0.093 N 
HETATM   33  C25 UNL     1      13.844  52.954  84.342  1.00  0.00     0.273 C 
HETATM   34  C26 UNL     1      13.200  53.592  85.519  1.00  0.00     0.036 C 
BRANCH  32  35
HETATM   35  C19 UNL     1      13.995  50.971  83.003  1.00  0.00     0.223 C 
HETATM   36  C20 UNL     1      13.092  50.263  82.018  1.00  0.00     0.036 C 
HETATM   37  C21 UNL     1      13.385  50.670  80.593  1.00  0.00     0.002 C 
HETATM   38  C22 UNL     1      14.819  50.572  80.205  1.00  0.00     0.000 C 
HETATM   39  C23 UNL     1      15.748  50.935  81.337  1.00  0.00     0.002 C 
HETATM   40  C24 UNL     1      14.990  51.871  82.262  1.00  0.00     0.036 C 
ENDBRANCH  32  35
ENDBRANCH  28  29
ENDBRANCH  26  28
ENDBRANCH  11  26
ENDBRANCH   6   7
ENDBRANCH   4   6
ENDBRANCH   3   4
TORSDOF 8
ENDMDL
MODEL 4
REMARK VINA RESULT: -7.852250083      3.363      5.700
REMARK  8 active torsions:
REMARK  status: ('A' for Active; 'I' for Inactive)
REMARK    1  A    between atoms: C3_3  and  C4_4 
REMARK    2  A    between atoms: C4_4  and  O1_6 
REMARK    3  A    between atoms: O1_6  and  C6_7 
REMARK    4  A    between atoms: C8_9  and  N1_10 
REMARK       I    between atoms: N2_13  and  C11_14 
REMARK    5  A    between atoms: C14_23  and  N6_24 
REMARK    6  A    between atoms: N6_24  and  C15_26 
REMARK    7  A    between atoms: C15_26  and  C16_27 
REMARK    8  A    between atoms: N7_30  and  C19_31 
ROOT
HETATM    1  C1  UNL     1      14.680  55.144  90.059  1.00  0.00     0.112 C 
HETATM    2  C2  UNL     1      13.814  54.362  90.946  1.00  0.00    -0.108 C 
HETATM    3  C3  UNL     1      13.084  53.722  91.663  1.00  0.00    -0.075 C 
ENDROOT
BRANCH   3   4
HETATM    4  C4  UNL     1      12.181  52.951  92.554  1.00  0.00     0.205 C 
HETATM    5  C5  UNL     1      12.707  53.210  93.967  1.00  0.00     0.054 C 
BRANCH   4   6
HETATM    6  O1  UNL     1      12.326  51.614  92.196  1.00  0.00    -0.318 OA
BRANCH   6   7
HETATM    7  C6  UNL     1      12.102  51.011  91.001  1.00  0.00     0.162 A 
HETATM    8  C7  UNL     1      12.396  49.680  90.810  1.00  0.00     0.105 A 
HETATM    9  C8  UNL     1      12.175  49.056  89.605  1.00  0.00     0.123 A 
HETATM   10  N5  UNL     1      11.650  49.809  88.598  1.00  0.00    -0.177 N 
HETATM   11  C14 UNL     1      11.357  51.109  88.770  1.00  0.00     0.681 A 
ATOM     12  H5  UNL     1      11.474  49.375  87.692  1.00  0.00     0.185 HD
HETATM   13  N8  UNL     1      11.588  51.697  89.974  1.00  0.00    -0.170 N 
ATOM     14  H8  UNL     1      11.363  52.684  90.097  1.00  0.00     0.186 HD
BRANCH   9  15
HETATM   15  N1  UNL     1      12.456  47.703  89.339  1.00  0.00    -0.364 N 
HETATM   16  C9  UNL     1      12.035  47.034  88.130  1.00  0.00     0.144 C 
HETATM   17  C10 UNL     1      13.290  46.872  87.288  1.00  0.00     0.145 C 
HETATM   18  N2  UNL     1      14.295  46.257  88.148  1.00  0.00    -0.353 N 
HETATM   19  C11 UNL     1      15.571  46.011  87.569  1.00  0.00     0.184 C 
HETATM   20  C12 UNL     1      14.065  45.896  89.515  1.00  0.00     0.145 C 
HETATM   21  N3  UNL     1      16.609  46.027  88.335  1.00  0.00    -0.374 N 
HETATM   22  N4  UNL     1      15.730  45.750  86.190  1.00  0.00    -0.064 NA
ATOM     23  H32 UNL     1      16.494  46.215  89.331  1.00  0.00     0.158 HD
ATOM     24  H31 UNL     1      17.524  45.851  87.920  1.00  0.00     0.158 HD
HETATM   25  C13 UNL     1      13.208  46.876  90.280  1.00  0.00     0.144 C 
ENDBRANCH   9  15
BRANCH  11  26
HETATM   26  N6  UNL     1      10.858  51.860  87.848  1.00  0.00    -0.226 N 
ATOM     27  H6  UNL     1      10.597  52.821  88.069  1.00  0.00     0.177 HD
BRANCH  26  28
HETATM   28  C15 UNL     1      10.660  51.353  86.489  1.00  0.00     0.142 C 
BRANCH  28  29
HETATM   29  C16 UNL     1      10.922  52.522  85.529  1.00  0.00     0.007 C 
HETATM   30  C17 UNL     1      10.558  52.162  84.123  1.00  0.00     0.036 C 
HETATM   31  C18 UNL     1      11.587  51.391  83.391  1.00  0.00     0.273 C 
HETATM   32  N7  UNL     1      12.905  51.414  83.967  1.00  0.00     0.093 N 
HETATM   33  C25 UNL     1      13.252  52.645  84.593  1.00  0.00     0.273 C 
HETATM   34  C26 UNL     1      12.320  53.027  85.686  1.00  0.00     0.036 C 
BRANCH  32  35
HETATM   35  C19 UNL     1      13.850  50.951  83.005  1.00  0.00     0.223 C 
HETATM   36  C20 UNL     1      13.242  50.432  81.721  1.00  0.00     0.036 C 
HETATM   37  C21 UNL     1      13.820  51.118  80.507  1.00  0.00     0.002 C 
HETATM   38  C22 UNL     1      15.308  51.131  80.454  1.00  0.00     0.000 C 
HETATM   39  C23 UNL     1      15.932  51.284  81.820  1.00  0.00     0.002 C 
HETATM   40  C24 UNL     1      14.924  52.001  82.699  1.00  0.00     0.036 C 
ENDBRANCH  32  35
ENDBRANCH  28  29
ENDBRANCH  26  28
ENDBRANCH  11  26
ENDBRANCH   6   7
ENDBRANCH   4   6
ENDBRANCH   3   4
TORSDOF 8
ENDMDL
MODEL 5
REMARK VINA RESULT: -7.805062510      2.911      4.266
REMARK  8 active torsions:
REMARK  status: ('A' for Active; 'I' for Inactive)
REMARK    1  A    between atoms: C3_3  and  C4_4 
REMARK    2  A    between atoms: C4_4  and  O1_6 
REMARK    3  A    between atoms: O1_6  and  C6_7 
REMARK    4  A    between atoms: C8_9  and  N1_10 
REMARK       I    between atoms: N2_13  and  C11_14 
REMARK    5  A    between atoms: C14_23  and  N6_24 
REMARK    6  A    between atoms: N6_24  and  C15_26 
REMARK    7  A    between atoms: C15_26  and  C16_27 
REMARK    8  A    between atoms: N7_30  and  C19_31 
ROOT
HETATM    1  C1  UNL     1      11.002  56.870  95.364  1.00  0.00     0.112 C 
HETATM    2  C2  UNL     1      11.607  55.786  94.585  1.00  0.00    -0.108 C 
HETATM    3  C3  UNL     1      12.087  54.890  93.934  1.00  0.00    -0.075 C 
ENDROOT
BRANCH   3   4
HETATM    4  C4  UNL     1      12.671  53.775  93.146  1.00  0.00     0.205 C 
HETATM    5  C5  UNL     1      13.592  54.451  92.130  1.00  0.00     0.054 C 
BRANCH   4   6
HETATM    6  O1  UNL     1      11.604  53.138  92.520  1.00  0.00    -0.318 OA
BRANCH   6   7
HETATM    7  C6  UNL     1      11.600  52.331  91.429  1.00  0.00     0.162 A 
HETATM    8  C7  UNL     1      11.890  50.989  91.535  1.00  0.00     0.105 A 
HETATM    9  C8  UNL     1      11.890  50.160  90.438  1.00  0.00     0.123 A 
HETATM   10  N5  UNL     1      11.590  50.719  89.232  1.00  0.00    -0.177 N 
HETATM   11  C14 UNL     1      11.304  52.026  89.113  1.00  0.00     0.681 A 
ATOM     12  H5  UNL     1      11.582  50.130  88.400  1.00  0.00     0.185 HD
HETATM   13  N8  UNL     1      11.313  52.820  90.217  1.00  0.00    -0.170 N 
ATOM     14  H8  UNL     1      11.094  53.812  90.119  1.00  0.00     0.186 HD
BRANCH   9  15
HETATM   15  N1  UNL     1      12.182  48.784  90.474  1.00  0.00    -0.364 N 
HETATM   16  C9  UNL     1      11.445  47.843  91.286  1.00  0.00     0.144 C 
HETATM   17  C10 UNL     1      10.574  47.056  90.319  1.00  0.00     0.145 C 
HETATM   18  N2  UNL     1      11.456  46.571  89.262  1.00  0.00    -0.353 N 
HETATM   19  C11 UNL     1      10.854  45.802  88.228  1.00  0.00     0.184 C 
HETATM   20  C12 UNL     1      12.864  46.825  89.216  1.00  0.00     0.145 C 
HETATM   21  N3  UNL     1      11.379  45.835  87.050  1.00  0.00    -0.374 N 
HETATM   22  N4  UNL     1       9.706  45.010  88.455  1.00  0.00    -0.064 NA
ATOM     23  H32 UNL     1      12.207  46.407  86.886  1.00  0.00     0.158 HD
ATOM     24  H31 UNL     1      10.947  45.284  86.308  1.00  0.00     0.158 HD
HETATM   25  C13 UNL     1      13.262  48.208  89.676  1.00  0.00     0.144 C 
ENDBRANCH   9  15
BRANCH  11  26
HETATM   26  N6  UNL     1      11.013  52.598  87.994  1.00  0.00    -0.226 N 
ATOM     27  H6  UNL     1      10.719  53.575  87.990  1.00  0.00     0.177 HD
BRANCH  26  28
HETATM   28  C15 UNL     1      11.097  51.866  86.730  1.00  0.00     0.142 C 
BRANCH  28  29
HETATM   29  C16 UNL     1      11.273  52.906  85.616  1.00  0.00     0.007 C 
HETATM   30  C17 UNL     1      10.782  52.385  84.302  1.00  0.00     0.036 C 
HETATM   31  C18 UNL     1      11.738  51.519  83.580  1.00  0.00     0.273 C 
HETATM   32  N7  UNL     1      13.104  51.594  84.027  1.00  0.00     0.093 N 
HETATM   33  C25 UNL     1      13.508  52.888  84.466  1.00  0.00     0.273 C 
HETATM   34  C26 UNL     1      12.680  53.409  85.584  1.00  0.00     0.036 C 
BRANCH  32  35
HETATM   35  C19 UNL     1      13.957  51.008  83.047  1.00  0.00     0.223 C 
HETATM   36  C20 UNL     1      13.241  50.462  81.832  1.00  0.00     0.036 C 
HETATM   37  C21 UNL     1      13.795  51.031  80.548  1.00  0.00     0.002 C 
HETATM   38  C22 UNL     1      15.275  50.931  80.416  1.00  0.00     0.000 C 
HETATM   39  C23 UNL     1      15.985  51.116  81.734  1.00  0.00     0.002 C 
HETATM   40  C24 UNL     1      15.083  51.956  82.620  1.00  0.00     0.036 C 
ENDBRANCH  32  35
ENDBRANCH  28  29
ENDBRANCH  26  28
ENDBRANCH  11  26
ENDBRANCH   6   7
ENDBRANCH   4   6
ENDBRANCH   3   4
TORSDOF 8
ENDMDL
