MODEL 1
REMARK VINA RESULT: -7.457407898      0.000      0.000
REMARK  7 active torsions:
REMARK  status: ('A' for Active; 'I' for Inactive)
REMARK    1  A    between atoms: C4_5  and  S1_6 
REMARK    2  A    between atoms: S1_6  and  N2_7 
REMARK    3  A    between atoms: C7_14  and  N3_15 
REMARK    4  A    between atoms: N3_15  and  S2_17 
REMARK    5  A    between atoms: S2_17  and  C8_20 
REMARK    6  A    between atoms: C13_25  and  S3_26 
REMARK    7  A    between atoms: S3_26  and  N4_27 
ROOT
HETATM    1  N1  UNL     1       8.983  52.335  90.914  1.00  0.00    -0.191 NA
HETATM    2  C1  UNL     1       9.976  52.829  91.195  1.00  0.00     0.102 C 
HETATM    3  C2  UNL     1      11.231  53.449  91.528  1.00  0.00     0.073 A 
HETATM    4  C3  UNL     1      12.042  53.942  90.526  1.00  0.00     0.050 A 
HETATM    5  C4  UNL     1      13.247  54.536  90.884  1.00  0.00     0.081 A 
HETATM    6  C5  UNL     1      13.598  54.617  92.197  1.00  0.00     0.027 A 
HETATM    7  C6  UNL     1      12.755  54.107  93.194  1.00  0.00     0.033 A 
HETATM    8  C7  UNL     1      11.558  53.516  92.864  1.00  0.00     0.063 A 
ENDROOT
BRANCH   8   9
HETATM    9  N3  UNL     1      10.696  52.986  93.846  1.00  0.00    -0.279 N 
ATOM     10  H3  UNL     1       9.904  53.564  94.125  1.00  0.00     0.179 HD
BRANCH   9  11
HETATM   11  S2  UNL     1      10.854  51.468  94.613  1.00  0.00     0.263 S 
HETATM   12  O3  UNL     1       9.649  51.121  95.437  1.00  0.00    -0.200 OA
HETATM   13  O4  UNL     1      11.050  50.348  93.630  1.00  0.00    -0.200 OA
BRANCH  11  14
HETATM   14  C8  UNL     1      12.230  51.460  95.693  1.00  0.00     0.080 A 
HETATM   15  C9  UNL     1      12.104  51.986  96.983  1.00  0.00     0.026 A 
HETATM   16  C10 UNL     1      13.172  51.985  97.852  1.00  0.00     0.014 A 
HETATM   17  C11 UNL     1      14.405  51.471  97.501  1.00  0.00    -0.024 A 
HETATM   18  C12 UNL     1      15.463  51.479  98.385  1.00  0.00     0.037 A 
HETATM   19  C16 UNL     1      14.543  50.949  96.232  1.00  0.00    -0.024 A 
HETATM   20  C13 UNL     1      16.702  50.966  98.042  1.00  0.00     0.080 A 
HETATM   21  C14 UNL     1      16.845  50.440  96.764  1.00  0.00     0.026 A 
HETATM   22  C15 UNL     1      15.770  50.442  95.890  1.00  0.00     0.014 A 
HETATM   23  C17 UNL     1      13.460  50.959  95.374  1.00  0.00     0.037 A 
BRANCH  20  24
HETATM   24  S3  UNL     1      18.062  50.963  99.145  1.00  0.00     0.256 S 
HETATM   25  O5  UNL     1      18.878  49.726  98.900  1.00  0.00    -0.201 OA
HETATM   26  O6  UNL     1      18.956  52.148  98.872  1.00  0.00    -0.201 OA
BRANCH  24  27
HETATM   27  N4  UNL     1      17.436  50.999 100.754  1.00  0.00    -0.324 N 
ATOM     28  H42 UNL     1      16.732  50.362 101.127  1.00  0.00     0.169 HD
ATOM     29  H41 UNL     1      17.896  51.762 101.251  1.00  0.00     0.169 HD
ENDBRANCH  24  27
ENDBRANCH  20  24
ENDBRANCH  11  14
ENDBRANCH   9  11
ENDBRANCH   8   9
BRANCH   5  30
HETATM   30  S1  UNL     1      14.289  55.169  89.609  1.00  0.00     0.256 S 
HETATM   31  O1  UNL     1      15.510  54.311  89.547  1.00  0.00    -0.201 OA
HETATM   32  O2  UNL     1      14.711  56.575  89.919  1.00  0.00    -0.201 OA
BRANCH  30  33
HETATM   33  N2  UNL     1      13.511  55.169  88.090  1.00  0.00    -0.324 N 
ATOM     34  H22 UNL     1      12.648  55.680  87.905  1.00  0.00     0.169 HD
ATOM     35  H21 UNL     1      14.012  54.601  87.405  1.00  0.00     0.169 HD
ENDBRANCH  30  33
ENDBRANCH   5  30
TORSDOF 7
ENDMDL
MODEL 2
REMARK VINA RESULT: -7.316807335      2.199      7.960
REMARK  7 active torsions:
REMARK  status: ('A' for Active; 'I' for Inactive)
REMARK    1  A    between atoms: C4_5  and  S1_6 
REMARK    2  A    between atoms: S1_6  and  N2_7 
REMARK    3  A    between atoms: C7_14  and  N3_15 
REMARK    4  A    between atoms: N3_15  and  S2_17 
REMARK    5  A    between atoms: S2_17  and  C8_20 
REMARK    6  A    between atoms: C13_25  and  S3_26 
REMARK    7  A    between atoms: S3_26  and  N4_27 
ROOT
HETATM    1  N1  UNL     1      13.132  49.377  95.529  1.00  0.00    -0.191 NA
HETATM    2  C1  UNL     1      13.606  49.914  96.422  1.00  0.00     0.102 C 
HETATM    3  C2  UNL     1      14.218  50.579  97.542  1.00  0.00     0.073 A 
HETATM    4  C3  UNL     1      15.560  50.393  97.802  1.00  0.00     0.050 A 
HETATM    5  C4  UNL     1      16.120  51.051  98.892  1.00  0.00     0.081 A 
HETATM    6  C5  UNL     1      15.341  51.853  99.670  1.00  0.00     0.027 A 
HETATM    7  C6  UNL     1      13.980  52.022  99.383  1.00  0.00     0.033 A 
HETATM    8  C7  UNL     1      13.405  51.382  98.310  1.00  0.00     0.063 A 
ENDROOT
BRANCH   8   9
HETATM    9  N3  UNL     1      12.036  51.527  98.006  1.00  0.00    -0.279 N 
ATOM     10  H3  UNL     1      11.467  50.681  98.028  1.00  0.00     0.179 HD
BRANCH   9  11
HETATM   11  S2  UNL     1      11.241  52.984  97.603  1.00  0.00     0.263 S 
HETATM   12  O3  UNL     1       9.756  52.804  97.478  1.00  0.00    -0.200 OA
HETATM   13  O4  UNL     1      11.465  54.061  98.628  1.00  0.00    -0.200 OA
BRANCH  11  14
HETATM   14  C8  UNL     1      11.811  53.598  96.069  1.00  0.00     0.080 A 
HETATM   15  C9  UNL     1      11.628  54.947  95.748  1.00  0.00     0.026 A 
HETATM   16  C10 UNL     1      12.075  55.453  94.548  1.00  0.00     0.014 A 
HETATM   17  C11 UNL     1      12.718  54.667  93.612  1.00  0.00    -0.024 A 
HETATM   18  C12 UNL     1      13.158  55.192  92.416  1.00  0.00     0.037 A 
HETATM   19  C16 UNL     1      12.905  53.335  93.916  1.00  0.00    -0.024 A 
HETATM   20  C13 UNL     1      13.804  54.412  91.472  1.00  0.00     0.080 A 
HETATM   21  C14 UNL     1      13.994  53.070  91.774  1.00  0.00     0.026 A 
HETATM   22  C15 UNL     1      13.544  52.561  92.982  1.00  0.00     0.014 A 
HETATM   23  C17 UNL     1      12.451  52.845  95.124  1.00  0.00     0.037 A 
BRANCH  20  24
HETATM   24  S3  UNL     1      14.373  55.053  89.946  1.00  0.00     0.256 S 
HETATM   25  O5  UNL     1      14.916  56.435  90.176  1.00  0.00    -0.201 OA
HETATM   26  O6  UNL     1      15.508  54.211  89.418  1.00  0.00    -0.201 OA
BRANCH  24  27
HETATM   27  N4  UNL     1      13.037  55.075  88.851  1.00  0.00    -0.324 N 
ATOM     28  H42 UNL     1      12.114  54.684  89.039  1.00  0.00     0.169 HD
ATOM     29  H41 UNL     1      13.341  55.543  87.997  1.00  0.00     0.169 HD
ENDBRANCH  24  27
ENDBRANCH  20  24
ENDBRANCH  11  14
ENDBRANCH   9  11
ENDBRANCH   8   9
BRANCH   5  30
HETATM   30  S1  UNL     1      17.835  50.819  99.230  1.00  0.00     0.256 S 
HETATM   31  O1  UNL     1      18.557  52.052  98.794  1.00  0.00    -0.201 OA
HETATM   32  O2  UNL     1      18.375  49.654  98.455  1.00  0.00    -0.201 OA
BRANCH  30  33
HETATM   33  N2  UNL     1      18.127  50.540 100.887  1.00  0.00    -0.324 N 
ATOM     34  H22 UNL     1      17.818  49.698 101.374  1.00  0.00     0.169 HD
ATOM     35  H21 UNL     1      18.641  51.308 101.319  1.00  0.00     0.169 HD
ENDBRANCH  30  33
ENDBRANCH   5  30
TORSDOF 7
ENDMDL
MODEL 3
REMARK VINA RESULT: -7.262611159      5.761     11.074
REMARK  7 active torsions:
REMARK  status: ('A' for Active; 'I' for Inactive)
REMARK    1  A    between atoms: C4_5  and  S1_6 
REMARK    2  A    between atoms: S1_6  and  N2_7 
REMARK    3  A    between atoms: C7_14  and  N3_15 
REMARK    4  A    between atoms: N3_15  and  S2_17 
REMARK    5  A    between atoms: S2_17  and  C8_20 
REMARK    6  A    between atoms: C13_25  and  S3_26 
REMARK    7  A    between atoms: S3_26  and  N4_27 
ROOT
HETATM    1  N1  UNL     1      15.016  54.838  89.788  1.00  0.00    -0.191 NA
HETATM    2  C1  UNL     1      14.067  54.550  90.359  1.00  0.00     0.102 C 
HETATM    3  C2  UNL     1      12.884  54.187  91.094  1.00  0.00     0.073 A 
HETATM    4  C3  UNL     1      12.922  54.124  92.472  1.00  0.00     0.050 A 
HETATM    5  C4  UNL     1      11.762  53.770  93.150  1.00  0.00     0.081 A 
HETATM    6  C5  UNL     1      10.626  53.495  92.449  1.00  0.00     0.027 A 
HETATM    7  C6  UNL     1      10.616  53.566  91.050  1.00  0.00     0.033 A 
HETATM    8  C7  UNL     1      11.753  53.915  90.358  1.00  0.00     0.063 A 
ENDROOT
BRANCH   8   9
HETATM    9  N3  UNL     1      11.772  53.983  88.949  1.00  0.00    -0.279 N 
ATOM     10  H3  UNL     1      12.185  54.818  88.534  1.00  0.00     0.179 HD
BRANCH   9  11
HETATM   11  S2  UNL     1      11.171  52.800  87.874  1.00  0.00     0.263 S 
HETATM   12  O3  UNL     1      11.176  51.427  88.480  1.00  0.00    -0.200 OA
HETATM   13  O4  UNL     1       9.759  53.083  87.443  1.00  0.00    -0.200 OA
BRANCH  11  14
HETATM   14  C8  UNL     1      12.152  52.722  86.429  1.00  0.00     0.080 A 
HETATM   15  C9  UNL     1      13.140  53.688  86.205  1.00  0.00     0.026 A 
HETATM   16  C10 UNL     1      13.928  53.642  85.077  1.00  0.00     0.014 A 
HETATM   17  C11 UNL     1      13.787  52.656  84.121  1.00  0.00    -0.024 A 
HETATM   18  C12 UNL     1      14.586  52.627  82.998  1.00  0.00     0.037 A 
HETATM   19  C16 UNL     1      12.818  51.697  84.329  1.00  0.00    -0.024 A 
HETATM   20  C13 UNL     1      14.453  51.642  82.035  1.00  0.00     0.080 A 
HETATM   21  C14 UNL     1      13.477  50.675  82.240  1.00  0.00     0.026 A 
HETATM   22  C15 UNL     1      12.684  50.721  83.375  1.00  0.00     0.014 A 
HETATM   23  C17 UNL     1      12.037  51.759  85.466  1.00  0.00     0.037 A 
BRANCH  20  24
HETATM   24  S3  UNL     1      15.454  51.582  80.600  1.00  0.00     0.256 S 
HETATM   25  O5  UNL     1      15.134  52.771  79.739  1.00  0.00    -0.201 OA
HETATM   26  O6  UNL     1      16.911  51.684  80.977  1.00  0.00    -0.201 OA
BRANCH  24  27
HETATM   27  N4  UNL     1      15.113  50.101  79.780  1.00  0.00    -0.324 N 
ATOM     28  H42 UNL     1      15.747  49.304  79.714  1.00  0.00     0.169 HD
ATOM     29  H41 UNL     1      14.177  50.172  79.381  1.00  0.00     0.169 HD
ENDBRANCH  24  27
ENDBRANCH  20  24
ENDBRANCH  11  14
ENDBRANCH   9  11
ENDBRANCH   8   9
BRANCH   5  30
HETATM   30  S1  UNL     1      11.803  53.689  94.911  1.00  0.00     0.256 S 
HETATM   31  O1  UNL     1      10.518  53.081  95.371  1.00  0.00    -0.201 OA
HETATM   32  O2  UNL     1      11.917  55.063  95.502  1.00  0.00    -0.201 OA
BRANCH  30  33
HETATM   33  N2  UNL     1      13.113  52.755  95.477  1.00  0.00    -0.324 N 
ATOM     34  H22 UNL     1      13.060  51.746  95.617  1.00  0.00     0.169 HD
ATOM     35  H21 UNL     1      13.941  53.325  95.654  1.00  0.00     0.169 HD
ENDBRANCH  30  33
ENDBRANCH   5  30
TORSDOF 7
ENDMDL
MODEL 4
REMARK VINA RESULT: -7.242243716      0.886      2.087
REMARK  7 active torsions:
REMARK  status: ('A' for Active; 'I' for Inactive)
REMARK    1  A    between atoms: C4_5  and  S1_6 
REMARK    2  A    between atoms: S1_6  and  N2_7 
REMARK    3  A    between atoms: C7_14  and  N3_15 
REMARK    4  A    between atoms: N3_15  and  S2_17 
REMARK    5  A    between atoms: S2_17  and  C8_20 
REMARK    6  A    between atoms: C13_25  and  S3_26 
REMARK    7  A    between atoms: S3_26  and  N4_27 
ROOT
HETATM    1  N1  UNL     1      12.051  55.475  95.377  1.00  0.00    -0.191 NA
HETATM    2  C1  UNL     1      12.123  54.989  94.344  1.00  0.00     0.102 C 
HETATM    3  C2  UNL     1      12.222  54.394  93.037  1.00  0.00     0.073 A 
HETATM    4  C3  UNL     1      13.051  54.955  92.087  1.00  0.00     0.050 A 
HETATM    5  C4  UNL     1      13.123  54.354  90.835  1.00  0.00     0.081 A 
HETATM    6  C5  UNL     1      12.384  53.239  90.577  1.00  0.00     0.027 A 
HETATM    7  C6  UNL     1      11.549  52.692  91.560  1.00  0.00     0.033 A 
HETATM    8  C7  UNL     1      11.463  53.269  92.806  1.00  0.00     0.063 A 
ENDROOT
BRANCH   8   9
HETATM    9  N3  UNL     1      10.623  52.744  93.810  1.00  0.00    -0.279 N 
ATOM     10  H3  UNL     1       9.827  53.316  94.090  1.00  0.00     0.179 HD
BRANCH   9  11
HETATM   11  S2  UNL     1      10.813  51.242  94.600  1.00  0.00     0.263 S 
HETATM   12  O3  UNL     1       9.776  51.024  95.662  1.00  0.00    -0.200 OA
HETATM   13  O4  UNL     1      10.719  50.080  93.652  1.00  0.00    -0.200 OA
BRANCH  11  14
HETATM   14  C8  UNL     1      12.373  51.149  95.385  1.00  0.00     0.080 A 
HETATM   15  C9  UNL     1      13.503  50.783  94.646  1.00  0.00     0.026 A 
HETATM   16  C10 UNL     1      14.742  50.708  95.242  1.00  0.00     0.014 A 
HETATM   17  C11 UNL     1      14.932  50.988  96.580  1.00  0.00    -0.024 A 
HETATM   18  C12 UNL     1      16.180  50.908  97.160  1.00  0.00     0.037 A 
HETATM   19  C16 UNL     1      13.826  51.351  97.321  1.00  0.00    -0.024 A 
HETATM   20  C13 UNL     1      16.380  51.187  98.501  1.00  0.00     0.080 A 
HETATM   21  C14 UNL     1      15.269  51.553  99.250  1.00  0.00     0.026 A 
HETATM   22  C15 UNL     1      14.023  51.627  98.650  1.00  0.00     0.014 A 
HETATM   23  C17 UNL     1      12.592  51.420  96.706  1.00  0.00     0.037 A 
BRANCH  20  24
HETATM   24  S3  UNL     1      17.954  51.094  99.261  1.00  0.00     0.256 S 
HETATM   25  O5  UNL     1      18.609  49.804  98.857  1.00  0.00    -0.201 OA
HETATM   26  O6  UNL     1      18.837  52.215  98.770  1.00  0.00    -0.201 OA
BRANCH  24  27
HETATM   27  N4  UNL     1      17.721  51.174 100.970  1.00  0.00    -0.324 N 
ATOM     28  H42 UNL     1      17.237  51.923 101.465  1.00  0.00     0.169 HD
ATOM     29  H41 UNL     1      18.152  50.346 101.383  1.00  0.00     0.169 HD
ENDBRANCH  24  27
ENDBRANCH  20  24
ENDBRANCH  11  14
ENDBRANCH   9  11
ENDBRANCH   8   9
BRANCH   5  30
HETATM   30  S1  UNL     1      14.180  55.065  89.616  1.00  0.00     0.256 S 
HETATM   31  O1  UNL     1      15.462  54.297  89.619  1.00  0.00    -0.201 OA
HETATM   32  O2  UNL     1      14.483  56.496  89.947  1.00  0.00    -0.201 OA
BRANCH  30  33
HETATM   33  N2  UNL     1      13.486  55.012  88.059  1.00  0.00    -0.324 N 
ATOM     34  H22 UNL     1      13.362  54.147  87.532  1.00  0.00     0.169 HD
ATOM     35  H21 UNL     1      13.215  55.940  87.730  1.00  0.00     0.169 HD
ENDBRANCH  30  33
ENDBRANCH   5  30
TORSDOF 7
ENDMDL
MODEL 5
REMARK VINA RESULT: -7.184743818      2.064      2.539
REMARK  7 active torsions:
REMARK  status: ('A' for Active; 'I' for Inactive)
REMARK    1  A    between atoms: C4_5  and  S1_6 
REMARK    2  A    between atoms: S1_6  and  N2_7 
REMARK    3  A    between atoms: C7_14  and  N3_15 
REMARK    4  A    between atoms: N3_15  and  S2_17 
REMARK    5  A    between atoms: S2_17  and  C8_20 
REMARK    6  A    between atoms: C13_25  and  S3_26 
REMARK    7  A    between atoms: S3_26  and  N4_27 
ROOT
HETATM    1  N1  UNL     1       9.104  52.444  91.118  1.00  0.00    -0.191 NA
HETATM    2  C1  UNL     1      10.084  52.982  91.364  1.00  0.00     0.102 C 
HETATM    3  C2  UNL     1      11.322  53.655  91.656  1.00  0.00     0.073 A 
HETATM    4  C3  UNL     1      12.155  54.039  90.625  1.00  0.00     0.050 A 
HETATM    5  C4  UNL     1      13.343  54.687  90.942  1.00  0.00     0.081 A 
HETATM    6  C5  UNL     1      13.656  54.926  92.247  1.00  0.00     0.027 A 
HETATM    7  C6  UNL     1      12.792  54.524  93.273  1.00  0.00     0.033 A 
HETATM    8  C7  UNL     1      11.610  53.882  92.983  1.00  0.00     0.063 A 
ENDROOT
BRANCH   8   9
HETATM    9  N3  UNL     1      10.728  53.457  93.998  1.00  0.00    -0.279 N 
ATOM     10  H3  UNL     1       9.732  53.471  93.778  1.00  0.00     0.179 HD
BRANCH   9  11
HETATM   11  S2  UNL     1      11.168  52.922  95.559  1.00  0.00     0.263 S 
HETATM   12  O3  UNL     1      11.593  54.055  96.447  1.00  0.00    -0.200 OA
HETATM   13  O4  UNL     1      10.042  52.215  96.260  1.00  0.00    -0.200 OA
BRANCH  11  14
HETATM   14  C8  UNL     1      12.512  51.808  95.475  1.00  0.00     0.080 A 
HETATM   15  C9  UNL     1      12.446  50.701  94.622  1.00  0.00     0.026 A 
HETATM   16  C10 UNL     1      13.495  49.813  94.536  1.00  0.00     0.014 A 
HETATM   17  C11 UNL     1      14.651  49.967  95.275  1.00  0.00    -0.024 A 
HETATM   18  C12 UNL     1      15.691  49.068  95.175  1.00  0.00     0.037 A 
HETATM   19  C16 UNL     1      14.730  51.054  96.120  1.00  0.00    -0.024 A 
HETATM   20  C13 UNL     1      16.854  49.214  95.912  1.00  0.00     0.080 A 
HETATM   21  C14 UNL     1      16.937  50.308  96.765  1.00  0.00     0.026 A 
HETATM   22  C15 UNL     1      15.881  51.200  96.851  1.00  0.00     0.014 A 
HETATM   23  C17 UNL     1      13.668  51.934  96.193  1.00  0.00     0.037 A 
BRANCH  20  24
HETATM   24  S3  UNL     1      18.189  48.088  95.804  1.00  0.00     0.256 S 
HETATM   25  O5  UNL     1      19.157  48.585  94.768  1.00  0.00    -0.201 OA
HETATM   26  O6  UNL     1      18.931  48.032  97.117  1.00  0.00    -0.201 OA
BRANCH  24  27
HETATM   27  N4  UNL     1      17.544  46.544  95.375  1.00  0.00    -0.324 N 
ATOM     28  H42 UNL     1      16.552  46.311  95.330  1.00  0.00     0.169 HD
ATOM     29  H41 UNL     1      18.329  45.921  95.180  1.00  0.00     0.169 HD
ENDBRANCH  24  27
ENDBRANCH  20  24
ENDBRANCH  11  14
ENDBRANCH   9  11
ENDBRANCH   8   9
BRANCH   5  30
HETATM   30  S1  UNL     1      14.413  55.182  89.630  1.00  0.00     0.256 S 
HETATM   31  O1  UNL     1      15.541  54.204  89.566  1.00  0.00    -0.201 OA
HETATM   32  O2  UNL     1      14.980  56.545  89.894  1.00  0.00    -0.201 OA
BRANCH  30  33
HETATM   33  N2  UNL     1      13.605  55.222  88.128  1.00  0.00    -0.324 N 
ATOM     34  H22 UNL     1      12.616  54.995  88.021  1.00  0.00     0.169 HD
ATOM     35  H21 UNL     1      14.226  55.498  87.368  1.00  0.00     0.169 HD
ENDBRANCH  30  33
ENDBRANCH   5  30
TORSDOF 7
ENDMDL
