MODEL 1
REMARK VINA RESULT: -6.934801569      0.000      0.000
REMARK  6 active torsions:
REMARK  status: ('A' for Active; 'I' for Inactive)
REMARK    1  A    between atoms: C8_8  and  S1_9 
REMARK    2  A    between atoms: C11_14  and  S2_15 
REMARK    3  A    between atoms: S2_15  and  N1_18 
REMARK    4  A    between atoms: C16_26  and  C17_27 
REMARK    5  A    between atoms: C17_27  and  C18_28 
REMARK    6  A    between atoms: C18_28  and  O5_29 
ROOT
HETATM    1  C1  UNL     1      13.794  51.327  92.713  1.00  0.00     0.016 C 
HETATM    2  C2  UNL     1      12.844  52.226  93.447  1.00  0.00    -0.036 C 
HETATM    3  C3  UNL     1      11.396  51.855  93.179  1.00  0.00     0.016 C 
HETATM    4  C4  UNL     1      12.992  51.907  94.982  1.00  0.00     0.050 C 
HETATM    5  C5  UNL     1      12.219  53.054  95.514  1.00  0.00    -0.027 A 
HETATM    6  C6  UNL     1      12.269  54.111  94.660  1.00  0.00    -0.044 A 
HETATM    7  C7  UNL     1      11.638  55.303  94.904  1.00  0.00     0.031 A 
HETATM    8  C8  UNL     1      10.900  55.487  96.073  1.00  0.00     0.060 A 
HETATM    9  C10 UNL     1      10.852  54.425  96.929  1.00  0.00     0.049 A 
HETATM   10  C11 UNL     1      11.480  53.225  96.690  1.00  0.00     0.088 A 
HETATM   11  C16 UNL     1      13.127  53.666  93.472  1.00  0.00     0.030 C 
ENDROOT
BRANCH  10  12
HETATM   12  S2  UNL     1      11.424  51.862  97.779  1.00  0.00     0.264 S 
HETATM   13  O3  UNL     1      10.779  50.718  97.014  1.00  0.00    -0.200 OA
HETATM   14  O4  UNL     1      10.489  52.231  98.901  1.00  0.00    -0.200 OA
BRANCH  12  15
HETATM   15  N1  UNL     1      12.960  51.433  98.381  1.00  0.00    -0.270 N 
HETATM   16  C12 UNL     1      13.523  52.145  99.272  1.00  0.00     0.086 C 
HETATM   17  C13 UNL     1      13.051  53.380  99.939  1.00  0.00     0.078 C 
HETATM   18  N2  UNL     1      14.821  51.827  99.814  1.00  0.00    -0.379 N 
HETATM   19  C14 UNL     1      13.951  53.578 101.128  1.00  0.00     0.027 C 
HETATM   20  C15 UNL     1      14.970  52.486 101.095  1.00  0.00     0.121 C 
ATOM     21  H2  UNL     1      15.520  51.234  99.367  1.00  0.00     0.160 HD
ATOM     22  H1  UNL     1      13.431  50.601  98.024  1.00  0.00     0.180 HD
ENDBRANCH  12  15
ENDBRANCH  10  12
BRANCH   8  23
HETATM   23  S1  UNL     1      10.073  56.976  96.452  1.00  0.00     0.171 S 
HETATM   24  C9  UNL     1       8.443  57.028  95.768  1.00  0.00     0.167 C 
HETATM   25  O1  UNL     1       9.973  57.052  97.969  1.00  0.00    -0.223 OA
HETATM   26  O2  UNL     1      10.868  58.178  96.030  1.00  0.00    -0.223 OA
ENDBRANCH   8  23
BRANCH  11  27
HETATM   27  C17 UNL     1      12.896  54.559  92.345  1.00  0.00     0.049 C 
BRANCH  27  28
HETATM   28  C18 UNL     1      13.417  54.244  91.011  1.00  0.00     0.084 C 
HETATM   29  C19 UNL     1      13.710  55.643  90.300  1.00  0.00     0.067 C 
HETATM   30  C20 UNL     1      13.714  55.196  88.872  1.00  0.00     0.235 C 
HETATM   31  N3  UNL     1      12.540  54.331  88.780  1.00  0.00    -0.072 N 
HETATM   32  C21 UNL     1      12.597  53.543  90.022  1.00  0.00     0.269 C 
ATOM     33  H32 UNL     1      11.661  54.827  88.633  1.00  0.00     0.277 HD
ATOM     34  H31 UNL     1      12.492  53.775  87.927  1.00  0.00     0.277 HD
BRANCH  28  35
HETATM   35  O5  UNL     1      14.717  53.707  91.030  1.00  0.00    -0.388 OA
ATOM     36  H5  UNL     1      14.780  52.887  91.505  1.00  0.00     0.210 HD
ENDBRANCH  28  35
ENDBRANCH  27  28
ENDBRANCH  11  27
TORSDOF 6
ENDMDL
MODEL 2
REMARK VINA RESULT: -6.865862444      1.618      1.870
REMARK  6 active torsions:
REMARK  status: ('A' for Active; 'I' for Inactive)
REMARK    1  A    between atoms: C8_8  and  S1_9 
REMARK    2  A    between atoms: C11_14  and  S2_15 
REMARK    3  A    between atoms: S2_15  and  N1_18 
REMARK    4  A    between atoms: C16_26  and  C17_27 
REMARK    5  A    between atoms: C17_27  and  C18_28 
REMARK    6  A    between atoms: C18_28  and  O5_29 
ROOT
HETATM    1  C1  UNL     1      13.522  50.804  92.359  1.00  0.00     0.016 C 
HETATM    2  C2  UNL     1      12.693  51.740  93.189  1.00  0.00    -0.036 C 
HETATM    3  C3  UNL     1      11.294  51.197  93.422  1.00  0.00     0.016 C 
HETATM    4  C4  UNL     1      13.300  51.735  94.642  1.00  0.00     0.050 C 
HETATM    5  C5  UNL     1      12.548  52.890  95.190  1.00  0.00    -0.027 A 
HETATM    6  C6  UNL     1      12.214  53.763  94.203  1.00  0.00    -0.044 A 
HETATM    7  C7  UNL     1      11.514  54.919  94.431  1.00  0.00     0.031 A 
HETATM    8  C8  UNL     1      11.106  55.258  95.720  1.00  0.00     0.060 A 
HETATM    9  C10 UNL     1      11.444  54.380  96.710  1.00  0.00     0.049 A 
HETATM   10  C11 UNL     1      12.145  53.216  96.489  1.00  0.00     0.088 A 
HETATM   11  C16 UNL     1      12.767  53.176  92.901  1.00  0.00     0.030 C 
ENDROOT
BRANCH  10  12
HETATM   12  S2  UNL     1      12.581  52.088  97.747  1.00  0.00     0.264 S 
HETATM   13  O3  UNL     1      11.747  50.838  97.521  1.00  0.00    -0.200 OA
HETATM   14  O4  UNL     1      12.135  52.690  99.054  1.00  0.00    -0.200 OA
BRANCH  12  15
HETATM   15  N1  UNL     1      14.249  51.740  97.773  1.00  0.00    -0.270 N 
HETATM   16  C12 UNL     1      14.734  50.982  98.672  1.00  0.00     0.086 C 
HETATM   17  C13 UNL     1      14.060  50.288  99.794  1.00  0.00     0.078 C 
HETATM   18  N2  UNL     1      16.137  50.656  98.740  1.00  0.00    -0.379 N 
HETATM   19  C14 UNL     1      15.048  49.276 100.307  1.00  0.00     0.027 C 
HETATM   20  C15 UNL     1      16.302  49.443  99.513  1.00  0.00     0.121 C 
ATOM     21  H2  UNL     1      16.890  51.194  98.312  1.00  0.00     0.160 HD
ATOM     22  H1  UNL     1      14.863  52.142  97.064  1.00  0.00     0.180 HD
ENDBRANCH  12  15
ENDBRANCH  10  12
BRANCH   8  23
HETATM   23  S1  UNL     1      10.214  56.712  96.086  1.00  0.00     0.171 S 
HETATM   24  C9  UNL     1      11.063  58.169  95.558  1.00  0.00     0.167 C 
HETATM   25  O1  UNL     1       8.889  56.617  95.341  1.00  0.00    -0.223 OA
HETATM   26  O2  UNL     1       9.861  56.798  97.544  1.00  0.00    -0.223 OA
ENDBRANCH   8  23
BRANCH  11  27
HETATM   27  C17 UNL     1      12.113  53.813  91.766  1.00  0.00     0.049 C 
BRANCH  27  28
HETATM   28  C18 UNL     1      12.857  54.120  90.539  1.00  0.00     0.084 C 
HETATM   29  C19 UNL     1      14.399  54.170  90.949  1.00  0.00     0.067 C 
HETATM   30  C20 UNL     1      14.931  54.969  89.801  1.00  0.00     0.235 C 
HETATM   31  N3  UNL     1      13.967  56.058  89.665  1.00  0.00    -0.072 N 
HETATM   32  C21 UNL     1      12.667  55.388  89.834  1.00  0.00     0.269 C 
ATOM     33  H32 UNL     1      14.124  56.842  90.298  1.00  0.00     0.277 HD
ATOM     34  H31 UNL     1      14.057  56.597  88.804  1.00  0.00     0.277 HD
BRANCH  28  35
HETATM   35  O5  UNL     1      12.886  53.055  89.621  1.00  0.00    -0.388 OA
ATOM     36  H5  UNL     1      13.763  52.751  89.422  1.00  0.00     0.210 HD
ENDBRANCH  28  35
ENDBRANCH  27  28
ENDBRANCH  11  27
TORSDOF 6
ENDMDL
MODEL 3
REMARK VINA RESULT: -6.818459555      3.177      6.746
REMARK  6 active torsions:
REMARK  status: ('A' for Active; 'I' for Inactive)
REMARK    1  A    between atoms: C8_8  and  S1_9 
REMARK    2  A    between atoms: C11_14  and  S2_15 
REMARK    3  A    between atoms: S2_15  and  N1_18 
REMARK    4  A    between atoms: C16_26  and  C17_27 
REMARK    5  A    between atoms: C17_27  and  C18_28 
REMARK    6  A    between atoms: C18_28  and  O5_29 
ROOT
HETATM    1  C1  UNL     1      11.863  51.286  98.283  1.00  0.00     0.016 C 
HETATM    2  C2  UNL     1      11.874  51.861  96.898  1.00  0.00    -0.036 C 
HETATM    3  C3  UNL     1      10.656  51.429  96.099  1.00  0.00     0.016 C 
HETATM    4  C4  UNL     1      11.648  53.413  97.036  1.00  0.00     0.050 C 
HETATM    5  C5  UNL     1      11.972  53.801  95.643  1.00  0.00    -0.027 A 
HETATM    6  C6  UNL     1      12.844  52.920  95.085  1.00  0.00    -0.044 A 
HETATM    7  C7  UNL     1      13.312  53.039  93.801  1.00  0.00     0.031 A 
HETATM    8  C8  UNL     1      12.901  54.099  92.993  1.00  0.00     0.060 A 
HETATM    9  C10 UNL     1      12.025  54.982  93.556  1.00  0.00     0.049 A 
HETATM   10  C11 UNL     1      11.550  54.869  94.843  1.00  0.00     0.088 A 
HETATM   11  C16 UNL     1      13.139  51.866  96.156  1.00  0.00     0.030 C 
ENDROOT
BRANCH  10  12
HETATM   12  S2  UNL     1      10.431  55.993  95.570  1.00  0.00     0.264 S 
HETATM   13  O3  UNL     1      10.857  57.382  95.126  1.00  0.00    -0.200 OA
HETATM   14  O4  UNL     1      10.638  55.919  97.061  1.00  0.00    -0.200 OA
BRANCH  12  15
HETATM   15  N1  UNL     1       8.808  55.668  95.162  1.00  0.00    -0.270 N 
HETATM   16  C12 UNL     1       7.903  56.532  95.390  1.00  0.00     0.086 C 
HETATM   17  C13 UNL     1       8.007  57.880  95.995  1.00  0.00     0.078 C 
HETATM   18  N2  UNL     1       6.517  56.308  95.065  1.00  0.00    -0.379 N 
HETATM   19  C14 UNL     1       6.703  58.569  95.696  1.00  0.00     0.027 C 
HETATM   20  C15 UNL     1       5.841  57.585  94.975  1.00  0.00     0.121 C 
ATOM     21  H2  UNL     1       6.083  55.396  94.921  1.00  0.00     0.160 HD
ATOM     22  H1  UNL     1       8.562  54.776  94.732  1.00  0.00     0.180 HD
ENDBRANCH  12  15
ENDBRANCH  10  12
BRANCH   8  23
HETATM   23  S1  UNL     1      13.454  54.315  91.353  1.00  0.00     0.171 S 
HETATM   24  C9  UNL     1      12.191  53.958  90.168  1.00  0.00     0.167 C 
HETATM   25  O1  UNL     1      13.861  55.775  91.212  1.00  0.00    -0.223 OA
HETATM   26  O2  UNL     1      14.692  53.513  91.071  1.00  0.00    -0.223 OA
ENDBRANCH   8  23
BRANCH  11  27
HETATM   27  C17 UNL     1      13.719  50.687  95.529  1.00  0.00     0.049 C 
BRANCH  27  28
HETATM   28  C18 UNL     1      14.873  50.004  96.125  1.00  0.00     0.084 C 
HETATM   29  C19 UNL     1      15.789  51.143  96.764  1.00  0.00     0.067 C 
HETATM   30  C20 UNL     1      17.085  50.399  96.842  1.00  0.00     0.235 C 
HETATM   31  N3  UNL     1      17.184  49.746  95.539  1.00  0.00    -0.072 N 
HETATM   32  C21 UNL     1      15.818  49.251  95.299  1.00  0.00     0.269 C 
ATOM     33  H32 UNL     1      17.556  50.338  94.796  1.00  0.00     0.277 HD
ATOM     34  H31 UNL     1      17.910  49.032  95.478  1.00  0.00     0.277 HD
BRANCH  28  35
HETATM   35  O5  UNL     1      14.553  49.273  97.283  1.00  0.00    -0.388 OA
ATOM     36  H5  UNL     1      13.748  49.557  97.699  1.00  0.00     0.210 HD
ENDBRANCH  28  35
ENDBRANCH  27  28
ENDBRANCH  11  27
TORSDOF 6
ENDMDL
MODEL 4
REMARK VINA RESULT: -6.776615492      4.138      8.381
REMARK  6 active torsions:
REMARK  status: ('A' for Active; 'I' for Inactive)
REMARK    1  A    between atoms: C8_8  and  S1_9 
REMARK    2  A    between atoms: C11_14  and  S2_15 
REMARK    3  A    between atoms: S2_15  and  N1_18 
REMARK    4  A    between atoms: C16_26  and  C17_27 
REMARK    5  A    between atoms: C17_27  and  C18_28 
REMARK    6  A    between atoms: C18_28  and  O5_29 
ROOT
HETATM    1  C1  UNL     1      15.009  51.519  97.478  1.00  0.00     0.016 C 
HETATM    2  C2  UNL     1      14.362  50.906  96.272  1.00  0.00    -0.036 C 
HETATM    3  C3  UNL     1      13.009  50.301  96.605  1.00  0.00     0.016 C 
HETATM    4  C4  UNL     1      13.970  52.085  95.304  1.00  0.00     0.050 C 
HETATM    5  C5  UNL     1      13.630  51.276  94.110  1.00  0.00    -0.027 A 
HETATM    6  C6  UNL     1      14.325  50.107  94.101  1.00  0.00    -0.044 A 
HETATM    7  C7  UNL     1      14.202  49.168  93.110  1.00  0.00     0.031 A 
HETATM    8  C8  UNL     1      13.335  49.380  92.039  1.00  0.00     0.060 A 
HETATM    9  C10 UNL     1      12.638  50.554  92.049  1.00  0.00     0.049 A 
HETATM   10  C11 UNL     1      12.756  51.500  93.041  1.00  0.00     0.088 A 
HETATM   11  C16 UNL     1      15.195  50.112  95.362  1.00  0.00     0.030 C 
ENDROOT
BRANCH  10  12
HETATM   12  S2  UNL     1      11.870  53.004  93.062  1.00  0.00     0.264 S 
HETATM   13  O3  UNL     1      12.643  53.953  93.963  1.00  0.00    -0.200 OA
HETATM   14  O4  UNL     1      10.549  52.729  93.734  1.00  0.00    -0.200 OA
BRANCH  12  15
HETATM   15  N1  UNL     1      11.638  53.657  91.505  1.00  0.00    -0.270 N 
HETATM   16  C12 UNL     1      12.594  54.243  90.905  1.00  0.00     0.086 C 
HETATM   17  C13 UNL     1      13.988  54.483  91.347  1.00  0.00     0.078 C 
HETATM   18  N2  UNL     1      12.452  54.813  89.589  1.00  0.00    -0.379 N 
HETATM   19  C14 UNL     1      14.746  54.899  90.116  1.00  0.00     0.027 C 
HETATM   20  C15 UNL     1      13.764  54.954  88.992  1.00  0.00     0.121 C 
ATOM     21  H2  UNL     1      11.570  55.075  89.149  1.00  0.00     0.160 HD
ATOM     22  H1  UNL     1      10.728  53.577  91.051  1.00  0.00     0.180 HD
ENDBRANCH  12  15
ENDBRANCH  10  12
BRANCH   8  23
HETATM   23  S1  UNL     1      13.127  48.232  90.741  1.00  0.00     0.171 S 
HETATM   24  C9  UNL     1      11.433  47.778  90.514  1.00  0.00     0.167 C 
HETATM   25  O1  UNL     1      13.631  48.904  89.471  1.00  0.00    -0.223 OA
HETATM   26  O2  UNL     1      13.985  47.014  90.931  1.00  0.00    -0.223 OA
ENDBRANCH   8  23
BRANCH  11  27
HETATM   27  C17 UNL     1      15.646  48.757  95.645  1.00  0.00     0.049 C 
BRANCH  27  28
HETATM   28  C18 UNL     1      17.073  48.452  95.799  1.00  0.00     0.084 C 
HETATM   29  C19 UNL     1      17.348  47.140  94.932  1.00  0.00     0.067 C 
HETATM   30  C20 UNL     1      18.616  46.681  95.579  1.00  0.00     0.235 C 
HETATM   31  N3  UNL     1      18.340  46.813  97.007  1.00  0.00    -0.072 N 
HETATM   32  C21 UNL     1      17.639  48.104  97.102  1.00  0.00     0.269 C 
ATOM     33  H32 UNL     1      17.834  46.026  97.414  1.00  0.00     0.277 HD
ATOM     34  H31 UNL     1      19.161  46.732  97.606  1.00  0.00     0.277 HD
BRANCH  28  35
HETATM   35  O5  UNL     1      17.914  49.361  95.133  1.00  0.00    -0.388 OA
ATOM     36  H5  UNL     1      18.484  49.847  95.717  1.00  0.00     0.210 HD
ENDBRANCH  28  35
ENDBRANCH  27  28
ENDBRANCH  11  27
TORSDOF 6
ENDMDL
MODEL 5
REMARK VINA RESULT: -6.735526023      1.862      2.956
REMARK  6 active torsions:
REMARK  status: ('A' for Active; 'I' for Inactive)
REMARK    1  A    between atoms: C8_8  and  S1_9 
REMARK    2  A    between atoms: C11_14  and  S2_15 
REMARK    3  A    between atoms: S2_15  and  N1_18 
REMARK    4  A    between atoms: C16_26  and  C17_27 
REMARK    5  A    between atoms: C17_27  and  C18_28 
REMARK    6  A    between atoms: C18_28  and  O5_29 
ROOT
HETATM    1  C1  UNL     1      13.945  51.351  92.769  1.00  0.00     0.016 C 
HETATM    2  C2  UNL     1      12.992  52.236  93.517  1.00  0.00    -0.036 C 
HETATM    3  C3  UNL     1      11.554  51.770  93.364  1.00  0.00     0.016 C 
HETATM    4  C4  UNL     1      13.254  52.010  95.053  1.00  0.00     0.050 C 
HETATM    5  C5  UNL     1      12.449  53.140  95.575  1.00  0.00    -0.027 A 
HETATM    6  C6  UNL     1      12.383  54.149  94.666  1.00  0.00    -0.044 A 
HETATM    7  C7  UNL     1      11.700  55.317  94.889  1.00  0.00     0.031 A 
HETATM    8  C8  UNL     1      11.027  55.523  96.093  1.00  0.00     0.060 A 
HETATM    9  C10 UNL     1      11.095  54.509  97.004  1.00  0.00     0.049 A 
HETATM   10  C11 UNL     1      11.777  53.334  96.786  1.00  0.00     0.088 A 
HETATM   11  C16 UNL     1      13.189  53.688  93.448  1.00  0.00     0.030 C 
ENDROOT
BRANCH  10  12
HETATM   12  S2  UNL     1      11.870  52.032  97.946  1.00  0.00     0.264 S 
HETATM   13  O3  UNL     1      10.961  52.413  99.102  1.00  0.00    -0.200 OA
HETATM   14  O4  UNL     1      13.280  52.013  98.475  1.00  0.00    -0.200 OA
BRANCH  12  15
HETATM   15  N1  UNL     1      11.447  50.522  97.278  1.00  0.00    -0.270 N 
HETATM   16  C12 UNL     1      10.331  50.370  96.688  1.00  0.00     0.086 C 
HETATM   17  C13 UNL     1       9.241  51.344  96.453  1.00  0.00     0.078 C 
HETATM   18  N2  UNL     1       9.925  49.115  96.107  1.00  0.00    -0.379 N 
HETATM   19  C14 UNL     1       8.343  50.718  95.421  1.00  0.00     0.027 C 
HETATM   20  C15 UNL     1       8.895  49.363  95.120  1.00  0.00     0.121 C 
ATOM     21  H2  UNL     1      10.302  48.199  96.352  1.00  0.00     0.160 HD
ATOM     22  H1  UNL     1      12.093  49.735  97.354  1.00  0.00     0.180 HD
ENDBRANCH  12  15
ENDBRANCH  10  12
BRANCH   8  23
HETATM   23  S1  UNL     1      10.138  56.982  96.448  1.00  0.00     0.171 S 
HETATM   24  C9  UNL     1       8.507  56.955  95.768  1.00  0.00     0.167 C 
HETATM   25  O1  UNL     1      10.038  57.080  97.965  1.00  0.00    -0.223 OA
HETATM   26  O2  UNL     1      10.882  58.210  96.005  1.00  0.00    -0.223 OA
ENDBRANCH   8  23
BRANCH  11  27
HETATM   27  C17 UNL     1      12.836  54.504  92.295  1.00  0.00     0.049 C 
BRANCH  27  28
HETATM   28  C18 UNL     1      13.388  54.215  90.967  1.00  0.00     0.084 C 
HETATM   29  C19 UNL     1      13.628  55.627  90.263  1.00  0.00     0.067 C 
HETATM   30  C20 UNL     1      13.670  55.184  88.834  1.00  0.00     0.235 C 
HETATM   31  N3  UNL     1      12.538  54.269  88.725  1.00  0.00    -0.072 N 
HETATM   32  C21 UNL     1      12.613  53.481  89.966  1.00  0.00     0.269 C 
ATOM     33  H32 UNL     1      11.639  54.725  88.568  1.00  0.00     0.277 HD
ATOM     34  H31 UNL     1      12.525  53.713  87.871  1.00  0.00     0.277 HD
BRANCH  28  35
HETATM   35  O5  UNL     1      14.710  53.736  91.002  1.00  0.00    -0.388 OA
ATOM     36  H5  UNL     1      14.777  52.830  91.278  1.00  0.00     0.210 HD
ENDBRANCH  28  35
ENDBRANCH  27  28
ENDBRANCH  11  27
TORSDOF 6
ENDMDL
