MODEL 1
REMARK VINA RESULT: -7.720939417      0.000      0.000
REMARK  6 active torsions:
REMARK  status: ('A' for Active; 'I' for Inactive)
REMARK    1  A    between atoms: C5_5  and  N1_6 
REMARK    2  A    between atoms: N1_6  and  C6_8 
REMARK    3  A    between atoms: C13_21  and  O1_22 
REMARK    4  A    between atoms: C18_27  and  S1_28 
REMARK    5  A    between atoms: S1_28  and  N5_31 
REMARK    6  A    between atoms: N5_31  and  S2_33 
ROOT
HETATM    1  C1  UNL     1      16.392  51.888  81.982  1.00  0.00     0.018 C 
HETATM    2  C2  UNL     1      15.274  51.694  82.389  1.00  0.00    -0.078 C 
HETATM    3  C3  UNL     1      13.949  51.462  82.883  1.00  0.00     0.020 A 
HETATM    4  C4  UNL     1      13.431  52.332  83.798  1.00  0.00     0.050 A 
HETATM    5  C5  UNL     1      12.173  52.169  84.308  1.00  0.00     0.036 A 
HETATM    6  C17 UNL     1      11.445  51.085  83.860  1.00  0.00     0.054 A 
HETATM    7  C18 UNL     1      11.921  50.187  82.944  1.00  0.00     0.084 A 
HETATM    8  C20 UNL     1      13.191  50.373  82.446  1.00  0.00     0.046 A 
ENDROOT
BRANCH   5   9
HETATM    9  N1  UNL     1      11.674  53.100  85.259  1.00  0.00    -0.340 N 
ATOM     10  H1  UNL     1      11.604  54.094  85.038  1.00  0.00     0.167 HD
BRANCH   9  11
HETATM   11  C6  UNL     1      11.313  52.645  86.412  1.00  0.00     0.136 A 
HETATM   12  N2  UNL     1      10.332  51.712  86.542  1.00  0.00    -0.337 N 
HETATM   13  C7  UNL     1       9.996  51.274  87.771  1.00  0.00     0.182 A 
ATOM     14  H2  UNL     1       9.855  51.347  85.718  1.00  0.00     0.168 HD
HETATM   15  N3  UNL     1      10.621  51.752  88.855  1.00  0.00    -0.350 N 
HETATM   16  C8  UNL     1      11.592  52.670  88.786  1.00  0.00     0.076 A 
ATOM     17  H3  UNL     1      10.345  51.401  89.772  1.00  0.00     0.166 HD
HETATM   18  C9  UNL     1      11.949  53.130  87.535  1.00  0.00     0.105 A 
HETATM   19  C16 UNL     1      12.399  53.339  89.671  1.00  0.00     0.022 A 
HETATM   20  N4  UNL     1      12.928  54.036  87.661  1.00  0.00    -0.351 N 
HETATM   21  C10 UNL     1      13.240  54.198  88.978  1.00  0.00     0.045 A 
ATOM     22  H4  UNL     1      13.374  54.530  86.888  1.00  0.00     0.166 HD
HETATM   23  C11 UNL     1      14.128  54.963  89.670  1.00  0.00     0.033 A 
HETATM   24  C12 UNL     1      14.211  54.901  91.056  1.00  0.00     0.039 A 
HETATM   25  C13 UNL     1      13.380  54.052  91.759  1.00  0.00     0.069 A 
HETATM   26  C15 UNL     1      12.487  53.285  91.044  1.00  0.00     0.053 A 
BRANCH  25  27
HETATM   27  O1  UNL     1      13.448  53.977  93.140  1.00  0.00    -0.356 OA
HETATM   28  C14 UNL     1      12.677  54.869  93.922  1.00  0.00     0.210 C 
ENDBRANCH  25  27
ENDBRANCH   9  11
ENDBRANCH   5   9
BRANCH   7  29
HETATM   29  S1  UNL     1      10.969  48.838  82.403  1.00  0.00     0.271 S 
HETATM   30  O2  UNL     1      10.879  47.869  83.571  1.00  0.00    -0.200 OA
HETATM   31  O3  UNL     1       9.560  49.296  82.141  1.00  0.00    -0.200 OA
BRANCH  29  32
HETATM   32  N5  UNL     1      11.626  47.994  81.085  1.00  0.00    -0.207 N 
ATOM     33  H5  UNL     1      12.202  47.160  81.207  1.00  0.00     0.192 HD
BRANCH  32  34
HETATM   34  S2  UNL     1      11.263  48.626  79.551  1.00  0.00     0.235 S 
HETATM   35  C19 UNL     1       9.774  47.942  78.863  1.00  0.00     0.186 C 
HETATM   36  O4  UNL     1      12.386  48.196  78.613  1.00  0.00    -0.205 OA
HETATM   37  O5  UNL     1      11.213  50.107  79.487  1.00  0.00    -0.205 OA
ENDBRANCH  32  34
ENDBRANCH  29  32
ENDBRANCH   7  29
TORSDOF 6
ENDMDL
MODEL 2
REMARK VINA RESULT: -7.703972104      1.275      1.416
REMARK  6 active torsions:
REMARK  status: ('A' for Active; 'I' for Inactive)
REMARK    1  A    between atoms: C5_5  and  N1_6 
REMARK    2  A    between atoms: N1_6  and  C6_8 
REMARK    3  A    between atoms: C13_21  and  O1_22 
REMARK    4  A    between atoms: C18_27  and  S1_28 
REMARK    5  A    between atoms: S1_28  and  N5_31 
REMARK    6  A    between atoms: N5_31  and  S2_33 
ROOT
HETATM    1  C1  UNL     1      16.195  51.594  81.870  1.00  0.00     0.018 C 
HETATM    2  C2  UNL     1      15.066  51.541  82.290  1.00  0.00    -0.078 C 
HETATM    3  C3  UNL     1      13.729  51.476  82.800  1.00  0.00     0.020 A 
HETATM    4  C4  UNL     1      13.378  52.306  83.824  1.00  0.00     0.050 A 
HETATM    5  C5  UNL     1      12.118  52.295  84.355  1.00  0.00     0.036 A 
HETATM    6  C17 UNL     1      11.212  51.405  83.814  1.00  0.00     0.054 A 
HETATM    7  C18 UNL     1      11.516  50.554  82.787  1.00  0.00     0.084 A 
HETATM    8  C20 UNL     1      12.792  50.585  82.269  1.00  0.00     0.046 A 
ENDROOT
BRANCH   5   9
HETATM    9  N1  UNL     1      11.797  53.178  85.422  1.00  0.00    -0.340 N 
ATOM     10  H1  UNL     1      11.845  54.190  85.302  1.00  0.00     0.167 HD
BRANCH   9  11
HETATM   11  C6  UNL     1      11.443  52.655  86.548  1.00  0.00     0.136 A 
HETATM   12  N2  UNL     1      10.524  51.654  86.620  1.00  0.00    -0.337 N 
HETATM   13  C7  UNL     1      10.193  51.148  87.822  1.00  0.00     0.182 A 
ATOM     14  H2  UNL     1      10.091  51.291  85.771  1.00  0.00     0.168 HD
HETATM   15  N3  UNL     1      10.760  51.623  88.939  1.00  0.00    -0.350 N 
HETATM   16  C8  UNL     1      11.668  52.606  88.928  1.00  0.00     0.076 A 
ATOM     17  H3  UNL     1      10.489  51.219  89.835  1.00  0.00     0.166 HD
HETATM   18  C9  UNL     1      12.020  53.137  87.704  1.00  0.00     0.105 A 
HETATM   19  C16 UNL     1      12.409  53.292  89.856  1.00  0.00     0.022 A 
HETATM   20  N4  UNL     1      12.933  54.100  87.887  1.00  0.00    -0.351 N 
HETATM   21  C10 UNL     1      13.205  54.231  89.216  1.00  0.00     0.045 A 
ATOM     22  H4  UNL     1      13.361  54.653  87.144  1.00  0.00     0.166 HD
HETATM   23  C11 UNL     1      14.025  55.026  89.957  1.00  0.00     0.033 A 
HETATM   24  C12 UNL     1      14.082  54.916  91.342  1.00  0.00     0.039 A 
HETATM   25  C13 UNL     1      13.295  53.987  91.993  1.00  0.00     0.069 A 
HETATM   26  C15 UNL     1      12.472  53.190  91.228  1.00  0.00     0.053 A 
BRANCH  25  27
HETATM   27  O1  UNL     1      13.338  53.863  93.371  1.00  0.00    -0.356 OA
HETATM   28  C14 UNL     1      12.675  54.819  94.175  1.00  0.00     0.210 C 
ENDBRANCH  25  27
ENDBRANCH   9  11
ENDBRANCH   5   9
BRANCH   7  29
HETATM   29  S1  UNL     1      10.343  49.454  82.130  1.00  0.00     0.271 S 
HETATM   30  O2  UNL     1      10.924  48.056  82.275  1.00  0.00    -0.200 OA
HETATM   31  O3  UNL     1       9.106  49.474  82.986  1.00  0.00    -0.200 OA
BRANCH  29  32
HETATM   32  N5  UNL     1       9.992  49.696  80.487  1.00  0.00    -0.207 N 
ATOM     33  H5  UNL     1      10.029  48.937  79.806  1.00  0.00     0.192 HD
BRANCH  32  34
HETATM   34  S2  UNL     1       9.574  51.283  80.049  1.00  0.00     0.235 S 
HETATM   35  C19 UNL     1       8.519  51.345  78.620  1.00  0.00     0.186 C 
HETATM   36  O4  UNL     1      10.863  51.988  79.641  1.00  0.00    -0.205 OA
HETATM   37  O5  UNL     1       8.986  52.093  81.144  1.00  0.00    -0.205 OA
ENDBRANCH  32  34
ENDBRANCH  29  32
ENDBRANCH   7  29
TORSDOF 6
ENDMDL
MODEL 3
REMARK VINA RESULT: -7.692927828      3.881      8.322
REMARK  6 active torsions:
REMARK  status: ('A' for Active; 'I' for Inactive)
REMARK    1  A    between atoms: C5_5  and  N1_6 
REMARK    2  A    between atoms: N1_6  and  C6_8 
REMARK    3  A    between atoms: C13_21  and  O1_22 
REMARK    4  A    between atoms: C18_27  and  S1_28 
REMARK    5  A    between atoms: S1_28  and  N5_31 
REMARK    6  A    between atoms: N5_31  and  S2_33 
ROOT
HETATM    1  C1  UNL     1      14.330  55.266  90.981  1.00  0.00     0.018 C 
HETATM    2  C2  UNL     1      13.478  54.496  90.617  1.00  0.00    -0.078 C 
HETATM    3  C3  UNL     1      12.457  53.588  90.185  1.00  0.00     0.020 A 
HETATM    4  C4  UNL     1      11.823  53.833  89.001  1.00  0.00     0.050 A 
HETATM    5  C5  UNL     1      10.841  53.005  88.531  1.00  0.00     0.036 A 
HETATM    6  C17 UNL     1      10.513  51.910  89.304  1.00  0.00     0.054 A 
HETATM    7  C18 UNL     1      11.120  51.623  90.496  1.00  0.00     0.084 A 
HETATM    8  C20 UNL     1      12.106  52.471  90.948  1.00  0.00     0.046 A 
ENDROOT
BRANCH   5   9
HETATM    9  N1  UNL     1      10.208  53.300  87.293  1.00  0.00    -0.340 N 
ATOM     10  H1  UNL     1       9.686  54.166  87.159  1.00  0.00     0.167 HD
BRANCH   9  11
HETATM   11  C6  UNL     1      10.317  52.433  86.342  1.00  0.00     0.136 A 
HETATM   12  N2  UNL     1       9.357  51.500  86.104  1.00  0.00    -0.337 N 
HETATM   13  C7  UNL     1       9.525  50.621  85.099  1.00  0.00     0.182 A 
ATOM     14  H2  UNL     1       8.517  51.467  86.682  1.00  0.00     0.168 HD
HETATM   15  N3  UNL     1      10.627  50.662  84.338  1.00  0.00    -0.350 N 
HETATM   16  C8  UNL     1      11.604  51.557  84.527  1.00  0.00     0.076 A 
ATOM     17  H3  UNL     1      10.726  49.983  83.584  1.00  0.00     0.166 HD
HETATM   18  C9  UNL     1      11.448  52.466  85.553  1.00  0.00     0.105 A 
HETATM   19  C16 UNL     1      12.811  51.855  83.948  1.00  0.00     0.022 A 
HETATM   20  N4  UNL     1      12.515  53.276  85.590  1.00  0.00    -0.351 N 
HETATM   21  C10 UNL     1      13.391  52.929  84.606  1.00  0.00     0.045 A 
ATOM     22  H4  UNL     1      12.650  54.038  86.255  1.00  0.00     0.166 HD
HETATM   23  C11 UNL     1      14.602  53.391  84.189  1.00  0.00     0.033 A 
HETATM   24  C12 UNL     1      15.269  52.808  83.118  1.00  0.00     0.039 A 
HETATM   25  C13 UNL     1      14.705  51.738  82.454  1.00  0.00     0.069 A 
HETATM   26  C15 UNL     1      13.479  51.283  82.888  1.00  0.00     0.053 A 
BRANCH  25  27
HETATM   27  O1  UNL     1      15.355  51.144  81.385  1.00  0.00    -0.356 OA
HETATM   28  C14 UNL     1      15.455  51.843  80.159  1.00  0.00     0.210 C 
ENDBRANCH  25  27
ENDBRANCH   9  11
ENDBRANCH   5   9
BRANCH   7  29
HETATM   29  S1  UNL     1      10.682  50.229  91.435  1.00  0.00     0.271 S 
HETATM   30  O2  UNL     1       9.526  50.650  92.330  1.00  0.00    -0.200 OA
HETATM   31  O3  UNL     1      10.129  49.167  90.524  1.00  0.00    -0.200 OA
BRANCH  29  32
HETATM   32  N5  UNL     1      11.917  49.637  92.439  1.00  0.00    -0.207 N 
ATOM     33  H5  UNL     1      11.937  49.823  93.442  1.00  0.00     0.192 HD
BRANCH  32  34
HETATM   34  S2  UNL     1      13.115  48.714  91.664  1.00  0.00     0.235 S 
HETATM   35  C19 UNL     1      12.645  47.013  91.461  1.00  0.00     0.186 C 
HETATM   36  O4  UNL     1      14.331  48.699  92.584  1.00  0.00    -0.205 OA
HETATM   37  O5  UNL     1      13.581  49.266  90.369  1.00  0.00    -0.205 OA
ENDBRANCH  32  34
ENDBRANCH  29  32
ENDBRANCH   7  29
TORSDOF 6
ENDMDL
MODEL 4
REMARK VINA RESULT: -7.670505769      2.202      2.848
REMARK  6 active torsions:
REMARK  status: ('A' for Active; 'I' for Inactive)
REMARK    1  A    between atoms: C5_5  and  N1_6 
REMARK    2  A    between atoms: N1_6  and  C6_8 
REMARK    3  A    between atoms: C13_21  and  O1_22 
REMARK    4  A    between atoms: C18_27  and  S1_28 
REMARK    5  A    between atoms: S1_28  and  N5_31 
REMARK    6  A    between atoms: N5_31  and  S2_33 
ROOT
HETATM    1  C1  UNL     1      16.196  51.526  81.977  1.00  0.00     0.018 C 
HETATM    2  C2  UNL     1      15.103  51.698  82.453  1.00  0.00    -0.078 C 
HETATM    3  C3  UNL     1      13.805  51.897  83.028  1.00  0.00     0.020 A 
HETATM    4  C4  UNL     1      13.711  52.568  84.213  1.00  0.00     0.050 A 
HETATM    5  C5  UNL     1      12.504  52.792  84.814  1.00  0.00     0.036 A 
HETATM    6  C17 UNL     1      11.379  52.311  84.174  1.00  0.00     0.054 A 
HETATM    7  C18 UNL     1      11.423  51.634  82.986  1.00  0.00     0.084 A 
HETATM    8  C20 UNL     1      12.651  51.421  82.401  1.00  0.00     0.046 A 
ENDROOT
BRANCH   5   9
HETATM    9  N1  UNL     1      12.454  53.495  86.048  1.00  0.00    -0.340 N 
ATOM     10  H1  UNL     1      12.831  54.439  86.134  1.00  0.00     0.167 HD
BRANCH   9  11
HETATM   11  C6  UNL     1      11.913  52.898  87.058  1.00  0.00     0.136 A 
HETATM   12  N2  UNL     1      11.022  51.884  86.901  1.00  0.00    -0.337 N 
HETATM   13  C7  UNL     1      10.489  51.298  87.991  1.00  0.00     0.182 A 
ATOM     14  H2  UNL     1      10.759  51.569  85.967  1.00  0.00     0.168 HD
HETATM   15  N3  UNL     1      10.833  51.710  89.218  1.00  0.00    -0.350 N 
HETATM   16  C8  UNL     1      11.703  52.704  89.431  1.00  0.00     0.076 A 
ATOM     17  H3  UNL     1      10.413  51.248  90.024  1.00  0.00     0.166 HD
HETATM   18  C9  UNL     1      12.259  53.315  88.326  1.00  0.00     0.105 A 
HETATM   19  C16 UNL     1      12.246  53.340  90.518  1.00  0.00     0.022 A 
HETATM   20  N4  UNL     1      13.100  54.276  88.730  1.00  0.00    -0.351 N 
HETATM   21  C10 UNL     1      13.122  54.327  90.092  1.00  0.00     0.045 A 
ATOM     22  H4  UNL     1      13.642  54.880  88.111  1.00  0.00     0.166 HD
HETATM   23  C11 UNL     1      13.774  55.085  91.016  1.00  0.00     0.033 A 
HETATM   24  C12 UNL     1      13.581  54.889  92.379  1.00  0.00     0.039 A 
HETATM   25  C13 UNL     1      12.712  53.911  92.818  1.00  0.00     0.069 A 
HETATM   26  C15 UNL     1      12.061  53.153  91.870  1.00  0.00     0.053 A 
BRANCH  25  27
HETATM   27  O1  UNL     1      12.507  53.702  94.171  1.00  0.00    -0.356 OA
HETATM   28  C14 UNL     1      11.856  54.697  94.937  1.00  0.00     0.210 C 
ENDBRANCH  25  27
ENDBRANCH   9  11
ENDBRANCH   5   9
BRANCH   7  29
HETATM   29  S1  UNL     1       9.983  51.050  82.210  1.00  0.00     0.271 S 
HETATM   30  O2  UNL     1      10.430  50.074  81.133  1.00  0.00    -0.200 OA
HETATM   31  O3  UNL     1       9.181  50.239  83.192  1.00  0.00    -0.200 OA
BRANCH  29  32
HETATM   32  N5  UNL     1       9.050  52.252  81.457  1.00  0.00    -0.207 N 
ATOM     33  H5  UNL     1       9.151  52.476  80.467  1.00  0.00     0.192 HD
BRANCH  32  34
HETATM   34  S2  UNL     1       7.939  53.057  82.458  1.00  0.00     0.235 S 
HETATM   35  C19 UNL     1       6.631  51.995  83.023  1.00  0.00     0.186 C 
HETATM   36  O4  UNL     1       7.263  54.126  81.607  1.00  0.00    -0.205 OA
HETATM   37  O5  UNL     1       8.545  53.766  83.611  1.00  0.00    -0.205 OA
ENDBRANCH  32  34
ENDBRANCH  29  32
ENDBRANCH   7  29
TORSDOF 6
ENDMDL
MODEL 5
REMARK VINA RESULT: -7.557276985      3.434      9.685
REMARK  6 active torsions:
REMARK  status: ('A' for Active; 'I' for Inactive)
REMARK    1  A    between atoms: C5_5  and  N1_6 
REMARK    2  A    between atoms: N1_6  and  C6_8 
REMARK    3  A    between atoms: C13_21  and  O1_22 
REMARK    4  A    between atoms: C18_27  and  S1_28 
REMARK    5  A    between atoms: S1_28  and  N5_31 
REMARK    6  A    between atoms: N5_31  and  S2_33 
ROOT
HETATM    1  C1  UNL     1      11.551  47.295  87.415  1.00  0.00     0.018 C 
HETATM    2  C2  UNL     1      11.583  48.498  87.347  1.00  0.00    -0.078 C 
HETATM    3  C3  UNL     1      11.631  49.927  87.261  1.00  0.00     0.020 A 
HETATM    4  C4  UNL     1      11.633  50.509  86.026  1.00  0.00     0.050 A 
HETATM    5  C5  UNL     1      11.676  51.867  85.875  1.00  0.00     0.036 A 
HETATM    6  C17 UNL     1      11.719  52.630  87.024  1.00  0.00     0.054 A 
HETATM    7  C18 UNL     1      11.719  52.094  88.283  1.00  0.00     0.084 A 
HETATM    8  C20 UNL     1      11.675  50.723  88.409  1.00  0.00     0.046 A 
ENDROOT
BRANCH   5   9
HETATM    9  N1  UNL     1      11.676  52.428  84.569  1.00  0.00    -0.340 N 
ATOM     10  H1  UNL     1      10.907  53.017  84.247  1.00  0.00     0.167 HD
BRANCH   9  11
HETATM   11  C6  UNL     1      12.683  52.168  83.804  1.00  0.00     0.136 A 
HETATM   12  N2  UNL     1      13.895  52.758  83.984  1.00  0.00    -0.337 N 
HETATM   13  C7  UNL     1      14.909  52.449  83.154  1.00  0.00     0.182 A 
ATOM     14  H2  UNL     1      14.034  53.428  84.740  1.00  0.00     0.168 HD
HETATM   15  N3  UNL     1      14.729  51.568  82.160  1.00  0.00    -0.350 N 
HETATM   16  C8  UNL     1      13.559  50.959  81.937  1.00  0.00     0.076 A 
ATOM     17  H3  UNL     1      15.516  51.354  81.548  1.00  0.00     0.166 HD
HETATM   18  C9  UNL     1      12.508  51.264  82.777  1.00  0.00     0.105 A 
HETATM   19  C16 UNL     1      13.064  50.045  81.042  1.00  0.00     0.022 A 
HETATM   20  N4  UNL     1      11.428  50.564  82.405  1.00  0.00    -0.351 N 
HETATM   21  C10 UNL     1      11.730  49.791  81.324  1.00  0.00     0.045 A 
ATOM     22  H4  UNL     1      10.517  50.605  82.861  1.00  0.00     0.166 HD
HETATM   23  C11 UNL     1      11.041  48.906  80.551  1.00  0.00     0.033 A 
HETATM   24  C12 UNL     1      11.648  48.253  79.484  1.00  0.00     0.039 A 
HETATM   25  C13 UNL     1      12.974  48.497  79.190  1.00  0.00     0.069 A 
HETATM   26  C15 UNL     1      13.656  49.394  79.983  1.00  0.00     0.053 A 
BRANCH  25  27
HETATM   27  O1  UNL     1      13.594  47.856  78.132  1.00  0.00    -0.356 OA
HETATM   28  C14 UNL     1      13.225  46.528  77.811  1.00  0.00     0.210 C 
ENDBRANCH  25  27
ENDBRANCH   9  11
ENDBRANCH   5   9
BRANCH   7  29
HETATM   29  S1  UNL     1      11.768  53.092  89.704  1.00  0.00     0.271 S 
HETATM   30  O2  UNL     1      10.333  53.236  90.187  1.00  0.00    -0.200 OA
HETATM   31  O3  UNL     1      12.499  52.364  90.800  1.00  0.00    -0.200 OA
BRANCH  29  32
HETATM   32  N5  UNL     1      12.382  54.654  89.449  1.00  0.00    -0.207 N 
ATOM     33  H5  UNL     1      11.926  55.322  88.828  1.00  0.00     0.192 HD
BRANCH  32  34
HETATM   34  S2  UNL     1      13.806  55.032  90.296  1.00  0.00     0.235 S 
HETATM   35  C19 UNL     1      13.593  54.962  92.059  1.00  0.00     0.186 C 
HETATM   36  O4  UNL     1      14.141  56.485  89.978  1.00  0.00    -0.205 OA
HETATM   37  O5  UNL     1      14.992  54.235  89.900  1.00  0.00    -0.205 OA
ENDBRANCH  32  34
ENDBRANCH  29  32
ENDBRANCH   7  29
TORSDOF 6
ENDMDL
