MODEL 1
REMARK VINA RESULT: -5.313347947      0.000      0.000
REMARK  10 active torsions:
REMARK  status: ('A' for Active; 'I' for Inactive)
REMARK    1  A    between atoms: C2_2  and  C3_3 
REMARK    2  A    between atoms: C3_3  and  C5_5 
REMARK    3  A    between atoms: C13_19  and  C14_20 
REMARK    4  A    between atoms: C14_20  and  C15_21 
REMARK    5  A    between atoms: C20_28  and  C21_29 
REMARK    6  A    between atoms: C21_29  and  C23_31 
REMARK    7  A    between atoms: C26_36  and  C27_37 
REMARK    8  A    between atoms: C27_37  and  C28_38 
REMARK    9  A    between atoms: C28_38  and  C29_39 
REMARK   10  A    between atoms: C29_39  and  C30_40 
ROOT
HETATM    1  C5  UNL     1      10.761  51.146  83.813  1.00  0.00     0.180 C 
HETATM    2  N1  UNL     1      10.249  52.399  83.321  1.00  0.00    -0.345 N 
ATOM      3  H1  UNL     1      10.963  52.986  82.890  1.00  0.00     0.163 HD
HETATM    4  C6  UNL     1       8.999  52.967  83.310  1.00  0.00     0.246 C 
HETATM    5  O1  UNL     1       8.902  54.103  83.930  1.00  0.00    -0.271 OA
HETATM    6  C7  UNL     1       7.707  52.554  82.723  1.00  0.00     0.114 C 
HETATM    7  C8  UNL     1       6.596  52.981  83.718  1.00  0.00     0.041 C 
HETATM    8  C9  UNL     1       6.483  51.840  84.689  1.00  0.00     0.003 C 
HETATM    9  C10 UNL     1       6.989  50.632  83.974  1.00  0.00     0.003 C 
HETATM   10  C11 UNL     1       7.456  51.108  82.627  1.00  0.00     0.041 C 
HETATM   11  N2  UNL     1       7.486  53.284  81.477  1.00  0.00    -0.341 N 
ATOM     12  H2  UNL     1       7.948  54.193  81.447  1.00  0.00     0.163 HD
HETATM   13  C12 UNL     1       6.780  52.987  80.340  1.00  0.00     0.241 C 
HETATM   14  O2  UNL     1       5.780  53.774  80.075  1.00  0.00    -0.271 OA
HETATM   15  C13 UNL     1       6.937  51.921  79.326  1.00  0.00     0.179 C 
HETATM   16  N3  UNL     1       7.932  52.335  78.306  1.00  0.00    -0.341 N 
HETATM   17  C18 UNL     1       7.550  53.433  77.401  1.00  0.00     0.153 C 
HETATM   18  C19 UNL     1       9.205  51.740  78.161  1.00  0.00     0.250 C 
HETATM   19  O3  UNL     1      10.109  52.603  77.847  1.00  0.00    -0.270 OA
HETATM   20  C20 UNL     1       9.584  50.340  78.319  1.00  0.00     0.227 C 
HETATM   21  O4  UNL     1       9.784  49.908  79.615  1.00  0.00    -0.304 OA
HETATM   22  C25 UNL     1      10.872  49.983  80.420  1.00  0.00     0.282 C 
HETATM   23  O5  UNL     1      11.091  48.966  81.173  1.00  0.00    -0.263 OA
HETATM   24  C26 UNL     1      11.848  51.071  80.558  1.00  0.00     0.184 C 
HETATM   25  N4  UNL     1      12.481  51.141  81.860  1.00  0.00    -0.345 N 
ATOM     26  H4  UNL     1      13.407  51.568  81.869  1.00  0.00     0.163 HD
HETATM   27  C31 UNL     1      12.017  50.715  83.094  1.00  0.00     0.241 C 
HETATM   28  O6  UNL     1      12.716  49.848  83.736  1.00  0.00    -0.271 OA
ENDROOT
BRANCH  24  29
HETATM   29  C27 UNL     1      12.943  50.994  79.506  1.00  0.00     0.035 C 
BRANCH  29  30
HETATM   30  C28 UNL     1      14.242  50.525  80.050  1.00  0.00     0.003 C 
BRANCH  30  31
HETATM   31  C29 UNL     1      15.363  51.157  79.278  1.00  0.00     0.011 C 
BRANCH  31  32
HETATM   32  C30 UNL     1      15.952  52.361  79.932  1.00  0.00     0.086 C 
HETATM   33  S1  UNL     1      15.923  52.195  81.756  1.00  0.00    -0.098 SA
ENDBRANCH  31  32
ENDBRANCH  30  31
ENDBRANCH  29  30
ENDBRANCH  24  29
BRANCH  20  34
HETATM   34  C21 UNL     1       8.662  49.354  77.610  1.00  0.00     0.020 C 
HETATM   35  C22 UNL     1       9.251  47.981  77.713  1.00  0.00     0.013 C 
BRANCH  34  36
HETATM   36  C23 UNL     1       8.593  49.712  76.128  1.00  0.00     0.003 C 
HETATM   37  C24 UNL     1       7.160  49.825  75.704  1.00  0.00     0.005 C 
ENDBRANCH  34  36
ENDBRANCH  20  34
BRANCH   1  38
HETATM   38  C3  UNL     1      11.224  51.296  85.269  1.00  0.00     0.013 C 
HETATM   39  C4  UNL     1      11.874  52.617  85.534  1.00  0.00     0.012 C 
BRANCH  38  40
HETATM   40  C2  UNL     1      10.230  50.896  86.288  1.00  0.00     0.002 C 
HETATM   41  C1  UNL     1       9.699  52.209  86.901  1.00  0.00     0.005 C 
ENDBRANCH  38  40
ENDBRANCH   1  38
BRANCH  15  42
HETATM   42  C14 UNL     1       5.648  51.735  78.601  1.00  0.00     0.039 C 
BRANCH  42  43
HETATM   43  C15 UNL     1       4.822  50.551  78.910  1.00  0.00    -0.020 C 
HETATM   44  C16 UNL     1       5.770  49.551  79.623  1.00  0.00     0.009 C 
HETATM   45  C17 UNL     1       3.726  50.827  79.923  1.00  0.00     0.009 C 
ENDBRANCH  42  43
ENDBRANCH  15  42
TORSDOF 10
ENDMDL
MODEL 2
REMARK VINA RESULT: -5.262159242      6.493     11.121
REMARK  10 active torsions:
REMARK  status: ('A' for Active; 'I' for Inactive)
REMARK    1  A    between atoms: C2_2  and  C3_3 
REMARK    2  A    between atoms: C3_3  and  C5_5 
REMARK    3  A    between atoms: C13_19  and  C14_20 
REMARK    4  A    between atoms: C14_20  and  C15_21 
REMARK    5  A    between atoms: C20_28  and  C21_29 
REMARK    6  A    between atoms: C21_29  and  C23_31 
REMARK    7  A    between atoms: C26_36  and  C27_37 
REMARK    8  A    between atoms: C27_37  and  C28_38 
REMARK    9  A    between atoms: C28_38  and  C29_39 
REMARK   10  A    between atoms: C29_39  and  C30_40 
ROOT
HETATM    1  C5  UNL     1      12.829  48.926  92.011  1.00  0.00     0.180 C 
HETATM    2  N1  UNL     1      11.465  48.971  91.552  1.00  0.00    -0.345 N 
ATOM      3  H1  UNL     1      10.810  49.296  92.263  1.00  0.00     0.163 HD
HETATM    4  C6  UNL     1      10.862  48.667  90.357  1.00  0.00     0.246 C 
HETATM    5  O1  UNL     1       9.958  47.738  90.413  1.00  0.00    -0.271 OA
HETATM    6  C7  UNL     1      11.025  49.188  88.982  1.00  0.00     0.114 C 
HETATM    7  C8  UNL     1      10.861  47.985  88.016  1.00  0.00     0.041 C 
HETATM    8  C9  UNL     1      12.231  47.380  87.913  1.00  0.00     0.003 C 
HETATM    9  C10 UNL     1      13.195  48.469  88.246  1.00  0.00     0.003 C 
HETATM   10  C11 UNL     1      12.364  49.667  88.610  1.00  0.00     0.041 C 
HETATM   11  N2  UNL     1       9.949  50.134  88.694  1.00  0.00    -0.341 N 
ATOM     12  H2  UNL     1       9.094  49.955  89.221  1.00  0.00     0.163 HD
HETATM   13  C12 UNL     1       9.864  51.215  87.855  1.00  0.00     0.241 C 
HETATM   14  O2  UNL     1       8.990  51.119  86.899  1.00  0.00    -0.271 OA
HETATM   15  C13 UNL     1      10.588  52.505  87.824  1.00  0.00     0.179 C 
HETATM   16  N3  UNL     1       9.937  53.474  88.739  1.00  0.00    -0.341 N 
HETATM   17  C18 UNL     1       8.604  53.970  88.355  1.00  0.00     0.153 C 
HETATM   18  C19 UNL     1      10.520  53.936  89.940  1.00  0.00     0.250 C 
HETATM   19  O3  UNL     1       9.645  54.094  90.873  1.00  0.00    -0.270 OA
HETATM   20  C20 UNL     1      11.919  54.236  90.222  1.00  0.00     0.227 C 
HETATM   21  O4  UNL     1      12.724  53.154  90.518  1.00  0.00    -0.304 OA
HETATM   22  C25 UNL     1      12.941  52.499  91.684  1.00  0.00     0.282 C 
HETATM   23  O5  UNL     1      14.144  52.103  91.898  1.00  0.00    -0.263 OA
HETATM   24  C26 UNL     1      11.988  52.170  92.752  1.00  0.00     0.184 C 
HETATM   25  N4  UNL     1      12.335  50.990  93.518  1.00  0.00    -0.345 N 
ATOM     26  H4  UNL     1      11.972  50.970  94.471  1.00  0.00     0.163 HD
HETATM   27  C31 UNL     1      13.085  49.885  93.150  1.00  0.00     0.241 C 
HETATM   28  O6  UNL     1      14.134  49.610  93.840  1.00  0.00    -0.271 OA
ENDROOT
BRANCH  24  29
HETATM   29  C27 UNL     1      11.800  53.324  93.725  1.00  0.00     0.035 C 
BRANCH  29  30
HETATM   30  C28 UNL     1      12.997  54.194  93.837  1.00  0.00     0.003 C 
BRANCH  30  31
HETATM   31  C29 UNL     1      12.573  55.632  93.799  1.00  0.00     0.011 C 
BRANCH  31  32
HETATM   32  C30 UNL     1      11.437  55.960  94.708  1.00  0.00     0.086 C 
HETATM   33  S1  UNL     1      11.411  57.748  95.104  1.00  0.00    -0.098 SA
ENDBRANCH  31  32
ENDBRANCH  30  31
ENDBRANCH  29  30
ENDBRANCH  24  29
BRANCH  20  34
HETATM   34  C21 UNL     1      12.608  55.083  89.157  1.00  0.00     0.020 C 
HETATM   35  C22 UNL     1      13.465  54.192  88.311  1.00  0.00     0.013 C 
BRANCH  34  36
HETATM   36  C23 UNL     1      13.530  56.090  89.840  1.00  0.00     0.003 C 
HETATM   37  C24 UNL     1      14.938  55.577  89.819  1.00  0.00     0.005 C 
ENDBRANCH  34  36
ENDBRANCH  20  34
BRANCH   1  38
HETATM   38  C3  UNL     1      13.138  47.556  92.630  1.00  0.00     0.013 C 
HETATM   39  C4  UNL     1      11.998  47.017  93.436  1.00  0.00     0.012 C 
BRANCH  38  40
HETATM   40  C2  UNL     1      13.744  46.572  91.707  1.00  0.00     0.002 C 
HETATM   41  C1  UNL     1      15.040  47.225  91.181  1.00  0.00     0.005 C 
ENDBRANCH  38  40
ENDBRANCH   1  38
BRANCH  15  42
HETATM   42  C14 UNL     1      10.492  53.092  86.457  1.00  0.00     0.039 C 
BRANCH  42  43
HETATM   43  C15 UNL     1      11.370  52.565  85.393  1.00  0.00    -0.020 C 
HETATM   44  C16 UNL     1      10.512  52.562  84.101  1.00  0.00     0.009 C 
HETATM   45  C17 UNL     1      12.542  53.477  85.071  1.00  0.00     0.009 C 
ENDBRANCH  42  43
ENDBRANCH  15  42
TORSDOF 10
ENDMDL
MODEL 3
REMARK VINA RESULT: -5.114340392      6.188     10.264
REMARK  10 active torsions:
REMARK  status: ('A' for Active; 'I' for Inactive)
REMARK    1  A    between atoms: C2_2  and  C3_3 
REMARK    2  A    between atoms: C3_3  and  C5_5 
REMARK    3  A    between atoms: C13_19  and  C14_20 
REMARK    4  A    between atoms: C14_20  and  C15_21 
REMARK    5  A    between atoms: C20_28  and  C21_29 
REMARK    6  A    between atoms: C21_29  and  C23_31 
REMARK    7  A    between atoms: C26_36  and  C27_37 
REMARK    8  A    between atoms: C27_37  and  C28_38 
REMARK    9  A    between atoms: C28_38  and  C29_39 
REMARK   10  A    between atoms: C29_39  and  C30_40 
ROOT
HETATM    1  C5  UNL     1      11.740  48.445  86.938  1.00  0.00     0.180 C 
HETATM    2  N1  UNL     1      12.915  48.802  87.688  1.00  0.00    -0.345 N 
ATOM      3  H1  UNL     1      13.599  49.327  87.141  1.00  0.00     0.163 HD
HETATM    4  C6  UNL     1      13.308  48.585  88.985  1.00  0.00     0.246 C 
HETATM    5  O1  UNL     1      14.414  47.920  89.125  1.00  0.00    -0.271 OA
HETATM    6  C7  UNL     1      12.728  48.960  90.292  1.00  0.00     0.114 C 
HETATM    7  C8  UNL     1      12.990  47.778  91.264  1.00  0.00     0.041 C 
HETATM    8  C9  UNL     1      11.835  46.841  91.056  1.00  0.00     0.003 C 
HETATM    9  C10 UNL     1      10.714  47.670  90.525  1.00  0.00     0.003 C 
HETATM   10  C11 UNL     1      11.263  49.060  90.362  1.00  0.00     0.041 C 
HETATM   11  N2  UNL     1      13.434  50.125  90.818  1.00  0.00    -0.341 N 
ATOM     12  H2  UNL     1      14.398  50.202  90.492  1.00  0.00     0.163 HD
HETATM   13  C12 UNL     1      13.055  51.137  91.662  1.00  0.00     0.241 C 
HETATM   14  O2  UNL     1      13.701  51.205  92.788  1.00  0.00    -0.271 OA
HETATM   15  C13 UNL     1      12.032  52.198  91.540  1.00  0.00     0.179 C 
HETATM   16  N3  UNL     1      12.587  53.356  90.799  1.00  0.00    -0.341 N 
HETATM   17  C18 UNL     1      13.632  54.147  91.472  1.00  0.00     0.153 C 
HETATM   18  C19 UNL     1      12.173  53.732  89.502  1.00  0.00     0.250 C 
HETATM   19  O3  UNL     1      13.154  54.165  88.787  1.00  0.00    -0.270 OA
HETATM   20  C20 UNL     1      10.836  53.687  88.919  1.00  0.00     0.227 C 
HETATM   21  O4  UNL     1      10.422  52.458  88.445  1.00  0.00    -0.304 OA
HETATM   22  C25 UNL     1      10.636  51.845  87.255  1.00  0.00     0.282 C 
HETATM   23  O5  UNL     1       9.651  51.174  86.778  1.00  0.00    -0.263 OA
HETATM   24  C26 UNL     1      11.846  51.837  86.423  1.00  0.00     0.184 C 
HETATM   25  N4  UNL     1      11.988  50.658  85.591  1.00  0.00    -0.345 N 
ATOM     26  H4  UNL     1      12.537  50.791  84.742  1.00  0.00     0.163 HD
HETATM   27  C31 UNL     1      11.491  49.379  85.777  1.00  0.00     0.241 C 
HETATM   28  O6  UNL     1      10.721  48.892  84.870  1.00  0.00    -0.271 OA
ENDROOT
BRANCH  24  29
HETATM   29  C27 UNL     1      11.929  53.060  85.523  1.00  0.00     0.035 C 
BRANCH  29  30
HETATM   30  C28 UNL     1      12.708  52.820  84.283  1.00  0.00     0.003 C 
BRANCH  30  31
HETATM   31  C29 UNL     1      13.945  53.668  84.298  1.00  0.00     0.011 C 
BRANCH  31  32
HETATM   32  C30 UNL     1      14.938  53.321  83.241  1.00  0.00     0.086 C 
HETATM   33  S1  UNL     1      14.461  51.779  82.377  1.00  0.00    -0.098 SA
ENDBRANCH  31  32
ENDBRANCH  30  31
ENDBRANCH  29  30
ENDBRANCH  24  29
BRANCH  20  34
HETATM   34  C21 UNL     1       9.741  54.263  89.810  1.00  0.00     0.020 C 
HETATM   35  C22 UNL     1       8.720  53.198  90.071  1.00  0.00     0.013 C 
BRANCH  34  36
HETATM   36  C23 UNL     1       9.039  55.397  89.068  1.00  0.00     0.003 C 
HETATM   37  C24 UNL     1       7.559  55.164  89.080  1.00  0.00     0.005 C 
ENDBRANCH  34  36
ENDBRANCH  20  34
BRANCH   1  38
HETATM   38  C3  UNL     1      11.936  47.083  86.257  1.00  0.00     0.013 C 
HETATM   39  C4  UNL     1      13.332  46.885  85.756  1.00  0.00     0.012 C 
BRANCH  38  40
HETATM   40  C2  UNL     1      11.389  45.926  86.998  1.00  0.00     0.002 C 
HETATM   41  C1  UNL     1      12.608  45.187  87.589  1.00  0.00     0.005 C 
ENDBRANCH  38  40
ENDBRANCH   1  38
BRANCH  15  42
HETATM   42  C14 UNL     1      11.679  52.702  92.899  1.00  0.00     0.039 C 
BRANCH  42  43
HETATM   43  C15 UNL     1      10.261  52.974  93.211  1.00  0.00    -0.020 C 
HETATM   44  C16 UNL     1       9.967  52.212  94.530  1.00  0.00     0.009 C 
HETATM   45  C17 UNL     1       9.984  54.430  93.541  1.00  0.00     0.009 C 
ENDBRANCH  42  43
ENDBRANCH  15  42
TORSDOF 10
ENDMDL
MODEL 4
REMARK VINA RESULT: -5.078417404      1.939      2.902
REMARK  10 active torsions:
REMARK  status: ('A' for Active; 'I' for Inactive)
REMARK    1  A    between atoms: C2_2  and  C3_3 
REMARK    2  A    between atoms: C3_3  and  C5_5 
REMARK    3  A    between atoms: C13_19  and  C14_20 
REMARK    4  A    between atoms: C14_20  and  C15_21 
REMARK    5  A    between atoms: C20_28  and  C21_29 
REMARK    6  A    between atoms: C21_29  and  C23_31 
REMARK    7  A    between atoms: C26_36  and  C27_37 
REMARK    8  A    between atoms: C27_37  and  C28_38 
REMARK    9  A    between atoms: C28_38  and  C29_39 
REMARK   10  A    between atoms: C29_39  and  C30_40 
ROOT
HETATM    1  C5  UNL     1       9.840  51.183  85.494  1.00  0.00     0.180 C 
HETATM    2  N1  UNL     1       9.376  52.171  84.555  1.00  0.00    -0.345 N 
ATOM      3  H1  UNL     1      10.057  52.908  84.374  1.00  0.00     0.163 HD
HETATM    4  C6  UNL     1       8.207  52.328  83.853  1.00  0.00     0.246 C 
HETATM    5  O1  UNL     1       7.563  53.430  84.088  1.00  0.00    -0.271 OA
HETATM    6  C7  UNL     1       7.508  51.489  82.855  1.00  0.00     0.114 C 
HETATM    7  C8  UNL     1       5.985  51.643  83.116  1.00  0.00     0.041 C 
HETATM    8  C9  UNL     1       5.664  50.613  84.160  1.00  0.00     0.003 C 
HETATM    9  C10 UNL     1       6.714  49.558  84.044  1.00  0.00     0.003 C 
HETATM   10  C11 UNL     1       7.669  50.034  82.985  1.00  0.00     0.041 C 
HETATM   11  N2  UNL     1       7.779  52.005  81.516  1.00  0.00    -0.341 N 
ATOM     12  H2  UNL     1       7.977  53.005  81.494  1.00  0.00     0.163 HD
HETATM   13  C12 UNL     1       7.819  51.408  80.282  1.00  0.00     0.241 C 
HETATM   14  O2  UNL     1       6.937  51.825  79.424  1.00  0.00    -0.271 OA
HETATM   15  C13 UNL     1       8.694  50.357  79.718  1.00  0.00     0.179 C 
HETATM   16  N3  UNL     1       9.942  50.962  79.194  1.00  0.00    -0.341 N 
HETATM   17  C18 UNL     1       9.826  51.808  77.993  1.00  0.00     0.153 C 
HETATM   18  C19 UNL     1      11.214  50.774  79.779  1.00  0.00     0.250 C 
HETATM   19  O3  UNL     1      11.936  51.841  79.722  1.00  0.00    -0.270 OA
HETATM   20  C20 UNL     1      11.766  49.577  80.402  1.00  0.00     0.227 C 
HETATM   21  O4  UNL     1      11.387  49.341  81.708  1.00  0.00    -0.304 OA
HETATM   22  C25 UNL     1      11.881  49.815  82.878  1.00  0.00     0.282 C 
HETATM   23  O5  UNL     1      11.917  48.984  83.856  1.00  0.00    -0.263 OA
HETATM   24  C26 UNL     1      12.387  51.157  83.193  1.00  0.00     0.184 C 
HETATM   25  N4  UNL     1      12.255  51.531  84.587  1.00  0.00    -0.345 N 
ATOM     26  H4  UNL     1      12.931  52.219  84.917  1.00  0.00     0.163 HD
HETATM   27  C31 UNL     1      11.348  51.094  85.538  1.00  0.00     0.241 C 
HETATM   28  O6  UNL     1      11.808  50.542  86.604  1.00  0.00    -0.271 OA
ENDROOT
BRANCH  24  29
HETATM   29  C27 UNL     1      13.845  51.326  82.797  1.00  0.00     0.035 C 
BRANCH  29  30
HETATM   30  C28 UNL     1      14.373  52.684  83.079  1.00  0.00     0.003 C 
BRANCH  30  31
HETATM   31  C29 UNL     1      15.715  52.843  82.428  1.00  0.00     0.011 C 
BRANCH  31  32
HETATM   32  C30 UNL     1      16.057  51.761  81.460  1.00  0.00     0.086 C 
HETATM   33  S1  UNL     1      15.719  52.291  79.740  1.00  0.00    -0.098 SA
ENDBRANCH  31  32
ENDBRANCH  30  31
ENDBRANCH  29  30
ENDBRANCH  24  29
BRANCH  20  34
HETATM   34  C21 UNL     1      11.566  48.298  79.595  1.00  0.00     0.020 C 
HETATM   35  C22 UNL     1      11.621  47.126  80.527  1.00  0.00     0.013 C 
BRANCH  34  36
HETATM   36  C23 UNL     1      12.716  48.148  78.604  1.00  0.00     0.003 C 
HETATM   37  C24 UNL     1      12.254  47.367  77.412  1.00  0.00     0.005 C 
ENDBRANCH  34  36
ENDBRANCH  20  34
BRANCH   1  38
HETATM   38  C3  UNL     1       9.471  51.594  86.926  1.00  0.00     0.013 C 
HETATM   39  C4  UNL     1       9.504  53.077  87.127  1.00  0.00     0.012 C 
BRANCH  38  40
HETATM   40  C2  UNL     1       8.266  50.937  87.477  1.00  0.00     0.002 C 
HETATM   41  C1  UNL     1       7.133  51.980  87.383  1.00  0.00     0.005 C 
ENDBRANCH  38  40
ENDBRANCH   1  38
BRANCH  15  42
HETATM   42  C14 UNL     1       8.015  49.723  78.552  1.00  0.00     0.039 C 
BRANCH  42  43
HETATM   43  C15 UNL     1       7.624  48.302  78.642  1.00  0.00    -0.020 C 
HETATM   44  C16 UNL     1       8.537  47.549  77.638  1.00  0.00     0.009 C 
HETATM   45  C17 UNL     1       7.938  47.674  79.988  1.00  0.00     0.009 C 
ENDBRANCH  42  43
ENDBRANCH  15  42
TORSDOF 10
ENDMDL
MODEL 5
REMARK VINA RESULT: -5.018667489      4.875      7.612
REMARK  10 active torsions:
REMARK  status: ('A' for Active; 'I' for Inactive)
REMARK    1  A    between atoms: C2_2  and  C3_3 
REMARK    2  A    between atoms: C3_3  and  C5_5 
REMARK    3  A    between atoms: C13_19  and  C14_20 
REMARK    4  A    between atoms: C14_20  and  C15_21 
REMARK    5  A    between atoms: C20_28  and  C21_29 
REMARK    6  A    between atoms: C21_29  and  C23_31 
REMARK    7  A    between atoms: C26_36  and  C27_37 
REMARK    8  A    between atoms: C27_37  and  C28_38 
REMARK    9  A    between atoms: C28_38  and  C29_39 
REMARK   10  A    between atoms: C29_39  and  C30_40 
ROOT
HETATM    1  C5  UNL     1      11.886  51.508  91.108  1.00  0.00     0.180 C 
HETATM    2  N1  UNL     1      12.288  52.366  90.025  1.00  0.00    -0.345 N 
ATOM      3  H1  UNL     1      13.239  52.188  89.701  1.00  0.00     0.163 HD
HETATM    4  C6  UNL     1      11.659  53.374  89.337  1.00  0.00     0.246 C 
HETATM    5  O1  UNL     1      12.242  54.532  89.393  1.00  0.00    -0.271 OA
HETATM    6  C7  UNL     1      10.428  53.422  88.519  1.00  0.00     0.114 C 
HETATM    7  C8  UNL     1       9.755  54.794  88.789  1.00  0.00     0.041 C 
HETATM    8  C9  UNL     1       8.900  54.576  90.004  1.00  0.00     0.003 C 
HETATM    9  C10 UNL     1       8.599  53.115  90.045  1.00  0.00     0.003 C 
HETATM   10  C11 UNL     1       9.347  52.500  88.896  1.00  0.00     0.041 C 
HETATM   11  N2  UNL     1      10.786  53.379  87.104  1.00  0.00    -0.341 N 
ATOM     12  H2  UNL     1      11.711  53.760  86.903  1.00  0.00     0.163 HD
HETATM   13  C12 UNL     1      10.123  52.926  85.992  1.00  0.00     0.241 C 
HETATM   14  O2  UNL     1       9.841  53.826  85.097  1.00  0.00    -0.271 OA
HETATM   15  C13 UNL     1       9.656  51.579  85.597  1.00  0.00     0.179 C 
HETATM   16  N3  UNL     1      10.758  50.832  84.943  1.00  0.00    -0.341 N 
HETATM   17  C18 UNL     1      11.195  51.302  83.616  1.00  0.00     0.153 C 
HETATM   18  C19 UNL     1      11.400  49.712  85.518  1.00  0.00     0.250 C 
HETATM   19  O3  UNL     1      12.662  49.691  85.257  1.00  0.00    -0.270 OA
HETATM   20  C20 UNL     1      10.824  48.642  86.325  1.00  0.00     0.227 C 
HETATM   21  O4  UNL     1      10.630  48.928  87.662  1.00  0.00    -0.304 OA
HETATM   22  C25 UNL     1      11.477  48.863  88.718  1.00  0.00     0.282 C 
HETATM   23  O5  UNL     1      10.973  48.450  89.825  1.00  0.00    -0.263 OA
HETATM   24  C26 UNL     1      12.905  49.200  88.782  1.00  0.00     0.184 C 
HETATM   25  N4  UNL     1      13.360  49.619  90.092  1.00  0.00    -0.345 N 
ATOM     26  H4  UNL     1      14.349  49.457  90.280  1.00  0.00     0.163 HD
HETATM   27  C31 UNL     1      12.653  50.207  91.128  1.00  0.00     0.241 C 
HETATM   28  O6  UNL     1      12.625  49.600  92.261  1.00  0.00    -0.271 OA
ENDROOT
BRANCH  24  29
HETATM   29  C27 UNL     1      13.786  48.048  88.325  1.00  0.00     0.035 C 
BRANCH  29  30
HETATM   30  C28 UNL     1      15.113  48.028  88.989  1.00  0.00     0.003 C 
BRANCH  30  31
HETATM   31  C29 UNL     1      16.183  47.825  87.958  1.00  0.00     0.011 C 
BRANCH  31  32
HETATM   32  C30 UNL     1      15.670  47.451  86.609  1.00  0.00     0.086 C 
HETATM   33  S1  UNL     1      16.413  45.876  86.041  1.00  0.00    -0.098 SA
ENDBRANCH  31  32
ENDBRANCH  30  31
ENDBRANCH  29  30
ENDBRANCH  24  29
BRANCH  20  34
HETATM   34  C21 UNL     1       9.539  48.048  85.759  1.00  0.00     0.020 C 
HETATM   35  C22 UNL     1       9.156  46.855  86.580  1.00  0.00     0.013 C 
BRANCH  34  36
HETATM   36  C23 UNL     1       9.799  47.560  84.337  1.00  0.00     0.003 C 
HETATM   37  C24 UNL     1       8.761  48.122  83.415  1.00  0.00     0.005 C 
ENDBRANCH  34  36
ENDBRANCH  20  34
BRANCH   1  38
HETATM   38  C3  UNL     1      12.246  52.148  92.456  1.00  0.00     0.013 C 
HETATM   39  C4  UNL     1      13.552  52.878  92.417  1.00  0.00     0.012 C 
BRANCH  38  40
HETATM   40  C2  UNL     1      11.152  52.901  93.107  1.00  0.00     0.002 C 
HETATM   41  C1  UNL     1      11.513  54.394  92.951  1.00  0.00     0.005 C 
ENDBRANCH  38  40
ENDBRANCH   1  38
BRANCH  15  42
HETATM   42  C14 UNL     1       8.577  51.710  84.576  1.00  0.00     0.039 C 
BRANCH  42  43
HETATM   43  C15 UNL     1       7.175  51.514  84.995  1.00  0.00    -0.020 C 
HETATM   44  C16 UNL     1       7.238  50.709  86.320  1.00  0.00     0.009 C 
HETATM   45  C17 UNL     1       6.470  52.806  85.367  1.00  0.00     0.009 C 
ENDBRANCH  42  43
ENDBRANCH  15  42
TORSDOF 10
ENDMDL
