MODEL 1
REMARK VINA RESULT: -8.070582792      0.000      0.000
REMARK  11 active torsions:
REMARK  status: ('A' for Active; 'I' for Inactive)
REMARK    1  A    between atoms: C2_2  and  N1_4 
REMARK    2  A    between atoms: C8_11  and  N3_12 
REMARK    3  A    between atoms: N3_12  and  C9_14 
REMARK    4  A    between atoms: C9_14  and  C10_15 
REMARK    5  A    between atoms: C13_18  and  C14_19 
REMARK       I    between atoms: C14_19  and  N4_21 
REMARK    6  A    between atoms: N4_21  and  C15_23 
REMARK    7  A    between atoms: C15_23  and  C16_24 
REMARK    8  A    between atoms: C16_24  and  N5_25 
REMARK    9  A    between atoms: C23_35  and  N7_36 
REMARK   10  A    between atoms: N7_36  and  C24_38 
REMARK   11  A    between atoms: C26_40  and  C27_41 
ROOT
HETATM    1  N1  UNL     1      10.213  49.346  85.500  1.00  0.00    -0.396 N 
HETATM    2  C4  UNL     1      11.022  48.379  86.046  1.00  0.00     0.083 C 
HETATM    3  C5  UNL     1      11.379  48.381  87.483  1.00  0.00     0.031 C 
HETATM    4  C6  UNL     1      11.278  49.583  88.289  1.00  0.00     0.060 C 
HETATM    5  C7  UNL     1      11.426  50.876  87.557  1.00  0.00     0.038 A 
HETATM    6  N2  UNL     1      11.539  51.896  88.448  1.00  0.00    -0.195 N 
ATOM      7  H2  UNL     1      11.530  51.690  89.447  1.00  0.00     0.184 HD
HETATM    8  C8  UNL     1      11.664  53.184  88.037  1.00  0.00     0.683 A 
HETATM    9  N6  UNL     1      11.676  53.431  86.716  1.00  0.00    -0.176 N 
ATOM     10  H6  UNL     1      11.769  54.398  86.406  1.00  0.00     0.186 HD
HETATM   11  C23 UNL     1      11.570  52.461  85.775  1.00  0.00     0.133 A 
HETATM   12  C30 UNL     1      11.441  51.166  86.216  1.00  0.00     0.032 A 
HETATM   13  C31 UNL     1      11.253  50.196  85.078  1.00  0.00     0.121 C 
HETATM   14  C32 UNL     1      12.215  49.051  85.321  1.00  0.00     0.055 C 
ENDROOT
BRANCH   8  15
HETATM   15  N3  UNL     1      11.755  54.109  88.917  1.00  0.00    -0.205 N 
ATOM     16  H3  UNL     1      11.795  55.047  88.519  1.00  0.00     0.183 HD
BRANCH  15  17
HETATM   17  C9  UNL     1      11.811  54.091  90.309  1.00  0.00     0.083 C 
BRANCH  17  18
HETATM   18  C10 UNL     1      13.097  53.614  90.884  1.00  0.00     0.025 C 
HETATM   19  C11 UNL     1      12.916  52.623  91.957  1.00  0.00     0.011 C 
HETATM   20  C12 UNL     1      12.709  53.045  93.351  1.00  0.00     0.015 C 
HETATM   21  C13 UNL     1      13.057  54.429  93.713  1.00  0.00     0.078 C 
HETATM   22  C21 UNL     1      13.246  55.380  92.608  1.00  0.00     0.015 C 
HETATM   23  C22 UNL     1      13.902  54.830  91.399  1.00  0.00     0.011 C 
BRANCH  21  24
HETATM   24  C14 UNL     1      12.019  54.973  94.680  1.00  0.00     0.222 C 
HETATM   25  O1  UNL     1      11.286  54.170  95.301  1.00  0.00    -0.273 OA
HETATM   26  N4  UNL     1      11.912  56.356  94.849  1.00  0.00    -0.356 N 
ATOM     27  H4  UNL     1      12.521  56.980  94.320  1.00  0.00     0.162 HD
BRANCH  26  28
HETATM   28  C15 UNL     1      10.934  56.912  95.777  1.00  0.00     0.167 C 
BRANCH  28  29
HETATM   29  C16 UNL     1       9.849  57.707  95.106  1.00  0.00     0.082 C 
BRANCH  29  30
HETATM   30  N5  UNL     1       8.637  57.661  95.824  1.00  0.00    -0.368 N 
HETATM   31  C17 UNL     1       7.465  57.911  95.061  1.00  0.00     0.153 C 
HETATM   32  C18 UNL     1       6.857  56.557  94.699  1.00  0.00     0.188 C 
HETATM   33  O2  UNL     1       6.532  55.875  95.855  1.00  0.00    -0.385 OA
HETATM   34  C19 UNL     1       7.686  55.544  96.551  1.00  0.00     0.212 C 
HETATM   35  C20 UNL     1       8.459  56.810  96.921  1.00  0.00     0.089 C 
ENDBRANCH  29  30
ENDBRANCH  28  29
ENDBRANCH  26  28
ENDBRANCH  21  24
ENDBRANCH  17  18
ENDBRANCH  15  17
ENDBRANCH   8  15
BRANCH  11  36
HETATM   36  N7  UNL     1      11.648  52.808  84.372  1.00  0.00    -0.327 N 
ATOM     37  H7  UNL     1      10.823  53.014  83.809  1.00  0.00     0.169 HD
BRANCH  36  38
HETATM   38  C24 UNL     1      12.875  52.834  83.882  1.00  0.00     0.123 A 
HETATM   39  C25 UNL     1      13.394  52.034  82.893  1.00  0.00     0.076 A 
HETATM   40  C26 UNL     1      14.708  52.401  82.633  1.00  0.00     0.033 A 
HETATM   41  N8  UNL     1      14.949  53.415  83.478  1.00  0.00    -0.303 N 
HETATM   42  N9  UNL     1      13.861  53.672  84.220  1.00  0.00    -0.285 N 
ATOM     43  H8  UNL     1      15.833  53.919  83.548  1.00  0.00     0.186 HD
ATOM     44  H9  UNL     1      13.795  54.398  84.935  1.00  0.00     0.188 HD
BRANCH  40  45
HETATM   45  C27 UNL     1      15.565  51.794  81.586  1.00  0.00     0.037 A 
HETATM   46  C28 UNL     1      14.985  51.088  80.454  1.00  0.00     0.011 A 
HETATM   47  C29 UNL     1      15.585  52.434  80.180  1.00  0.00     0.011 A 
ENDBRANCH  40  45
ENDBRANCH  36  38
ENDBRANCH  11  36
BRANCH   1  48
HETATM   48  C2  UNL     1       8.901  49.373  85.173  1.00  0.00     0.072 C 
HETATM   49  C1  UNL     1       8.009  49.467  86.424  1.00  0.00     0.031 C 
HETATM   50  C3  UNL     1       8.440  50.340  84.116  1.00  0.00     0.031 C 
ENDBRANCH   1  48
TORSDOF 11
ENDMDL
MODEL 2
REMARK VINA RESULT: -8.068997716      3.337      5.307
REMARK  11 active torsions:
REMARK  status: ('A' for Active; 'I' for Inactive)
REMARK    1  A    between atoms: C2_2  and  N1_4 
REMARK    2  A    between atoms: C8_11  and  N3_12 
REMARK    3  A    between atoms: N3_12  and  C9_14 
REMARK    4  A    between atoms: C9_14  and  C10_15 
REMARK    5  A    between atoms: C13_18  and  C14_19 
REMARK       I    between atoms: C14_19  and  N4_21 
REMARK    6  A    between atoms: N4_21  and  C15_23 
REMARK    7  A    between atoms: C15_23  and  C16_24 
REMARK    8  A    between atoms: C16_24  and  N5_25 
REMARK    9  A    between atoms: C23_35  and  N7_36 
REMARK   10  A    between atoms: N7_36  and  C24_38 
REMARK   11  A    between atoms: C26_40  and  C27_41 
ROOT
HETATM    1  N1  UNL     1      10.177  49.515  85.523  1.00  0.00    -0.396 N 
HETATM    2  C4  UNL     1      10.935  48.507  86.068  1.00  0.00     0.083 C 
HETATM    3  C5  UNL     1      11.343  48.519  87.491  1.00  0.00     0.031 C 
HETATM    4  C6  UNL     1      11.356  49.745  88.267  1.00  0.00     0.060 C 
HETATM    5  C7  UNL     1      11.568  51.006  87.494  1.00  0.00     0.038 A 
HETATM    6  N2  UNL     1      11.785  52.037  88.353  1.00  0.00    -0.195 N 
ATOM      7  H2  UNL     1      11.797  51.857  89.357  1.00  0.00     0.184 HD
HETATM    8  C8  UNL     1      11.985  53.302  87.903  1.00  0.00     0.683 A 
HETATM    9  N6  UNL     1      11.967  53.514  86.576  1.00  0.00    -0.176 N 
ATOM     10  H6  UNL     1      12.116  54.464  86.237  1.00  0.00     0.186 HD
HETATM   11  C23 UNL     1      11.760  52.531  85.666  1.00  0.00     0.133 A 
HETATM   12  C30 UNL     1      11.555  51.260  86.146  1.00  0.00     0.032 A 
HETATM   13  C31 UNL     1      11.259  50.277  85.042  1.00  0.00     0.121 C 
HETATM   14  C32 UNL     1      12.145  49.073  85.284  1.00  0.00     0.055 C 
ENDROOT
BRANCH   8  15
HETATM   15  N3  UNL     1      12.173  54.240  88.753  1.00  0.00    -0.205 N 
ATOM     16  H3  UNL     1      11.648  55.089  88.546  1.00  0.00     0.183 HD
BRANCH  15  17
HETATM   17  C9  UNL     1      12.951  54.332  89.906  1.00  0.00     0.083 C 
BRANCH  17  18
HETATM   18  C10 UNL     1      12.203  54.650  91.150  1.00  0.00     0.025 C 
HETATM   19  C11 UNL     1      13.080  54.860  92.313  1.00  0.00     0.011 C 
HETATM   20  C12 UNL     1      13.527  53.728  93.139  1.00  0.00     0.015 C 
HETATM   21  C13 UNL     1      12.795  52.456  93.021  1.00  0.00     0.078 C 
HETATM   22  C21 UNL     1      11.917  52.298  91.853  1.00  0.00     0.015 C 
HETATM   23  C22 UNL     1      11.188  53.517  91.434  1.00  0.00     0.011 C 
BRANCH  21  24
HETATM   24  C14 UNL     1      13.781  51.302  93.075  1.00  0.00     0.222 C 
HETATM   25  O1  UNL     1      14.392  50.971  92.033  1.00  0.00    -0.273 OA
HETATM   26  N4  UNL     1      13.981  50.639  94.290  1.00  0.00    -0.356 N 
ATOM     27  H4  UNL     1      13.460  50.931  95.118  1.00  0.00     0.162 HD
BRANCH  26  28
HETATM   28  C15 UNL     1      14.927  49.534  94.382  1.00  0.00     0.167 C 
BRANCH  28  29
HETATM   29  C16 UNL     1      15.478  49.323  95.764  1.00  0.00     0.082 C 
BRANCH  29  30
HETATM   30  N5  UNL     1      16.837  49.687  95.854  1.00  0.00    -0.368 N 
HETATM   31  C17 UNL     1      17.084  51.028  96.253  1.00  0.00     0.153 C 
HETATM   32  C18 UNL     1      17.388  51.012  97.750  1.00  0.00     0.188 C 
HETATM   33  O2  UNL     1      18.505  50.234  97.985  1.00  0.00    -0.385 OA
HETATM   34  C19 UNL     1      18.229  48.906  97.689  1.00  0.00     0.212 C 
HETATM   35  C20 UNL     1      17.826  48.768  96.220  1.00  0.00     0.089 C 
ENDBRANCH  29  30
ENDBRANCH  28  29
ENDBRANCH  26  28
ENDBRANCH  21  24
ENDBRANCH  17  18
ENDBRANCH  15  17
ENDBRANCH   8  15
BRANCH  11  36
HETATM   36  N7  UNL     1      11.811  52.836  84.253  1.00  0.00    -0.327 N 
ATOM     37  H7  UNL     1      10.981  53.071  83.708  1.00  0.00     0.169 HD
BRANCH  36  38
HETATM   38  C24 UNL     1      13.022  52.785  83.725  1.00  0.00     0.123 A 
HETATM   39  C25 UNL     1      13.461  51.947  82.728  1.00  0.00     0.076 A 
HETATM   40  C26 UNL     1      14.787  52.232  82.425  1.00  0.00     0.033 A 
HETATM   41  N8  UNL     1      15.113  53.237  83.254  1.00  0.00    -0.303 N 
HETATM   42  N9  UNL     1      14.066  53.565  84.026  1.00  0.00    -0.285 N 
ATOM     43  H8  UNL     1      16.028  53.687  83.291  1.00  0.00     0.186 HD
ATOM     44  H9  UNL     1      14.066  54.298  84.735  1.00  0.00     0.188 HD
BRANCH  40  45
HETATM   45  C27 UNL     1      15.573  51.568  81.359  1.00  0.00     0.037 A 
HETATM   46  C28 UNL     1      14.947  51.142  80.116  1.00  0.00     0.011 A 
HETATM   47  C29 UNL     1      15.847  52.339  80.049  1.00  0.00     0.011 A 
ENDBRANCH  40  45
ENDBRANCH  36  38
ENDBRANCH  11  36
BRANCH   1  48
HETATM   48  C2  UNL     1       8.859  49.627  85.240  1.00  0.00     0.072 C 
HETATM   49  C1  UNL     1       8.039  49.967  86.497  1.00  0.00     0.031 C 
HETATM   50  C3  UNL     1       8.441  50.491  84.082  1.00  0.00     0.031 C 
ENDBRANCH   1  48
TORSDOF 11
ENDMDL
MODEL 3
REMARK VINA RESULT: -8.028582114      0.918      1.177
REMARK  11 active torsions:
REMARK  status: ('A' for Active; 'I' for Inactive)
REMARK    1  A    between atoms: C2_2  and  N1_4 
REMARK    2  A    between atoms: C8_11  and  N3_12 
REMARK    3  A    between atoms: N3_12  and  C9_14 
REMARK    4  A    between atoms: C9_14  and  C10_15 
REMARK    5  A    between atoms: C13_18  and  C14_19 
REMARK       I    between atoms: C14_19  and  N4_21 
REMARK    6  A    between atoms: N4_21  and  C15_23 
REMARK    7  A    between atoms: C15_23  and  C16_24 
REMARK    8  A    between atoms: C16_24  and  N5_25 
REMARK    9  A    between atoms: C23_35  and  N7_36 
REMARK   10  A    between atoms: N7_36  and  C24_38 
REMARK   11  A    between atoms: C26_40  and  C27_41 
ROOT
HETATM    1  N1  UNL     1       9.929  49.785  85.568  1.00  0.00    -0.396 N 
HETATM    2  C4  UNL     1      10.627  48.683  85.997  1.00  0.00     0.083 C 
HETATM    3  C5  UNL     1      11.055  48.529  87.406  1.00  0.00     0.031 C 
HETATM    4  C6  UNL     1      11.158  49.669  88.296  1.00  0.00     0.060 C 
HETATM    5  C7  UNL     1      11.441  50.984  87.646  1.00  0.00     0.038 A 
HETATM    6  N2  UNL     1      11.735  51.910  88.596  1.00  0.00    -0.195 N 
ATOM      7  H2  UNL     1      11.750  51.632  89.577  1.00  0.00     0.184 HD
HETATM    8  C8  UNL     1      12.010  53.198  88.267  1.00  0.00     0.683 A 
HETATM    9  N6  UNL     1      11.987  53.541  86.968  1.00  0.00    -0.176 N 
ATOM     10  H6  UNL     1      12.193  54.508  86.720  1.00  0.00     0.186 HD
HETATM   11  C23 UNL     1      11.704  52.667  85.970  1.00  0.00     0.133 A 
HETATM   12  C30 UNL     1      11.425  51.371  86.329  1.00  0.00     0.032 A 
HETATM   13  C31 UNL     1      11.050  50.521  85.142  1.00  0.00     0.121 C 
HETATM   14  C32 UNL     1      11.861  49.246  85.247  1.00  0.00     0.055 C 
ENDROOT
BRANCH   8  15
HETATM   15  N3  UNL     1      12.270  54.035  89.200  1.00  0.00    -0.205 N 
ATOM     16  H3  UNL     1      12.631  54.926  88.861  1.00  0.00     0.183 HD
BRANCH  15  17
HETATM   17  C9  UNL     1      12.159  53.971  90.588  1.00  0.00     0.083 C 
BRANCH  17  18
HETATM   18  C10 UNL     1      13.449  53.900  91.324  1.00  0.00     0.025 C 
HETATM   19  C11 UNL     1      13.582  52.682  92.138  1.00  0.00     0.011 C 
HETATM   20  C12 UNL     1      13.055  52.626  93.511  1.00  0.00     0.015 C 
HETATM   21  C13 UNL     1      12.739  53.898  94.181  1.00  0.00     0.078 C 
HETATM   22  C21 UNL     1      12.634  55.092  93.331  1.00  0.00     0.015 C 
HETATM   23  C22 UNL     1      13.597  55.162  92.207  1.00  0.00     0.011 C 
BRANCH  21  24
HETATM   24  C14 UNL     1      11.465  53.736  94.991  1.00  0.00     0.222 C 
HETATM   25  O1  UNL     1      10.662  52.822  94.690  1.00  0.00    -0.273 OA
HETATM   26  N4  UNL     1      11.221  54.613  96.052  1.00  0.00    -0.356 N 
ATOM     27  H4  UNL     1      11.894  55.351  96.264  1.00  0.00     0.162 HD
BRANCH  26  28
HETATM   28  C15 UNL     1      10.013  54.481  96.857  1.00  0.00     0.167 C 
BRANCH  28  29
HETATM   29  C16 UNL     1       9.136  55.701  96.836  1.00  0.00     0.082 C 
BRANCH  29  30
HETATM   30  N5  UNL     1       8.960  56.204  95.532  1.00  0.00    -0.368 N 
HETATM   31  C17 UNL     1       8.113  55.434  94.690  1.00  0.00     0.153 C 
HETATM   32  C18 UNL     1       6.731  56.084  94.713  1.00  0.00     0.188 C 
HETATM   33  O2  UNL     1       6.823  57.377  94.236  1.00  0.00    -0.385 OA
HETATM   34  C19 UNL     1       7.569  58.154  95.113  1.00  0.00     0.212 C 
HETATM   35  C20 UNL     1       8.977  57.576  95.259  1.00  0.00     0.089 C 
ENDBRANCH  29  30
ENDBRANCH  28  29
ENDBRANCH  26  28
ENDBRANCH  21  24
ENDBRANCH  17  18
ENDBRANCH  15  17
ENDBRANCH   8  15
BRANCH  11  36
HETATM   36  N7  UNL     1      11.755  53.105  84.593  1.00  0.00    -0.327 N 
ATOM     37  H7  UNL     1      10.933  53.439  84.089  1.00  0.00     0.169 HD
BRANCH  36  38
HETATM   38  C24 UNL     1      12.955  53.038  84.041  1.00  0.00     0.123 A 
HETATM   39  C25 UNL     1      13.385  52.141  83.093  1.00  0.00     0.076 A 
HETATM   40  C26 UNL     1      14.698  52.426  82.739  1.00  0.00     0.033 A 
HETATM   41  N8  UNL     1      15.026  53.490  83.490  1.00  0.00    -0.303 N 
HETATM   42  N9  UNL     1      13.991  53.853  84.263  1.00  0.00    -0.285 N 
ATOM     43  H8  UNL     1      15.933  53.956  83.474  1.00  0.00     0.186 HD
ATOM     44  H9  UNL     1      13.994  54.633  84.920  1.00  0.00     0.188 HD
BRANCH  40  45
HETATM   45  C27 UNL     1      15.472  51.703  81.702  1.00  0.00     0.037 A 
HETATM   46  C28 UNL     1      14.807  51.068  80.574  1.00  0.00     0.011 A 
HETATM   47  C29 UNL     1      15.579  52.322  80.291  1.00  0.00     0.011 A 
ENDBRANCH  40  45
ENDBRANCH  36  38
ENDBRANCH  11  36
BRANCH   1  48
HETATM   48  C2  UNL     1       8.617  50.007  85.324  1.00  0.00     0.072 C 
HETATM   49  C1  UNL     1       7.831  50.234  86.628  1.00  0.00     0.031 C 
HETATM   50  C3  UNL     1       8.239  51.031  84.289  1.00  0.00     0.031 C 
ENDBRANCH   1  48
TORSDOF 11
ENDMDL
MODEL 4
REMARK VINA RESULT: -8.017413812      1.256      1.642
REMARK  11 active torsions:
REMARK  status: ('A' for Active; 'I' for Inactive)
REMARK    1  A    between atoms: C2_2  and  N1_4 
REMARK    2  A    between atoms: C8_11  and  N3_12 
REMARK    3  A    between atoms: N3_12  and  C9_14 
REMARK    4  A    between atoms: C9_14  and  C10_15 
REMARK    5  A    between atoms: C13_18  and  C14_19 
REMARK       I    between atoms: C14_19  and  N4_21 
REMARK    6  A    between atoms: N4_21  and  C15_23 
REMARK    7  A    between atoms: C15_23  and  C16_24 
REMARK    8  A    between atoms: C16_24  and  N5_25 
REMARK    9  A    between atoms: C23_35  and  N7_36 
REMARK   10  A    between atoms: N7_36  and  C24_38 
REMARK   11  A    between atoms: C26_40  and  C27_41 
ROOT
HETATM    1  N1  UNL     1       9.870  49.701  85.386  1.00  0.00    -0.396 N 
HETATM    2  C4  UNL     1      10.518  48.613  85.918  1.00  0.00     0.083 C 
HETATM    3  C5  UNL     1      10.935  48.569  87.338  1.00  0.00     0.031 C 
HETATM    4  C6  UNL     1      11.085  49.780  88.123  1.00  0.00     0.060 C 
HETATM    5  C7  UNL     1      11.428  51.017  87.358  1.00  0.00     0.038 A 
HETATM    6  N2  UNL     1      11.761  52.011  88.222  1.00  0.00    -0.195 N 
ATOM      7  H2  UNL     1      11.760  51.823  89.225  1.00  0.00     0.184 HD
HETATM    8  C8  UNL     1      12.093  53.251  87.780  1.00  0.00     0.683 A 
HETATM    9  N6  UNL     1      12.089  53.474  86.455  1.00  0.00    -0.176 N 
ATOM     10  H6  UNL     1      12.339  54.405  86.121  1.00  0.00     0.186 HD
HETATM   11  C23 UNL     1      11.771  52.527  85.539  1.00  0.00     0.133 A 
HETATM   12  C30 UNL     1      11.433  51.282  86.012  1.00  0.00     0.032 A 
HETATM   13  C31 UNL     1      11.025  50.346  84.903  1.00  0.00     0.121 C 
HETATM   14  C32 UNL     1      11.777  49.051  85.130  1.00  0.00     0.055 C 
ENDROOT
BRANCH   8  15
HETATM   15  N3  UNL     1      12.388  54.156  88.635  1.00  0.00    -0.205 N 
ATOM     16  H3  UNL     1      12.964  54.906  88.254  1.00  0.00     0.183 HD
BRANCH  15  17
HETATM   17  C9  UNL     1      12.077  54.322  89.984  1.00  0.00     0.083 C 
BRANCH  17  18
HETATM   18  C10 UNL     1      12.933  53.557  90.929  1.00  0.00     0.025 C 
HETATM   19  C11 UNL     1      12.158  52.803  91.926  1.00  0.00     0.011 C 
HETATM   20  C12 UNL     1      11.724  53.433  93.184  1.00  0.00     0.015 C 
HETATM   21  C13 UNL     1      12.385  54.684  93.593  1.00  0.00     0.078 C 
HETATM   22  C21 UNL     1      13.163  55.393  92.568  1.00  0.00     0.015 C 
HETATM   23  C22 UNL     1      13.913  54.531  91.625  1.00  0.00     0.011 C 
BRANCH  21  24
HETATM   24  C14 UNL     1      11.354  55.625  94.191  1.00  0.00     0.222 C 
HETATM   25  O1  UNL     1      11.736  56.703  94.702  1.00  0.00    -0.273 OA
HETATM   26  N4  UNL     1      10.005  55.261  94.155  1.00  0.00    -0.356 N 
ATOM     27  H4  UNL     1       9.731  54.371  93.737  1.00  0.00     0.162 HD
BRANCH  26  28
HETATM   28  C15 UNL     1       8.987  56.145  94.711  1.00  0.00     0.167 C 
BRANCH  28  29
HETATM   29  C16 UNL     1       8.079  55.472  95.703  1.00  0.00     0.082 C 
BRANCH  29  30
HETATM   30  N5  UNL     1       8.310  55.919  97.019  1.00  0.00    -0.368 N 
HETATM   31  C17 UNL     1       7.796  55.082  98.046  1.00  0.00     0.153 C 
HETATM   32  C18 UNL     1       8.950  54.215  98.549  1.00  0.00     0.188 C 
HETATM   33  O2  UNL     1       9.949  55.025  99.053  1.00  0.00    -0.385 OA
HETATM   34  C19 UNL     1      10.517  55.771  98.029  1.00  0.00     0.212 C 
HETATM   35  C20 UNL     1       9.454  56.646  97.364  1.00  0.00     0.089 C 
ENDBRANCH  29  30
ENDBRANCH  28  29
ENDBRANCH  26  28
ENDBRANCH  21  24
ENDBRANCH  17  18
ENDBRANCH  15  17
ENDBRANCH   8  15
BRANCH  11  36
HETATM   36  N7  UNL     1      11.845  52.836  84.128  1.00  0.00    -0.327 N 
ATOM     37  H7  UNL     1      11.025  53.076  83.571  1.00  0.00     0.169 HD
BRANCH  36  38
HETATM   38  C24 UNL     1      13.064  52.781  83.619  1.00  0.00     0.123 A 
HETATM   39  C25 UNL     1      13.506  51.968  82.602  1.00  0.00     0.076 A 
HETATM   40  C26 UNL     1      14.841  52.240  82.330  1.00  0.00     0.033 A 
HETATM   41  N8  UNL     1      15.170  53.211  83.196  1.00  0.00    -0.303 N 
HETATM   42  N9  UNL     1      14.116  53.532  83.961  1.00  0.00    -0.285 N 
ATOM     43  H8  UNL     1      16.092  53.644  83.263  1.00  0.00     0.186 HD
ATOM     44  H9  UNL     1      14.116  54.243  84.693  1.00  0.00     0.188 HD
BRANCH  40  45
HETATM   45  C27 UNL     1      15.634  51.596  81.256  1.00  0.00     0.037 A 
HETATM   46  C28 UNL     1      14.993  51.066  80.062  1.00  0.00     0.011 A 
HETATM   47  C29 UNL     1      15.786  52.329  79.905  1.00  0.00     0.011 A 
ENDBRANCH  40  45
ENDBRANCH  36  38
ENDBRANCH  11  36
BRANCH   1  48
HETATM   48  C2  UNL     1       8.570  49.958  85.115  1.00  0.00     0.072 C 
HETATM   49  C1  UNL     1       7.812  50.420  86.371  1.00  0.00     0.031 C 
HETATM   50  C3  UNL     1       8.239  50.836  83.939  1.00  0.00     0.031 C 
ENDBRANCH   1  48
TORSDOF 11
ENDMDL
MODEL 5
REMARK VINA RESULT: -7.928198631      3.282      5.139
REMARK  11 active torsions:
REMARK  status: ('A' for Active; 'I' for Inactive)
REMARK    1  A    between atoms: C2_2  and  N1_4 
REMARK    2  A    between atoms: C8_11  and  N3_12 
REMARK    3  A    between atoms: N3_12  and  C9_14 
REMARK    4  A    between atoms: C9_14  and  C10_15 
REMARK    5  A    between atoms: C13_18  and  C14_19 
REMARK       I    between atoms: C14_19  and  N4_21 
REMARK    6  A    between atoms: N4_21  and  C15_23 
REMARK    7  A    between atoms: C15_23  and  C16_24 
REMARK    8  A    between atoms: C16_24  and  N5_25 
REMARK    9  A    between atoms: C23_35  and  N7_36 
REMARK   10  A    between atoms: N7_36  and  C24_38 
REMARK   11  A    between atoms: C26_40  and  C27_41 
ROOT
HETATM    1  N1  UNL     1       9.332  50.860  86.279  1.00  0.00    -0.396 N 
HETATM    2  C4  UNL     1       9.759  49.609  86.654  1.00  0.00     0.083 C 
HETATM    3  C5  UNL     1      10.318  49.345  87.999  1.00  0.00     0.031 C 
HETATM    4  C6  UNL     1      10.845  50.414  88.825  1.00  0.00     0.060 C 
HETATM    5  C7  UNL     1      11.380  51.602  88.095  1.00  0.00     0.038 A 
HETATM    6  N2  UNL     1      12.040  52.413  88.963  1.00  0.00    -0.195 N 
ATOM      7  H2  UNL     1      12.113  52.142  89.944  1.00  0.00     0.184 HD
HETATM    8  C8  UNL     1      12.605  53.577  88.553  1.00  0.00     0.683 A 
HETATM    9  N6  UNL     1      12.498  53.913  87.257  1.00  0.00    -0.176 N 
ATOM     10  H6  UNL     1      12.922  54.788  86.948  1.00  0.00     0.186 HD
HETATM   11  C23 UNL     1      11.857  53.150  86.338  1.00  0.00     0.133 A 
HETATM   12  C30 UNL     1      11.290  51.978  86.779  1.00  0.00     0.032 A 
HETATM   13  C31 UNL     1      10.542  51.263  85.683  1.00  0.00     0.121 C 
HETATM   14  C32 UNL     1      10.984  49.815  85.728  1.00  0.00     0.055 C 
ENDROOT
BRANCH   8  15
HETATM   15  N3  UNL     1      13.206  54.311  89.413  1.00  0.00    -0.205 N 
ATOM     16  H3  UNL     1      13.582  55.174  89.021  1.00  0.00     0.183 HD
BRANCH  15  17
HETATM   17  C9  UNL     1      13.449  54.167  90.778  1.00  0.00     0.083 C 
BRANCH  17  18
HETATM   18  C10 UNL     1      12.424  54.770  91.670  1.00  0.00     0.025 C 
HETATM   19  C11 UNL     1      12.993  55.326  92.908  1.00  0.00     0.011 C 
HETATM   20  C12 UNL     1      13.201  54.479  94.093  1.00  0.00     0.015 C 
HETATM   21  C13 UNL     1      12.495  53.188  94.151  1.00  0.00     0.078 C 
HETATM   22  C21 UNL     1      11.928  52.681  92.894  1.00  0.00     0.015 C 
HETATM   23  C22 UNL     1      11.349  53.707  91.996  1.00  0.00     0.011 C 
BRANCH  21  24
HETATM   24  C14 UNL     1      13.415  52.140  94.754  1.00  0.00     0.222 C 
HETATM   25  O1  UNL     1      14.072  51.394  93.991  1.00  0.00    -0.273 OA
HETATM   26  N4  UNL     1      13.502  52.036  96.145  1.00  0.00    -0.356 N 
ATOM     27  H4  UNL     1      12.946  52.655  96.735  1.00  0.00     0.162 HD
BRANCH  26  28
HETATM   28  C15 UNL     1      14.383  51.048  96.758  1.00  0.00     0.167 C 
BRANCH  28  29
HETATM   29  C16 UNL     1      15.426  51.646  97.660  1.00  0.00     0.082 C 
BRANCH  29  30
HETATM   30  N5  UNL     1      16.728  51.484  97.143  1.00  0.00    -0.368 N 
HETATM   31  C17 UNL     1      17.780  51.625  98.088  1.00  0.00     0.153 C 
HETATM   32  C18 UNL     1      18.194  50.221  98.524  1.00  0.00     0.188 C 
HETATM   33  O2  UNL     1      18.635  49.508  97.427  1.00  0.00    -0.385 OA
HETATM   34  C19 UNL     1      17.581  49.285  96.551  1.00  0.00     0.212 C 
HETATM   35  C20 UNL     1      16.999  50.618  96.079  1.00  0.00     0.089 C 
ENDBRANCH  29  30
ENDBRANCH  28  29
ENDBRANCH  26  28
ENDBRANCH  21  24
ENDBRANCH  17  18
ENDBRANCH  15  17
ENDBRANCH   8  15
BRANCH  11  36
HETATM   36  N7  UNL     1      11.836  53.558  84.951  1.00  0.00    -0.327 N 
ATOM     37  H7  UNL     1      11.022  53.991  84.515  1.00  0.00     0.169 HD
BRANCH  36  38
HETATM   38  C24 UNL     1      12.959  53.322  84.294  1.00  0.00     0.123 A 
HETATM   39  C25 UNL     1      13.177  52.362  83.335  1.00  0.00     0.076 A 
HETATM   40  C26 UNL     1      14.477  52.464  82.856  1.00  0.00     0.033 A 
HETATM   41  N8  UNL     1      15.010  53.486  83.544  1.00  0.00    -0.303 N 
HETATM   42  N9  UNL     1      14.109  53.995  84.397  1.00  0.00    -0.285 N 
ATOM     43  H8  UNL     1      15.966  53.827  83.433  1.00  0.00     0.186 HD
ATOM     44  H9  UNL     1      14.277  54.778  85.030  1.00  0.00     0.188 HD
BRANCH  40  45
HETATM   45  C27 UNL     1      15.048  51.628  81.773  1.00  0.00     0.037 A 
HETATM   46  C28 UNL     1      14.271  51.299  80.587  1.00  0.00     0.011 A 
HETATM   47  C29 UNL     1      15.380  52.294  80.419  1.00  0.00     0.011 A 
ENDBRANCH  40  45
ENDBRANCH  36  38
ENDBRANCH  11  36
BRANCH   1  48
HETATM   48  C2  UNL     1       8.108  51.431  86.202  1.00  0.00     0.072 C 
HETATM   49  C1  UNL     1       7.525  51.708  87.599  1.00  0.00     0.031 C 
HETATM   50  C3  UNL     1       7.924  52.622  85.302  1.00  0.00     0.031 C 
ENDBRANCH   1  48
TORSDOF 11
ENDMDL
