MODEL 1
REMARK VINA RESULT: -8.589311411      0.000      0.000
REMARK  9 active torsions:
REMARK  status: ('A' for Active; 'I' for Inactive)
REMARK    1  A    between atoms: N3_8  and  C5_10 
REMARK    2  A    between atoms: C5_10  and  C6_11 
REMARK    3  A    between atoms: C6_11  and  C7_12 
REMARK    4  A    between atoms: C7_12  and  C8_13 
REMARK    5  A    between atoms: C11_22  and  N7_23 
REMARK    6  A    between atoms: N7_23  and  C12_24 
REMARK    7  A    between atoms: C15_27  and  N8_28 
REMARK    8  A    between atoms: N8_28  and  S1_30 
REMARK    9  A    between atoms: S1_30  and  N9_33 
ROOT
HETATM    1  C1  UNL     1       6.852  52.831  85.624  1.00  0.00     0.158 C 
HETATM    2  N1  UNL     1       8.160  52.926  85.062  1.00  0.00    -0.332 N 
HETATM    3  C2  UNL     1       8.475  52.797  83.763  1.00  0.00     0.184 A 
HETATM    4  N2  UNL     1       9.789  52.941  83.575  1.00  0.00    -0.346 N 
ATOM      5  H2  UNL     1      10.287  52.890  82.686  1.00  0.00     0.167 HD
HETATM    6  C3  UNL     1      10.323  53.165  84.776  1.00  0.00     0.122 A 
HETATM    7  C4  UNL     1      11.654  53.386  85.156  1.00  0.00     0.135 A 
HETATM    8  N3  UNL     1      12.557  53.367  84.212  1.00  0.00    -0.374 N 
ATOM      9  H3  UNL     1      12.272  53.197  83.247  1.00  0.00     0.161 HD
HETATM   10  N6  UNL     1      11.896  53.580  86.424  1.00  0.00    -0.301 N 
ATOM     11  H6  UNL     1      12.863  53.741  86.705  1.00  0.00     0.171 HD
HETATM   12  C11 UNL     1      10.928  53.584  87.415  1.00  0.00     0.257 A 
HETATM   13  N10 UNL     1       9.633  53.362  86.985  1.00  0.00    -0.300 N 
ATOM     14  H10 UNL     1       8.882  53.356  87.675  1.00  0.00     0.171 HD
HETATM   15  C28 UNL     1       9.326  53.158  85.712  1.00  0.00     0.142 A 
ENDROOT
BRANCH  12  16
HETATM   16  N7  UNL     1      11.225  53.766  88.535  1.00  0.00    -0.410 NA
BRANCH  16  17
HETATM   17  C12 UNL     1      11.483  54.003  89.807  1.00  0.00     0.167 C 
HETATM   18  C13 UNL     1      11.440  52.738  90.702  1.00  0.00     0.041 C 
HETATM   19  C14 UNL     1      11.198  53.209  92.116  1.00  0.00     0.029 C 
HETATM   20  C15 UNL     1      12.109  54.341  92.482  1.00  0.00     0.094 C 
HETATM   21  C26 UNL     1      13.289  54.420  91.516  1.00  0.00     0.029 C 
HETATM   22  C27 UNL     1      12.835  54.672  90.111  1.00  0.00     0.041 C 
BRANCH  20  23
HETATM   23  N8  UNL     1      12.626  54.200  93.806  1.00  0.00    -0.302 N 
ATOM     24  H8  UNL     1      13.606  53.981  93.987  1.00  0.00     0.173 HD
BRANCH  23  25
HETATM   25  S1  UNL     1      11.504  54.418  95.057  1.00  0.00     0.299 S 
HETATM   26  O1  UNL     1      12.186  54.631  96.398  1.00  0.00    -0.188 OA
HETATM   27  O2  UNL     1      10.768  53.091  95.221  1.00  0.00    -0.188 OA
BRANCH  25  28
HETATM   28  N9  UNL     1      10.331  55.636  94.795  1.00  0.00    -0.193 NA
HETATM   29  C16 UNL     1      10.461  56.644  95.825  1.00  0.00     0.109 C 
HETATM   30  C17 UNL     1       9.580  57.802  95.462  1.00  0.00     0.025 C 
HETATM   31  C18 UNL     1       8.133  57.298  95.507  1.00  0.00    -0.038 C 
HETATM   32  C19 UNL     1       7.843  56.956  96.928  1.00  0.00     0.010 C 
HETATM   33  C23 UNL     1       7.300  58.448  94.965  1.00  0.00     0.010 C 
HETATM   34  C24 UNL     1       7.941  56.124  94.581  1.00  0.00     0.025 C 
HETATM   35  C20 UNL     1       6.414  57.067  97.345  1.00  0.00     0.001 C 
HETATM   36  C21 UNL     1       5.837  58.389  96.889  1.00  0.00     0.000 C 
HETATM   37  C22 UNL     1       5.859  58.324  95.354  1.00  0.00     0.001 C 
HETATM   38  C25 UNL     1       9.028  55.072  94.721  1.00  0.00     0.109 C 
ENDBRANCH  25  28
ENDBRANCH  23  25
ENDBRANCH  20  23
ENDBRANCH  16  17
ENDBRANCH  12  16
BRANCH   8  39
HETATM   39  C5  UNL     1      13.940  53.583  84.511  1.00  0.00     0.121 C 
BRANCH  39  40
HETATM   40  C6  UNL     1      14.788  53.196  83.291  1.00  0.00     0.024 C 
BRANCH  40  41
HETATM   41  C7  UNL     1      14.158  52.000  82.598  1.00  0.00     0.043 C 
BRANCH  41  42
HETATM   42  C8  UNL     1      14.866  51.775  81.319  1.00  0.00    -0.024 A 
HETATM   43  C9  UNL     1      15.982  52.455  80.911  1.00  0.00     0.115 A 
HETATM   44  N4  UNL     1      16.311  51.963  79.712  1.00  0.00    -0.312 N 
HETATM   45  N5  UNL     1      15.464  51.026  79.366  1.00  0.00    -0.312 N 
ATOM     46  H4  UNL     1      17.105  52.272  79.150  1.00  0.00     0.186 HD
HETATM   47  C10 UNL     1      14.514  50.848  80.338  1.00  0.00     0.115 A 
ATOM     48  H5  UNL     1      15.506  50.500  78.493  1.00  0.00     0.186 HD
ENDBRANCH  41  42
ENDBRANCH  40  41
ENDBRANCH  39  40
ENDBRANCH   8  39
TORSDOF 9
ENDMDL
MODEL 2
REMARK VINA RESULT: -8.540735089      1.022      1.768
REMARK  9 active torsions:
REMARK  status: ('A' for Active; 'I' for Inactive)
REMARK    1  A    between atoms: N3_8  and  C5_10 
REMARK    2  A    between atoms: C5_10  and  C6_11 
REMARK    3  A    between atoms: C6_11  and  C7_12 
REMARK    4  A    between atoms: C7_12  and  C8_13 
REMARK    5  A    between atoms: C11_22  and  N7_23 
REMARK    6  A    between atoms: N7_23  and  C12_24 
REMARK    7  A    between atoms: C15_27  and  N8_28 
REMARK    8  A    between atoms: N8_28  and  S1_30 
REMARK    9  A    between atoms: S1_30  and  N9_33 
ROOT
HETATM    1  C1  UNL     1       7.196  52.988  85.725  1.00  0.00     0.158 C 
HETATM    2  N1  UNL     1       8.470  53.079  85.088  1.00  0.00    -0.332 N 
HETATM    3  C2  UNL     1       8.698  53.033  83.765  1.00  0.00     0.184 A 
HETATM    4  N2  UNL     1      10.002  53.147  83.503  1.00  0.00    -0.346 N 
ATOM      5  H2  UNL     1      10.442  53.142  82.582  1.00  0.00     0.167 HD
HETATM    6  C3  UNL     1      10.618  53.267  84.680  1.00  0.00     0.122 A 
HETATM    7  C4  UNL     1      11.978  53.415  84.987  1.00  0.00     0.135 A 
HETATM    8  N3  UNL     1      12.819  53.434  83.987  1.00  0.00    -0.374 N 
ATOM      9  H3  UNL     1      12.468  53.342  83.034  1.00  0.00     0.161 HD
HETATM   10  N6  UNL     1      12.305  53.511  86.247  1.00  0.00    -0.301 N 
ATOM     11  H6  UNL     1      13.294  53.618  86.475  1.00  0.00     0.171 HD
HETATM   12  C11 UNL     1      11.401  53.476  87.296  1.00  0.00     0.257 A 
HETATM   13  N10 UNL     1      10.075  53.329  86.936  1.00  0.00    -0.300 N 
ATOM     14  H10 UNL     1       9.369  53.298  87.672  1.00  0.00     0.171 HD
HETATM   15  C28 UNL     1       9.681  53.226  85.675  1.00  0.00     0.142 A 
ENDROOT
BRANCH  12  16
HETATM   16  N7  UNL     1      11.774  53.568  88.404  1.00  0.00    -0.410 NA
BRANCH  16  17
HETATM   17  C12 UNL     1      12.147  53.602  89.669  1.00  0.00     0.167 C 
HETATM   18  C13 UNL     1      13.171  54.720  89.991  1.00  0.00     0.041 C 
HETATM   19  C14 UNL     1      13.893  54.306  91.251  1.00  0.00     0.029 C 
HETATM   20  C15 UNL     1      12.934  53.855  92.311  1.00  0.00     0.094 C 
HETATM   21  C26 UNL     1      11.519  54.334  91.999  1.00  0.00     0.029 C 
HETATM   22  C27 UNL     1      11.019  53.771  90.704  1.00  0.00     0.041 C 
BRANCH  20  23
HETATM   23  N8  UNL     1      13.298  54.352  93.601  1.00  0.00    -0.302 N 
ATOM     24  H8  UNL     1      13.866  55.190  93.720  1.00  0.00     0.173 HD
BRANCH  23  25
HETATM   25  S1  UNL     1      12.724  53.454  94.919  1.00  0.00     0.299 S 
HETATM   26  O1  UNL     1      13.854  52.998  95.826  1.00  0.00    -0.188 OA
HETATM   27  O2  UNL     1      12.157  52.157  94.349  1.00  0.00    -0.188 OA
BRANCH  25  28
HETATM   28  N9  UNL     1      11.493  54.200  95.843  1.00  0.00    -0.193 NA
HETATM   29  C16 UNL     1      10.238  53.528  95.586  1.00  0.00     0.109 C 
HETATM   30  C17 UNL     1       9.219  54.047  96.556  1.00  0.00     0.025 C 
HETATM   31  C18 UNL     1       9.007  55.530  96.234  1.00  0.00    -0.038 C 
HETATM   32  C19 UNL     1       8.392  55.591  94.879  1.00  0.00     0.010 C 
HETATM   33  C23 UNL     1       8.109  56.048  97.345  1.00  0.00     0.010 C 
HETATM   34  C24 UNL     1      10.307  56.291  96.311  1.00  0.00     0.025 C 
HETATM   35  C20 UNL     1       7.527  56.777  94.610  1.00  0.00     0.001 C 
HETATM   36  C21 UNL     1       6.553  56.986  95.749  1.00  0.00     0.000 C 
HETATM   37  C22 UNL     1       7.431  57.328  96.963  1.00  0.00     0.001 C 
HETATM   38  C25 UNL     1      11.446  55.597  95.583  1.00  0.00     0.109 C 
ENDBRANCH  25  28
ENDBRANCH  23  25
ENDBRANCH  20  23
ENDBRANCH  16  17
ENDBRANCH  12  16
BRANCH   8  39
HETATM   39  C5  UNL     1      14.225  53.582  84.211  1.00  0.00     0.121 C 
BRANCH  39  40
HETATM   40  C6  UNL     1      14.988  53.089  82.973  1.00  0.00     0.024 C 
BRANCH  40  41
HETATM   41  C7  UNL     1      14.247  51.913  82.359  1.00  0.00     0.043 C 
BRANCH  41  42
HETATM   42  C8  UNL     1      14.865  51.604  81.051  1.00  0.00    -0.024 A 
HETATM   43  C9  UNL     1      15.936  52.268  80.513  1.00  0.00     0.115 A 
HETATM   44  N4  UNL     1      16.186  51.693  79.332  1.00  0.00    -0.312 N 
HETATM   45  N5  UNL     1      15.335  50.721  79.119  1.00  0.00    -0.312 N 
ATOM     46  H4  UNL     1      16.931  51.970  78.692  1.00  0.00     0.186 HD
HETATM   47  C10 UNL     1      14.461  50.602  80.168  1.00  0.00     0.115 A 
ATOM     48  H5  UNL     1      15.323  50.133  78.286  1.00  0.00     0.186 HD
ENDBRANCH  41  42
ENDBRANCH  40  41
ENDBRANCH  39  40
ENDBRANCH   8  39
TORSDOF 9
ENDMDL
MODEL 3
REMARK VINA RESULT: -8.375831431      3.825     12.532
REMARK  9 active torsions:
REMARK  status: ('A' for Active; 'I' for Inactive)
REMARK    1  A    between atoms: N3_8  and  C5_10 
REMARK    2  A    between atoms: C5_10  and  C6_11 
REMARK    3  A    between atoms: C6_11  and  C7_12 
REMARK    4  A    between atoms: C7_12  and  C8_13 
REMARK    5  A    between atoms: C11_22  and  N7_23 
REMARK    6  A    between atoms: N7_23  and  C12_24 
REMARK    7  A    between atoms: C15_27  and  N8_28 
REMARK    8  A    between atoms: N8_28  and  S1_30 
REMARK    9  A    between atoms: S1_30  and  N9_33 
ROOT
HETATM    1  C1  UNL     1      14.440  49.577  93.731  1.00  0.00     0.158 C 
HETATM    2  N1  UNL     1      14.016  50.881  94.129  1.00  0.00    -0.332 N 
HETATM    3  C2  UNL     1      14.317  51.490  95.288  1.00  0.00     0.184 A 
HETATM    4  N2  UNL     1      13.762  52.703  95.345  1.00  0.00    -0.346 N 
ATOM      5  H2  UNL     1      13.835  53.371  96.113  1.00  0.00     0.167 HD
HETATM    6  C3  UNL     1      13.095  52.871  94.203  1.00  0.00     0.122 A 
HETATM    7  C4  UNL     1      12.336  53.954  93.740  1.00  0.00     0.135 A 
HETATM    8  N3  UNL     1      12.228  54.990  94.530  1.00  0.00    -0.374 N 
ATOM      9  H3  UNL     1      12.689  54.979  95.440  1.00  0.00     0.161 HD
HETATM   10  N6  UNL     1      11.783  53.846  92.562  1.00  0.00    -0.301 N 
ATOM     11  H6  UNL     1      11.229  54.632  92.222  1.00  0.00     0.171 HD
HETATM   12  C11 UNL     1      11.897  52.735  91.743  1.00  0.00     0.257 A 
HETATM   13  N10 UNL     1      12.657  51.696  92.248  1.00  0.00    -0.300 N 
ATOM     14  H10 UNL     1      12.772  50.855  91.683  1.00  0.00     0.171 HD
HETATM   15  C28 UNL     1      13.242  51.748  93.436  1.00  0.00     0.142 A 
ENDROOT
BRANCH  12  16
HETATM   16  N7  UNL     1      11.369  52.713  90.696  1.00  0.00    -0.410 NA
BRANCH  16  17
HETATM   17  C12 UNL     1      10.847  52.661  89.486  1.00  0.00     0.167 C 
HETATM   18  C13 UNL     1      10.115  53.959  89.061  1.00  0.00     0.041 C 
HETATM   19  C14 UNL     1       9.144  53.579  87.969  1.00  0.00     0.029 C 
HETATM   20  C15 UNL     1       9.796  52.726  86.925  1.00  0.00     0.094 C 
HETATM   21  C26 UNL     1      11.317  52.832  87.014  1.00  0.00     0.029 C 
HETATM   22  C27 UNL     1      11.826  52.352  88.339  1.00  0.00     0.041 C 
BRANCH  20  23
HETATM   23  N8  UNL     1       9.400  53.105  85.606  1.00  0.00    -0.302 N 
ATOM     24  H8  UNL     1       9.356  54.081  85.311  1.00  0.00     0.173 HD
BRANCH  23  25
HETATM   25  S1  UNL     1       9.008  51.828  84.564  1.00  0.00     0.299 S 
HETATM   26  O1  UNL     1       7.709  52.086  83.818  1.00  0.00    -0.188 OA
HETATM   27  O2  UNL     1       8.696  50.623  85.448  1.00  0.00    -0.188 OA
BRANCH  25  28
HETATM   28  N9  UNL     1      10.234  51.365  83.465  1.00  0.00    -0.193 NA
HETATM   29  C16 UNL     1      11.331  50.777  84.204  1.00  0.00     0.109 C 
HETATM   30  C17 UNL     1      12.296  50.185  83.220  1.00  0.00     0.025 C 
HETATM   31  C18 UNL     1      12.875  51.346  82.405  1.00  0.00    -0.038 C 
HETATM   32  C19 UNL     1      13.671  52.179  83.350  1.00  0.00     0.010 C 
HETATM   33  C23 UNL     1      13.704  50.685  81.316  1.00  0.00     0.010 C 
HETATM   34  C24 UNL     1      11.781  52.130  81.727  1.00  0.00     0.025 C 
HETATM   35  C20 UNL     1      14.807  52.938  82.751  1.00  0.00     0.001 C 
HETATM   36  C21 UNL     1      15.635  52.031  81.867  1.00  0.00     0.000 C 
HETATM   37  C22 UNL     1      14.697  51.633  80.717  1.00  0.00     0.001 C 
HETATM   38  C25 UNL     1      10.628  52.467  82.657  1.00  0.00     0.109 C 
ENDBRANCH  25  28
ENDBRANCH  23  25
ENDBRANCH  20  23
ENDBRANCH  16  17
ENDBRANCH  12  16
BRANCH   8  39
HETATM   39  C5  UNL     1      11.472  56.140  94.137  1.00  0.00     0.121 C 
BRANCH  39  40
HETATM   40  C6  UNL     1      11.774  57.297  95.099  1.00  0.00     0.024 C 
BRANCH  40  41
HETATM   41  C7  UNL     1      10.637  58.304  95.048  1.00  0.00     0.043 C 
BRANCH  41  42
HETATM   42  C8  UNL     1       9.466  57.722  95.740  1.00  0.00    -0.024 A 
HETATM   43  C9  UNL     1       9.515  57.044  96.929  1.00  0.00     0.115 A 
HETATM   44  N4  UNL     1       8.260  56.682  97.213  1.00  0.00    -0.312 N 
HETATM   45  N5  UNL     1       7.451  57.098  96.271  1.00  0.00    -0.312 N 
ATOM     46  H4  UNL     1       7.974  56.159  98.042  1.00  0.00     0.186 HD
HETATM   47  C10 UNL     1       8.144  57.769  95.297  1.00  0.00     0.115 A 
ATOM     48  H5  UNL     1       6.443  56.944  96.263  1.00  0.00     0.186 HD
ENDBRANCH  41  42
ENDBRANCH  40  41
ENDBRANCH  39  40
ENDBRANCH   8  39
TORSDOF 9
ENDMDL
MODEL 4
REMARK VINA RESULT: -8.255614891      3.883     12.935
REMARK  9 active torsions:
REMARK  status: ('A' for Active; 'I' for Inactive)
REMARK    1  A    between atoms: N3_8  and  C5_10 
REMARK    2  A    between atoms: C5_10  and  C6_11 
REMARK    3  A    between atoms: C6_11  and  C7_12 
REMARK    4  A    between atoms: C7_12  and  C8_13 
REMARK    5  A    between atoms: C11_22  and  N7_23 
REMARK    6  A    between atoms: N7_23  and  C12_24 
REMARK    7  A    between atoms: C15_27  and  N8_28 
REMARK    8  A    between atoms: N8_28  and  S1_30 
REMARK    9  A    between atoms: S1_30  and  N9_33 
ROOT
HETATM    1  C1  UNL     1      14.832  49.387  93.999  1.00  0.00     0.158 C 
HETATM    2  N1  UNL     1      14.378  50.689  94.367  1.00  0.00    -0.332 N 
HETATM    3  C2  UNL     1      14.557  51.282  95.559  1.00  0.00     0.184 A 
HETATM    4  N2  UNL     1      14.007  52.499  95.572  1.00  0.00    -0.346 N 
ATOM      5  H2  UNL     1      14.002  53.157  96.352  1.00  0.00     0.167 HD
HETATM    6  C3  UNL     1      13.467  52.686  94.367  1.00  0.00     0.122 A 
HETATM    7  C4  UNL     1      12.770  53.781  93.839  1.00  0.00     0.135 A 
HETATM    8  N3  UNL     1      12.585  54.808  94.626  1.00  0.00    -0.374 N 
ATOM      9  H3  UNL     1      12.946  54.782  95.580  1.00  0.00     0.161 HD
HETATM   10  N6  UNL     1      12.345  53.691  92.608  1.00  0.00    -0.301 N 
ATOM     11  H6  UNL     1      11.837  54.486  92.221  1.00  0.00     0.171 HD
HETATM   12  C11 UNL     1      12.539  52.589  91.791  1.00  0.00     0.257 A 
HETATM   13  N10 UNL     1      13.233  51.538  92.362  1.00  0.00    -0.300 N 
ATOM     14  H10 UNL     1      13.403  50.703  91.802  1.00  0.00     0.171 HD
HETATM   15  C28 UNL     1      13.688  51.571  93.605  1.00  0.00     0.142 A 
ENDROOT
BRANCH  12  16
HETATM   16  N7  UNL     1      12.126  52.584  90.694  1.00  0.00    -0.410 NA
BRANCH  16  17
HETATM   17  C12 UNL     1      11.618  52.649  89.478  1.00  0.00     0.167 C 
HETATM   18  C13 UNL     1      10.877  51.361  89.038  1.00  0.00     0.041 C 
HETATM   19  C14 UNL     1      10.852  51.362  87.528  1.00  0.00     0.029 C 
HETATM   20  C15 UNL     1      10.412  52.688  86.986  1.00  0.00     0.094 C 
HETATM   21  C26 UNL     1       9.712  53.508  88.067  1.00  0.00     0.029 C 
HETATM   22  C27 UNL     1      10.627  53.798  89.218  1.00  0.00     0.041 C 
BRANCH  20  23
HETATM   23  N8  UNL     1       9.511  52.539  85.887  1.00  0.00    -0.302 N 
ATOM     24  H8  UNL     1       8.582  52.134  85.997  1.00  0.00     0.173 HD
BRANCH  23  25
HETATM   25  S1  UNL     1      10.089  53.080  84.389  1.00  0.00     0.299 S 
HETATM   26  O1  UNL     1      11.195  54.109  84.549  1.00  0.00    -0.188 OA
HETATM   27  O2  UNL     1       8.949  53.855  83.735  1.00  0.00    -0.188 OA
BRANCH  25  28
HETATM   28  N9  UNL     1      10.580  51.855  83.299  1.00  0.00    -0.193 NA
HETATM   29  C16 UNL     1      11.887  51.374  83.691  1.00  0.00     0.109 C 
HETATM   30  C17 UNL     1      12.208  50.163  82.865  1.00  0.00     0.025 C 
HETATM   31  C18 UNL     1      12.319  50.629  81.409  1.00  0.00    -0.038 C 
HETATM   32  C19 UNL     1      13.500  51.533  81.337  1.00  0.00     0.010 C 
HETATM   33  C23 UNL     1      12.467  49.351  80.599  1.00  0.00     0.010 C 
HETATM   34  C24 UNL     1      11.047  51.304  80.960  1.00  0.00     0.025 C 
HETATM   35  C20 UNL     1      14.191  51.596  80.016  1.00  0.00     0.001 C 
HETATM   36  C21 UNL     1      14.439  50.200  79.486  1.00  0.00     0.000 C 
HETATM   37  C22 UNL     1      13.039  49.615  79.240  1.00  0.00     0.001 C 
HETATM   38  C25 UNL     1      10.532  52.326  81.959  1.00  0.00     0.109 C 
ENDBRANCH  25  28
ENDBRANCH  23  25
ENDBRANCH  20  23
ENDBRANCH  16  17
ENDBRANCH  12  16
BRANCH   8  39
HETATM   39  C5  UNL     1      11.883  55.969  94.169  1.00  0.00     0.121 C 
BRANCH  39  40
HETATM   40  C6  UNL     1      11.857  57.018  95.289  1.00  0.00     0.024 C 
BRANCH  40  41
HETATM   41  C7  UNL     1      10.798  58.062  94.978  1.00  0.00     0.043 C 
BRANCH  41  42
HETATM   42  C8  UNL     1       9.542  57.669  95.654  1.00  0.00    -0.024 A 
HETATM   43  C9  UNL     1       9.470  57.045  96.872  1.00  0.00     0.115 A 
HETATM   44  N4  UNL     1       8.171  56.864  97.130  1.00  0.00    -0.312 N 
HETATM   45  N5  UNL     1       7.448  57.338  96.145  1.00  0.00    -0.312 N 
ATOM     46  H4  UNL     1       7.797  56.421  97.969  1.00  0.00     0.186 HD
HETATM   47  C10 UNL     1       8.250  57.867  95.167  1.00  0.00     0.115 A 
ATOM     48  H5  UNL     1       6.429  57.317  96.111  1.00  0.00     0.186 HD
ENDBRANCH  41  42
ENDBRANCH  40  41
ENDBRANCH  39  40
ENDBRANCH   8  39
TORSDOF 9
ENDMDL
MODEL 5
REMARK VINA RESULT: -8.184707419      3.614     12.328
REMARK  9 active torsions:
REMARK  status: ('A' for Active; 'I' for Inactive)
REMARK    1  A    between atoms: N3_8  and  C5_10 
REMARK    2  A    between atoms: C5_10  and  C6_11 
REMARK    3  A    between atoms: C6_11  and  C7_12 
REMARK    4  A    between atoms: C7_12  and  C8_13 
REMARK    5  A    between atoms: C11_22  and  N7_23 
REMARK    6  A    between atoms: N7_23  and  C12_24 
REMARK    7  A    between atoms: C15_27  and  N8_28 
REMARK    8  A    between atoms: N8_28  and  S1_30 
REMARK    9  A    between atoms: S1_30  and  N9_33 
ROOT
HETATM    1  C1  UNL     1      12.331  50.073  95.799  1.00  0.00     0.158 C 
HETATM    2  N1  UNL     1      12.246  51.496  95.877  1.00  0.00    -0.332 N 
HETATM    3  C2  UNL     1      12.473  52.243  96.970  1.00  0.00     0.184 A 
HETATM    4  N2  UNL     1      12.308  53.540  96.701  1.00  0.00    -0.346 N 
ATOM      5  H2  UNL     1      12.419  54.317  97.354  1.00  0.00     0.167 HD
HETATM    6  C3  UNL     1      11.968  53.623  95.414  1.00  0.00     0.122 A 
HETATM    7  C4  UNL     1      11.679  54.738  94.616  1.00  0.00     0.135 A 
HETATM    8  N3  UNL     1      11.728  55.912  95.188  1.00  0.00    -0.374 N 
ATOM      9  H3  UNL     1      11.970  55.980  96.177  1.00  0.00     0.161 HD
HETATM   10  N6  UNL     1      11.370  54.523  93.366  1.00  0.00    -0.301 N 
ATOM     11  H6  UNL     1      11.159  55.332  92.782  1.00  0.00     0.171 HD
HETATM   12  C11 UNL     1      11.310  53.270  92.779  1.00  0.00     0.257 A 
HETATM   13  N10 UNL     1      11.604  52.206  93.611  1.00  0.00    -0.300 N 
ATOM     14  H10 UNL     1      11.575  51.262  93.226  1.00  0.00     0.171 HD
HETATM   15  C28 UNL     1      11.924  52.361  94.887  1.00  0.00     0.142 A 
ENDROOT
BRANCH  12  16
HETATM   16  N7  UNL     1      11.023  53.158  91.647  1.00  0.00    -0.410 NA
BRANCH  16  17
HETATM   17  C12 UNL     1      10.676  53.114  90.375  1.00  0.00     0.167 C 
HETATM   18  C13 UNL     1      10.061  54.434  89.846  1.00  0.00     0.041 C 
HETATM   19  C14 UNL     1       9.239  54.079  88.629  1.00  0.00     0.029 C 
HETATM   20  C15 UNL     1      10.000  53.191  87.692  1.00  0.00     0.094 C 
HETATM   21  C26 UNL     1      11.495  53.241  87.994  1.00  0.00     0.029 C 
HETATM   22  C27 UNL     1      11.794  52.757  89.380  1.00  0.00     0.041 C 
BRANCH  20  23
HETATM   23  N8  UNL     1       9.808  53.572  86.328  1.00  0.00    -0.302 N 
ATOM     24  H8  UNL     1      10.014  54.512  85.992  1.00  0.00     0.173 HD
BRANCH  23  25
HETATM   25  S1  UNL     1       9.215  52.357  85.306  1.00  0.00     0.299 S 
HETATM   26  O1  UNL     1       7.946  52.790  84.591  1.00  0.00    -0.188 OA
HETATM   27  O2  UNL     1       8.763  51.211  86.207  1.00  0.00    -0.188 OA
BRANCH  25  28
HETATM   28  N9  UNL     1      10.337  51.724  84.180  1.00  0.00    -0.193 NA
HETATM   29  C16 UNL     1      11.501  51.244  84.893  1.00  0.00     0.109 C 
HETATM   30  C17 UNL     1      12.373  50.503  83.924  1.00  0.00     0.025 C 
HETATM   31  C18 UNL     1      12.868  51.524  82.894  1.00  0.00    -0.038 C 
HETATM   32  C19 UNL     1      13.743  52.482  83.626  1.00  0.00     0.010 C 
HETATM   33  C23 UNL     1      13.595  50.700  81.845  1.00  0.00     0.010 C 
HETATM   34  C24 UNL     1      11.710  52.207  82.211  1.00  0.00     0.025 C 
HETATM   35  C20 UNL     1      14.814  53.133  82.817  1.00  0.00     0.001 C 
HETATM   36  C21 UNL     1      15.562  52.097  82.006  1.00  0.00     0.000 C 
HETATM   37  C22 UNL     1      14.523  51.539  81.021  1.00  0.00     0.001 C 
HETATM   38  C25 UNL     1      10.647  52.689  83.182  1.00  0.00     0.109 C 
ENDBRANCH  25  28
ENDBRANCH  23  25
ENDBRANCH  20  23
ENDBRANCH  16  17
ENDBRANCH  12  16
BRANCH   8  39
HETATM   39  C5  UNL     1      11.448  57.104  94.447  1.00  0.00     0.121 C 
BRANCH  39  40
HETATM   40  C6  UNL     1      10.590  58.044  95.307  1.00  0.00     0.024 C 
BRANCH  40  41
HETATM   41  C7  UNL     1       9.582  57.225  96.096  1.00  0.00     0.043 C 
BRANCH  41  42
HETATM   42  C8  UNL     1       8.363  57.066  95.272  1.00  0.00    -0.024 A 
HETATM   43  C9  UNL     1       7.992  55.910  94.636  1.00  0.00     0.115 A 
HETATM   44  N4  UNL     1       6.844  56.175  94.004  1.00  0.00    -0.312 N 
HETATM   45  N5  UNL     1       6.494  57.419  94.216  1.00  0.00    -0.312 N 
ATOM     46  H4  UNL     1       6.319  55.507  93.440  1.00  0.00     0.186 HD
HETATM   47  C10 UNL     1       7.411  58.052  95.015  1.00  0.00     0.115 A 
ATOM     48  H5  UNL     1       5.653  57.857  93.839  1.00  0.00     0.186 HD
ENDBRANCH  41  42
ENDBRANCH  40  41
ENDBRANCH  39  40
ENDBRANCH   8  39
TORSDOF 9
ENDMDL
