MODEL 1
REMARK VINA RESULT: -8.149493330      0.000      0.000
REMARK  10 active torsions:
REMARK  status: ('A' for Active; 'I' for Inactive)
REMARK    1  A    between atoms: C2_2  and  C3_3 
REMARK    2  A    between atoms: C3_3  and  C4_4 
REMARK    3  A    between atoms: C4_4  and  N1_5 
REMARK    4  A    between atoms: C4_4  and  C13_18 
REMARK       I    between atoms: N1_5  and  C5_7 
REMARK    5  A    between atoms: C5_7  and  C6_9 
REMARK    6  A    between atoms: C13_18  and  C14_20 
REMARK    7  A    between atoms: C14_20  and  C15_23 
REMARK       I    between atoms: C15_23  and  N2_25 
REMARK    8  A    between atoms: N2_25  and  C16_27 
REMARK    9  A    between atoms: C16_27  and  C18_29 
REMARK       I    between atoms: C18_29  and  N3_31 
REMARK   10  A    between atoms: N4_34  and  C21_35 
ROOT
HETATM    1  C14 UNL     1      15.524   5.047  11.767  1.00  0.00     0.383 C 
HETATM    2  F1  UNL     1      16.821   4.586  11.478  1.00  0.00    -0.186 F 
HETATM    3  F2  UNL     1      14.903   5.116  10.538  1.00  0.00    -0.186 F 
ENDROOT
BRANCH   1   4
HETATM    4  C13 UNL     1      15.583   6.288  12.533  1.00  0.00     0.230 C 
HETATM    5  O2  UNL     1      16.682   6.584  13.055  1.00  0.00    -0.288 OA
BRANCH   4   6
HETATM    6  C4  UNL     1      14.502   7.236  12.780  1.00  0.00     0.161 C 
BRANCH   6   7
HETATM    7  C3  UNL     1      13.998   7.975  11.588  1.00  0.00     0.033 C 
BRANCH   7   8
HETATM    8  C2  UNL     1      12.577   7.801  11.223  1.00  0.00    -0.002 C 
HETATM    9  C1  UNL     1      11.514   8.195  12.166  1.00  0.00     0.005 C 
ENDBRANCH   7   8
ENDBRANCH   6   7
BRANCH   6  10
HETATM   10  N1  UNL     1      14.749   8.168  13.884  1.00  0.00    -0.349 N 
HETATM   11  C5  UNL     1      13.954   8.249  15.046  1.00  0.00     0.225 C 
HETATM   12  O1  UNL     1      12.969   7.415  15.043  1.00  0.00    -0.273 OA
ATOM     13  H1  UNL     1      15.547   8.799  13.806  1.00  0.00     0.163 HD
BRANCH  11  14
HETATM   14  C6  UNL     1      14.152   9.157  16.194  1.00  0.00     0.115 C 
HETATM   15  C7  UNL     1      12.908   9.967  16.455  1.00  0.00     0.025 C 
HETATM   16  C8  UNL     1      11.720   9.279  16.951  1.00  0.00     0.028 C 
HETATM   17  C9  UNL     1      12.563  10.699  15.181  1.00  0.00     0.028 C 
HETATM   18  S1  UNL     1      13.515  11.258  17.618  1.00  0.00    -0.087 SA
HETATM   19  S2  UNL     1      14.847   9.900  18.646  1.00  0.00    -0.087 SA
HETATM   20  C10 UNL     1      14.626   8.528  17.436  1.00  0.00     0.025 C 
HETATM   21  C11 UNL     1      13.839   7.412  18.005  1.00  0.00     0.028 C 
HETATM   22  C12 UNL     1      16.047   8.006  17.216  1.00  0.00     0.028 C 
ENDBRANCH  11  14
ENDBRANCH   6  10
ENDBRANCH   4   6
ENDBRANCH   1   4
BRANCH   1  23
HETATM   23  C15 UNL     1      14.853   3.934  12.512  1.00  0.00     0.299 C 
HETATM   24  O3  UNL     1      14.062   3.152  11.889  1.00  0.00    -0.266 OA
HETATM   25  N2  UNL     1      15.030   3.672  13.877  1.00  0.00    -0.343 N 
ATOM     26  H2  UNL     1      15.654   4.275  14.413  1.00  0.00     0.163 HD
BRANCH  25  27
HETATM   27  C16 UNL     1      14.360   2.574  14.565  1.00  0.00     0.172 C 
HETATM   28  C17 UNL     1      15.139   2.392  15.869  1.00  0.00     0.042 C 
BRANCH  27  29
HETATM   29  C18 UNL     1      12.995   2.991  14.924  1.00  0.00     0.242 C 
HETATM   30  O4  UNL     1      12.736   4.197  15.206  1.00  0.00    -0.271 OA
HETATM   31  N3  UNL     1      11.943   2.049  14.956  1.00  0.00    -0.347 N 
HETATM   32  C19 UNL     1      12.149   0.676  14.624  1.00  0.00     0.145 C 
HETATM   33  C27 UNL     1      10.580   2.454  15.344  1.00  0.00     0.145 C 
HETATM   34  C20 UNL     1      11.297   0.337  13.385  1.00  0.00     0.137 C 
HETATM   35  N4  UNL     1      10.082   1.068  13.457  1.00  0.00    -0.405 N 
HETATM   36  C26 UNL     1       9.632   1.432  14.758  1.00  0.00     0.137 C 
BRANCH  35  37
HETATM   37  C21 UNL     1       9.091   0.766  12.490  1.00  0.00     0.083 C 
HETATM   38  C22 UNL     1       7.688   0.622  13.039  1.00  0.00     0.051 C 
HETATM   39  C23 UNL     1       6.805  -0.028  12.000  1.00  0.00     0.169 C 
HETATM   40  O5  UNL     1       7.278   0.203  10.716  1.00  0.00    -0.391 OA
HETATM   41  C24 UNL     1       8.468  -0.451  10.462  1.00  0.00     0.169 C 
HETATM   42  C25 UNL     1       9.393  -0.460  11.661  1.00  0.00     0.051 C 
ENDBRANCH  35  37
ENDBRANCH  27  29
ENDBRANCH  25  27
ENDBRANCH   1  23
TORSDOF 10
ENDMDL
MODEL 2
REMARK VINA RESULT: -8.107654320      0.845      1.244
REMARK  10 active torsions:
REMARK  status: ('A' for Active; 'I' for Inactive)
REMARK    1  A    between atoms: C2_2  and  C3_3 
REMARK    2  A    between atoms: C3_3  and  C4_4 
REMARK    3  A    between atoms: C4_4  and  N1_5 
REMARK    4  A    between atoms: C4_4  and  C13_18 
REMARK       I    between atoms: N1_5  and  C5_7 
REMARK    5  A    between atoms: C5_7  and  C6_9 
REMARK    6  A    between atoms: C13_18  and  C14_20 
REMARK    7  A    between atoms: C14_20  and  C15_23 
REMARK       I    between atoms: C15_23  and  N2_25 
REMARK    8  A    between atoms: N2_25  and  C16_27 
REMARK    9  A    between atoms: C16_27  and  C18_29 
REMARK       I    between atoms: C18_29  and  N3_31 
REMARK   10  A    between atoms: N4_34  and  C21_35 
ROOT
HETATM    1  C14 UNL     1      15.401   4.840  11.792  1.00  0.00     0.383 C 
HETATM    2  F1  UNL     1      16.565   4.233  11.290  1.00  0.00    -0.186 F 
HETATM    3  F2  UNL     1      14.596   5.008  10.686  1.00  0.00    -0.186 F 
ENDROOT
BRANCH   1   4
HETATM    4  C13 UNL     1      15.738   6.050  12.537  1.00  0.00     0.230 C 
HETATM    5  O2  UNL     1      16.944   6.229  12.817  1.00  0.00    -0.288 OA
BRANCH   4   6
HETATM    6  C4  UNL     1      14.829   7.088  13.011  1.00  0.00     0.161 C 
BRANCH   6   7
HETATM    7  C3  UNL     1      14.276   7.996  11.968  1.00  0.00     0.033 C 
BRANCH   7   8
HETATM    8  C2  UNL     1      12.856   7.832  11.596  1.00  0.00    -0.002 C 
HETATM    9  C1  UNL     1      11.791   8.188  12.551  1.00  0.00     0.005 C 
ENDBRANCH   7   8
ENDBRANCH   6   7
BRANCH   6  10
HETATM   10  N1  UNL     1      15.332   7.868  14.145  1.00  0.00    -0.349 N 
HETATM   11  C5  UNL     1      15.216   7.473  15.493  1.00  0.00     0.225 C 
HETATM   12  O1  UNL     1      14.609   6.343  15.638  1.00  0.00    -0.273 OA
ATOM     13  H1  UNL     1      15.796   8.754  13.945  1.00  0.00     0.163 HD
BRANCH  11  14
HETATM   14  C6  UNL     1      15.707   8.206  16.678  1.00  0.00     0.115 C 
HETATM   15  C7  UNL     1      14.556   8.742  17.489  1.00  0.00     0.025 C 
HETATM   16  C8  UNL     1      13.695   7.794  18.189  1.00  0.00     0.028 C 
HETATM   17  C9  UNL     1      13.712   9.599  16.576  1.00  0.00     0.028 C 
HETATM   18  S1  UNL     1      15.392   9.916  18.634  1.00  0.00    -0.087 SA
HETATM   19  S2  UNL     1      17.134   8.655  18.871  1.00  0.00    -0.087 SA
HETATM   20  C10 UNL     1      16.649   7.477  17.541  1.00  0.00     0.025 C 
HETATM   21  C11 UNL     1      16.231   6.168  18.088  1.00  0.00     0.028 C 
HETATM   22  C12 UNL     1      17.949   7.244  16.770  1.00  0.00     0.028 C 
ENDBRANCH  11  14
ENDBRANCH   6  10
ENDBRANCH   4   6
ENDBRANCH   1   4
BRANCH   1  23
HETATM   23  C15 UNL     1      14.734   3.801  12.640  1.00  0.00     0.299 C 
HETATM   24  O3  UNL     1      13.937   2.967  12.098  1.00  0.00    -0.266 OA
HETATM   25  N2  UNL     1      14.920   3.665  14.023  1.00  0.00    -0.343 N 
ATOM     26  H2  UNL     1      15.549   4.313  14.497  1.00  0.00     0.163 HD
BRANCH  25  27
HETATM   27  C16 UNL     1      14.253   2.636  14.813  1.00  0.00     0.172 C 
HETATM   28  C17 UNL     1      14.937   2.686  16.181  1.00  0.00     0.042 C 
BRANCH  27  29
HETATM   29  C18 UNL     1      12.846   3.017  15.011  1.00  0.00     0.242 C 
HETATM   30  O4  UNL     1      12.519   4.223  15.209  1.00  0.00    -0.271 OA
HETATM   31  N3  UNL     1      11.828   2.038  14.981  1.00  0.00    -0.347 N 
HETATM   32  C19 UNL     1      12.112   0.661  14.735  1.00  0.00     0.145 C 
HETATM   33  C27 UNL     1      10.419   2.407  15.208  1.00  0.00     0.145 C 
HETATM   34  C20 UNL     1      11.404   0.237  13.434  1.00  0.00     0.137 C 
HETATM   35  N4  UNL     1      10.165   0.923  13.348  1.00  0.00    -0.405 N 
HETATM   36  C26 UNL     1       9.571   1.326  14.578  1.00  0.00     0.137 C 
BRANCH  35  37
HETATM   37  C21 UNL     1       9.289   0.543  12.300  1.00  0.00     0.083 C 
HETATM   38  C22 UNL     1       7.818   0.589  12.651  1.00  0.00     0.051 C 
HETATM   39  C23 UNL     1       7.027  -0.154  11.601  1.00  0.00     0.169 C 
HETATM   40  O5  UNL     1       7.687  -0.164  10.380  1.00  0.00    -0.391 OA
HETATM   41  C24 UNL     1       8.834  -0.933  10.405  1.00  0.00     0.169 C 
HETATM   42  C25 UNL     1       9.585  -0.818  11.715  1.00  0.00     0.051 C 
ENDBRANCH  35  37
ENDBRANCH  27  29
ENDBRANCH  25  27
ENDBRANCH   1  23
TORSDOF 10
ENDMDL
MODEL 3
REMARK VINA RESULT: -7.868114051      2.043      3.102
REMARK  10 active torsions:
REMARK  status: ('A' for Active; 'I' for Inactive)
REMARK    1  A    between atoms: C2_2  and  C3_3 
REMARK    2  A    between atoms: C3_3  and  C4_4 
REMARK    3  A    between atoms: C4_4  and  N1_5 
REMARK    4  A    between atoms: C4_4  and  C13_18 
REMARK       I    between atoms: N1_5  and  C5_7 
REMARK    5  A    between atoms: C5_7  and  C6_9 
REMARK    6  A    between atoms: C13_18  and  C14_20 
REMARK    7  A    between atoms: C14_20  and  C15_23 
REMARK       I    between atoms: C15_23  and  N2_25 
REMARK    8  A    between atoms: N2_25  and  C16_27 
REMARK    9  A    between atoms: C16_27  and  C18_29 
REMARK       I    between atoms: C18_29  and  N3_31 
REMARK   10  A    between atoms: N4_34  and  C21_35 
ROOT
HETATM    1  C14 UNL     1      14.927   4.212  14.026  1.00  0.00     0.383 C 
HETATM    2  F1  UNL     1      15.565   5.090  14.919  1.00  0.00    -0.186 F 
HETATM    3  F2  UNL     1      15.956   3.487  13.464  1.00  0.00    -0.186 F 
ENDROOT
BRANCH   1   4
HETATM    4  C13 UNL     1      14.078   4.955  13.099  1.00  0.00     0.230 C 
HETATM    5  O2  UNL     1      13.423   4.287  12.267  1.00  0.00    -0.288 OA
BRANCH   4   6
HETATM    6  C4  UNL     1      13.902   6.400  13.012  1.00  0.00     0.161 C 
BRANCH   6   7
HETATM    7  C3  UNL     1      15.086   7.173  12.544  1.00  0.00     0.033 C 
BRANCH   7   8
HETATM    8  C2  UNL     1      15.950   6.553  11.518  1.00  0.00    -0.002 C 
HETATM    9  C1  UNL     1      17.231   5.931  11.902  1.00  0.00     0.005 C 
ENDBRANCH   7   8
ENDBRANCH   6   7
BRANCH   6  10
HETATM   10  N1  UNL     1      13.339   7.019  14.215  1.00  0.00    -0.349 N 
HETATM   11  C5  UNL     1      12.132   7.748  14.241  1.00  0.00     0.225 C 
HETATM   12  O1  UNL     1      11.564   7.825  13.084  1.00  0.00    -0.273 OA
ATOM     13  H1  UNL     1      13.853   6.916  15.089  1.00  0.00     0.163 HD
BRANCH  11  14
HETATM   14  C6  UNL     1      11.507   8.388  15.416  1.00  0.00     0.115 C 
HETATM   15  C7  UNL     1      11.170   7.362  16.466  1.00  0.00     0.025 C 
HETATM   16  C8  UNL     1      12.263   6.696  17.166  1.00  0.00     0.028 C 
HETATM   17  C9  UNL     1      10.284   6.322  15.823  1.00  0.00     0.028 C 
HETATM   18  S1  UNL     1      10.075   8.308  17.605  1.00  0.00    -0.087 SA
HETATM   19  S2  UNL     1      11.203  10.140  17.388  1.00  0.00    -0.087 SA
HETATM   20  C10 UNL     1      12.252   9.508  16.011  1.00  0.00     0.025 C 
HETATM   21  C11 UNL     1      13.647   9.274  16.442  1.00  0.00     0.028 C 
HETATM   22  C12 UNL     1      12.281  10.668  15.015  1.00  0.00     0.028 C 
ENDBRANCH  11  14
ENDBRANCH   6  10
ENDBRANCH   4   6
ENDBRANCH   1   4
BRANCH   1  23
HETATM   23  C15 UNL     1      14.157   3.251  14.879  1.00  0.00     0.299 C 
HETATM   24  O3  UNL     1      14.785   2.360  15.540  1.00  0.00    -0.266 OA
HETATM   25  N2  UNL     1      12.762   3.252  15.015  1.00  0.00    -0.343 N 
ATOM     26  H2  UNL     1      12.222   3.948  14.502  1.00  0.00     0.163 HD
BRANCH  25  27
HETATM   27  C16 UNL     1      12.050   2.301  15.861  1.00  0.00     0.172 C 
HETATM   28  C17 UNL     1      11.968   2.977  17.231  1.00  0.00     0.042 C 
BRANCH  27  29
HETATM   29  C18 UNL     1      10.673   2.150  15.363  1.00  0.00     0.242 C 
HETATM   30  O4  UNL     1       9.884   3.138  15.320  1.00  0.00    -0.271 OA
HETATM   31  N3  UNL     1      10.207   0.893  14.918  1.00  0.00    -0.347 N 
HETATM   32  C19 UNL     1      11.044  -0.263  14.908  1.00  0.00     0.145 C 
HETATM   33  C27 UNL     1       8.820   0.727  14.446  1.00  0.00     0.145 C 
HETATM   34  C20 UNL     1      11.204  -0.742  13.452  1.00  0.00     0.137 C 
HETATM   35  N4  UNL     1       9.983  -0.516  12.764  1.00  0.00    -0.405 N 
HETATM   36  C26 UNL     1       8.799  -0.493  13.555  1.00  0.00     0.137 C 
BRANCH  35  37
HETATM   37  C21 UNL     1       9.876  -1.042  11.452  1.00  0.00     0.083 C 
HETATM   38  C22 UNL     1       8.759  -0.452  10.619  1.00  0.00     0.051 C 
HETATM   39  C23 UNL     1       8.529  -1.317   9.402  1.00  0.00     0.169 C 
HETATM   40  O5  UNL     1       9.676  -2.015   9.051  1.00  0.00    -0.391 OA
HETATM   41  C24 UNL     1      10.009  -2.987   9.975  1.00  0.00     0.169 C 
HETATM   42  C25 UNL     1       9.750  -2.546  11.401  1.00  0.00     0.051 C 
ENDBRANCH  35  37
ENDBRANCH  27  29
ENDBRANCH  25  27
ENDBRANCH   1  23
TORSDOF 10
ENDMDL
MODEL 4
REMARK VINA RESULT: -7.866416544      3.371      7.874
REMARK  10 active torsions:
REMARK  status: ('A' for Active; 'I' for Inactive)
REMARK    1  A    between atoms: C2_2  and  C3_3 
REMARK    2  A    between atoms: C3_3  and  C4_4 
REMARK    3  A    between atoms: C4_4  and  N1_5 
REMARK    4  A    between atoms: C4_4  and  C13_18 
REMARK       I    between atoms: N1_5  and  C5_7 
REMARK    5  A    between atoms: C5_7  and  C6_9 
REMARK    6  A    between atoms: C13_18  and  C14_20 
REMARK    7  A    between atoms: C14_20  and  C15_23 
REMARK       I    between atoms: C15_23  and  N2_25 
REMARK    8  A    between atoms: N2_25  and  C16_27 
REMARK    9  A    between atoms: C16_27  and  C18_29 
REMARK       I    between atoms: C18_29  and  N3_31 
REMARK   10  A    between atoms: N4_34  and  C21_35 
ROOT
HETATM    1  C14 UNL     1      14.995   4.188  11.741  1.00  0.00     0.383 C 
HETATM    2  F1  UNL     1      14.977   3.788  10.394  1.00  0.00    -0.186 F 
HETATM    3  F2  UNL     1      16.323   4.115  12.104  1.00  0.00    -0.186 F 
ENDROOT
BRANCH   1   4
HETATM    4  C13 UNL     1      14.066   3.379  12.525  1.00  0.00     0.230 C 
HETATM    5  O2  UNL     1      13.087   2.889  11.919  1.00  0.00    -0.288 OA
BRANCH   4   6
HETATM    6  C4  UNL     1      14.131   3.075  13.951  1.00  0.00     0.161 C 
BRANCH   6   7
HETATM    7  C3  UNL     1      15.493   2.843  14.506  1.00  0.00     0.033 C 
BRANCH   7   8
HETATM    8  C2  UNL     1      15.614   2.624  15.962  1.00  0.00    -0.002 C 
HETATM    9  C1  UNL     1      16.568   1.632  16.489  1.00  0.00     0.005 C 
ENDBRANCH   7   8
ENDBRANCH   6   7
BRANCH   6  10
HETATM   10  N1  UNL     1      13.219   2.016  14.391  1.00  0.00    -0.349 N 
HETATM   11  C5  UNL     1      11.981   2.247  15.024  1.00  0.00     0.225 C 
HETATM   12  O1  UNL     1      11.725   3.502  15.188  1.00  0.00    -0.273 OA
ATOM     13  H1  UNL     1      13.499   1.049  14.228  1.00  0.00     0.163 HD
BRANCH  11  14
HETATM   14  C6  UNL     1      11.015   1.229  15.483  1.00  0.00     0.115 C 
HETATM   15  C7  UNL     1      10.639   0.303  14.356  1.00  0.00     0.025 C 
HETATM   16  C8  UNL     1      11.652  -0.610  13.836  1.00  0.00     0.028 C 
HETATM   17  C9  UNL     1      10.106   1.150  13.226  1.00  0.00     0.028 C 
HETATM   18  S1  UNL     1       9.177  -0.581  15.042  1.00  0.00    -0.087 SA
HETATM   19  S2  UNL     1       9.994  -0.662  17.043  1.00  0.00    -0.087 SA
HETATM   20  C10 UNL     1      11.409   0.458  16.673  1.00  0.00     0.025 C 
HETATM   21  C11 UNL     1      12.696  -0.270  16.643  1.00  0.00     0.028 C 
HETATM   22  C12 UNL     1      11.454   1.397  17.879  1.00  0.00     0.028 C 
ENDBRANCH  11  14
ENDBRANCH   6  10
ENDBRANCH   4   6
ENDBRANCH   1   4
BRANCH   1  23
HETATM   23  C15 UNL     1      14.642   5.643  11.739  1.00  0.00     0.299 C 
HETATM   24  O3  UNL     1      15.548   6.507  11.498  1.00  0.00    -0.266 OA
HETATM   25  N2  UNL     1      13.358   6.149  11.985  1.00  0.00    -0.343 N 
ATOM     26  H2  UNL     1      12.604   5.492  12.185  1.00  0.00     0.163 HD
BRANCH  25  27
HETATM   27  C16 UNL     1      13.054   7.576  11.970  1.00  0.00     0.172 C 
HETATM   28  C17 UNL     1      12.081   7.758  10.803  1.00  0.00     0.042 C 
BRANCH  27  29
HETATM   29  C18 UNL     1      12.332   7.929  13.203  1.00  0.00     0.242 C 
HETATM   30  O4  UNL     1      11.067   7.944  13.236  1.00  0.00    -0.271 OA
HETATM   31  N3  UNL     1      13.043   8.255  14.380  1.00  0.00    -0.347 N 
HETATM   32  C19 UNL     1      14.468   8.233  14.432  1.00  0.00     0.145 C 
HETATM   33  C27 UNL     1      12.327   8.638  15.610  1.00  0.00     0.145 C 
HETATM   34  C20 UNL     1      14.907   7.172  15.460  1.00  0.00     0.137 C 
HETATM   35  N4  UNL     1      13.973   7.164  16.528  1.00  0.00    -0.405 N 
HETATM   36  C26 UNL     1      13.264   8.375  16.767  1.00  0.00     0.137 C 
BRANCH  35  37
HETATM   37  C21 UNL     1      14.292   6.367  17.656  1.00  0.00     0.083 C 
HETATM   38  C22 UNL     1      15.758   6.015  17.793  1.00  0.00     0.051 C 
HETATM   39  C23 UNL     1      15.917   4.904  18.804  1.00  0.00     0.169 C 
HETATM   40  O5  UNL     1      14.874   4.899  19.720  1.00  0.00    -0.391 OA
HETATM   41  C24 UNL     1      13.670   4.534  19.150  1.00  0.00     0.169 C 
HETATM   42  C25 UNL     1      13.497   5.087  17.751  1.00  0.00     0.051 C 
ENDBRANCH  35  37
ENDBRANCH  27  29
ENDBRANCH  25  27
ENDBRANCH   1  23
TORSDOF 10
ENDMDL
MODEL 5
REMARK VINA RESULT: -7.845850887      2.066      2.956
REMARK  10 active torsions:
REMARK  status: ('A' for Active; 'I' for Inactive)
REMARK    1  A    between atoms: C2_2  and  C3_3 
REMARK    2  A    between atoms: C3_3  and  C4_4 
REMARK    3  A    between atoms: C4_4  and  N1_5 
REMARK    4  A    between atoms: C4_4  and  C13_18 
REMARK       I    between atoms: N1_5  and  C5_7 
REMARK    5  A    between atoms: C5_7  and  C6_9 
REMARK    6  A    between atoms: C13_18  and  C14_20 
REMARK    7  A    between atoms: C14_20  and  C15_23 
REMARK       I    between atoms: C15_23  and  N2_25 
REMARK    8  A    between atoms: N2_25  and  C16_27 
REMARK    9  A    between atoms: C16_27  and  C18_29 
REMARK       I    between atoms: C18_29  and  N3_31 
REMARK   10  A    between atoms: N4_34  and  C21_35 
ROOT
HETATM    1  C14 UNL     1      14.979   2.989  14.711  1.00  0.00     0.383 C 
HETATM    2  F1  UNL     1      16.116   2.215  14.999  1.00  0.00    -0.186 F 
HETATM    3  F2  UNL     1      14.458   2.422  13.567  1.00  0.00    -0.186 F 
ENDROOT
BRANCH   1   4
HETATM    4  C13 UNL     1      15.333   4.403  14.628  1.00  0.00     0.230 C 
HETATM    5  O2  UNL     1      15.834   4.926  15.649  1.00  0.00    -0.288 OA
BRANCH   4   6
HETATM    6  C4  UNL     1      15.163   5.300  13.490  1.00  0.00     0.161 C 
BRANCH   6   7
HETATM    7  C3  UNL     1      16.301   5.358  12.530  1.00  0.00     0.033 C 
BRANCH   7   8
HETATM    8  C2  UNL     1      16.307   4.392  11.413  1.00  0.00    -0.002 C 
HETATM    9  C1  UNL     1      15.067   4.112  10.665  1.00  0.00     0.005 C 
ENDBRANCH   7   8
ENDBRANCH   6   7
BRANCH   6  10
HETATM   10  N1  UNL     1      14.729   6.655  13.841  1.00  0.00    -0.349 N 
HETATM   11  C5  UNL     1      13.451   6.974  14.342  1.00  0.00     0.225 C 
HETATM   12  O1  UNL     1      12.683   5.943  14.459  1.00  0.00    -0.273 OA
ATOM     13  H1  UNL     1      15.396   7.417  13.714  1.00  0.00     0.163 HD
BRANCH  11  14
HETATM   14  C6  UNL     1      12.955   8.313  14.722  1.00  0.00     0.115 C 
HETATM   15  C7  UNL     1      11.628   8.596  14.067  1.00  0.00     0.025 C 
HETATM   16  C8  UNL     1      10.462   7.828  14.493  1.00  0.00     0.028 C 
HETATM   17  C9  UNL     1      11.810   8.438  12.577  1.00  0.00     0.028 C 
HETATM   18  S1  UNL     1      11.425  10.404  14.350  1.00  0.00    -0.087 SA
HETATM   19  S2  UNL     1      12.312  10.332  16.321  1.00  0.00    -0.087 SA
HETATM   20  C10 UNL     1      12.886   8.588  16.165  1.00  0.00     0.025 C 
HETATM   21  C11 UNL     1      12.100   7.670  17.018  1.00  0.00     0.028 C 
HETATM   22  C12 UNL     1      14.306   8.620  16.732  1.00  0.00     0.028 C 
ENDBRANCH  11  14
ENDBRANCH   6  10
ENDBRANCH   4   6
ENDBRANCH   1   4
BRANCH   1  23
HETATM   23  C15 UNL     1      13.999   2.697  15.805  1.00  0.00     0.299 C 
HETATM   24  O3  UNL     1      14.027   1.562  16.384  1.00  0.00    -0.266 OA
HETATM   25  N2  UNL     1      13.025   3.597  16.260  1.00  0.00    -0.343 N 
ATOM     26  H2  UNL     1      12.966   4.516  15.822  1.00  0.00     0.163 HD
BRANCH  25  27
HETATM   27  C16 UNL     1      12.090   3.275  17.333  1.00  0.00     0.172 C 
HETATM   28  C17 UNL     1      12.335   4.342  18.401  1.00  0.00     0.042 C 
BRANCH  27  29
HETATM   29  C18 UNL     1      10.714   3.451  16.842  1.00  0.00     0.242 C 
HETATM   30  O4  UNL     1      10.170   4.594  16.826  1.00  0.00    -0.271 OA
HETATM   31  N3  UNL     1       9.973   2.343  16.376  1.00  0.00    -0.347 N 
HETATM   32  C19 UNL     1      10.525   1.028  16.336  1.00  0.00     0.145 C 
HETATM   33  C27 UNL     1       8.583   2.507  15.911  1.00  0.00     0.145 C 
HETATM   34  C20 UNL     1      10.568   0.556  14.869  1.00  0.00     0.137 C 
HETATM   35  N4  UNL     1       9.428   1.069  14.195  1.00  0.00    -0.405 N 
HETATM   36  C26 UNL     1       8.283   1.343  14.995  1.00  0.00     0.137 C 
BRANCH  35  37
HETATM   37  C21 UNL     1       9.201   0.609  12.874  1.00  0.00     0.083 C 
HETATM   38  C22 UNL     1       7.806   0.861  12.343  1.00  0.00     0.051 C 
HETATM   39  C23 UNL     1       7.586   0.037  11.097  1.00  0.00     0.169 C 
HETATM   40  O5  UNL     1       8.784  -0.245  10.455  1.00  0.00    -0.391 OA
HETATM   41  C24 UNL     1       9.581  -1.111  11.178  1.00  0.00     0.169 C 
HETATM   42  C25 UNL     1       9.518  -0.854  12.668  1.00  0.00     0.051 C 
ENDBRANCH  35  37
ENDBRANCH  27  29
ENDBRANCH  25  27
ENDBRANCH   1  23
TORSDOF 10
ENDMDL
