MODEL 1
REMARK VINA RESULT: -6.383245167      0.000      0.000
REMARK  7 active torsions:
REMARK  status: ('A' for Active; 'I' for Inactive)
REMARK    1  A    between atoms: C2_2  and  C3_3 
REMARK    2  A    between atoms: C3_3  and  N1_4 
REMARK    3  A    between atoms: C4_6  and  C5_7 
REMARK    4  A    between atoms: C6_8  and  O1_9 
REMARK    5  A    between atoms: N3_15  and  C9_16 
REMARK    6  A    between atoms: C9_16  and  C10_17 
REMARK    7  A    between atoms: C10_17  and  C11_18 
ROOT
HETATM    1  C5  UNL     1      16.980 -23.626 -20.526  1.00  0.00     0.098 A 
HETATM    2  C6  UNL     1      15.831 -23.325 -21.116  1.00  0.00     0.159 A 
HETATM    3  N2  UNL     1      15.422 -24.109 -22.216  1.00  0.00    -0.323 N 
ATOM      4  H2  UNL     1      14.542 -23.892 -22.681  1.00  0.00     0.169 HD
HETATM    5  C7  UNL     1      16.221 -25.212 -22.700  1.00  0.00     0.102 A 
HETATM    6  C8  UNL     1      15.806 -25.914 -23.729  1.00  0.00     0.064 C 
HETATM    7  N3  UNL     1      17.451 -25.540 -22.075  1.00  0.00    -0.300 N 
HETATM    8  C15 UNL     1      17.829 -24.726 -20.970  1.00  0.00     0.265 A 
HETATM    9  O2  UNL     1      18.925 -25.001 -20.396  1.00  0.00    -0.267 OA
ENDROOT
BRANCH   7  10
HETATM   10  C9  UNL     1      18.263 -26.619 -22.525  1.00  0.00     0.138 C 
BRANCH  10  11
HETATM   11  C10 UNL     1      19.367 -26.198 -23.472  1.00  0.00     0.060 C 
BRANCH  11  12
HETATM   12  C11 UNL     1      20.626 -26.797 -22.968  1.00  0.00    -0.040 A 
HETATM   13  C12 UNL     1      21.862 -26.193 -22.965  1.00  0.00     0.025 A 
HETATM   14  C13 UNL     1      22.771 -27.082 -22.414  1.00  0.00     0.088 A 
HETATM   15  N4  UNL     1      22.099 -28.202 -22.089  1.00  0.00    -0.375 N 
HETATM   16  C14 UNL     1      20.805 -28.043 -22.418  1.00  0.00     0.094 A 
ATOM     17  H4  UNL     1      22.504 -29.035 -21.663  1.00  0.00     0.164 HD
ENDBRANCH  11  12
ENDBRANCH  10  11
ENDBRANCH   7  10
BRANCH   1  18
HETATM   18  C4  UNL     1      17.381 -22.804 -19.396  1.00  0.00     0.104 C 
HETATM   19  N1  UNL     1      16.705 -22.727 -18.307  1.00  0.00    -0.394 N 
ATOM     20  H1  UNL     1      15.845 -23.270 -18.238  1.00  0.00     0.159 HD
BRANCH  19  21
HETATM   21  C3  UNL     1      17.089 -21.920 -17.181  1.00  0.00     0.145 C 
BRANCH  21  22
HETATM   22  C2  UNL     1      16.400 -20.608 -17.289  1.00  0.00    -0.018 C 
HETATM   23  C1  UNL     1      15.115 -20.440 -17.367  1.00  0.00     0.008 C 
ENDBRANCH  21  22
ENDBRANCH  19  21
ENDBRANCH   1  18
BRANCH   2  24
HETATM   24  O1  UNL     1      15.047 -22.249 -20.648  1.00  0.00    -0.345 OA
ATOM     25  H1  UNL     1      15.421 -21.598 -20.065  1.00  0.00     0.219 HD
ENDBRANCH   2  24
TORSDOF 7
ENDMDL
MODEL 2
REMARK VINA RESULT: -6.269872975      1.197      1.717
REMARK  7 active torsions:
REMARK  status: ('A' for Active; 'I' for Inactive)
REMARK    1  A    between atoms: C2_2  and  C3_3 
REMARK    2  A    between atoms: C3_3  and  N1_4 
REMARK    3  A    between atoms: C4_6  and  C5_7 
REMARK    4  A    between atoms: C6_8  and  O1_9 
REMARK    5  A    between atoms: N3_15  and  C9_16 
REMARK    6  A    between atoms: C9_16  and  C10_17 
REMARK    7  A    between atoms: C10_17  and  C11_18 
ROOT
HETATM    1  C5  UNL     1      17.058 -23.663 -20.623  1.00  0.00     0.098 A 
HETATM    2  C6  UNL     1      15.888 -23.365 -21.170  1.00  0.00     0.159 A 
HETATM    3  N2  UNL     1      15.444 -24.146 -22.259  1.00  0.00    -0.323 N 
ATOM      4  H2  UNL     1      14.546 -23.931 -22.692  1.00  0.00     0.169 HD
HETATM    5  C7  UNL     1      16.231 -25.242 -22.777  1.00  0.00     0.102 A 
HETATM    6  C8  UNL     1      15.784 -25.941 -23.795  1.00  0.00     0.064 C 
HETATM    7  N3  UNL     1      17.484 -25.567 -22.198  1.00  0.00    -0.300 N 
HETATM    8  C15 UNL     1      17.897 -24.756 -21.103  1.00  0.00     0.265 A 
HETATM    9  O2  UNL     1      19.014 -25.028 -20.570  1.00  0.00    -0.267 OA
ENDROOT
BRANCH   7  10
HETATM   10  C9  UNL     1      18.286 -26.638 -22.683  1.00  0.00     0.138 C 
BRANCH  10  11
HETATM   11  C10 UNL     1      19.424 -26.194 -23.577  1.00  0.00     0.060 C 
BRANCH  11  12
HETATM   12  C11 UNL     1      20.666 -26.795 -23.034  1.00  0.00    -0.040 A 
HETATM   13  C12 UNL     1      21.913 -26.216 -23.042  1.00  0.00     0.025 A 
HETATM   14  C13 UNL     1      22.798 -27.097 -22.445  1.00  0.00     0.088 A 
HETATM   15  N4  UNL     1      22.101 -28.190 -22.081  1.00  0.00    -0.375 N 
HETATM   16  C14 UNL     1      20.815 -28.021 -22.431  1.00  0.00     0.094 A 
ATOM     17  H4  UNL     1      22.486 -29.012 -21.616  1.00  0.00     0.164 HD
ENDBRANCH  11  12
ENDBRANCH  10  11
ENDBRANCH   7  10
BRANCH   1  18
HETATM   18  C4  UNL     1      17.495 -22.845 -19.504  1.00  0.00     0.104 C 
HETATM   19  N1  UNL     1      18.180 -23.306 -18.521  1.00  0.00    -0.394 N 
ATOM     20  H1  UNL     1      18.428 -24.296 -18.532  1.00  0.00     0.159 HD
BRANCH  19  21
HETATM   21  C3  UNL     1      18.620 -22.511 -17.407  1.00  0.00     0.145 C 
BRANCH  21  22
HETATM   22  C2  UNL     1      20.099 -22.621 -17.308  1.00  0.00    -0.018 C 
HETATM   23  C1  UNL     1      20.932 -22.435 -18.286  1.00  0.00     0.008 C 
ENDBRANCH  21  22
ENDBRANCH  19  21
ENDBRANCH   1  18
BRANCH   2  24
HETATM   24  O1  UNL     1      15.115 -22.296 -20.669  1.00  0.00    -0.345 OA
ATOM     25  H1  UNL     1      14.449 -21.888 -21.210  1.00  0.00     0.219 HD
ENDBRANCH   2  24
TORSDOF 7
ENDMDL
MODEL 3
REMARK VINA RESULT: -6.248599485      1.510      1.818
REMARK  7 active torsions:
REMARK  status: ('A' for Active; 'I' for Inactive)
REMARK    1  A    between atoms: C2_2  and  C3_3 
REMARK    2  A    between atoms: C3_3  and  N1_4 
REMARK    3  A    between atoms: C4_6  and  C5_7 
REMARK    4  A    between atoms: C6_8  and  O1_9 
REMARK    5  A    between atoms: N3_15  and  C9_16 
REMARK    6  A    between atoms: C9_16  and  C10_17 
REMARK    7  A    between atoms: C10_17  and  C11_18 
ROOT
HETATM    1  C5  UNL     1      15.586 -23.807 -20.545  1.00  0.00     0.098 A 
HETATM    2  C6  UNL     1      15.431 -23.185 -21.706  1.00  0.00     0.159 A 
HETATM    3  N2  UNL     1      15.904 -23.825 -22.871  1.00  0.00    -0.323 N 
ATOM      4  H2  UNL     1      15.794 -23.362 -23.773  1.00  0.00     0.169 HD
HETATM    5  C7  UNL     1      16.541 -25.122 -22.820  1.00  0.00     0.102 A 
HETATM    6  C8  UNL     1      16.971 -25.681 -23.928  1.00  0.00     0.064 C 
HETATM    7  N3  UNL     1      16.710 -25.794 -21.582  1.00  0.00    -0.300 N 
HETATM    8  C15 UNL     1      16.221 -25.115 -20.430  1.00  0.00     0.265 A 
HETATM    9  O2  UNL     1      16.362 -25.697 -19.313  1.00  0.00    -0.267 OA
ENDROOT
BRANCH   7  10
HETATM   10  C9  UNL     1      17.334 -27.070 -21.495  1.00  0.00     0.138 C 
BRANCH  10  11
HETATM   11  C10 UNL     1      18.591 -27.079 -20.650  1.00  0.00     0.060 C 
BRANCH  11  12
HETATM   12  C11 UNL     1      19.707 -26.646 -21.524  1.00  0.00    -0.040 A 
HETATM   13  C12 UNL     1      20.166 -27.312 -22.637  1.00  0.00     0.025 A 
HETATM   14  C13 UNL     1      21.215 -26.582 -23.170  1.00  0.00     0.088 A 
HETATM   15  N4  UNL     1      21.389 -25.495 -22.396  1.00  0.00    -0.375 N 
HETATM   16  C14 UNL     1      20.486 -25.521 -21.400  1.00  0.00     0.094 A 
ATOM     17  H4  UNL     1      22.091 -24.769 -22.540  1.00  0.00     0.164 HD
ENDBRANCH  11  12
ENDBRANCH  10  11
ENDBRANCH   7  10
BRANCH   1  18
HETATM   18  C4  UNL     1      15.092 -23.129 -19.358  1.00  0.00     0.104 C 
HETATM   19  N1  UNL     1      15.709 -22.153 -18.797  1.00  0.00    -0.394 N 
ATOM     20  H1  UNL     1      16.589 -21.843 -19.209  1.00  0.00     0.159 HD
BRANCH  19  21
HETATM   21  C3  UNL     1      15.234 -21.472 -17.624  1.00  0.00     0.145 C 
BRANCH  21  22
HETATM   22  C2  UNL     1      16.132 -20.319 -17.356  1.00  0.00    -0.018 C 
HETATM   23  C1  UNL     1      16.100 -19.575 -16.293  1.00  0.00     0.008 C 
ENDBRANCH  21  22
ENDBRANCH  19  21
ENDBRANCH   1  18
BRANCH   2  24
HETATM   24  O1  UNL     1      14.811 -21.920 -21.762  1.00  0.00    -0.345 OA
ATOM     25  H1  UNL     1      15.325 -21.126 -21.671  1.00  0.00     0.219 HD
ENDBRANCH   2  24
TORSDOF 7
ENDMDL
MODEL 4
REMARK VINA RESULT: -6.073037430      1.258      1.440
REMARK  7 active torsions:
REMARK  status: ('A' for Active; 'I' for Inactive)
REMARK    1  A    between atoms: C2_2  and  C3_3 
REMARK    2  A    between atoms: C3_3  and  N1_4 
REMARK    3  A    between atoms: C4_6  and  C5_7 
REMARK    4  A    between atoms: C6_8  and  O1_9 
REMARK    5  A    between atoms: N3_15  and  C9_16 
REMARK    6  A    between atoms: C9_16  and  C10_17 
REMARK    7  A    between atoms: C10_17  and  C11_18 
ROOT
HETATM    1  C5  UNL     1      16.010 -23.522 -19.959  1.00  0.00     0.098 A 
HETATM    2  C6  UNL     1      14.743 -23.790 -20.242  1.00  0.00     0.159 A 
HETATM    3  N2  UNL     1      14.463 -24.508 -21.425  1.00  0.00    -0.323 N 
ATOM      4  H2  UNL     1      13.494 -24.723 -21.659  1.00  0.00     0.169 HD
HETATM    5  C7  UNL     1      15.516 -24.947 -22.313  1.00  0.00     0.102 A 
HETATM    6  C8  UNL     1      15.212 -25.609 -23.406  1.00  0.00     0.064 C 
HETATM    7  N3  UNL     1      16.874 -24.664 -22.017  1.00  0.00    -0.300 N 
HETATM    8  C15 UNL     1      17.114 -23.938 -20.816  1.00  0.00     0.265 A 
HETATM    9  O2  UNL     1      18.321 -23.673 -20.532  1.00  0.00    -0.267 OA
ENDROOT
BRANCH   7  10
HETATM   10  C9  UNL     1      17.935 -25.079 -22.869  1.00  0.00     0.138 C 
BRANCH  10  11
HETATM   11  C10 UNL     1      18.415 -26.490 -22.604  1.00  0.00     0.060 C 
BRANCH  11  12
HETATM   12  C11 UNL     1      19.891 -26.434 -22.483  1.00  0.00    -0.040 A 
HETATM   13  C12 UNL     1      20.790 -26.520 -23.521  1.00  0.00     0.025 A 
HETATM   14  C13 UNL     1      22.066 -26.426 -22.990  1.00  0.00     0.088 A 
HETATM   15  N4  UNL     1      21.944 -26.285 -21.657  1.00  0.00    -0.375 N 
HETATM   16  C14 UNL     1      20.638 -26.288 -21.338  1.00  0.00     0.094 A 
ATOM     17  H4  UNL     1      22.715 -26.191 -20.997  1.00  0.00     0.164 HD
ENDBRANCH  11  12
ENDBRANCH  10  11
ENDBRANCH   7  10
BRANCH   1  18
HETATM   18  C4  UNL     1      16.274 -22.781 -18.736  1.00  0.00     0.104 C 
HETATM   19  N1  UNL     1      15.908 -21.564 -18.559  1.00  0.00    -0.394 N 
ATOM     20  H1  UNL     1      15.409 -21.098 -19.317  1.00  0.00     0.159 HD
BRANCH  19  21
HETATM   21  C3  UNL     1      16.161 -20.817 -17.356  1.00  0.00     0.145 C 
BRANCH  21  22
HETATM   22  C2  UNL     1      15.093 -19.795 -17.206  1.00  0.00    -0.018 C 
HETATM   23  C1  UNL     1      15.079 -18.850 -16.316  1.00  0.00     0.008 C 
ENDBRANCH  21  22
ENDBRANCH  19  21
ENDBRANCH   1  18
BRANCH   2  24
HETATM   24  O1  UNL     1      13.711 -23.365 -19.379  1.00  0.00    -0.345 OA
ATOM     25  H1  UNL     1      13.193 -24.000 -18.898  1.00  0.00     0.219 HD
ENDBRANCH   2  24
TORSDOF 7
ENDMDL
MODEL 5
REMARK VINA RESULT: -5.957977748      2.014      5.840
REMARK  7 active torsions:
REMARK  status: ('A' for Active; 'I' for Inactive)
REMARK    1  A    between atoms: C2_2  and  C3_3 
REMARK    2  A    between atoms: C3_3  and  N1_4 
REMARK    3  A    between atoms: C4_6  and  C5_7 
REMARK    4  A    between atoms: C6_8  and  O1_9 
REMARK    5  A    between atoms: N3_15  and  C9_16 
REMARK    6  A    between atoms: C9_16  and  C10_17 
REMARK    7  A    between atoms: C10_17  and  C11_18 
ROOT
HETATM    1  C5  UNL     1      17.362 -25.562 -22.435  1.00  0.00     0.098 A 
HETATM    2  C6  UNL     1      16.310 -25.188 -23.151  1.00  0.00     0.159 A 
HETATM    3  N2  UNL     1      15.247 -24.542 -22.485  1.00  0.00    -0.323 N 
ATOM      4  H2  UNL     1      14.431 -24.247 -23.020  1.00  0.00     0.169 HD
HETATM    5  C7  UNL     1      15.286 -24.287 -21.063  1.00  0.00     0.102 A 
HETATM    6  C8  UNL     1      14.274 -23.686 -20.480  1.00  0.00     0.064 C 
HETATM    7  N3  UNL     1      16.407 -24.685 -20.289  1.00  0.00    -0.300 N 
HETATM    8  C15 UNL     1      17.457 -25.334 -20.997  1.00  0.00     0.265 A 
HETATM    9  O2  UNL     1      18.469 -25.698 -20.326  1.00  0.00    -0.267 OA
ENDROOT
BRANCH   7  10
HETATM   10  C9  UNL     1      16.478 -24.452 -18.887  1.00  0.00     0.138 C 
BRANCH  10  11
HETATM   11  C10 UNL     1      16.792 -23.016 -18.522  1.00  0.00     0.060 C 
BRANCH  11  12
HETATM   12  C11 UNL     1      18.265 -22.863 -18.586  1.00  0.00    -0.040 A 
HETATM   13  C12 UNL     1      19.164 -23.303 -17.642  1.00  0.00     0.025 A 
HETATM   14  C13 UNL     1      20.437 -22.965 -18.073  1.00  0.00     0.088 A 
HETATM   15  N4  UNL     1      20.311 -22.332 -19.254  1.00  0.00    -0.375 N 
HETATM   16  C14 UNL     1      19.008 -22.264 -19.575  1.00  0.00     0.094 A 
ATOM     17  H4  UNL     1      21.080 -21.964 -19.815  1.00  0.00     0.164 HD
ENDBRANCH  11  12
ENDBRANCH  10  11
ENDBRANCH   7  10
BRANCH   1  18
HETATM   18  C4  UNL     1      18.444 -26.227 -23.142  1.00  0.00     0.104 C 
HETATM   19  N1  UNL     1      19.668 -25.848 -23.070  1.00  0.00    -0.394 N 
ATOM     20  H1  UNL     1      19.886 -25.040 -22.486  1.00  0.00     0.159 HD
BRANCH  19  21
HETATM   21  C3  UNL     1      20.750 -26.494 -23.762  1.00  0.00     0.145 C 
BRANCH  21  22
HETATM   22  C2  UNL     1      21.998 -26.282 -22.983  1.00  0.00    -0.018 C 
HETATM   23  C1  UNL     1      22.590 -27.180 -22.258  1.00  0.00     0.008 C 
ENDBRANCH  21  22
ENDBRANCH  19  21
ENDBRANCH   1  18
BRANCH   2  24
HETATM   24  O1  UNL     1      16.267 -25.433 -24.540  1.00  0.00    -0.345 OA
ATOM     25  H1  UNL     1      15.480 -25.247 -25.038  1.00  0.00     0.219 HD
ENDBRANCH   2  24
TORSDOF 7
ENDMDL
