MODEL 1
REMARK VINA RESULT: -3.431533900      0.000      0.000
REMARK  0 active torsions:
REMARK  status: ('A' for Active; 'I' for Inactive)
ROOT
HETATM    1  C1  UNL     1     -18.450 -49.783 -36.934  1.00  0.00     0.040 C 
HETATM    2  C2  UNL     1     -17.722 -50.018 -35.668  1.00  0.00     0.183 C 
HETATM    3  C3  UNL     1     -16.229 -50.166 -35.824  1.00  0.00     0.035 C 
HETATM    4  C4  UNL     1     -15.864 -50.799 -34.477  1.00  0.00     0.047 C 
HETATM    5  C5  UNL     1     -17.192 -51.203 -33.853  1.00  0.00     0.258 C 
HETATM    6  S1  UNL     1     -17.046 -52.753 -32.979  1.00  0.00    -0.062 SA
HETATM    7  N1  UNL     1     -18.059 -51.305 -35.040  1.00  0.00    -0.058 N 
ATOM      8  H11 UNL     1     -17.941 -52.137 -35.617  1.00  0.00     0.279 HD
ATOM      9  H12 UNL     1     -19.049 -51.480 -34.865  1.00  0.00     0.279 HD
ENDROOT
TORSDOF 0
ENDMDL
MODEL 2
REMARK VINA RESULT: -3.427535359      2.518      3.559
REMARK  0 active torsions:
REMARK  status: ('A' for Active; 'I' for Inactive)
ROOT
HETATM    1  C1  UNL     1     -15.791 -50.383 -34.806  1.00  0.00     0.040 C 
HETATM    2  C2  UNL     1     -16.538 -50.268 -36.078  1.00  0.00     0.183 C 
HETATM    3  C3  UNL     1     -17.941 -49.735 -35.933  1.00  0.00     0.035 C 
HETATM    4  C4  UNL     1     -18.540 -50.138 -37.285  1.00  0.00     0.047 C 
HETATM    5  C5  UNL     1     -17.525 -51.090 -37.902  1.00  0.00     0.258 C 
HETATM    6  S1  UNL     1     -18.340 -52.412 -38.784  1.00  0.00    -0.062 SA
HETATM    7  N1  UNL     1     -16.805 -51.570 -36.710  1.00  0.00    -0.058 N 
ATOM      8  H11 UNL     1     -17.285 -52.263 -36.137  1.00  0.00     0.279 HD
ATOM      9  H12 UNL     1     -15.995 -52.167 -36.878  1.00  0.00     0.279 HD
ENDROOT
TORSDOF 0
ENDMDL
MODEL 3
REMARK VINA RESULT: -3.422410608      2.107      3.152
REMARK  0 active torsions:
REMARK  status: ('A' for Active; 'I' for Inactive)
ROOT
HETATM    1  C1  UNL     1     -16.343 -52.268 -32.818  1.00  0.00     0.040 C 
HETATM    2  C2  UNL     1     -16.345 -51.761 -34.208  1.00  0.00     0.183 C 
HETATM    3  C3  UNL     1     -15.555 -50.493 -34.412  1.00  0.00     0.035 C 
HETATM    4  C4  UNL     1     -16.099 -50.033 -35.770  1.00  0.00     0.047 C 
HETATM    5  C5  UNL     1     -17.318 -50.909 -36.027  1.00  0.00     0.258 C 
HETATM    6  S1  UNL     1     -18.619 -49.978 -36.820  1.00  0.00    -0.062 SA
HETATM    7  N1  UNL     1     -17.677 -51.327 -34.661  1.00  0.00    -0.058 N 
ATOM      8  H11 UNL     1     -18.150 -50.632 -34.083  1.00  0.00     0.279 HD
ATOM      9  H12 UNL     1     -18.430 -52.011 -34.579  1.00  0.00     0.279 HD
ENDROOT
TORSDOF 0
ENDMDL
MODEL 4
REMARK VINA RESULT: -3.339780352      2.312      3.204
REMARK  0 active torsions:
REMARK  status: ('A' for Active; 'I' for Inactive)
ROOT
HETATM    1  C1  UNL     1     -15.505 -50.792 -34.006  1.00  0.00     0.040 C 
HETATM    2  C2  UNL     1     -15.882 -51.027 -35.417  1.00  0.00     0.183 C 
HETATM    3  C3  UNL     1     -16.940 -50.092 -35.945  1.00  0.00     0.035 C 
HETATM    4  C4  UNL     1     -17.384 -50.846 -37.204  1.00  0.00     0.047 C 
HETATM    5  C5  UNL     1     -16.757 -52.227 -37.083  1.00  0.00     0.258 C 
HETATM    6  S1  UNL     1     -17.862 -53.489 -37.695  1.00  0.00    -0.062 SA
HETATM    7  N1  UNL     1     -16.538 -52.328 -35.630  1.00  0.00    -0.058 N 
ATOM      8  H11 UNL     1     -17.360 -52.520 -35.059  1.00  0.00     0.279 HD
ATOM      9  H12 UNL     1     -16.031 -53.151 -35.302  1.00  0.00     0.279 HD
ENDROOT
TORSDOF 0
ENDMDL
MODEL 5
REMARK VINA RESULT: -3.329219866      1.913      2.807
REMARK  0 active torsions:
REMARK  status: ('A' for Active; 'I' for Inactive)
ROOT
HETATM    1  C1  UNL     1     -15.555 -50.528 -34.398  1.00  0.00     0.040 C 
HETATM    2  C2  UNL     1     -16.849 -50.778 -35.071  1.00  0.00     0.183 C 
HETATM    3  C3  UNL     1     -17.306 -49.665 -35.980  1.00  0.00     0.035 C 
HETATM    4  C4  UNL     1     -18.785 -50.029 -36.152  1.00  0.00     0.047 C 
HETATM    5  C5  UNL     1     -19.056 -51.103 -35.109  1.00  0.00     0.258 C 
HETATM    6  S1  UNL     1     -20.682 -50.910 -34.397  1.00  0.00    -0.062 SA
HETATM    7  N1  UNL     1     -17.982 -50.848 -34.134  1.00  0.00    -0.058 N 
ATOM      8  H11 UNL     1     -18.110 -50.047 -33.516  1.00  0.00     0.279 HD
ATOM      9  H12 UNL     1     -17.896 -51.515 -33.367  1.00  0.00     0.279 HD
ENDROOT
TORSDOF 0
ENDMDL
