MODEL 1
REMARK VINA RESULT: -8.906814979      0.000      0.000
REMARK  2 active torsions:
REMARK  status: ('A' for Active; 'I' for Inactive)
REMARK    1  A    between atoms: C13_13  and  O1_14 
REMARK    2  A    between atoms: O1_14  and  S1_15 
ROOT
HETATM    1  C1  UNL     1      17.361  -6.898  -7.425  1.00  0.00     0.015 C 
HETATM    2  C2  UNL     1      16.139  -7.745  -7.256  1.00  0.00    -0.040 C 
HETATM    3  C3  UNL     1      16.456  -8.783  -6.205  1.00  0.00     0.009 C 
HETATM    4  C4  UNL     1      16.121  -8.210  -4.871  1.00  0.00     0.001 C 
HETATM    5  C5  UNL     1      16.243  -6.711  -4.774  1.00  0.00     0.000 C 
HETATM    6  C6  UNL     1      15.305  -6.001  -5.756  1.00  0.00     0.006 C 
HETATM    7  C7  UNL     1      14.927  -7.012  -6.753  1.00  0.00    -0.002 C 
HETATM    8  C8  UNL     1      14.186  -6.607  -7.954  1.00  0.00    -0.005 C 
HETATM    9  C9  UNL     1      14.784  -5.591  -8.839  1.00  0.00     0.006 C 
HETATM   10  C10 UNL     1      13.841  -5.393 -10.004  1.00  0.00     0.006 C 
HETATM   11  C11 UNL     1      13.576  -6.637 -10.780  1.00  0.00    -0.004 C 
HETATM   12  C12 UNL     1      12.229  -6.388 -11.464  1.00  0.00     0.039 C 
HETATM   13  C13 UNL     1      11.719  -7.594 -12.190  1.00  0.00     0.145 C 
HETATM   14  C14 UNL     1      11.699  -8.825 -11.310  1.00  0.00     0.034 C 
HETATM   15  C15 UNL     1      12.187  -8.427  -9.956  1.00  0.00     0.012 C 
HETATM   16  C16 UNL     1      13.640  -7.914 -10.052  1.00  0.00    -0.036 C 
HETATM   17  C17 UNL     1      14.315  -8.985 -10.923  1.00  0.00     0.016 C 
HETATM   18  C18 UNL     1      14.199  -7.946  -8.709  1.00  0.00    -0.001 C 
HETATM   19  C19 UNL     1      15.640  -8.341  -8.556  1.00  0.00     0.015 C 
ENDROOT
BRANCH  13  20
HETATM   20  O1  UNL     1      10.397  -7.337 -12.549  1.00  0.00    -0.252 OA
BRANCH  20  21
HETATM   21  S1  UNL     1      10.011  -7.937 -14.058  1.00  0.00     0.251 S 
HETATM   22  O2  UNL     1      10.741  -9.211 -14.378  1.00  0.00    -0.572 OA
HETATM   23  O3  UNL     1       8.543  -8.270 -14.047  1.00  0.00    -0.572 OA
HETATM   24  O4  UNL     1      10.244  -6.782 -15.257  1.00  0.00    -0.572 OA
ENDBRANCH  20  21
ENDBRANCH  13  20
TORSDOF 2
ENDMDL
MODEL 2
REMARK VINA RESULT: -6.927073634      3.944      4.861
REMARK  2 active torsions:
REMARK  status: ('A' for Active; 'I' for Inactive)
REMARK    1  A    between atoms: C13_13  and  O1_14 
REMARK    2  A    between atoms: O1_14  and  S1_15 
ROOT
HETATM    1  C1  UNL     1      16.280  -6.697  -4.164  1.00  0.00     0.015 C 
HETATM    2  C2  UNL     1      14.977  -6.716  -4.900  1.00  0.00    -0.040 C 
HETATM    3  C3  UNL     1      14.152  -7.840  -4.317  1.00  0.00     0.009 C 
HETATM    4  C4  UNL     1      13.378  -7.297  -3.165  1.00  0.00     0.001 C 
HETATM    5  C5  UNL     1      14.031  -6.145  -2.447  1.00  0.00     0.000 C 
HETATM    6  C6  UNL     1      14.247  -4.946  -3.377  1.00  0.00     0.006 C 
HETATM    7  C7  UNL     1      14.144  -5.475  -4.744  1.00  0.00    -0.002 C 
HETATM    8  C8  UNL     1      14.498  -4.619  -5.883  1.00  0.00    -0.005 C 
HETATM    9  C9  UNL     1      15.855  -4.045  -5.935  1.00  0.00     0.006 C 
HETATM   10  C10 UNL     1      15.961  -3.247  -7.215  1.00  0.00     0.006 C 
HETATM   11  C11 UNL     1      15.711  -4.051  -8.445  1.00  0.00    -0.004 C 
HETATM   12  C12 UNL     1      15.276  -3.026  -9.496  1.00  0.00     0.039 C 
HETATM   13  C13 UNL     1      14.843  -3.664 -10.779  1.00  0.00     0.145 C 
HETATM   14  C14 UNL     1      13.802  -4.740 -10.559  1.00  0.00     0.034 C 
HETATM   15  C15 UNL     1      13.517  -4.807  -9.095  1.00  0.00     0.012 C 
HETATM   16  C16 UNL     1      14.799  -5.199  -8.328  1.00  0.00    -0.036 C 
HETATM   17  C17 UNL     1      15.331  -6.383  -9.151  1.00  0.00     0.016 C 
HETATM   18  C18 UNL     1      14.390  -5.659  -7.009  1.00  0.00    -0.001 C 
HETATM   19  C19 UNL     1      15.140  -6.809  -6.403  1.00  0.00     0.015 C 
ENDROOT
BRANCH  13  20
HETATM   20  O1  UNL     1      14.238  -2.675 -11.554  1.00  0.00    -0.252 OA
BRANCH  20  21
HETATM   21  S1  UNL     1      15.224  -2.129 -12.785  1.00  0.00     0.251 S 
HETATM   22  O2  UNL     1      16.629  -2.649 -12.675  1.00  0.00    -0.572 OA
HETATM   23  O3  UNL     1      14.665  -2.660 -14.078  1.00  0.00    -0.572 OA
HETATM   24  O4  UNL     1      15.201  -0.451 -12.892  1.00  0.00    -0.572 OA
ENDBRANCH  20  21
ENDBRANCH  13  20
TORSDOF 2
ENDMDL
MODEL 3
REMARK VINA RESULT: -6.803023769      6.222      8.276
REMARK  2 active torsions:
REMARK  status: ('A' for Active; 'I' for Inactive)
REMARK    1  A    between atoms: C13_13  and  O1_14 
REMARK    2  A    between atoms: O1_14  and  S1_15 
ROOT
HETATM    1  C1  UNL     1      14.810  -6.714 -11.275  1.00  0.00     0.015 C 
HETATM    2  C2  UNL     1      13.816  -6.741 -10.157  1.00  0.00    -0.040 C 
HETATM    3  C3  UNL     1      12.448  -6.902 -10.779  1.00  0.00     0.009 C 
HETATM    4  C4  UNL     1      12.173  -8.359 -10.924  1.00  0.00     0.001 C 
HETATM    5  C5  UNL     1      13.395  -9.221 -11.112  1.00  0.00     0.000 C 
HETATM    6  C6  UNL     1      14.351  -9.116  -9.919  1.00  0.00     0.006 C 
HETATM    7  C7  UNL     1      13.968  -7.892  -9.203  1.00  0.00    -0.002 C 
HETATM    8  C8  UNL     1      14.816  -7.391  -8.115  1.00  0.00    -0.005 C 
HETATM    9  C9  UNL     1      16.226  -7.079  -8.409  1.00  0.00     0.006 C 
HETATM   10  C10 UNL     1      16.850  -6.552  -7.137  1.00  0.00     0.006 C 
HETATM   11  C11 UNL     1      16.173  -5.340  -6.595  1.00  0.00    -0.004 C 
HETATM   12  C12 UNL     1      16.522  -5.336  -5.104  1.00  0.00     0.039 C 
HETATM   13  C13 UNL     1      15.813  -4.255  -4.349  1.00  0.00     0.145 C 
HETATM   14  C14 UNL     1      14.319  -4.276  -4.591  1.00  0.00     0.034 C 
HETATM   15  C15 UNL     1      14.021  -5.411  -5.513  1.00  0.00     0.012 C 
HETATM   16  C16 UNL     1      14.735  -5.191  -6.865  1.00  0.00    -0.036 C 
HETATM   17  C17 UNL     1      14.406  -3.724  -7.181  1.00  0.00     0.016 C 
HETATM   18  C18 UNL     1      14.095  -6.062  -7.839  1.00  0.00    -0.001 C 
HETATM   19  C19 UNL     1      13.918  -5.542  -9.236  1.00  0.00     0.015 C 
ENDROOT
BRANCH  13  20
HETATM   20  O1  UNL     1      16.001  -4.502  -2.990  1.00  0.00    -0.252 OA
BRANCH  20  21
HETATM   21  S1  UNL     1      16.162  -3.102  -2.097  1.00  0.00     0.251 S 
HETATM   22  O2  UNL     1      17.220  -3.211  -1.035  1.00  0.00    -0.572 OA
HETATM   23  O3  UNL     1      16.606  -2.015  -3.040  1.00  0.00    -0.572 OA
HETATM   24  O4  UNL     1      14.691  -2.616  -1.444  1.00  0.00    -0.572 OA
ENDBRANCH  20  21
ENDBRANCH  13  20
TORSDOF 2
ENDMDL
MODEL 4
REMARK VINA RESULT: -6.777903126      1.895      3.670
REMARK  2 active torsions:
REMARK  status: ('A' for Active; 'I' for Inactive)
REMARK    1  A    between atoms: C13_13  and  O1_14 
REMARK    2  A    between atoms: O1_14  and  S1_15 
ROOT
HETATM    1  C1  UNL     1      17.397  -6.591  -4.395  1.00  0.00     0.015 C 
HETATM    2  C2  UNL     1      17.582  -5.665  -5.556  1.00  0.00    -0.040 C 
HETATM    3  C3  UNL     1      18.507  -4.559  -5.102  1.00  0.00     0.009 C 
HETATM    4  C4  UNL     1      19.910  -4.994  -5.353  1.00  0.00     0.001 C 
HETATM    5  C5  UNL     1      20.133  -6.483  -5.298  1.00  0.00     0.000 C 
HETATM    6  C6  UNL     1      19.296  -7.222  -6.348  1.00  0.00     0.006 C 
HETATM    7  C7  UNL     1      18.244  -6.282  -6.757  1.00  0.00    -0.002 C 
HETATM    8  C8  UNL     1      17.146  -6.747  -7.613  1.00  0.00    -0.005 C 
HETATM    9  C9  UNL     1      16.314  -7.868  -7.142  1.00  0.00     0.006 C 
HETATM   10  C10 UNL     1      15.248  -8.114  -8.186  1.00  0.00     0.006 C 
HETATM   11  C11 UNL     1      14.385  -6.928  -8.453  1.00  0.00    -0.004 C 
HETATM   12  C12 UNL     1      13.834  -7.159  -9.863  1.00  0.00     0.039 C 
HETATM   13  C13 UNL     1      13.043  -5.995 -10.371  1.00  0.00     0.145 C 
HETATM   14  C14 UNL     1      13.806  -4.693 -10.257  1.00  0.00     0.034 C 
HETATM   15  C15 UNL     1      15.148  -4.999  -9.679  1.00  0.00     0.012 C 
HETATM   16  C16 UNL     1      14.987  -5.599  -8.266  1.00  0.00    -0.036 C 
HETATM   17  C17 UNL     1      13.972  -4.647  -7.613  1.00  0.00     0.016 C 
HETATM   18  C18 UNL     1      16.274  -5.482  -7.597  1.00  0.00    -0.001 C 
HETATM   19  C19 UNL     1      16.277  -5.157  -6.131  1.00  0.00     0.015 C 
ENDROOT
BRANCH  13  20
HETATM   20  O1  UNL     1      12.813  -6.206 -11.729  1.00  0.00    -0.252 OA
BRANCH  20  21
HETATM   21  S1  UNL     1      11.191  -6.365 -12.091  1.00  0.00     0.251 S 
HETATM   22  O2  UNL     1      10.608  -7.653 -11.584  1.00  0.00    -0.572 OA
HETATM   23  O3  UNL     1      10.462  -5.252 -11.386  1.00  0.00    -0.572 OA
HETATM   24  O4  UNL     1      10.907  -6.172 -13.737  1.00  0.00    -0.572 OA
ENDBRANCH  20  21
ENDBRANCH  13  20
TORSDOF 2
ENDMDL
MODEL 5
REMARK VINA RESULT: -6.735635103      6.110      8.110
REMARK  2 active torsions:
REMARK  status: ('A' for Active; 'I' for Inactive)
REMARK    1  A    between atoms: C13_13  and  O1_14 
REMARK    2  A    between atoms: O1_14  and  S1_15 
ROOT
HETATM    1  C1  UNL     1      14.822  -6.781 -11.400  1.00  0.00     0.015 C 
HETATM    2  C2  UNL     1      13.757  -6.665 -10.355  1.00  0.00    -0.040 C 
HETATM    3  C3  UNL     1      12.430  -6.880 -11.046  1.00  0.00     0.009 C 
HETATM    4  C4  UNL     1      12.136  -8.341 -11.041  1.00  0.00     0.001 C 
HETATM    5  C5  UNL     1      13.350  -9.233 -11.046  1.00  0.00     0.000 C 
HETATM    6  C6  UNL     1      14.228  -9.004  -9.811  1.00  0.00     0.006 C 
HETATM    7  C7  UNL     1      13.823  -7.700  -9.268  1.00  0.00    -0.002 C 
HETATM    8  C8  UNL     1      14.608  -7.087  -8.190  1.00  0.00    -0.005 C 
HETATM    9  C9  UNL     1      16.041  -6.829  -8.423  1.00  0.00     0.006 C 
HETATM   10  C10 UNL     1      16.591  -6.166  -7.180  1.00  0.00     0.006 C 
HETATM   11  C11 UNL     1      15.904  -4.891  -6.827  1.00  0.00    -0.004 C 
HETATM   12  C12 UNL     1      16.155  -4.718  -5.327  1.00  0.00     0.039 C 
HETATM   13  C13 UNL     1      15.419  -3.549  -4.749  1.00  0.00     0.145 C 
HETATM   14  C14 UNL     1      13.944  -3.579  -5.088  1.00  0.00     0.034 C 
HETATM   15  C15 UNL     1      13.685  -4.810  -5.892  1.00  0.00     0.012 C 
HETATM   16  C16 UNL     1      14.490  -4.756  -7.208  1.00  0.00    -0.036 C 
HETATM   17  C17 UNL     1      14.212  -3.331  -7.712  1.00  0.00     0.016 C 
HETATM   18  C18 UNL     1      13.897  -5.726  -8.117  1.00  0.00    -0.001 C 
HETATM   19  C19 UNL     1      13.823  -5.369  -9.574  1.00  0.00     0.015 C 
ENDROOT
BRANCH  13  20
HETATM   20  O1  UNL     1      15.514  -3.640  -3.362  1.00  0.00    -0.252 OA
BRANCH  20  21
HETATM   21  S1  UNL     1      15.279  -2.172  -2.603  1.00  0.00     0.251 S 
HETATM   22  O2  UNL     1      13.891  -2.024  -2.046  1.00  0.00    -0.572 OA
HETATM   23  O3  UNL     1      16.224  -2.115  -1.433  1.00  0.00    -0.572 OA
HETATM   24  O4  UNL     1      15.670  -0.887  -3.614  1.00  0.00    -0.572 OA
ENDBRANCH  20  21
ENDBRANCH  13  20
TORSDOF 2
ENDMDL
