MODEL 1
REMARK VINA RESULT: -7.993168089      0.000      0.000
REMARK  12 active torsions:
REMARK  status: ('A' for Active; 'I' for Inactive)
REMARK    1  A    between atoms: C2_2  and  C3_3 
REMARK    2  A    between atoms: C2_2  and  C4_8 
REMARK    3  A    between atoms: C3_3  and  O1_4 
REMARK    4  A    between atoms: C3_3  and  O2_6 
REMARK    5  A    between atoms: C4_8  and  O3_9 
REMARK    6  A    between atoms: C4_8  and  C5_11 
REMARK    7  A    between atoms: C4_8  and  N2_21 
REMARK    8  A    between atoms: C6_12  and  C7_13 
REMARK    9  A    between atoms: C10_16  and  C11_17 
REMARK       I    between atoms: N2_21  and  C12_23 
REMARK   10  A    between atoms: C12_23  and  C13_25 
REMARK   11  A    between atoms: C13_25  and  O6_27 
REMARK   12  A    between atoms: O6_27  and  C15_28 
ROOT
HETATM    1  C4  UNL     1     -34.620 -45.954  11.820  1.00  0.00     0.182 C 
ENDROOT
BRANCH   1   2
HETATM    2  C2  UNL     1     -34.020 -44.969  10.896  1.00  0.00     0.023 C 
HETATM    3  C1  UNL     1     -34.786 -44.342  10.022  1.00  0.00     0.025 C 
BRANCH   2   4
HETATM    4  C3  UNL     1     -32.561 -44.693  10.962  1.00  0.00     0.288 C 
BRANCH   4   5
HETATM    5  O1  UNL     1     -32.200 -44.080  12.157  1.00  0.00    -0.367 OA
ATOM      6  H1  UNL     1     -32.067 -43.146  12.051  1.00  0.00     0.213 HD
ENDBRANCH   4   5
BRANCH   4   7
HETATM    7  O2  UNL     1     -31.807 -45.856  10.818  1.00  0.00    -0.367 OA
ATOM      8  H2  UNL     1     -32.127 -46.398  10.107  1.00  0.00     0.213 HD
ENDBRANCH   4   7
ENDBRANCH   2   4
ENDBRANCH   1   2
BRANCH   1   9
HETATM    9  O3  UNL     1     -33.674 -46.498  12.690  1.00  0.00    -0.363 OA
ATOM     10  H3  UNL     1     -34.045 -46.690  13.543  1.00  0.00     0.213 HD
ENDBRANCH   1   9
BRANCH   1  11
HETATM   11  C5  UNL     1     -35.637 -45.277  12.646  1.00  0.00     0.041 C 
HETATM   12  C6  UNL     1     -36.817 -45.819  12.879  1.00  0.00     0.030 C 
BRANCH  12  13
HETATM   13  C7  UNL     1     -37.770 -45.089  13.705  1.00  0.00     0.032 A 
HETATM   14  C8  UNL     1     -38.802 -44.278  13.310  1.00  0.00     0.032 A 
HETATM   15  C9  UNL     1     -39.424 -43.812  14.460  1.00  0.00     0.035 A 
HETATM   16  C10 UNL     1     -38.768 -44.343  15.547  1.00  0.00     0.070 A 
HETATM   17  N1  UNL     1     -37.787 -45.099  15.054  1.00  0.00    -0.354 N 
ATOM     18  H1  UNL     1     -37.127 -45.623  15.630  1.00  0.00     0.166 HD
BRANCH  16  19
HETATM   19  C11 UNL     1     -39.093 -44.113  16.967  1.00  0.00     0.288 C 
HETATM   20  O4  UNL     1     -40.165 -43.554  17.265  1.00  0.00    -0.300 OA
ENDBRANCH  16  19
ENDBRANCH  12  13
ENDBRANCH   1  11
BRANCH   1  21
HETATM   21  N2  UNL     1     -35.262 -47.050  11.098  1.00  0.00    -0.320 N 
HETATM   22  C12 UNL     1     -34.552 -48.079  10.453  1.00  0.00     0.249 C 
HETATM   23  O5  UNL     1     -33.304 -48.080  10.485  1.00  0.00    -0.271 OA
ATOM     24  H2  UNL     1     -36.281 -47.069  11.060  1.00  0.00     0.166 HD
BRANCH  22  25
HETATM   25  C13 UNL     1     -35.278 -49.145   9.746  1.00  0.00     0.219 C 
HETATM   26  C14 UNL     1     -35.330 -50.334  10.701  1.00  0.00     0.050 C 
BRANCH  25  27
HETATM   27  O6  UNL     1     -36.587 -48.805   9.418  1.00  0.00    -0.307 OA
BRANCH  27  28
HETATM   28  C15 UNL     1     -37.229 -49.481   8.396  1.00  0.00     0.255 C 
HETATM   29  C16 UNL     1     -37.201 -49.011   6.986  1.00  0.00     0.126 C 
HETATM   30  O7  UNL     1     -37.879 -50.551   8.635  1.00  0.00    -0.266 OA
ENDBRANCH  27  28
ENDBRANCH  25  27
ENDBRANCH  22  25
ENDBRANCH   1  21
TORSDOF 12
ENDMDL
MODEL 2
REMARK VINA RESULT: -6.876189744      1.131      1.519
REMARK  12 active torsions:
REMARK  status: ('A' for Active; 'I' for Inactive)
REMARK    1  A    between atoms: C2_2  and  C3_3 
REMARK    2  A    between atoms: C2_2  and  C4_8 
REMARK    3  A    between atoms: C3_3  and  O1_4 
REMARK    4  A    between atoms: C3_3  and  O2_6 
REMARK    5  A    between atoms: C4_8  and  O3_9 
REMARK    6  A    between atoms: C4_8  and  C5_11 
REMARK    7  A    between atoms: C4_8  and  N2_21 
REMARK    8  A    between atoms: C6_12  and  C7_13 
REMARK    9  A    between atoms: C10_16  and  C11_17 
REMARK       I    between atoms: N2_21  and  C12_23 
REMARK   10  A    between atoms: C12_23  and  C13_25 
REMARK   11  A    between atoms: C13_25  and  O6_27 
REMARK   12  A    between atoms: O6_27  and  C15_28 
ROOT
HETATM    1  C4  UNL     1     -35.069 -46.067  11.688  1.00  0.00     0.182 C 
ENDROOT
BRANCH   1   2
HETATM    2  C2  UNL     1     -34.385 -45.008  10.916  1.00  0.00     0.023 C 
HETATM    3  C1  UNL     1     -35.101 -44.134  10.232  1.00  0.00     0.025 C 
BRANCH   2   4
HETATM    4  C3  UNL     1     -32.901 -44.937  10.920  1.00  0.00     0.288 C 
BRANCH   4   5
HETATM    5  O1  UNL     1     -32.393 -44.726  12.197  1.00  0.00    -0.367 OA
ATOM      6  H1  UNL     1     -31.688 -44.089  12.198  1.00  0.00     0.213 HD
ENDBRANCH   4   5
BRANCH   4   7
HETATM    7  O2  UNL     1     -32.326 -46.096  10.403  1.00  0.00    -0.367 OA
ATOM      8  H2  UNL     1     -31.408 -45.972  10.194  1.00  0.00     0.213 HD
ENDBRANCH   4   7
ENDBRANCH   2   4
ENDBRANCH   1   2
BRANCH   1   9
HETATM    9  O3  UNL     1     -34.162 -46.922  12.317  1.00  0.00    -0.363 OA
ATOM     10  H3  UNL     1     -33.310 -46.517  12.426  1.00  0.00     0.213 HD
ENDBRANCH   1   9
BRANCH   1  11
HETATM   11  C5  UNL     1     -35.883 -45.438  12.746  1.00  0.00     0.041 C 
HETATM   12  C6  UNL     1     -37.194 -45.573  12.785  1.00  0.00     0.030 C 
BRANCH  12  13
HETATM   13  C7  UNL     1     -37.932 -44.922  13.861  1.00  0.00     0.032 A 
HETATM   14  C8  UNL     1     -38.929 -43.986  13.771  1.00  0.00     0.032 A 
HETATM   15  C9  UNL     1     -39.316 -43.671  15.067  1.00  0.00     0.035 A 
HETATM   16  C10 UNL     1     -38.552 -44.417  15.935  1.00  0.00     0.070 A 
HETATM   17  N1  UNL     1     -37.738 -45.150  15.176  1.00  0.00    -0.354 N 
ATOM     18  H1  UNL     1     -37.050 -45.806  15.547  1.00  0.00     0.166 HD
BRANCH  16  19
HETATM   19  C11 UNL     1     -38.627 -44.399  17.408  1.00  0.00     0.288 C 
HETATM   20  O4  UNL     1     -39.680 -44.028  17.961  1.00  0.00    -0.300 OA
ENDBRANCH  16  19
ENDBRANCH  12  13
ENDBRANCH   1  11
BRANCH   1  21
HETATM   21  N2  UNL     1     -35.946 -46.871  10.842  1.00  0.00    -0.320 N 
HETATM   22  C12 UNL     1     -35.478 -47.826   9.920  1.00  0.00     0.249 C 
HETATM   23  O5  UNL     1     -34.250 -48.015   9.799  1.00  0.00    -0.271 OA
ATOM     24  H2  UNL     1     -36.954 -46.734  10.925  1.00  0.00     0.166 HD
BRANCH  22  25
HETATM   25  C13 UNL     1     -36.433 -48.593   9.104  1.00  0.00     0.219 C 
HETATM   26  C14 UNL     1     -36.673 -47.771   7.841  1.00  0.00     0.050 C 
BRANCH  25  27
HETATM   27  O6  UNL     1     -35.957 -49.841   8.716  1.00  0.00    -0.307 OA
BRANCH  27  28
HETATM   28  C15 UNL     1     -36.141 -50.929   9.551  1.00  0.00     0.255 C 
HETATM   29  C16 UNL     1     -37.280 -51.871   9.396  1.00  0.00     0.126 C 
HETATM   30  O7  UNL     1     -35.322 -51.163  10.499  1.00  0.00    -0.266 OA
ENDBRANCH  27  28
ENDBRANCH  25  27
ENDBRANCH  22  25
ENDBRANCH   1  21
TORSDOF 12
ENDMDL
MODEL 3
REMARK VINA RESULT: -6.579341316      1.921      6.726
REMARK  12 active torsions:
REMARK  status: ('A' for Active; 'I' for Inactive)
REMARK    1  A    between atoms: C2_2  and  C3_3 
REMARK    2  A    between atoms: C2_2  and  C4_8 
REMARK    3  A    between atoms: C3_3  and  O1_4 
REMARK    4  A    between atoms: C3_3  and  O2_6 
REMARK    5  A    between atoms: C4_8  and  O3_9 
REMARK    6  A    between atoms: C4_8  and  C5_11 
REMARK    7  A    between atoms: C4_8  and  N2_21 
REMARK    8  A    between atoms: C6_12  and  C7_13 
REMARK    9  A    between atoms: C10_16  and  C11_17 
REMARK       I    between atoms: N2_21  and  C12_23 
REMARK   10  A    between atoms: C12_23  and  C13_25 
REMARK   11  A    between atoms: C13_25  and  O6_27 
REMARK   12  A    between atoms: O6_27  and  C15_28 
ROOT
HETATM    1  C4  UNL     1     -34.880 -45.409  10.864  1.00  0.00     0.182 C 
ENDROOT
BRANCH   1   2
HETATM    2  C2  UNL     1     -33.614 -45.814  11.510  1.00  0.00     0.023 C 
HETATM    3  C1  UNL     1     -33.484 -47.041  11.979  1.00  0.00     0.025 C 
BRANCH   2   4
HETATM    4  C3  UNL     1     -32.500 -44.836  11.622  1.00  0.00     0.288 C 
BRANCH   4   5
HETATM    5  O1  UNL     1     -31.695 -44.832  10.489  1.00  0.00    -0.367 OA
ATOM      6  H1  UNL     1     -32.035 -44.256   9.814  1.00  0.00     0.213 HD
ENDBRANCH   4   5
BRANCH   4   7
HETATM    7  O2  UNL     1     -32.968 -43.542  11.835  1.00  0.00    -0.367 OA
ATOM      8  H2  UNL     1     -32.256 -42.917  11.910  1.00  0.00     0.213 HD
ENDBRANCH   4   7
ENDBRANCH   2   4
ENDBRANCH   1   2
BRANCH   1   9
HETATM    9  O3  UNL     1     -34.661 -44.608   9.742  1.00  0.00    -0.363 OA
ATOM     10  H3  UNL     1     -35.179 -43.812   9.768  1.00  0.00     0.213 HD
ENDBRANCH   1   9
BRANCH   1  11
HETATM   11  C5  UNL     1     -35.592 -46.618  10.406  1.00  0.00     0.041 C 
HETATM   12  C6  UNL     1     -35.270 -47.229   9.282  1.00  0.00     0.030 C 
BRANCH  12  13
HETATM   13  C7  UNL     1     -36.018 -48.419   8.896  1.00  0.00     0.032 A 
HETATM   14  C8  UNL     1     -36.890 -48.580   7.850  1.00  0.00     0.032 A 
HETATM   15  C9  UNL     1     -37.349 -49.890   7.895  1.00  0.00     0.035 A 
HETATM   16  C10 UNL     1     -36.753 -50.516   8.966  1.00  0.00     0.070 A 
HETATM   17  N1  UNL     1     -35.967 -49.605   9.537  1.00  0.00    -0.354 N 
ATOM     18  H1  UNL     1     -35.394 -49.782  10.363  1.00  0.00     0.166 HD
BRANCH  16  19
HETATM   19  C11 UNL     1     -36.953 -51.915   9.387  1.00  0.00     0.288 C 
HETATM   20  O4  UNL     1     -37.891 -52.192  10.160  1.00  0.00    -0.300 OA
ENDBRANCH  16  19
ENDBRANCH  12  13
ENDBRANCH   1  11
BRANCH   1  21
HETATM   21  N2  UNL     1     -35.748 -44.681  11.786  1.00  0.00    -0.320 N 
HETATM   22  C12 UNL     1     -36.536 -45.305  12.770  1.00  0.00     0.249 C 
HETATM   23  O5  UNL     1     -36.510 -46.548  12.883  1.00  0.00    -0.271 OA
ATOM     24  H2  UNL     1     -35.784 -43.664  11.712  1.00  0.00     0.166 HD
BRANCH  22  25
HETATM   25  C13 UNL     1     -37.384 -44.495  13.659  1.00  0.00     0.219 C 
HETATM   26  C14 UNL     1     -38.776 -44.489  13.032  1.00  0.00     0.050 C 
BRANCH  25  27
HETATM   27  O6  UNL     1     -37.499 -45.013  14.945  1.00  0.00    -0.307 OA
BRANCH  27  28
HETATM   28  C15 UNL     1     -37.997 -44.214  15.958  1.00  0.00     0.255 C 
HETATM   29  C16 UNL     1     -38.624 -44.776  17.183  1.00  0.00     0.126 C 
HETATM   30  O7  UNL     1     -37.933 -42.944  15.872  1.00  0.00    -0.266 OA
ENDBRANCH  27  28
ENDBRANCH  25  27
ENDBRANCH  22  25
ENDBRANCH   1  21
TORSDOF 12
ENDMDL
MODEL 4
REMARK VINA RESULT: -6.334092569      2.007      6.824
REMARK  12 active torsions:
REMARK  status: ('A' for Active; 'I' for Inactive)
REMARK    1  A    between atoms: C2_2  and  C3_3 
REMARK    2  A    between atoms: C2_2  and  C4_8 
REMARK    3  A    between atoms: C3_3  and  O1_4 
REMARK    4  A    between atoms: C3_3  and  O2_6 
REMARK    5  A    between atoms: C4_8  and  O3_9 
REMARK    6  A    between atoms: C4_8  and  C5_11 
REMARK    7  A    between atoms: C4_8  and  N2_21 
REMARK    8  A    between atoms: C6_12  and  C7_13 
REMARK    9  A    between atoms: C10_16  and  C11_17 
REMARK       I    between atoms: N2_21  and  C12_23 
REMARK   10  A    between atoms: C12_23  and  C13_25 
REMARK   11  A    between atoms: C13_25  and  O6_27 
REMARK   12  A    between atoms: O6_27  and  C15_28 
ROOT
HETATM    1  C4  UNL     1     -34.893 -45.067  11.460  1.00  0.00     0.182 C 
ENDROOT
BRANCH   1   2
HETATM    2  C2  UNL     1     -33.464 -45.215  11.808  1.00  0.00     0.023 C 
HETATM    3  C1  UNL     1     -33.096 -45.201  13.076  1.00  0.00     0.025 C 
BRANCH   2   4
HETATM    4  C3  UNL     1     -32.457 -45.380  10.728  1.00  0.00     0.288 C 
BRANCH   4   5
HETATM    5  O1  UNL     1     -31.587 -44.298  10.658  1.00  0.00    -0.367 OA
ATOM      6  H1  UNL     1     -30.680 -44.575  10.600  1.00  0.00     0.213 HD
ENDBRANCH   4   5
BRANCH   4   7
HETATM    7  O2  UNL     1     -31.704 -46.541  10.895  1.00  0.00    -0.367 OA
ATOM      8  H2  UNL     1     -31.557 -46.737  11.813  1.00  0.00     0.213 HD
ENDBRANCH   4   7
ENDBRANCH   2   4
ENDBRANCH   1   2
BRANCH   1   9
HETATM    9  O3  UNL     1     -35.140 -43.884  10.762  1.00  0.00    -0.363 OA
ATOM     10  H3  UNL     1     -36.061 -43.652  10.770  1.00  0.00     0.213 HD
ENDBRANCH   1   9
BRANCH   1  11
HETATM   11  C5  UNL     1     -35.289 -46.184  10.581  1.00  0.00     0.041 C 
HETATM   12  C6  UNL     1     -35.222 -47.439  10.981  1.00  0.00     0.030 C 
BRANCH  12  13
HETATM   13  C7  UNL     1     -35.630 -48.489  10.056  1.00  0.00     0.032 A 
HETATM   14  C8  UNL     1     -35.362 -49.833  10.113  1.00  0.00     0.032 A 
HETATM   15  C9  UNL     1     -35.965 -50.420   9.009  1.00  0.00     0.035 A 
HETATM   16  C10 UNL     1     -36.596 -49.431   8.289  1.00  0.00     0.070 A 
HETATM   17  N1  UNL     1     -36.372 -48.295   8.946  1.00  0.00    -0.354 N 
ATOM     18  H1  UNL     1     -36.721 -47.384   8.646  1.00  0.00     0.166 HD
BRANCH  16  19
HETATM   19  C11 UNL     1     -37.363 -49.607   7.041  1.00  0.00     0.288 C 
HETATM   20  O4  UNL     1     -37.464 -48.652   6.247  1.00  0.00    -0.300 OA
ENDBRANCH  16  19
ENDBRANCH  12  13
ENDBRANCH   1  11
BRANCH   1  21
HETATM   21  N2  UNL     1     -35.743 -45.086  12.647  1.00  0.00    -0.320 N 
HETATM   22  C12 UNL     1     -37.075 -44.629  12.658  1.00  0.00     0.249 C 
HETATM   23  O5  UNL     1     -37.580 -44.178  11.610  1.00  0.00    -0.271 OA
ATOM     24  H2  UNL     1     -35.351 -45.451  13.515  1.00  0.00     0.166 HD
BRANCH  22  25
HETATM   25  C13 UNL     1     -37.862 -44.682  13.900  1.00  0.00     0.219 C 
HETATM   26  C14 UNL     1     -37.855 -46.141  14.349  1.00  0.00     0.050 C 
BRANCH  25  27
HETATM   27  O6  UNL     1     -37.328 -43.917  14.932  1.00  0.00    -0.307 OA
BRANCH  27  28
HETATM   28  C15 UNL     1     -38.074 -43.703  16.076  1.00  0.00     0.255 C 
HETATM   29  C16 UNL     1     -39.423 -43.079  16.045  1.00  0.00     0.126 C 
HETATM   30  O7  UNL     1     -37.621 -44.042  17.218  1.00  0.00    -0.266 OA
ENDBRANCH  27  28
ENDBRANCH  25  27
ENDBRANCH  22  25
ENDBRANCH   1  21
TORSDOF 12
ENDMDL
MODEL 5
REMARK VINA RESULT: -5.641348752      3.773      9.724
REMARK  12 active torsions:
REMARK  status: ('A' for Active; 'I' for Inactive)
REMARK    1  A    between atoms: C2_2  and  C3_3 
REMARK    2  A    between atoms: C2_2  and  C4_8 
REMARK    3  A    between atoms: C3_3  and  O1_4 
REMARK    4  A    between atoms: C3_3  and  O2_6 
REMARK    5  A    between atoms: C4_8  and  O3_9 
REMARK    6  A    between atoms: C4_8  and  C5_11 
REMARK    7  A    between atoms: C4_8  and  N2_21 
REMARK    8  A    between atoms: C6_12  and  C7_13 
REMARK    9  A    between atoms: C10_16  and  C11_17 
REMARK       I    between atoms: N2_21  and  C12_23 
REMARK   10  A    between atoms: C12_23  and  C13_25 
REMARK   11  A    between atoms: C13_25  and  O6_27 
REMARK   12  A    between atoms: O6_27  and  C15_28 
ROOT
HETATM    1  C4  UNL     1     -38.132 -43.734  18.012  1.00  0.00     0.182 C 
ENDROOT
BRANCH   1   2
HETATM    2  C2  UNL     1     -39.451 -43.965  18.638  1.00  0.00     0.023 C 
HETATM    3  C1  UNL     1     -40.547 -43.562  18.021  1.00  0.00     0.025 C 
BRANCH   2   4
HETATM    4  C3  UNL     1     -39.531 -44.651  19.954  1.00  0.00     0.288 C 
BRANCH   4   5
HETATM    5  O1  UNL     1     -38.977 -45.926  19.911  1.00  0.00    -0.367 OA
ATOM      6  H1  UNL     1     -38.945 -46.328  20.771  1.00  0.00     0.213 HD
ENDBRANCH   4   5
BRANCH   4   7
HETATM    7  O2  UNL     1     -38.888 -43.925  20.955  1.00  0.00    -0.367 OA
ATOM      8  H2  UNL     1     -38.177 -44.418  21.347  1.00  0.00     0.213 HD
ENDBRANCH   4   7
ENDBRANCH   2   4
ENDBRANCH   1   2
BRANCH   1   9
HETATM    9  O3  UNL     1     -37.097 -44.311  18.749  1.00  0.00    -0.363 OA
ATOM     10  H3  UNL     1     -36.526 -43.656  19.132  1.00  0.00     0.213 HD
ENDBRANCH   1   9
BRANCH   1  11
HETATM   11  C5  UNL     1     -38.121 -44.360  16.676  1.00  0.00     0.041 C 
HETATM   12  C6  UNL     1     -37.667 -43.722  15.614  1.00  0.00     0.030 C 
BRANCH  12  13
HETATM   13  C7  UNL     1     -37.688 -44.406  14.327  1.00  0.00     0.032 A 
HETATM   14  C8  UNL     1     -38.755 -44.639  13.498  1.00  0.00     0.032 A 
HETATM   15  C9  UNL     1     -38.273 -45.325  12.392  1.00  0.00     0.035 A 
HETATM   16  C10 UNL     1     -36.919 -45.505  12.554  1.00  0.00     0.070 A 
HETATM   17  N1  UNL     1     -36.609 -44.943  13.721  1.00  0.00    -0.354 N 
ATOM     18  H1  UNL     1     -35.666 -44.921  14.111  1.00  0.00     0.166 HD
BRANCH  16  19
HETATM   19  C11 UNL     1     -36.004 -46.186  11.618  1.00  0.00     0.288 C 
HETATM   20  O4  UNL     1     -35.507 -47.282  11.939  1.00  0.00    -0.300 OA
ENDBRANCH  16  19
ENDBRANCH  12  13
ENDBRANCH   1  11
BRANCH   1  21
HETATM   21  N2  UNL     1     -37.849 -42.309  17.860  1.00  0.00    -0.320 N 
HETATM   22  C12 UNL     1     -37.311 -41.508  18.885  1.00  0.00     0.249 C 
HETATM   23  O5  UNL     1     -37.052 -42.020  19.994  1.00  0.00    -0.271 OA
ATOM     24  H2  UNL     1     -38.052 -41.871  16.962  1.00  0.00     0.166 HD
BRANCH  22  25
HETATM   25  C13 UNL     1     -37.058 -40.079  18.648  1.00  0.00     0.219 C 
HETATM   26  C14 UNL     1     -37.868 -39.321  19.695  1.00  0.00     0.050 C 
BRANCH  25  27
HETATM   27  O6  UNL     1     -35.723 -39.717  18.799  1.00  0.00    -0.307 OA
BRANCH  27  28
HETATM   28  C15 UNL     1     -35.017 -39.251  17.704  1.00  0.00     0.255 C 
HETATM   29  C16 UNL     1     -35.602 -39.199  16.339  1.00  0.00     0.126 C 
HETATM   30  O7  UNL     1     -33.817 -38.841  17.834  1.00  0.00    -0.266 OA
ENDBRANCH  27  28
ENDBRANCH  25  27
ENDBRANCH  22  25
ENDBRANCH   1  21
TORSDOF 12
ENDMDL
