MODEL 1
REMARK VINA RESULT: -8.535083674      0.000      0.000
REMARK  10 active torsions:
REMARK  status: ('A' for Active; 'I' for Inactive)
REMARK    1  A    between atoms: C2_2  and  O1_4 
REMARK    2  A    between atoms: C2_2  and  C4_6 
REMARK    3  A    between atoms: C4_6  and  N1_7 
REMARK       I    between atoms: N1_7  and  C5_9 
REMARK    4  A    between atoms: C5_9  and  C6_11 
REMARK    5  A    between atoms: C6_11  and  N2_12 
REMARK    6  A    between atoms: N2_12  and  C7_13 
REMARK    7  A    between atoms: C7_13  and  O3_14 
REMARK    8  A    between atoms: C7_13  and  C8_16 
REMARK    9  A    between atoms: C9_18  and  N3_19 
REMARK       I    between atoms: N3_19  and  C10_21 
REMARK       I    between atoms: C10_21  and  N4_23 
REMARK   10  A    between atoms: N4_23  and  C11_24 
ROOT
HETATM    1  C8  UNL     1       1.900  16.959 -40.941  1.00  0.00     0.093 A 
HETATM    2  S1  UNL     1       1.082  17.227 -39.435  1.00  0.00    -0.065 SA
HETATM    3  C9  UNL     1       0.337  18.712 -39.733  1.00  0.00     0.081 A 
HETATM    4  C21 UNL     1       0.750  18.971 -41.029  1.00  0.00     0.062 A 
HETATM    5  C22 UNL     1       1.545  18.078 -41.642  1.00  0.00     0.059 A 
HETATM    6 CL1  UNL     1       2.066  18.358 -43.350  1.00  0.00    -0.083 Cl
ENDROOT
BRANCH   1   7
HETATM    7  C7  UNL     1       2.606  15.732 -41.366  1.00  0.00     0.229 C 
BRANCH   7   8
HETATM    8  N2  UNL     1       3.753  15.589 -41.979  1.00  0.00    -0.402 NA
BRANCH   8   9
HETATM    9  C6  UNL     1       4.852  15.002 -42.628  1.00  0.00     0.176 A 
HETATM   10  C23 UNL     1       5.261  15.617 -43.941  1.00  0.00     0.060 A 
HETATM   11  C24 UNL     1       6.159  15.813 -42.749  1.00  0.00     0.060 A 
BRANCH   9  12
HETATM   12  C5  UNL     1       5.123  13.572 -42.422  1.00  0.00     0.259 C 
HETATM   13  N1  UNL     1       5.310  12.870 -41.205  1.00  0.00    -0.355 N 
ATOM     14  H1  UNL     1       5.286  13.341 -40.301  1.00  0.00     0.162 HD
HETATM   15  O2  UNL     1       5.183  12.879 -43.506  1.00  0.00    -0.269 OA
BRANCH  13  16
HETATM   16  C4  UNL     1       5.532  11.466 -41.319  1.00  0.00     0.159 C 
BRANCH  16  17
HETATM   17  C2  UNL     1       6.017  10.707 -40.136  1.00  0.00     0.066 C 
HETATM   18  C1  UNL     1       5.742  11.464 -38.841  1.00  0.00     0.047 C 
HETATM   19  C3  UNL     1       7.417  10.209 -40.266  1.00  0.00     0.047 C 
BRANCH  17  20
HETATM   20  O1  UNL     1       5.169   9.548 -40.071  1.00  0.00    -0.389 OA
ATOM     21  H1  UNL     1       4.346   9.828 -40.454  1.00  0.00     0.210 HD
ENDBRANCH  17  20
ENDBRANCH  16  17
ENDBRANCH  13  16
ENDBRANCH   9  12
ENDBRANCH   8   9
ENDBRANCH   7   8
BRANCH   7  22
HETATM   22  O3  UNL     1       1.849  14.663 -41.022  1.00  0.00    -0.335 OA
ATOM     23  H3  UNL     1       2.061  14.127 -40.266  1.00  0.00     0.220 HD
ENDBRANCH   7  22
ENDBRANCH   1   7
BRANCH   3  24
HETATM   24  N3  UNL     1      -0.459  19.602 -38.966  1.00  0.00    -0.291 N 
HETATM   25  C10 UNL     1       0.077  20.293 -37.820  1.00  0.00     0.394 C 
HETATM   26  O4  UNL     1       1.250  20.105 -37.533  1.00  0.00    -0.230 OA
HETATM   27  N4  UNL     1      -0.875  21.110 -37.200  1.00  0.00    -0.385 NA
ATOM     28  H3  UNL     1      -1.432  19.756 -39.231  1.00  0.00     0.172 HD
BRANCH  27  29
HETATM   29  C11 UNL     1      -1.779  21.898 -36.595  1.00  0.00     0.100 C 
HETATM   30  C12 UNL     1      -3.201  21.298 -36.867  1.00  0.00     0.050 C 
HETATM   31  C13 UNL     1      -4.224  22.193 -36.312  1.00  0.00    -0.010 C 
HETATM   32  C14 UNL     1      -4.123  22.278 -34.811  1.00  0.00     0.009 C 
HETATM   33  C18 UNL     1      -4.190  23.577 -36.922  1.00  0.00     0.009 C 
HETATM   34  C15 UNL     1      -2.731  22.793 -34.481  1.00  0.00    -0.010 C 
HETATM   35  C16 UNL     1      -2.654  24.217 -35.044  1.00  0.00     0.009 C 
HETATM   36  C20 UNL     1      -1.649  21.979 -35.087  1.00  0.00     0.050 C 
HETATM   37  C17 UNL     1      -2.840  24.155 -36.541  1.00  0.00    -0.010 C 
HETATM   38  C19 UNL     1      -1.753  23.319 -37.129  1.00  0.00     0.050 C 
ENDBRANCH  27  29
ENDBRANCH   3  24
TORSDOF 10
ENDMDL
MODEL 2
REMARK VINA RESULT: -8.479361926      1.681      2.273
REMARK  10 active torsions:
REMARK  status: ('A' for Active; 'I' for Inactive)
REMARK    1  A    between atoms: C2_2  and  O1_4 
REMARK    2  A    between atoms: C2_2  and  C4_6 
REMARK    3  A    between atoms: C4_6  and  N1_7 
REMARK       I    between atoms: N1_7  and  C5_9 
REMARK    4  A    between atoms: C5_9  and  C6_11 
REMARK    5  A    between atoms: C6_11  and  N2_12 
REMARK    6  A    between atoms: N2_12  and  C7_13 
REMARK    7  A    between atoms: C7_13  and  O3_14 
REMARK    8  A    between atoms: C7_13  and  C8_16 
REMARK    9  A    between atoms: C9_18  and  N3_19 
REMARK       I    between atoms: N3_19  and  C10_21 
REMARK       I    between atoms: C10_21  and  N4_23 
REMARK   10  A    between atoms: N4_23  and  C11_24 
ROOT
HETATM    1  C8  UNL     1       2.414  16.960 -41.868  1.00  0.00     0.093 A 
HETATM    2  S1  UNL     1       1.723  18.545 -41.734  1.00  0.00    -0.065 SA
HETATM    3  C9  UNL     1       1.082  18.487 -40.174  1.00  0.00     0.081 A 
HETATM    4  C21 UNL     1       1.430  17.205 -39.782  1.00  0.00     0.062 A 
HETATM    5  C22 UNL     1       2.108  16.430 -40.646  1.00  0.00     0.059 A 
HETATM    6 CL1  UNL     1       2.621  14.768 -40.153  1.00  0.00    -0.083 Cl
ENDROOT
BRANCH   1   7
HETATM    7  C7  UNL     1       3.272  16.451 -42.958  1.00  0.00     0.229 C 
BRANCH   7   8
HETATM    8  N2  UNL     1       4.397  15.785 -42.904  1.00  0.00    -0.402 NA
BRANCH   8   9
HETATM    9  C6  UNL     1       5.362  14.783 -43.103  1.00  0.00     0.176 A 
HETATM   10  C23 UNL     1       6.215  14.912 -44.338  1.00  0.00     0.060 A 
HETATM   11  C24 UNL     1       6.855  15.164 -43.000  1.00  0.00     0.060 A 
BRANCH   9  12
HETATM   12  C5  UNL     1       5.113  13.435 -42.574  1.00  0.00     0.259 C 
HETATM   13  N1  UNL     1       5.113  12.996 -41.227  1.00  0.00    -0.355 N 
ATOM     14  H1  UNL     1       5.319  13.628 -40.453  1.00  0.00     0.162 HD
HETATM   15  O2  UNL     1       4.849  12.551 -43.471  1.00  0.00    -0.269 OA
BRANCH  13  16
HETATM   16  C4  UNL     1       4.807  11.620 -41.016  1.00  0.00     0.159 C 
BRANCH  16  17
HETATM   17  C2  UNL     1       5.595  10.842 -40.024  1.00  0.00     0.066 C 
HETATM   18  C1  UNL     1       5.595  11.522 -38.658  1.00  0.00     0.047 C 
HETATM   19  C3  UNL     1       6.949  10.441 -40.503  1.00  0.00     0.047 C 
BRANCH  17  20
HETATM   20  O1  UNL     1       4.848   9.629 -39.829  1.00  0.00    -0.389 OA
ATOM     21  H1  UNL     1       4.646   9.326 -40.708  1.00  0.00     0.210 HD
ENDBRANCH  17  20
ENDBRANCH  16  17
ENDBRANCH  13  16
ENDBRANCH   9  12
ENDBRANCH   8   9
ENDBRANCH   7   8
BRANCH   7  22
HETATM   22  O3  UNL     1       2.709  16.795 -44.141  1.00  0.00    -0.335 OA
ATOM     23  H3  UNL     1       1.848  16.481 -44.391  1.00  0.00     0.220 HD
ENDBRANCH   7  22
ENDBRANCH   1   7
BRANCH   3  24
HETATM   24  N3  UNL     1       0.323  19.378 -39.371  1.00  0.00    -0.291 N 
HETATM   25  C10 UNL     1      -0.930  19.922 -39.831  1.00  0.00     0.394 C 
HETATM   26  O4  UNL     1      -1.335  19.581 -40.932  1.00  0.00    -0.230 OA
HETATM   27  N4  UNL     1      -1.508  20.787 -38.895  1.00  0.00    -0.385 NA
ATOM     28  H3  UNL     1       0.672  19.639 -38.449  1.00  0.00     0.172 HD
BRANCH  27  29
HETATM   29  C11 UNL     1      -2.074  21.619 -38.005  1.00  0.00     0.100 C 
HETATM   30  C12 UNL     1      -0.931  22.238 -37.129  1.00  0.00     0.050 C 
HETATM   31  C13 UNL     1      -1.521  23.071 -36.073  1.00  0.00    -0.010 C 
HETATM   32  C14 UNL     1      -2.249  24.257 -36.652  1.00  0.00     0.009 C 
HETATM   33  C18 UNL     1      -2.432  22.293 -35.148  1.00  0.00     0.009 C 
HETATM   34  C15 UNL     1      -3.334  23.717 -37.570  1.00  0.00    -0.010 C 
HETATM   35  C16 UNL     1      -4.312  22.948 -36.675  1.00  0.00     0.009 C 
HETATM   36  C20 UNL     1      -2.812  22.796 -38.610  1.00  0.00     0.050 C 
HETATM   37  C17 UNL     1      -3.574  21.806 -36.020  1.00  0.00    -0.010 C 
HETATM   38  C19 UNL     1      -3.043  20.902 -37.082  1.00  0.00     0.050 C 
ENDBRANCH  27  29
ENDBRANCH   3  24
TORSDOF 10
ENDMDL
MODEL 3
REMARK VINA RESULT: -8.431286250      1.345      1.777
REMARK  10 active torsions:
REMARK  status: ('A' for Active; 'I' for Inactive)
REMARK    1  A    between atoms: C2_2  and  O1_4 
REMARK    2  A    between atoms: C2_2  and  C4_6 
REMARK    3  A    between atoms: C4_6  and  N1_7 
REMARK       I    between atoms: N1_7  and  C5_9 
REMARK    4  A    between atoms: C5_9  and  C6_11 
REMARK    5  A    between atoms: C6_11  and  N2_12 
REMARK    6  A    between atoms: N2_12  and  C7_13 
REMARK    7  A    between atoms: C7_13  and  O3_14 
REMARK    8  A    between atoms: C7_13  and  C8_16 
REMARK    9  A    between atoms: C9_18  and  N3_19 
REMARK       I    between atoms: N3_19  and  C10_21 
REMARK       I    between atoms: C10_21  and  N4_23 
REMARK   10  A    between atoms: N4_23  and  C11_24 
ROOT
HETATM    1  C8  UNL     1       2.155  17.096 -41.710  1.00  0.00     0.093 A 
HETATM    2  S1  UNL     1       1.346  18.631 -41.667  1.00  0.00    -0.065 SA
HETATM    3  C9  UNL     1       0.645  18.583 -40.133  1.00  0.00     0.081 A 
HETATM    4  C21 UNL     1       1.068  17.346 -39.677  1.00  0.00     0.062 A 
HETATM    5  C22 UNL     1       1.836  16.591 -40.481  1.00  0.00     0.059 A 
HETATM    6 CL1  UNL     1       2.447  14.991 -39.902  1.00  0.00    -0.083 Cl
ENDROOT
BRANCH   1   7
HETATM    7  C7  UNL     1       3.093  16.612 -42.745  1.00  0.00     0.229 C 
BRANCH   7   8
HETATM    8  N2  UNL     1       4.167  15.874 -42.629  1.00  0.00    -0.402 NA
BRANCH   8   9
HETATM    9  C6  UNL     1       5.166  14.924 -42.901  1.00  0.00     0.176 A 
HETATM   10  C23 UNL     1       5.977  15.146 -44.151  1.00  0.00     0.060 A 
HETATM   11  C24 UNL     1       6.644  15.362 -42.820  1.00  0.00     0.060 A 
BRANCH   9  12
HETATM   12  C5  UNL     1       4.987  13.544 -42.432  1.00  0.00     0.259 C 
HETATM   13  N1  UNL     1       4.996  13.049 -41.103  1.00  0.00    -0.355 N 
ATOM     14  H1  UNL     1       5.157  13.659 -40.302  1.00  0.00     0.162 HD
HETATM   15  O2  UNL     1       4.783  12.684 -43.368  1.00  0.00    -0.269 OA
BRANCH  13  16
HETATM   16  C4  UNL     1       4.765  11.650 -40.953  1.00  0.00     0.159 C 
BRANCH  16  17
HETATM   17  C2  UNL     1       5.608  10.870 -40.010  1.00  0.00     0.066 C 
HETATM   18  C1  UNL     1       5.634  11.512 -38.627  1.00  0.00     0.047 C 
HETATM   19  C3  UNL     1       6.956  10.523 -40.545  1.00  0.00     0.047 C 
BRANCH  17  20
HETATM   20  O1  UNL     1       4.903   9.630 -39.825  1.00  0.00    -0.389 OA
ATOM     21  H1  UNL     1       4.205   9.651 -40.470  1.00  0.00     0.210 HD
ENDBRANCH  17  20
ENDBRANCH  16  17
ENDBRANCH  13  16
ENDBRANCH   9  12
ENDBRANCH   8   9
ENDBRANCH   7   8
BRANCH   7  22
HETATM   22  O3  UNL     1       2.676  17.072 -43.948  1.00  0.00    -0.335 OA
ATOM     23  H3  UNL     1       3.235  17.615 -44.493  1.00  0.00     0.220 HD
ENDBRANCH   7  22
ENDBRANCH   1   7
BRANCH   3  24
HETATM   24  N3  UNL     1      -0.209  19.445 -39.398  1.00  0.00    -0.291 N 
HETATM   25  C10 UNL     1       0.215  20.045 -38.157  1.00  0.00     0.394 C 
HETATM   26  O4  UNL     1       1.345  19.804 -37.760  1.00  0.00    -0.230 OA
HETATM   27  N4  UNL     1      -0.781  20.847 -37.588  1.00  0.00    -0.385 NA
ATOM     28  H3  UNL     1      -1.144  19.645 -39.754  1.00  0.00     0.172 HD
BRANCH  27  29
HETATM   29  C11 UNL     1      -1.727  21.621 -37.032  1.00  0.00     0.100 C 
HETATM   30  C12 UNL     1      -1.979  22.838 -37.987  1.00  0.00     0.050 C 
HETATM   31  C13 UNL     1      -2.931  23.763 -37.360  1.00  0.00    -0.010 C 
HETATM   32  C14 UNL     1      -4.284  23.124 -37.186  1.00  0.00     0.009 C 
HETATM   33  C18 UNL     1      -2.435  24.315 -36.041  1.00  0.00     0.009 C 
HETATM   34  C15 UNL     1      -4.093  21.891 -36.318  1.00  0.00    -0.010 C 
HETATM   35  C16 UNL     1      -3.626  22.396 -34.948  1.00  0.00     0.009 C 
HETATM   36  C20 UNL     1      -3.076  20.953 -36.854  1.00  0.00     0.050 C 
HETATM   37  C17 UNL     1      -2.309  23.116 -35.121  1.00  0.00    -0.010 C 
HETATM   38  C19 UNL     1      -1.306  22.161 -35.677  1.00  0.00     0.050 C 
ENDBRANCH  27  29
ENDBRANCH   3  24
TORSDOF 10
ENDMDL
MODEL 4
REMARK VINA RESULT: -8.274904762      2.892      4.212
REMARK  10 active torsions:
REMARK  status: ('A' for Active; 'I' for Inactive)
REMARK    1  A    between atoms: C2_2  and  O1_4 
REMARK    2  A    between atoms: C2_2  and  C4_6 
REMARK    3  A    between atoms: C4_6  and  N1_7 
REMARK       I    between atoms: N1_7  and  C5_9 
REMARK    4  A    between atoms: C5_9  and  C6_11 
REMARK    5  A    between atoms: C6_11  and  N2_12 
REMARK    6  A    between atoms: N2_12  and  C7_13 
REMARK    7  A    between atoms: C7_13  and  O3_14 
REMARK    8  A    between atoms: C7_13  and  C8_16 
REMARK    9  A    between atoms: C9_18  and  N3_19 
REMARK       I    between atoms: N3_19  and  C10_21 
REMARK       I    between atoms: C10_21  and  N4_23 
REMARK   10  A    between atoms: N4_23  and  C11_24 
ROOT
HETATM    1  C8  UNL     1       3.539  14.804 -37.567  1.00  0.00     0.093 A 
HETATM    2  S1  UNL     1       3.197  16.348 -38.281  1.00  0.00    -0.065 SA
HETATM    3  C9  UNL     1       2.058  16.959 -37.196  1.00  0.00     0.081 A 
HETATM    4  C21 UNL     1       1.969  15.925 -36.280  1.00  0.00     0.062 A 
HETATM    5  C22 UNL     1       2.724  14.830 -36.470  1.00  0.00     0.059 A 
HETATM    6 CL1  UNL     1       2.670  13.479 -35.270  1.00  0.00    -0.083 Cl
ENDROOT
BRANCH   1   7
HETATM    7  C7  UNL     1       4.594  13.850 -37.970  1.00  0.00     0.229 C 
BRANCH   7   8
HETATM    8  N2  UNL     1       4.578  12.913 -38.882  1.00  0.00    -0.402 NA
BRANCH   8   9
HETATM    9  C6  UNL     1       4.947  12.114 -39.978  1.00  0.00     0.176 A 
HETATM   10  C23 UNL     1       6.085  11.153 -39.751  1.00  0.00     0.060 A 
HETATM   11  C24 UNL     1       4.696  10.593 -39.903  1.00  0.00     0.060 A 
BRANCH   9  12
HETATM   12  C5  UNL     1       4.739  12.628 -41.339  1.00  0.00     0.259 C 
HETATM   13  N1  UNL     1       5.499  12.377 -42.508  1.00  0.00    -0.355 N 
ATOM     14  H1  UNL     1       6.330  11.785 -42.496  1.00  0.00     0.162 HD
HETATM   15  O2  UNL     1       3.715  13.398 -41.468  1.00  0.00    -0.269 OA
BRANCH  13  16
HETATM   16  C4  UNL     1       5.036  13.000 -43.704  1.00  0.00     0.159 C 
BRANCH  16  17
HETATM   17  C2  UNL     1       5.543  14.350 -44.066  1.00  0.00     0.066 C 
HETATM   18  C1  UNL     1       5.611  14.529 -45.580  1.00  0.00     0.047 C 
HETATM   19  C3  UNL     1       6.791  14.742 -43.350  1.00  0.00     0.047 C 
BRANCH  17  20
HETATM   20  O1  UNL     1       4.514  15.258 -43.635  1.00  0.00    -0.389 OA
ATOM     21  H1  UNL     1       4.562  15.243 -42.686  1.00  0.00     0.210 HD
ENDBRANCH  17  20
ENDBRANCH  16  17
ENDBRANCH  13  16
ENDBRANCH   9  12
ENDBRANCH   8   9
ENDBRANCH   7   8
BRANCH   7  22
HETATM   22  O3  UNL     1       5.687  14.073 -37.202  1.00  0.00    -0.335 OA
ATOM     23  H3  UNL     1       5.866  14.928 -36.829  1.00  0.00     0.220 HD
ENDBRANCH   7  22
ENDBRANCH   1   7
BRANCH   3  24
HETATM   24  N3  UNL     1       1.275  18.141 -37.130  1.00  0.00    -0.291 N 
HETATM   25  C10 UNL     1       0.386  18.515 -38.202  1.00  0.00     0.394 C 
HETATM   26  O4  UNL     1       0.310  17.773 -39.170  1.00  0.00    -0.230 OA
HETATM   27  N4  UNL     1      -0.281  19.718 -37.943  1.00  0.00    -0.385 NA
ATOM     28  H3  UNL     1       1.342  18.739 -36.306  1.00  0.00     0.172 HD
BRANCH  27  29
HETATM   29  C11 UNL     1      -0.927  20.871 -37.707  1.00  0.00     0.100 C 
HETATM   30  C12 UNL     1      -2.454  20.548 -37.567  1.00  0.00     0.050 C 
HETATM   31  C13 UNL     1      -3.208  21.799 -37.415  1.00  0.00    -0.010 C 
HETATM   32  C14 UNL     1      -2.845  22.507 -36.136  1.00  0.00     0.009 C 
HETATM   33  C18 UNL     1      -3.047  22.731 -38.597  1.00  0.00     0.009 C 
HETATM   34  C15 UNL     1      -1.351  22.788 -36.184  1.00  0.00    -0.010 C 
HETATM   35  C16 UNL     1      -1.134  23.765 -37.345  1.00  0.00     0.009 C 
HETATM   36  C20 UNL     1      -0.536  21.572 -36.422  1.00  0.00     0.050 C 
HETATM   37  C17 UNL     1      -1.576  23.098 -38.626  1.00  0.00    -0.010 C 
HETATM   38  C19 UNL     1      -0.756  21.869 -38.838  1.00  0.00     0.050 C 
ENDBRANCH  27  29
ENDBRANCH   3  24
TORSDOF 10
ENDMDL
MODEL 5
REMARK VINA RESULT: -8.107166282      3.922      4.883
REMARK  10 active torsions:
REMARK  status: ('A' for Active; 'I' for Inactive)
REMARK    1  A    between atoms: C2_2  and  O1_4 
REMARK    2  A    between atoms: C2_2  and  C4_6 
REMARK    3  A    between atoms: C4_6  and  N1_7 
REMARK       I    between atoms: N1_7  and  C5_9 
REMARK    4  A    between atoms: C5_9  and  C6_11 
REMARK    5  A    between atoms: C6_11  and  N2_12 
REMARK    6  A    between atoms: N2_12  and  C7_13 
REMARK    7  A    between atoms: C7_13  and  O3_14 
REMARK    8  A    between atoms: C7_13  and  C8_16 
REMARK    9  A    between atoms: C9_18  and  N3_19 
REMARK       I    between atoms: N3_19  and  C10_21 
REMARK       I    between atoms: C10_21  and  N4_23 
REMARK   10  A    between atoms: N4_23  and  C11_24 
ROOT
HETATM    1  C8  UNL     1       1.256  18.575 -39.383  1.00  0.00     0.093 A 
HETATM    2  S1  UNL     1       0.527  19.564 -38.158  1.00  0.00    -0.065 SA
HETATM    3  C9  UNL     1      -0.329  20.670 -39.103  1.00  0.00     0.081 A 
HETATM    4  C21 UNL     1      -0.022  20.233 -40.381  1.00  0.00     0.062 A 
HETATM    5  C22 UNL     1       0.785  19.168 -40.521  1.00  0.00     0.059 A 
HETATM    6 CL1  UNL     1       1.169  18.540 -42.172  1.00  0.00    -0.083 Cl
ENDROOT
BRANCH   1   7
HETATM    7  C7  UNL     1       2.008  17.319 -39.184  1.00  0.00     0.229 C 
BRANCH   7   8
HETATM    8  N2  UNL     1       1.624  16.181 -38.664  1.00  0.00    -0.402 NA
BRANCH   8   9
HETATM    9  C6  UNL     1       1.203  15.217 -37.733  1.00  0.00     0.176 A 
HETATM   10  C23 UNL     1      -0.185  15.389 -37.173  1.00  0.00     0.060 A 
HETATM   11  C24 UNL     1       0.064  14.253 -38.129  1.00  0.00     0.060 A 
BRANCH   9  12
HETATM   12  C5  UNL     1       2.207  14.547 -36.894  1.00  0.00     0.259 C 
HETATM   13  N1  UNL     1       2.087  14.097 -35.555  1.00  0.00    -0.355 N 
ATOM     14  H1  UNL     1       1.231  14.227 -35.016  1.00  0.00     0.162 HD
HETATM   15  O2  UNL     1       3.336  14.340 -37.476  1.00  0.00    -0.269 OA
BRANCH  13  16
HETATM   16  C4  UNL     1       3.234  13.452 -35.006  1.00  0.00     0.159 C 
BRANCH  16  17
HETATM   17  C2  UNL     1       3.064  12.511 -33.867  1.00  0.00     0.066 C 
HETATM   18  C1  UNL     1       3.931  12.917 -32.679  1.00  0.00     0.047 C 
HETATM   19  C3  UNL     1       3.182  11.073 -34.244  1.00  0.00     0.047 C 
BRANCH  17  20
HETATM   20  O1  UNL     1       1.713  12.713 -33.420  1.00  0.00    -0.389 OA
ATOM     21  H1  UNL     1       1.174  12.296 -34.083  1.00  0.00     0.210 HD
ENDBRANCH  17  20
ENDBRANCH  16  17
ENDBRANCH  13  16
ENDBRANCH   9  12
ENDBRANCH   8   9
ENDBRANCH   7   8
BRANCH   7  22
HETATM   22  O3  UNL     1       3.271  17.500 -39.638  1.00  0.00    -0.335 OA
ATOM     23  H3  UNL     1       3.540  18.316 -40.043  1.00  0.00     0.220 HD
ENDBRANCH   7  22
ENDBRANCH   1   7
BRANCH   3  24
HETATM   24  N3  UNL     1      -1.125  21.812 -38.830  1.00  0.00    -0.291 N 
HETATM   25  C10 UNL     1      -2.488  21.687 -38.375  1.00  0.00     0.394 C 
HETATM   26  O4  UNL     1      -2.938  20.563 -38.212  1.00  0.00    -0.230 OA
HETATM   27  N4  UNL     1      -3.097  22.931 -38.178  1.00  0.00    -0.385 NA
ATOM     28  H3  UNL     1      -0.725  22.741 -38.958  1.00  0.00     0.172 HD
BRANCH  27  29
HETATM   29  C11 UNL     1      -3.694  24.119 -37.984  1.00  0.00     0.100 C 
HETATM   30  C12 UNL     1      -4.836  24.264 -39.048  1.00  0.00     0.050 C 
HETATM   31  C13 UNL     1      -5.442  25.597 -38.937  1.00  0.00    -0.010 C 
HETATM   32  C14 UNL     1      -6.128  25.780 -37.608  1.00  0.00     0.009 C 
HETATM   33  C18 UNL     1      -4.451  26.716 -39.177  1.00  0.00     0.009 C 
HETATM   34  C15 UNL     1      -5.077  25.582 -36.527  1.00  0.00    -0.010 C 
HETATM   35  C16 UNL     1      -4.063  26.718 -36.699  1.00  0.00     0.009 C 
HETATM   36  C20 UNL     1      -4.365  24.285 -36.636  1.00  0.00     0.050 C 
HETATM   37  C17 UNL     1      -3.428  26.598 -38.064  1.00  0.00    -0.010 C 
HETATM   38  C19 UNL     1      -2.733  25.282 -38.159  1.00  0.00     0.050 C 
ENDBRANCH  27  29
ENDBRANCH   3  24
TORSDOF 10
ENDMDL
