MODEL 1
REMARK VINA RESULT: -7.664027127      0.000      0.000
REMARK  10 active torsions:
REMARK  status: ('A' for Active; 'I' for Inactive)
REMARK    1  A    between atoms: N1_1  and  C1_4 
REMARK    2  A    between atoms: C1_4  and  N2_5 
REMARK    3  A    between atoms: C1_4  and  O1_12 
REMARK    4  A    between atoms: N2_5  and  C2_7 
REMARK    5  A    between atoms: O1_12  and  C7_13 
REMARK    6  A    between atoms: N3_15  and  C9_16 
REMARK    7  A    between atoms: C11_22  and  N6_23 
REMARK    8  A    between atoms: C12_26  and  O2_27 
REMARK    9  A    between atoms: O2_27  and  C13_28 
REMARK   10  A    between atoms: C13_28  and  C14_29 
ROOT
HETATM    1  C9  UNL     1       7.050   3.273   6.096  1.00  0.00     0.142 A 
HETATM    2  N4  UNL     1       7.773   3.033   7.247  1.00  0.00    -0.336 N 
ATOM      3  H4  UNL     1       8.560   2.385   7.199  1.00  0.00     0.168 HD
HETATM    4  C10 UNL     1       7.497   3.602   8.413  1.00  0.00     0.183 A 
HETATM    5  N5  UNL     1       6.469   4.444   8.462  1.00  0.00    -0.337 N 
ATOM      6  H5  UNL     1       6.259   4.882   9.360  1.00  0.00     0.168 HD
HETATM    7  C11 UNL     1       5.686   4.762   7.416  1.00  0.00     0.137 A 
HETATM    8  C12 UNL     1       6.002   4.138   6.182  1.00  0.00     0.157 A 
ENDROOT
BRANCH   1   9
HETATM    9  N3  UNL     1       7.497   2.688   4.896  1.00  0.00    -0.360 N 
HETATM   10  C8  UNL     1       8.501   3.309   3.963  1.00  0.00     0.159 C 
HETATM   11  C7  UNL     1       8.937   1.853   3.719  1.00  0.00     0.168 C 
HETATM   12  C18 UNL     1       7.481   1.605   3.965  1.00  0.00     0.159 C 
BRANCH  11  13
HETATM   13  O1  UNL     1       9.437   1.702   2.429  1.00  0.00    -0.314 OA
BRANCH  13  14
HETATM   14  C1  UNL     1      10.704   1.119   2.296  1.00  0.00     0.213 C 
BRANCH  14  15
HETATM   15  N1  UNL     1      11.695   1.785   2.775  1.00  0.00    -0.365 N 
ATOM     16  H12 UNL     1      12.599   1.314   2.780  1.00  0.00     0.159 HD
ATOM     17  H11 UNL     1      11.534   2.731   3.120  1.00  0.00     0.159 HD
ENDBRANCH  14  15
BRANCH  14  18
HETATM   18  N2  UNL     1      10.949  -0.124   1.682  1.00  0.00    -0.352 N 
ATOM     19  H2  UNL     1      11.782  -0.199   1.099  1.00  0.00     0.163 HD
BRANCH  18  20
HETATM   20  C2  UNL     1      10.127  -1.295   1.807  1.00  0.00     0.085 C 
HETATM   21  C3  UNL     1      10.750  -2.544   1.259  1.00  0.00     0.025 C 
HETATM   22  C4  UNL     1       9.959  -3.655   1.902  1.00  0.00     0.002 C 
HETATM   23  C5  UNL     1       9.264  -3.082   3.092  1.00  0.00     0.002 C 
HETATM   24  C6  UNL     1       9.683  -1.619   3.194  1.00  0.00     0.025 C 
ENDBRANCH  18  20
ENDBRANCH  14  18
ENDBRANCH  13  14
ENDBRANCH  11  13
ENDBRANCH   1   9
BRANCH   8  25
HETATM   25  O2  UNL     1       5.195   4.454   5.147  1.00  0.00    -0.342 OA
BRANCH  25  26
HETATM   26  C13 UNL     1       5.316   5.246   4.034  1.00  0.00     0.207 C 
BRANCH  26  27
HETATM   27  C14 UNL     1       5.612   6.713   4.162  1.00  0.00     0.145 C 
HETATM   28  C15 UNL     1       5.770   7.445   2.884  1.00  0.00     0.036 C 
HETATM   29  C16 UNL     1       4.465   8.218   2.717  1.00  0.00     0.029 C 
HETATM   30  C17 UNL     1       4.104   8.398   4.177  1.00  0.00     0.168 C 
HETATM   31  O3  UNL     1       4.507   7.269   4.827  1.00  0.00    -0.384 OA
ENDBRANCH  26  27
ENDBRANCH  25  26
ENDBRANCH   8  25
BRANCH   7  32
HETATM   32  N6  UNL     1       4.720   5.598   7.525  1.00  0.00    -0.383 N 
ATOM     33  H62 UNL     1       4.823   6.477   8.031  1.00  0.00     0.157 HD
ATOM     34  H61 UNL     1       3.801   5.412   7.122  1.00  0.00     0.157 HD
ENDBRANCH   7  32
TORSDOF 10
ENDMDL
MODEL 2
REMARK VINA RESULT: -7.593705670      3.524      5.755
REMARK  10 active torsions:
REMARK  status: ('A' for Active; 'I' for Inactive)
REMARK    1  A    between atoms: N1_1  and  C1_4 
REMARK    2  A    between atoms: C1_4  and  N2_5 
REMARK    3  A    between atoms: C1_4  and  O1_12 
REMARK    4  A    between atoms: N2_5  and  C2_7 
REMARK    5  A    between atoms: O1_12  and  C7_13 
REMARK    6  A    between atoms: N3_15  and  C9_16 
REMARK    7  A    between atoms: C11_22  and  N6_23 
REMARK    8  A    between atoms: C12_26  and  O2_27 
REMARK    9  A    between atoms: O2_27  and  C13_28 
REMARK   10  A    between atoms: C13_28  and  C14_29 
ROOT
HETATM    1  C9  UNL     1      10.298   1.162   2.809  1.00  0.00     0.142 A 
HETATM    2  N4  UNL     1      11.596   1.402   2.405  1.00  0.00    -0.336 N 
ATOM      3  H4  UNL     1      12.197   0.602   2.208  1.00  0.00     0.168 HD
HETATM    4  C10 UNL     1      12.100   2.620   2.261  1.00  0.00     0.183 A 
HETATM    5  N5  UNL     1      11.305   3.654   2.521  1.00  0.00    -0.337 N 
ATOM      6  H5  UNL     1      11.695   4.590   2.408  1.00  0.00     0.168 HD
HETATM    7  C11 UNL     1      10.025   3.556   2.922  1.00  0.00     0.137 A 
HETATM    8  C12 UNL     1       9.512   2.242   3.071  1.00  0.00     0.157 A 
ENDROOT
BRANCH   1   9
HETATM    9  N3  UNL     1       9.844  -0.171   2.832  1.00  0.00    -0.360 N 
HETATM   10  C8  UNL     1       9.556  -0.998   1.608  1.00  0.00     0.159 C 
HETATM   11  C7  UNL     1      10.073  -2.164   2.470  1.00  0.00     0.168 C 
HETATM   12  C18 UNL     1       9.468  -1.339   3.563  1.00  0.00     0.159 C 
BRANCH  11  13
HETATM   13  O1  UNL     1       9.452  -3.355   2.103  1.00  0.00    -0.314 OA
BRANCH  13  14
HETATM   14  C1  UNL     1      10.220  -4.287   1.393  1.00  0.00     0.213 C 
BRANCH  14  15
HETATM   15  N1  UNL     1       9.610  -5.344   0.989  1.00  0.00    -0.365 N 
ATOM     16  H12 UNL     1       9.736  -6.185   1.552  1.00  0.00     0.159 HD
ATOM     17  H11 UNL     1       9.041  -5.295   0.144  1.00  0.00     0.159 HD
ENDBRANCH  14  15
BRANCH  14  18
HETATM   18  N2  UNL     1      11.590  -4.135   1.104  1.00  0.00    -0.352 N 
ATOM     19  H2  UNL     1      12.250  -4.347   1.851  1.00  0.00     0.163 HD
BRANCH  18  20
HETATM   20  C2  UNL     1      12.137  -3.709  -0.154  1.00  0.00     0.085 C 
HETATM   21  C3  UNL     1      12.696  -2.318  -0.140  1.00  0.00     0.025 C 
HETATM   22  C4  UNL     1      13.593  -2.277  -1.352  1.00  0.00     0.002 C 
HETATM   23  C5  UNL     1      13.890  -3.686  -1.741  1.00  0.00     0.002 C 
HETATM   24  C6  UNL     1      13.204  -4.586  -0.718  1.00  0.00     0.025 C 
ENDBRANCH  18  20
ENDBRANCH  14  18
ENDBRANCH  13  14
ENDBRANCH  11  13
ENDBRANCH   1   9
BRANCH   8  25
HETATM   25  O2  UNL     1       8.231   2.162   3.492  1.00  0.00    -0.342 OA
BRANCH  25  26
HETATM   26  C13 UNL     1       7.623   1.943   4.701  1.00  0.00     0.207 C 
BRANCH  26  27
HETATM   27  C14 UNL     1       8.158   2.570   5.956  1.00  0.00     0.145 C 
HETATM   28  C15 UNL     1       7.327   3.652   6.532  1.00  0.00     0.036 C 
HETATM   29  C16 UNL     1       6.631   3.009   7.729  1.00  0.00     0.029 C 
HETATM   30  C17 UNL     1       7.671   1.967   8.080  1.00  0.00     0.168 C 
HETATM   31  O3  UNL     1       8.214   1.537   6.906  1.00  0.00    -0.384 OA
ENDBRANCH  26  27
ENDBRANCH  25  26
ENDBRANCH   8  25
BRANCH   7  32
HETATM   32  N6  UNL     1       9.304   4.594   3.139  1.00  0.00    -0.383 N 
ATOM     33  H62 UNL     1       9.278   5.051   4.049  1.00  0.00     0.157 HD
ATOM     34  H61 UNL     1       8.714   4.998   2.412  1.00  0.00     0.157 HD
ENDBRANCH   7  32
TORSDOF 10
ENDMDL
MODEL 3
REMARK VINA RESULT: -7.508884115      0.914      1.221
REMARK  10 active torsions:
REMARK  status: ('A' for Active; 'I' for Inactive)
REMARK    1  A    between atoms: N1_1  and  C1_4 
REMARK    2  A    between atoms: C1_4  and  N2_5 
REMARK    3  A    between atoms: C1_4  and  O1_12 
REMARK    4  A    between atoms: N2_5  and  C2_7 
REMARK    5  A    between atoms: O1_12  and  C7_13 
REMARK    6  A    between atoms: N3_15  and  C9_16 
REMARK    7  A    between atoms: C11_22  and  N6_23 
REMARK    8  A    between atoms: C12_26  and  O2_27 
REMARK    9  A    between atoms: O2_27  and  C13_28 
REMARK   10  A    between atoms: C13_28  and  C14_29 
ROOT
HETATM    1  C9  UNL     1       7.606   2.667   5.726  1.00  0.00     0.142 A 
HETATM    2  N4  UNL     1       8.173   2.070   6.834  1.00  0.00    -0.336 N 
ATOM      3  H4  UNL     1       8.913   1.384   6.689  1.00  0.00     0.168 HD
HETATM    4  C10 UNL     1       7.802   2.344   8.078  1.00  0.00     0.183 A 
HETATM    5  N5  UNL     1       6.836   3.241   8.253  1.00  0.00    -0.337 N 
ATOM      6  H5  UNL     1       6.554   3.451   9.211  1.00  0.00     0.168 HD
HETATM    7  C11 UNL     1       6.203   3.891   7.260  1.00  0.00     0.137 A 
HETATM    8  C12 UNL     1       6.616   3.577   5.940  1.00  0.00     0.157 A 
ENDROOT
BRANCH   1   9
HETATM    9  N3  UNL     1       8.147   2.370   4.461  1.00  0.00    -0.360 N 
HETATM   10  C8  UNL     1       9.372   3.023   3.879  1.00  0.00     0.159 C 
HETATM   11  C7  UNL     1       9.616   1.639   3.250  1.00  0.00     0.168 C 
HETATM   12  C18 UNL     1       8.119   1.617   3.246  1.00  0.00     0.159 C 
BRANCH  11  13
HETATM   13  O1  UNL     1      10.290   1.766   2.038  1.00  0.00    -0.314 OA
BRANCH  13  14
HETATM   14  C1  UNL     1      11.469   1.026   1.880  1.00  0.00     0.213 C 
BRANCH  14  15
HETATM   15  N1  UNL     1      12.510   1.468   2.492  1.00  0.00    -0.365 N 
ATOM     16  H12 UNL     1      12.937   0.842   3.174  1.00  0.00     0.159 HD
ATOM     17  H11 UNL     1      12.854   2.402   2.272  1.00  0.00     0.159 HD
ENDBRANCH  14  15
BRANCH  14  18
HETATM   18  N2  UNL     1      11.577  -0.147   1.108  1.00  0.00    -0.352 N 
ATOM     19  H2  UNL     1      11.785  -0.034   0.116  1.00  0.00     0.163 HD
BRANCH  18  20
HETATM   20  C2  UNL     1      11.418  -1.488   1.597  1.00  0.00     0.085 C 
HETATM   21  C3  UNL     1      10.093  -1.753   2.245  1.00  0.00     0.025 C 
HETATM   22  C4  UNL     1       9.982  -3.257   2.240  1.00  0.00     0.002 C 
HETATM   23  C5  UNL     1      10.949  -3.777   1.230  1.00  0.00     0.002 C 
HETATM   24  C6  UNL     1      11.615  -2.566   0.583  1.00  0.00     0.025 C 
ENDBRANCH  18  20
ENDBRANCH  14  18
ENDBRANCH  13  14
ENDBRANCH  11  13
ENDBRANCH   1   9
BRANCH   8  25
HETATM   25  O2  UNL     1       5.958   4.225   4.955  1.00  0.00    -0.342 OA
BRANCH  25  26
HETATM   26  C13 UNL     1       6.303   5.165   4.018  1.00  0.00     0.207 C 
BRANCH  26  27
HETATM   27  C14 UNL     1       6.175   6.631   4.316  1.00  0.00     0.145 C 
HETATM   28  C15 UNL     1       6.191   7.526   3.135  1.00  0.00     0.036 C 
HETATM   29  C16 UNL     1       4.733   7.934   2.940  1.00  0.00     0.029 C 
HETATM   30  C17 UNL     1       4.261   7.835   4.375  1.00  0.00     0.168 C 
HETATM   31  O3  UNL     1       4.926   6.787   4.940  1.00  0.00    -0.384 OA
ENDBRANCH  26  27
ENDBRANCH  25  26
ENDBRANCH   8  25
BRANCH   7  32
HETATM   32  N6  UNL     1       5.290   4.760   7.496  1.00  0.00    -0.383 N 
ATOM     33  H62 UNL     1       5.508   5.747   7.630  1.00  0.00     0.157 HD
ATOM     34  H61 UNL     1       4.307   4.498   7.575  1.00  0.00     0.157 HD
ENDBRANCH   7  32
TORSDOF 10
ENDMDL
MODEL 4
REMARK VINA RESULT: -7.468240088      1.437      1.490
REMARK  10 active torsions:
REMARK  status: ('A' for Active; 'I' for Inactive)
REMARK    1  A    between atoms: N1_1  and  C1_4 
REMARK    2  A    between atoms: C1_4  and  N2_5 
REMARK    3  A    between atoms: C1_4  and  O1_12 
REMARK    4  A    between atoms: N2_5  and  C2_7 
REMARK    5  A    between atoms: O1_12  and  C7_13 
REMARK    6  A    between atoms: N3_15  and  C9_16 
REMARK    7  A    between atoms: C11_22  and  N6_23 
REMARK    8  A    between atoms: C12_26  and  O2_27 
REMARK    9  A    between atoms: O2_27  and  C13_28 
REMARK   10  A    between atoms: C13_28  and  C14_29 
ROOT
HETATM    1  C9  UNL     1       7.338   2.845   5.492  1.00  0.00     0.142 A 
HETATM    2  N4  UNL     1       7.769   2.351   6.706  1.00  0.00    -0.336 N 
ATOM      3  H4  UNL     1       8.377   1.532   6.708  1.00  0.00     0.168 HD
HETATM    4  C10 UNL     1       7.431   2.888   7.872  1.00  0.00     0.183 A 
HETATM    5  N5  UNL     1       6.638   3.955   7.854  1.00  0.00    -0.337 N 
ATOM      6  H5  UNL     1       6.381   4.368   8.752  1.00  0.00     0.168 HD
HETATM    7  C11 UNL     1       6.149   4.531   6.741  1.00  0.00     0.137 A 
HETATM    8  C12 UNL     1       6.523   3.935   5.510  1.00  0.00     0.157 A 
ENDROOT
BRANCH   1   9
HETATM    9  N3  UNL     1       7.840   2.252   4.317  1.00  0.00    -0.360 N 
HETATM   10  C8  UNL     1       9.041   2.745   3.556  1.00  0.00     0.159 C 
HETATM   11  C7  UNL     1       9.274   1.251   3.269  1.00  0.00     0.168 C 
HETATM   12  C18 UNL     1       7.778   1.230   3.321  1.00  0.00     0.159 C 
BRANCH  11  13
HETATM   13  O1  UNL     1       9.908   1.082   2.041  1.00  0.00    -0.314 OA
BRANCH  13  14
HETATM   14  C1  UNL     1      11.128   0.394   2.037  1.00  0.00     0.213 C 
BRANCH  14  15
HETATM   15  N1  UNL     1      12.173   1.078   2.343  1.00  0.00    -0.365 N 
ATOM     16  H12 UNL     1      12.341   1.921   1.795  1.00  0.00     0.159 HD
ATOM     17  H11 UNL     1      12.772   0.753   3.102  1.00  0.00     0.159 HD
ENDBRANCH  14  15
BRANCH  14  18
HETATM   18  N2  UNL     1      11.271  -0.972   1.727  1.00  0.00    -0.352 N 
ATOM     19  H2  UNL     1      12.186  -1.281   1.398  1.00  0.00     0.163 HD
BRANCH  18  20
HETATM   20  C2  UNL     1      10.242  -1.967   1.833  1.00  0.00     0.085 C 
HETATM   21  C3  UNL     1      10.596  -3.287   1.216  1.00  0.00     0.025 C 
HETATM   22  C4  UNL     1       9.621  -4.252   1.842  1.00  0.00     0.002 C 
HETATM   23  C5  UNL     1       9.080  -3.611   3.076  1.00  0.00     0.002 C 
HETATM   24  C6  UNL     1       9.779  -2.262   3.221  1.00  0.00     0.025 C 
ENDBRANCH  18  20
ENDBRANCH  14  18
ENDBRANCH  13  14
ENDBRANCH  11  13
ENDBRANCH   1   9
BRANCH   8  25
HETATM   25  O2  UNL     1       6.010   4.514   4.403  1.00  0.00    -0.342 OA
BRANCH  25  26
HETATM   26  C13 UNL     1       6.413   5.521   3.563  1.00  0.00     0.207 C 
BRANCH  26  27
HETATM   27  C14 UNL     1       7.655   6.314   3.853  1.00  0.00     0.145 C 
HETATM   28  C15 UNL     1       8.259   7.001   2.687  1.00  0.00     0.036 C 
HETATM   29  C16 UNL     1       7.868   8.466   2.858  1.00  0.00     0.029 C 
HETATM   30  C17 UNL     1       7.763   8.513   4.368  1.00  0.00     0.168 C 
HETATM   31  O3  UNL     1       7.270   7.307   4.768  1.00  0.00    -0.384 OA
ENDBRANCH  26  27
ENDBRANCH  25  26
ENDBRANCH   8  25
BRANCH   7  32
HETATM   32  N6  UNL     1       5.403   5.572   6.792  1.00  0.00    -0.383 N 
ATOM     33  H62 UNL     1       5.776   6.492   7.021  1.00  0.00     0.157 HD
ATOM     34  H61 UNL     1       4.399   5.521   6.619  1.00  0.00     0.157 HD
ENDBRANCH   7  32
TORSDOF 10
ENDMDL
MODEL 5
REMARK VINA RESULT: -7.445757852      3.586      5.499
REMARK  10 active torsions:
REMARK  status: ('A' for Active; 'I' for Inactive)
REMARK    1  A    between atoms: N1_1  and  C1_4 
REMARK    2  A    between atoms: C1_4  and  N2_5 
REMARK    3  A    between atoms: C1_4  and  O1_12 
REMARK    4  A    between atoms: N2_5  and  C2_7 
REMARK    5  A    between atoms: O1_12  and  C7_13 
REMARK    6  A    between atoms: N3_15  and  C9_16 
REMARK    7  A    between atoms: C11_22  and  N6_23 
REMARK    8  A    between atoms: C12_26  and  O2_27 
REMARK    9  A    between atoms: O2_27  and  C13_28 
REMARK   10  A    between atoms: C13_28  and  C14_29 
ROOT
HETATM    1  C9  UNL     1      10.105   1.367   3.045  1.00  0.00     0.142 A 
HETATM    2  N4  UNL     1      11.398   1.477   2.576  1.00  0.00    -0.336 N 
ATOM      3  H4  UNL     1      11.941   0.623   2.448  1.00  0.00     0.168 HD
HETATM    4  C10 UNL     1      11.970   2.638   2.283  1.00  0.00     0.183 A 
HETATM    5  N5  UNL     1      11.251   3.743   2.454  1.00  0.00    -0.337 N 
ATOM      6  H5  UNL     1      11.692   4.635   2.227  1.00  0.00     0.168 HD
HETATM    7  C11 UNL     1       9.984   3.772   2.905  1.00  0.00     0.137 A 
HETATM    8  C12 UNL     1       9.397   2.518   3.213  1.00  0.00     0.157 A 
ENDROOT
BRANCH   1   9
HETATM    9  N3  UNL     1       9.571   0.077   3.229  1.00  0.00    -0.360 N 
HETATM   10  C8  UNL     1       8.448  -0.508   2.416  1.00  0.00     0.159 C 
HETATM   11  C7  UNL     1       9.208  -1.833   2.613  1.00  0.00     0.168 C 
HETATM   12  C18 UNL     1       9.572  -1.179   3.910  1.00  0.00     0.159 C 
BRANCH  11  13
HETATM   13  O1  UNL     1       8.322  -2.907   2.626  1.00  0.00    -0.314 OA
BRANCH  13  14
HETATM   14  C1  UNL     1       8.875  -4.194   2.628  1.00  0.00     0.213 C 
BRANCH  14  15
HETATM   15  N1  UNL     1       8.716  -4.885   3.701  1.00  0.00    -0.365 N 
ATOM     16  H12 UNL     1       8.326  -5.819   3.587  1.00  0.00     0.159 HD
ATOM     17  H11 UNL     1       8.983  -4.476   4.597  1.00  0.00     0.159 HD
ENDBRANCH  14  15
BRANCH  14  18
HETATM   18  N2  UNL     1       9.577  -4.761   1.547  1.00  0.00    -0.352 N 
ATOM     19  H2  UNL     1       9.095  -5.476   1.003  1.00  0.00     0.163 HD
BRANCH  18  20
HETATM   20  C2  UNL     1      10.913  -4.420   1.146  1.00  0.00     0.085 C 
HETATM   21  C3  UNL     1      11.631  -5.511   0.410  1.00  0.00     0.025 C 
HETATM   22  C4  UNL     1      12.759  -4.793  -0.289  1.00  0.00     0.002 C 
HETATM   23  C5  UNL     1      12.413  -3.343  -0.331  1.00  0.00     0.002 C 
HETATM   24  C6  UNL     1      11.035  -3.193   0.305  1.00  0.00     0.025 C 
ENDBRANCH  18  20
ENDBRANCH  14  18
ENDBRANCH  13  14
ENDBRANCH  11  13
ENDBRANCH   1   9
BRANCH   8  25
HETATM   25  O2  UNL     1       8.132   2.567   3.681  1.00  0.00    -0.342 OA
BRANCH  25  26
HETATM   26  C13 UNL     1       7.534   2.285   4.883  1.00  0.00     0.207 C 
BRANCH  26  27
HETATM   27  C14 UNL     1       8.139   2.758   6.173  1.00  0.00     0.145 C 
HETATM   28  C15 UNL     1       7.310   3.703   6.957  1.00  0.00     0.036 C 
HETATM   29  C16 UNL     1       6.739   2.862   8.096  1.00  0.00     0.029 C 
HETATM   30  C17 UNL     1       7.848   1.839   8.218  1.00  0.00     0.168 C 
HETATM   31  O3  UNL     1       8.315   1.607   6.959  1.00  0.00    -0.384 OA
ENDBRANCH  26  27
ENDBRANCH  25  26
ENDBRANCH   8  25
BRANCH   7  32
HETATM   32  N6  UNL     1       9.337   4.872   3.030  1.00  0.00    -0.383 N 
ATOM     33  H62 UNL     1       9.809   5.756   3.217  1.00  0.00     0.157 HD
ATOM     34  H61 UNL     1       8.320   4.907   2.962  1.00  0.00     0.157 HD
ENDBRANCH   7  32
TORSDOF 10
ENDMDL
