MODEL 1
REMARK VINA RESULT: -5.090115316      0.000      0.000
REMARK  2 active torsions:
REMARK  status: ('A' for Active; 'I' for Inactive)
REMARK    1  A    between atoms: C4_6  and  N3_7 
REMARK    2  A    between atoms: C5_12  and  N5_13 
REMARK       I    between atoms: N5_13  and  C6_15 
REMARK       I    between atoms: C6_15  and  N6_16 
REMARK       I    between atoms: C6_15  and  N7_20 
ROOT
HETATM    1  C1  UNL     1     -18.912 -40.756  26.156  1.00  0.00     0.175 C 
HETATM    2  N1  UNL     1     -19.887 -39.798  25.649  1.00  0.00    -0.196 N 
HETATM    3  C2  UNL     1     -20.532 -40.135  24.509  1.00  0.00     0.139 A 
HETATM    4  C3  UNL     1     -21.470 -39.264  23.980  1.00  0.00     0.106 A 
HETATM    5  N2  UNL     1     -22.149 -39.611  22.788  1.00  0.00    -0.097 NA
HETATM    6  C4  UNL     1     -21.726 -38.091  24.612  1.00  0.00     0.140 A 
HETATM    7  N4  UNL     1     -21.046 -37.809  25.753  1.00  0.00    -0.175 N 
ATOM      8  H4  UNL     1     -21.235 -36.928  26.232  1.00  0.00     0.186 HD
HETATM    9  C5  UNL     1     -20.138 -38.641  26.273  1.00  0.00     0.684 A 
ENDROOT
BRANCH   9  10
HETATM   10  N5  UNL     1     -19.521 -38.354  27.333  1.00  0.00    -0.173 N 
HETATM   11  C6  UNL     1     -19.957 -38.626  28.675  1.00  0.00     0.494 C 
HETATM   12  N6  UNL     1     -21.123 -37.823  29.037  1.00  0.00    -0.032 N 
HETATM   13  N7  UNL     1     -18.881 -38.144  29.559  1.00  0.00    -0.032 N 
ATOM     14  H63 UNL     1     -20.947 -36.828  28.897  1.00  0.00     0.278 HD
ATOM     15  H62 UNL     1     -21.882 -37.946  28.366  1.00  0.00     0.278 HD
ATOM     16  H61 UNL     1     -21.432 -38.016  29.989  1.00  0.00     0.278 HD
ATOM     17  H73 UNL     1     -17.967 -38.540  29.340  1.00  0.00     0.278 HD
ATOM     18  H72 UNL     1     -18.634 -37.167  29.402  1.00  0.00     0.278 HD
ATOM     19  H71 UNL     1     -19.191 -38.337  30.511  1.00  0.00     0.278 HD
ATOM     20  H5  UNL     1     -18.623 -37.881  27.229  1.00  0.00     0.181 HD
ENDBRANCH   9  10
BRANCH   6  21
HETATM   21  N3  UNL     1     -22.603 -37.288  24.107  1.00  0.00    -0.383 N 
ATOM     22  H32 UNL     1     -22.750 -37.196  23.103  1.00  0.00     0.157 HD
ATOM     23  H31 UNL     1     -23.173 -36.722  24.736  1.00  0.00     0.157 HD
ENDBRANCH   6  21
TORSDOF 2
ENDMDL
MODEL 2
REMARK VINA RESULT: -4.602563278      1.760      5.041
REMARK  2 active torsions:
REMARK  status: ('A' for Active; 'I' for Inactive)
REMARK    1  A    between atoms: C4_6  and  N3_7 
REMARK    2  A    between atoms: C5_12  and  N5_13 
REMARK       I    between atoms: N5_13  and  C6_15 
REMARK       I    between atoms: C6_15  and  N6_16 
REMARK       I    between atoms: C6_15  and  N7_20 
ROOT
HETATM    1  C1  UNL     1     -23.662 -39.220  27.766  1.00  0.00     0.175 C 
HETATM    2  N1  UNL     1     -22.248 -39.031  28.066  1.00  0.00    -0.196 N 
HETATM    3  C2  UNL     1     -21.889 -39.099  29.367  1.00  0.00     0.139 A 
HETATM    4  C3  UNL     1     -20.560 -38.928  29.713  1.00  0.00     0.106 A 
HETATM    5  N2  UNL     1     -20.178 -38.998  31.073  1.00  0.00    -0.097 NA
HETATM    6  C4  UNL     1     -19.640 -38.695  28.743  1.00  0.00     0.140 A 
HETATM    7  N4  UNL     1     -20.061 -38.637  27.453  1.00  0.00    -0.175 N 
ATOM      8  H4  UNL     1     -19.374 -38.463  26.720  1.00  0.00     0.186 HD
HETATM    9  C5  UNL     1     -21.342 -38.801  27.107  1.00  0.00     0.684 A 
ENDROOT
BRANCH   9  10
HETATM   10  N5  UNL     1     -21.706 -38.743  25.902  1.00  0.00    -0.173 N 
HETATM   11  C6  UNL     1     -21.667 -37.584  25.054  1.00  0.00     0.494 C 
HETATM   12  N6  UNL     1     -22.630 -36.571  25.481  1.00  0.00    -0.032 N 
HETATM   13  N7  UNL     1     -22.151 -38.028  23.735  1.00  0.00    -0.032 N 
ATOM     14  H63 UNL     1     -23.572 -36.956  25.543  1.00  0.00     0.278 HD
ATOM     15  H62 UNL     1     -22.497 -36.320  26.461  1.00  0.00     0.278 HD
ATOM     16  H61 UNL     1     -22.603 -35.748  24.879  1.00  0.00     0.278 HD
ATOM     17  H73 UNL     1     -21.635 -38.823  23.359  1.00  0.00     0.278 HD
ATOM     18  H72 UNL     1     -23.066 -38.477  23.768  1.00  0.00     0.278 HD
ATOM     19  H71 UNL     1     -22.123 -37.205  23.133  1.00  0.00     0.278 HD
ATOM     20  H5  UNL     1     -22.064 -39.603  25.488  1.00  0.00     0.181 HD
ENDBRANCH   9  10
BRANCH   6  21
HETATM   21  N3  UNL     1     -18.403 -38.537  29.079  1.00  0.00    -0.383 N 
ATOM     22  H32 UNL     1     -18.124 -38.097  29.955  1.00  0.00     0.157 HD
ATOM     23  H31 UNL     1     -17.674 -38.863  28.445  1.00  0.00     0.157 HD
ENDBRANCH   6  21
TORSDOF 2
ENDMDL
MODEL 3
REMARK VINA RESULT: -4.395546807      1.206      1.445
REMARK  2 active torsions:
REMARK  status: ('A' for Active; 'I' for Inactive)
REMARK    1  A    between atoms: C4_6  and  N3_7 
REMARK    2  A    between atoms: C5_12  and  N5_13 
REMARK       I    between atoms: N5_13  and  C6_15 
REMARK       I    between atoms: C6_15  and  N6_16 
REMARK       I    between atoms: C6_15  and  N7_20 
ROOT
HETATM    1  C1  UNL     1     -19.935 -40.993  27.452  1.00  0.00     0.175 C 
HETATM    2  N1  UNL     1     -20.609 -39.963  26.670  1.00  0.00    -0.196 N 
HETATM    3  C2  UNL     1     -20.537 -40.079  25.324  1.00  0.00     0.139 A 
HETATM    4  C3  UNL     1     -21.158 -39.131  24.529  1.00  0.00     0.106 A 
HETATM    5  N2  UNL     1     -21.085 -39.247  23.121  1.00  0.00    -0.097 NA
HETATM    6  C4  UNL     1     -21.827 -38.104  25.110  1.00  0.00     0.140 A 
HETATM    7  N4  UNL     1     -21.865 -38.042  26.467  1.00  0.00    -0.175 N 
ATOM      8  H4  UNL     1     -22.368 -37.272  26.908  1.00  0.00     0.186 HD
HETATM    9  C5  UNL     1     -21.269 -38.951  27.245  1.00  0.00     0.684 A 
ENDROOT
BRANCH   9  10
HETATM   10  N5  UNL     1     -21.320 -38.869  28.501  1.00  0.00    -0.173 N 
HETATM   11  C6  UNL     1     -20.855 -37.772  29.305  1.00  0.00     0.494 C 
HETATM   12  N6  UNL     1     -19.398 -37.661  29.272  1.00  0.00    -0.032 N 
HETATM   13  N7  UNL     1     -21.173 -38.126  30.699  1.00  0.00    -0.032 N 
ATOM     14  H63 UNL     1     -18.952 -38.536  29.543  1.00  0.00     0.278 HD
ATOM     15  H62 UNL     1     -19.051 -37.594  28.315  1.00  0.00     0.278 HD
ATOM     16  H61 UNL     1     -19.068 -36.882  29.843  1.00  0.00     0.278 HD
ATOM     17  H73 UNL     1     -22.157 -38.350  30.848  1.00  0.00     0.278 HD
ATOM     18  H72 UNL     1     -20.795 -39.029  30.986  1.00  0.00     0.278 HD
ATOM     19  H71 UNL     1     -20.842 -37.347  31.269  1.00  0.00     0.278 HD
ATOM     20  H5  UNL     1     -21.732 -39.660  28.997  1.00  0.00     0.181 HD
ENDBRANCH   9  10
BRANCH   6  21
HETATM   21  N3  UNL     1     -22.402 -37.227  24.357  1.00  0.00    -0.383 N 
ATOM     22  H32 UNL     1     -22.045 -36.279  24.247  1.00  0.00     0.157 HD
ATOM     23  H31 UNL     1     -23.247 -37.490  23.849  1.00  0.00     0.157 HD
ENDBRANCH   6  21
TORSDOF 2
ENDMDL
MODEL 4
REMARK VINA RESULT: -4.394494819      2.037      2.826
REMARK  2 active torsions:
REMARK  status: ('A' for Active; 'I' for Inactive)
REMARK    1  A    between atoms: C4_6  and  N3_7 
REMARK    2  A    between atoms: C5_12  and  N5_13 
REMARK       I    between atoms: N5_13  and  C6_15 
REMARK       I    between atoms: C6_15  and  N6_16 
REMARK       I    between atoms: C6_15  and  N7_20 
ROOT
HETATM    1  C1  UNL     1     -22.950 -39.613  29.005  1.00  0.00     0.175 C 
HETATM    2  N1  UNL     1     -22.811 -38.958  27.709  1.00  0.00    -0.196 N 
HETATM    3  C2  UNL     1     -23.918 -38.905  26.935  1.00  0.00     0.139 A 
HETATM    4  C3  UNL     1     -23.846 -38.295  25.694  1.00  0.00     0.106 A 
HETATM    5  N2  UNL     1     -25.001 -38.237  24.879  1.00  0.00    -0.097 NA
HETATM    6  C4  UNL     1     -22.670 -37.762  25.276  1.00  0.00     0.140 A 
HETATM    7  N4  UNL     1     -21.593 -37.847  26.099  1.00  0.00    -0.175 N 
ATOM      8  H4  UNL     1     -20.708 -37.447  25.790  1.00  0.00     0.186 HD
HETATM    9  C5  UNL     1     -21.650 -38.433  27.299  1.00  0.00     0.684 A 
ENDROOT
BRANCH   9  10
HETATM   10  N5  UNL     1     -20.635 -38.497  28.043  1.00  0.00    -0.173 N 
HETATM   11  C6  UNL     1     -19.378 -39.115  27.721  1.00  0.00     0.494 C 
HETATM   12  N6  UNL     1     -19.501 -40.567  27.621  1.00  0.00    -0.032 N 
HETATM   13  N7  UNL     1     -18.504 -38.892  28.886  1.00  0.00    -0.032 N 
ATOM     14  H63 UNL     1     -19.906 -40.965  28.468  1.00  0.00     0.278 HD
ATOM     15  H62 UNL     1     -20.229 -40.835  26.957  1.00  0.00     0.278 HD
ATOM     16  H61 UNL     1     -18.609 -41.006  27.392  1.00  0.00     0.278 HD
ATOM     17  H73 UNL     1     -18.419 -37.910  29.149  1.00  0.00     0.278 HD
ATOM     18  H72 UNL     1     -18.906 -39.221  29.764  1.00  0.00     0.278 HD
ATOM     19  H71 UNL     1     -17.612 -39.330  28.657  1.00  0.00     0.278 HD
ATOM     20  H5  UNL     1     -20.714 -38.070  28.966  1.00  0.00     0.181 HD
ENDBRANCH   9  10
BRANCH   6  21
HETATM   21  N3  UNL     1     -22.618 -37.197  24.117  1.00  0.00    -0.383 N 
ATOM     22  H32 UNL     1     -23.435 -37.098  23.516  1.00  0.00     0.157 HD
ATOM     23  H31 UNL     1     -21.724 -36.833  23.785  1.00  0.00     0.157 HD
ENDBRANCH   6  21
TORSDOF 2
ENDMDL
MODEL 5
REMARK VINA RESULT: -4.378910406      1.321      4.280
REMARK  2 active torsions:
REMARK  status: ('A' for Active; 'I' for Inactive)
REMARK    1  A    between atoms: C4_6  and  N3_7 
REMARK    2  A    between atoms: C5_12  and  N5_13 
REMARK       I    between atoms: N5_13  and  C6_15 
REMARK       I    between atoms: C6_15  and  N6_16 
REMARK       I    between atoms: C6_15  and  N7_20 
ROOT
HETATM    1  C1  UNL     1     -20.410 -40.961  24.355  1.00  0.00     0.175 C 
HETATM    2  N1  UNL     1     -20.166 -40.168  25.554  1.00  0.00    -0.196 N 
HETATM    3  C2  UNL     1     -19.030 -40.437  26.238  1.00  0.00     0.139 A 
HETATM    4  C3  UNL     1     -18.744 -39.716  27.384  1.00  0.00     0.106 A 
HETATM    5  N2  UNL     1     -17.558 -39.993  28.104  1.00  0.00    -0.097 NA
HETATM    6  C4  UNL     1     -19.605 -38.754  27.803  1.00  0.00     0.140 A 
HETATM    7  N4  UNL     1     -20.729 -38.530  27.074  1.00  0.00    -0.175 N 
ATOM      8  H4  UNL     1     -21.379 -37.808  27.384  1.00  0.00     0.186 HD
HETATM    9  C5  UNL     1     -21.015 -39.220  25.966  1.00  0.00     0.684 A 
ENDROOT
BRANCH   9  10
HETATM   10  N5  UNL     1     -22.066 -38.991  25.308  1.00  0.00    -0.173 N 
HETATM   11  C6  UNL     1     -22.359 -37.805  24.552  1.00  0.00     0.494 C 
HETATM   12  N6  UNL     1     -22.550 -36.646  25.421  1.00  0.00    -0.032 N 
HETATM   13  N7  UNL     1     -23.677 -38.031  23.934  1.00  0.00    -0.032 N 
ATOM     14  H63 UNL     1     -23.264 -36.824  26.126  1.00  0.00     0.278 HD
ATOM     15  H62 UNL     1     -21.749 -36.506  26.037  1.00  0.00     0.278 HD
ATOM     16  H61 UNL     1     -22.758 -35.804  24.884  1.00  0.00     0.278 HD
ATOM     17  H73 UNL     1     -23.726 -38.888  23.381  1.00  0.00     0.278 HD
ATOM     18  H72 UNL     1     -24.405 -38.275  24.606  1.00  0.00     0.278 HD
ATOM     19  H71 UNL     1     -23.885 -37.189  23.397  1.00  0.00     0.278 HD
ATOM     20  H5  UNL     1     -22.779 -39.721  25.313  1.00  0.00     0.181 HD
ENDBRANCH   9  10
BRANCH   6  21
HETATM   21  N3  UNL     1     -19.326 -38.090  28.875  1.00  0.00    -0.383 N 
ATOM     22  H32 UNL     1     -18.383 -38.034  29.257  1.00  0.00     0.157 HD
ATOM     23  H31 UNL     1     -20.077 -37.600  29.361  1.00  0.00     0.157 HD
ENDBRANCH   6  21
TORSDOF 2
ENDMDL
