MODEL 1
REMARK VINA RESULT: -7.295637415      0.000      0.000
REMARK  7 active torsions:
REMARK  status: ('A' for Active; 'I' for Inactive)
REMARK    1  A    between atoms: C2_2  and  C3_3 
REMARK    2  A    between atoms: C3_3  and  N1_5 
REMARK       I    between atoms: N1_5  and  C5_6 
REMARK    3  A    between atoms: C5_6  and  O2_8 
REMARK    4  A    between atoms: O2_8  and  C6_9 
REMARK    5  A    between atoms: C6_9  and  S1_10 
REMARK    6  A    between atoms: S1_10  and  C7_11 
REMARK    7  A    between atoms: N3_18  and  C11_19 
ROOT
HETATM    1  C7  UNL     1     -12.918   0.675  -3.971  1.00  0.00     0.151 A 
HETATM    2  N2  UNL     1     -13.681   1.704  -3.565  1.00  0.00    -0.339 N 
ATOM      3  H2  UNL     1     -13.698   1.912  -2.567  1.00  0.00     0.168 HD
HETATM    4  C8  UNL     1     -14.430   2.488  -4.377  1.00  0.00     0.034 A 
HETATM    5  C9  UNL     1     -14.378   2.177  -5.709  1.00  0.00     0.091 A 
HETATM    6  C10 UNL     1     -13.619   1.143  -6.163  1.00  0.00     0.268 A 
HETATM    7  O3  UNL     1     -13.554   0.835  -7.380  1.00  0.00    -0.266 OA
HETATM    8  N3  UNL     1     -12.882   0.385  -5.280  1.00  0.00    -0.294 N 
HETATM    9  S2  UNL     1     -15.400   3.382  -6.536  1.00  0.00    -0.118 SA
HETATM   10  C13 UNL     1     -15.287   4.630  -5.160  1.00  0.00     0.054 C 
HETATM   11  C14 UNL     1     -16.490   5.497  -5.183  1.00  0.00     0.022 C 
HETATM   12  C15 UNL     1     -15.315   3.612  -4.034  1.00  0.00     0.073 C 
ENDROOT
BRANCH   1  13
HETATM   13  S1  UNL     1     -11.972  -0.237  -2.742  1.00  0.00    -0.067 SA
BRANCH  13  14
HETATM   14  C6  UNL     1     -13.063  -1.307  -1.817  1.00  0.00     0.264 C 
BRANCH  14  15
HETATM   15  O2  UNL     1     -14.386  -0.773  -1.676  1.00  0.00    -0.282 OA
BRANCH  15  16
HETATM   16  C5  UNL     1     -15.456  -1.715  -1.461  1.00  0.00     0.435 C 
HETATM   17  N1  UNL     1     -15.854  -2.083  -0.222  1.00  0.00    -0.385 NA
HETATM   18  O1  UNL     1     -15.912  -2.104  -2.604  1.00  0.00    -0.221 OA
BRANCH  17  19
HETATM   19  C3  UNL     1     -16.259  -2.458   1.042  1.00  0.00     0.165 C 
HETATM   20  C4  UNL     1     -17.498  -1.657   1.516  1.00  0.00     0.048 C 
BRANCH  19  21
HETATM   21  C2  UNL     1     -15.132  -2.225   2.054  1.00  0.00     0.035 C 
HETATM   22  C1  UNL     1     -15.512  -2.642   3.431  1.00  0.00     0.008 C 
ENDBRANCH  19  21
ENDBRANCH  17  19
ENDBRANCH  15  16
ENDBRANCH  14  15
ENDBRANCH  13  14
ENDBRANCH   1  13
BRANCH   8  23
HETATM   23  C11 UNL     1     -12.096  -0.726  -5.779  1.00  0.00     0.130 C 
HETATM   24  C12 UNL     1     -10.672  -0.304  -6.084  1.00  0.00     0.027 C 
ENDBRANCH   8  23
TORSDOF 7
ENDMDL
MODEL 2
REMARK VINA RESULT: -7.022822179      1.304      1.538
REMARK  7 active torsions:
REMARK  status: ('A' for Active; 'I' for Inactive)
REMARK    1  A    between atoms: C2_2  and  C3_3 
REMARK    2  A    between atoms: C3_3  and  N1_5 
REMARK       I    between atoms: N1_5  and  C5_6 
REMARK    3  A    between atoms: C5_6  and  O2_8 
REMARK    4  A    between atoms: O2_8  and  C6_9 
REMARK    5  A    between atoms: C6_9  and  S1_10 
REMARK    6  A    between atoms: S1_10  and  C7_11 
REMARK    7  A    between atoms: N3_18  and  C11_19 
ROOT
HETATM    1  C7  UNL     1     -12.632   1.101  -3.693  1.00  0.00     0.151 A 
HETATM    2  N2  UNL     1     -13.832   1.706  -3.648  1.00  0.00    -0.339 N 
ATOM      3  H2  UNL     1     -14.510   1.357  -2.971  1.00  0.00     0.168 HD
HETATM    4  C8  UNL     1     -14.212   2.743  -4.433  1.00  0.00     0.034 A 
HETATM    5  C9  UNL     1     -13.273   3.182  -5.326  1.00  0.00     0.091 A 
HETATM    6  C10 UNL     1     -12.046   2.597  -5.405  1.00  0.00     0.268 A 
HETATM    7  O3  UNL     1     -11.167   2.978  -6.217  1.00  0.00    -0.266 OA
HETATM    8  N3  UNL     1     -11.727   1.543  -4.577  1.00  0.00    -0.294 N 
HETATM    9  S2  UNL     1     -14.011   4.565  -6.176  1.00  0.00    -0.118 SA
HETATM   10  C13 UNL     1     -15.251   4.910  -4.833  1.00  0.00     0.054 C 
HETATM   11  C14 UNL     1     -16.441   5.571  -5.421  1.00  0.00     0.022 C 
HETATM   12  C15 UNL     1     -15.499   3.453  -4.483  1.00  0.00     0.073 C 
ENDROOT
BRANCH   1  13
HETATM   13  S1  UNL     1     -12.303  -0.250  -2.551  1.00  0.00    -0.067 SA
BRANCH  13  14
HETATM   14  C6  UNL     1     -13.458  -1.581  -2.846  1.00  0.00     0.264 C 
BRANCH  14  15
HETATM   15  O2  UNL     1     -14.827  -1.168  -2.749  1.00  0.00    -0.282 OA
BRANCH  15  16
HETATM   16  C5  UNL     1     -15.683  -1.927  -1.871  1.00  0.00     0.435 C 
HETATM   17  N1  UNL     1     -15.737  -1.695  -0.540  1.00  0.00    -0.385 NA
HETATM   18  O1  UNL     1     -16.328  -2.804  -2.564  1.00  0.00    -0.221 OA
BRANCH  17  19
HETATM   19  C3  UNL     1     -15.792  -1.457   0.817  1.00  0.00     0.165 C 
HETATM   20  C4  UNL     1     -14.617  -2.128   1.573  1.00  0.00     0.048 C 
BRANCH  19  21
HETATM   21  C2  UNL     1     -17.100  -2.002   1.402  1.00  0.00     0.035 C 
HETATM   22  C1  UNL     1     -16.923  -2.553   2.772  1.00  0.00     0.008 C 
ENDBRANCH  19  21
ENDBRANCH  17  19
ENDBRANCH  15  16
ENDBRANCH  14  15
ENDBRANCH  13  14
ENDBRANCH   1  13
BRANCH   8  23
HETATM   23  C11 UNL     1     -10.424   0.919  -4.689  1.00  0.00     0.130 C 
HETATM   24  C12 UNL     1     -10.402  -0.125  -5.788  1.00  0.00     0.027 C 
ENDBRANCH   8  23
TORSDOF 7
ENDMDL
MODEL 3
REMARK VINA RESULT: -6.969291318      1.493      1.576
REMARK  7 active torsions:
REMARK  status: ('A' for Active; 'I' for Inactive)
REMARK    1  A    between atoms: C2_2  and  C3_3 
REMARK    2  A    between atoms: C3_3  and  N1_5 
REMARK       I    between atoms: N1_5  and  C5_6 
REMARK    3  A    between atoms: C5_6  and  O2_8 
REMARK    4  A    between atoms: O2_8  and  C6_9 
REMARK    5  A    between atoms: C6_9  and  S1_10 
REMARK    6  A    between atoms: S1_10  and  C7_11 
REMARK    7  A    between atoms: N3_18  and  C11_19 
ROOT
HETATM    1  C7  UNL     1     -12.818   0.566  -4.126  1.00  0.00     0.151 A 
HETATM    2  N2  UNL     1     -14.083   0.941  -4.383  1.00  0.00    -0.339 N 
ATOM      3  H2  UNL     1     -14.811   0.232  -4.291  1.00  0.00     0.168 HD
HETATM    4  C8  UNL     1     -14.469   2.185  -4.754  1.00  0.00     0.034 A 
HETATM    5  C9  UNL     1     -13.462   3.105  -4.865  1.00  0.00     0.091 A 
HETATM    6  C10 UNL     1     -12.167   2.769  -4.615  1.00  0.00     0.268 A 
HETATM    7  O3  UNL     1     -11.224   3.594  -4.710  1.00  0.00    -0.266 OA
HETATM    8  N3  UNL     1     -11.846   1.482  -4.242  1.00  0.00    -0.294 N 
HETATM    9  S2  UNL     1     -14.249   4.643  -5.309  1.00  0.00    -0.118 SA
HETATM   10  C13 UNL     1     -15.918   4.141  -4.657  1.00  0.00     0.054 C 
HETATM   11  C14 UNL     1     -16.974   4.880  -5.390  1.00  0.00     0.022 C 
HETATM   12  C15 UNL     1     -15.811   2.688  -5.083  1.00  0.00     0.073 C 
ENDROOT
BRANCH   1  13
HETATM   13  S1  UNL     1     -12.505  -1.132  -3.620  1.00  0.00    -0.067 SA
BRANCH  13  14
HETATM   14  C6  UNL     1     -13.017  -1.358  -1.924  1.00  0.00     0.264 C 
BRANCH  14  15
HETATM   15  O2  UNL     1     -14.295  -0.775  -1.641  1.00  0.00    -0.282 OA
BRANCH  15  16
HETATM   16  C5  UNL     1     -15.402  -1.678  -1.446  1.00  0.00     0.435 C 
HETATM   17  N1  UNL     1     -15.802  -2.073  -0.216  1.00  0.00    -0.385 NA
HETATM   18  O1  UNL     1     -15.887  -2.007  -2.596  1.00  0.00    -0.221 OA
BRANCH  17  19
HETATM   19  C3  UNL     1     -16.209  -2.475   1.039  1.00  0.00     0.165 C 
HETATM   20  C4  UNL     1     -17.440  -1.675   1.535  1.00  0.00     0.048 C 
BRANCH  19  21
HETATM   21  C2  UNL     1     -15.078  -2.278   2.055  1.00  0.00     0.035 C 
HETATM   22  C1  UNL     1     -15.473  -2.690   3.429  1.00  0.00     0.008 C 
ENDBRANCH  19  21
ENDBRANCH  17  19
ENDBRANCH  15  16
ENDBRANCH  14  15
ENDBRANCH  13  14
ENDBRANCH   1  13
BRANCH   8  23
HETATM   23  C11 UNL     1     -10.459   1.136  -4.001  1.00  0.00     0.130 C 
HETATM   24  C12 UNL     1      -9.717   0.883  -5.298  1.00  0.00     0.027 C 
ENDBRANCH   8  23
TORSDOF 7
ENDMDL
MODEL 4
REMARK VINA RESULT: -6.737843334      1.929      3.570
REMARK  7 active torsions:
REMARK  status: ('A' for Active; 'I' for Inactive)
REMARK    1  A    between atoms: C2_2  and  C3_3 
REMARK    2  A    between atoms: C3_3  and  N1_5 
REMARK       I    between atoms: N1_5  and  C5_6 
REMARK    3  A    between atoms: C5_6  and  O2_8 
REMARK    4  A    between atoms: O2_8  and  C6_9 
REMARK    5  A    between atoms: C6_9  and  S1_10 
REMARK    6  A    between atoms: S1_10  and  C7_11 
REMARK    7  A    between atoms: N3_18  and  C11_19 
ROOT
HETATM    1  C7  UNL     1     -12.863   0.072  -4.815  1.00  0.00     0.151 A 
HETATM    2  N2  UNL     1     -12.652  -0.795  -5.820  1.00  0.00    -0.339 N 
ATOM      3  H2  UNL     1     -12.041  -1.591  -5.633  1.00  0.00     0.168 HD
HETATM    4  C8  UNL     1     -13.186  -0.696  -7.061  1.00  0.00     0.034 A 
HETATM    5  C9  UNL     1     -13.999   0.384  -7.268  1.00  0.00     0.091 A 
HETATM    6  C10 UNL     1     -14.239   1.287  -6.278  1.00  0.00     0.268 A 
HETATM    7  O3  UNL     1     -14.981   2.288  -6.442  1.00  0.00    -0.266 OA
HETATM    8  N3  UNL     1     -13.661   1.126  -5.039  1.00  0.00    -0.294 N 
HETATM    9  S2  UNL     1     -14.595   0.237  -8.942  1.00  0.00    -0.118 SA
HETATM   10  C13 UNL     1     -14.280  -1.594  -9.043  1.00  0.00     0.054 C 
HETATM   11  C14 UNL     1     -14.057  -1.977 -10.459  1.00  0.00     0.022 C 
HETATM   12  C15 UNL     1     -12.998  -1.568  -8.230  1.00  0.00     0.073 C 
ENDROOT
BRANCH   1  13
HETATM   13  S1  UNL     1     -12.082  -0.241  -3.224  1.00  0.00    -0.067 SA
BRANCH  13  14
HETATM   14  C6  UNL     1     -13.034  -1.448  -2.315  1.00  0.00     0.264 C 
BRANCH  14  15
HETATM   15  O2  UNL     1     -14.118  -0.870  -1.578  1.00  0.00    -0.282 OA
BRANCH  15  16
HETATM   16  C5  UNL     1     -15.308  -1.669  -1.422  1.00  0.00     0.435 C 
HETATM   17  N1  UNL     1     -15.765  -2.049  -0.207  1.00  0.00    -0.385 NA
HETATM   18  O1  UNL     1     -15.800  -1.928  -2.586  1.00  0.00    -0.221 OA
BRANCH  17  19
HETATM   19  C3  UNL     1     -16.232  -2.437   1.032  1.00  0.00     0.165 C 
HETATM   20  C4  UNL     1     -17.469  -1.615   1.471  1.00  0.00     0.048 C 
BRANCH  19  21
HETATM   21  C2  UNL     1     -15.142  -2.250   2.094  1.00  0.00     0.035 C 
HETATM   22  C1  UNL     1     -15.534  -2.815   3.413  1.00  0.00     0.008 C 
ENDBRANCH  19  21
ENDBRANCH  17  19
ENDBRANCH  15  16
ENDBRANCH  14  15
ENDBRANCH  13  14
ENDBRANCH   1  13
BRANCH   8  23
HETATM   23  C11 UNL     1     -13.911   2.109  -4.003  1.00  0.00     0.130 C 
HETATM   24  C12 UNL     1     -13.041   3.337  -4.183  1.00  0.00     0.027 C 
ENDBRANCH   8  23
TORSDOF 7
ENDMDL
MODEL 5
REMARK VINA RESULT: -6.684421374      1.840      3.715
REMARK  7 active torsions:
REMARK  status: ('A' for Active; 'I' for Inactive)
REMARK    1  A    between atoms: C2_2  and  C3_3 
REMARK    2  A    between atoms: C3_3  and  N1_5 
REMARK       I    between atoms: N1_5  and  C5_6 
REMARK    3  A    between atoms: C5_6  and  O2_8 
REMARK    4  A    between atoms: O2_8  and  C6_9 
REMARK    5  A    between atoms: C6_9  and  S1_10 
REMARK    6  A    between atoms: S1_10  and  C7_11 
REMARK    7  A    between atoms: N3_18  and  C11_19 
ROOT
HETATM    1  C7  UNL     1     -12.611   0.192  -4.897  1.00  0.00     0.151 A 
HETATM    2  N2  UNL     1     -11.794  -0.245  -5.871  1.00  0.00    -0.339 N 
ATOM      3  H2  UNL     1     -10.946  -0.737  -5.588  1.00  0.00     0.168 HD
HETATM    4  C8  UNL     1     -12.007  -0.084  -7.199  1.00  0.00     0.034 A 
HETATM    5  C9  UNL     1     -13.155   0.579  -7.536  1.00  0.00     0.091 A 
HETATM    6  C10 UNL     1     -14.010   1.039  -6.582  1.00  0.00     0.268 A 
HETATM    7  O3  UNL     1     -15.070   1.652  -6.863  1.00  0.00    -0.266 OA
HETATM    8  N3  UNL     1     -13.730   0.842  -5.248  1.00  0.00    -0.294 N 
HETATM    9  S2  UNL     1     -13.206   0.600  -9.318  1.00  0.00    -0.118 SA
HETATM   10  C13 UNL     1     -12.063  -0.856  -9.509  1.00  0.00     0.054 C 
HETATM   11  C14 UNL     1     -11.365  -0.765 -10.814  1.00  0.00     0.022 C 
HETATM   12  C15 UNL     1     -11.169  -0.497  -8.336  1.00  0.00     0.073 C 
ENDROOT
BRANCH   1  13
HETATM   13  S1  UNL     1     -12.169  -0.138  -3.184  1.00  0.00    -0.067 SA
BRANCH  13  14
HETATM   14  C6  UNL     1     -13.209  -1.437  -2.535  1.00  0.00     0.264 C 
BRANCH  14  15
HETATM   15  O2  UNL     1     -14.118  -0.978  -1.528  1.00  0.00    -0.282 OA
BRANCH  15  16
HETATM   16  C5  UNL     1     -15.349  -1.711  -1.368  1.00  0.00     0.435 C 
HETATM   17  N1  UNL     1     -15.814  -2.083  -0.154  1.00  0.00    -0.385 NA
HETATM   18  O1  UNL     1     -15.868  -1.925  -2.530  1.00  0.00    -0.221 OA
BRANCH  17  19
HETATM   19  C3  UNL     1     -16.288  -2.461   1.085  1.00  0.00     0.165 C 
HETATM   20  C4  UNL     1     -17.517  -1.623   1.519  1.00  0.00     0.048 C 
BRANCH  19  21
HETATM   21  C2  UNL     1     -15.198  -2.285   2.149  1.00  0.00     0.035 C 
HETATM   22  C1  UNL     1     -15.615  -2.808   3.478  1.00  0.00     0.008 C 
ENDBRANCH  19  21
ENDBRANCH  17  19
ENDBRANCH  15  16
ENDBRANCH  14  15
ENDBRANCH  13  14
ENDBRANCH   1  13
BRANCH   8  23
HETATM   23  C11 UNL     1     -14.641   1.358  -4.245  1.00  0.00     0.130 C 
HETATM   24  C12 UNL     1     -14.285   2.778  -3.851  1.00  0.00     0.027 C 
ENDBRANCH   8  23
TORSDOF 7
ENDMDL
