MODEL 1
REMARK VINA RESULT: -7.416923756      0.000      0.000
REMARK  12 active torsions:
REMARK  status: ('A' for Active; 'I' for Inactive)
REMARK    1  A    between atoms: C2_2  and  N1_3 
REMARK    2  A    between atoms: N1_3  and  N2_5 
REMARK    3  A    between atoms: N2_5  and  C4_7 
REMARK    4  A    between atoms: C6_9  and  N3_10 
REMARK    5  A    between atoms: C8_12  and  C9_13 
REMARK       I    between atoms: C9_13  and  N4_15 
REMARK    6  A    between atoms: N4_15  and  C10_17 
REMARK    7  A    between atoms: C12_21  and  C13_22 
REMARK    8  A    between atoms: C13_22  and  N6_23 
REMARK    9  A    between atoms: C13_22  and  O2_27 
REMARK   10  A    between atoms: C16_37  and  O3_38 
REMARK   11  A    between atoms: O3_38  and  C17_39 
REMARK   12  A    between atoms: C19_46  and  C20_47 
ROOT
HETATM    1  C4  UNL     1      41.276  68.127  20.227  1.00  0.00     0.079 A 
HETATM    2  C5  UNL     1      40.236  67.265  19.955  1.00  0.00     0.065 A 
HETATM    3  C6  UNL     1      40.315  66.230  19.036  1.00  0.00     0.059 A 
HETATM    4  C14 UNL     1      41.505  66.088  18.384  1.00  0.00     0.034 A 
HETATM    5  C15 UNL     1      42.565  66.939  18.638  1.00  0.00     0.042 A 
HETATM    6  C16 UNL     1      42.509  67.961  19.537  1.00  0.00     0.105 A 
ENDROOT
BRANCH   3   7
HETATM    7  N3  UNL     1      39.197  65.384  18.811  1.00  0.00    -0.251 N 
HETATM    8  C7  UNL     1      38.432  64.695  19.676  1.00  0.00     0.154 A 
HETATM    9  C8  UNL     1      37.454  64.038  18.962  1.00  0.00     0.135 A 
HETATM   10  N8  UNL     1      37.657  64.347  17.675  1.00  0.00    -0.279 N 
HETATM   11  N9  UNL     1      38.690  65.144  17.601  1.00  0.00    -0.235 N 
ATOM     12  H8  UNL     1      37.100  64.017  16.886  1.00  0.00     0.189 HD
ATOM     13  H9  UNL     1      39.060  65.532  16.733  1.00  0.00     0.209 HD
BRANCH   9  14
HETATM   14  C9  UNL     1      36.381  63.178  19.511  1.00  0.00     0.289 C 
HETATM   15  O1  UNL     1      36.359  62.816  20.707  1.00  0.00    -0.265 OA
HETATM   16  N4  UNL     1      35.353  62.760  18.642  1.00  0.00    -0.154 N 
ATOM     17  H4  UNL     1      35.611  62.368  17.737  1.00  0.00     0.187 HD
BRANCH  16  18
HETATM   18  C10 UNL     1      34.112  62.851  18.934  1.00  0.00     0.685 A 
HETATM   19  N5  UNL     1      33.463  62.084  19.816  1.00  0.00    -0.200 N 
HETATM   20  C11 UNL     1      32.150  62.470  19.870  1.00  0.00     0.136 A 
ATOM     21  H5  UNL     1      33.880  61.331  20.363  1.00  0.00     0.183 HD
HETATM   22  C12 UNL     1      32.060  63.505  18.968  1.00  0.00     0.098 A 
HETATM   23  N7  UNL     1      33.257  63.734  18.400  1.00  0.00    -0.190 N 
ATOM     24  H7  UNL     1      33.473  64.443  17.699  1.00  0.00     0.184 HD
BRANCH  22  25
HETATM   25  C13 UNL     1      30.776  64.241  18.700  1.00  0.00     0.369 C 
BRANCH  25  26
HETATM   26  N6  UNL     1      30.879  64.869  17.397  1.00  0.00    -0.047 N 
ATOM     27  H63 UNL     1      30.392  65.764  17.351  1.00  0.00     0.277 HD
ATOM     28  H62 UNL     1      31.818  65.214  17.200  1.00  0.00     0.277 HD
ATOM     29  H61 UNL     1      30.550  64.204  16.698  1.00  0.00     0.277 HD
ENDBRANCH  25  26
BRANCH  25  30
HETATM   30  O2  UNL     1      29.742  63.287  18.651  1.00  0.00    -0.365 OA
ATOM     31  H2  UNL     1      29.674  62.983  17.753  1.00  0.00     0.212 HD
ENDBRANCH  25  30
ENDBRANCH  22  25
ENDBRANCH  16  18
ENDBRANCH   9  14
ENDBRANCH   3   7
BRANCH   1  32
HETATM   32  N2  UNL     1      41.172  69.191  21.152  1.00  0.00    -0.317 N 
ATOM     33  H2  UNL     1      41.456  69.008  22.115  1.00  0.00     0.181 HD
BRANCH  32  34
HETATM   34  N1  UNL     1      40.722  70.441  20.856  1.00  0.00    -0.235 NA
HETATM   35  C3  UNL     1      40.734  71.391  21.957  1.00  0.00     0.136 C 
BRANCH  34  36
HETATM   36  C2  UNL     1      39.469  70.569  20.193  1.00  0.00     0.108 C 
HETATM   37  C1  UNL     1      38.467  71.280  21.063  1.00  0.00     0.022 C 
ENDBRANCH  34  36
ENDBRANCH  32  34
ENDBRANCH   1  32
BRANCH   6  38
HETATM   38  O3  UNL     1      43.538  68.825  19.816  1.00  0.00    -0.288 OA
BRANCH  38  39
HETATM   39  C17 UNL     1      44.398  69.440  18.964  1.00  0.00     0.196 A 
HETATM   40  N10 UNL     1      45.717  69.321  18.773  1.00  0.00    -0.263 N 
HETATM   41  N11 UNL     1      46.082  70.137  17.820  1.00  0.00    -0.238 N 
ATOM     42  H10 UNL     1      46.337  68.697  19.288  1.00  0.00     0.190 HD
HETATM   43  N12 UNL     1      45.060  70.810  17.348  1.00  0.00    -0.275 N 
ATOM     44  H11 UNL     1      47.041  70.237  17.486  1.00  0.00     0.208 HD
HETATM   45  C18 UNL     1      45.077  71.807  16.281  1.00  0.00     0.179 C 
HETATM   46  C19 UNL     1      43.984  70.410  18.034  1.00  0.00     0.145 A 
BRANCH  46  47
HETATM   47  C20 UNL     1      42.632  70.935  17.851  1.00  0.00     0.143 C 
HETATM   48  N13 UNL     1      42.247  71.976  18.498  1.00  0.00    -0.386 N 
ATOM     49 2H13 UNL     1      42.918  72.425  19.121  1.00  0.00     0.157 HD
ATOM     50 1H13 UNL     1      41.303  72.342  18.371  1.00  0.00     0.157 HD
HETATM   51  N14 UNL     1      41.693  70.308  16.982  1.00  0.00    -0.081 NA
ENDBRANCH  46  47
ENDBRANCH  38  39
ENDBRANCH   6  38
TORSDOF 12
ENDMDL
MODEL 2
REMARK VINA RESULT: -6.956368742      1.724      2.329
REMARK  12 active torsions:
REMARK  status: ('A' for Active; 'I' for Inactive)
REMARK    1  A    between atoms: C2_2  and  N1_3 
REMARK    2  A    between atoms: N1_3  and  N2_5 
REMARK    3  A    between atoms: N2_5  and  C4_7 
REMARK    4  A    between atoms: C6_9  and  N3_10 
REMARK    5  A    between atoms: C8_12  and  C9_13 
REMARK       I    between atoms: C9_13  and  N4_15 
REMARK    6  A    between atoms: N4_15  and  C10_17 
REMARK    7  A    between atoms: C12_21  and  C13_22 
REMARK    8  A    between atoms: C13_22  and  N6_23 
REMARK    9  A    between atoms: C13_22  and  O2_27 
REMARK   10  A    between atoms: C16_37  and  O3_38 
REMARK   11  A    between atoms: O3_38  and  C17_39 
REMARK   12  A    between atoms: C19_46  and  C20_47 
ROOT
HETATM    1  C4  UNL     1      40.340  67.097  18.431  1.00  0.00     0.079 A 
HETATM    2  C5  UNL     1      39.321  66.314  18.927  1.00  0.00     0.065 A 
HETATM    3  C6  UNL     1      39.257  64.939  18.765  1.00  0.00     0.059 A 
HETATM    4  C14 UNL     1      40.279  64.364  18.068  1.00  0.00     0.034 A 
HETATM    5  C15 UNL     1      41.315  65.126  17.559  1.00  0.00     0.042 A 
HETATM    6  C16 UNL     1      41.397  66.478  17.708  1.00  0.00     0.105 A 
ENDROOT
BRANCH   3   7
HETATM    7  N3  UNL     1      38.171  64.202  19.306  1.00  0.00    -0.251 N 
HETATM    8  C7  UNL     1      36.855  64.476  19.337  1.00  0.00     0.154 A 
HETATM    9  C8  UNL     1      36.209  63.433  19.961  1.00  0.00     0.135 A 
HETATM   10  N8  UNL     1      37.158  62.550  20.297  1.00  0.00    -0.279 N 
HETATM   11  N9  UNL     1      38.313  63.018  19.904  1.00  0.00    -0.235 N 
ATOM     12  H8  UNL     1      37.006  61.664  20.779  1.00  0.00     0.189 HD
ATOM     13  H9  UNL     1      39.204  62.541  20.035  1.00  0.00     0.209 HD
BRANCH   9  14
HETATM   14  C9  UNL     1      34.752  63.305  20.195  1.00  0.00     0.289 C 
HETATM   15  O1  UNL     1      34.203  63.715  21.240  1.00  0.00    -0.265 OA
HETATM   16  N4  UNL     1      33.969  62.696  19.193  1.00  0.00    -0.154 N 
ATOM     17  H4  UNL     1      34.284  61.809  18.802  1.00  0.00     0.187 HD
BRANCH  16  18
HETATM   18  C10 UNL     1      32.883  63.204  18.752  1.00  0.00     0.685 A 
HETATM   19  N5  UNL     1      32.712  63.742  17.540  1.00  0.00    -0.200 N 
HETATM   20  C11 UNL     1      31.421  64.182  17.418  1.00  0.00     0.136 A 
ATOM     21  H5  UNL     1      33.431  63.814  16.819  1.00  0.00     0.183 HD
HETATM   22  C12 UNL     1      30.839  63.875  18.627  1.00  0.00     0.098 A 
HETATM   23  N7  UNL     1      31.733  63.279  19.437  1.00  0.00    -0.190 N 
ATOM     24  H7  UNL     1      31.569  62.949  20.387  1.00  0.00     0.184 HD
BRANCH  22  25
HETATM   25  C13 UNL     1      29.401  64.184  18.940  1.00  0.00     0.369 C 
BRANCH  25  26
HETATM   26  N6  UNL     1      28.973  65.263  18.071  1.00  0.00    -0.047 N 
ATOM     27  H63 UNL     1      29.181  65.085  17.089  1.00  0.00     0.277 HD
ATOM     28  H62 UNL     1      27.958  65.322  17.987  1.00  0.00     0.277 HD
ATOM     29  H61 UNL     1      29.390  66.129  18.412  1.00  0.00     0.277 HD
ENDBRANCH  25  26
BRANCH  25  30
HETATM   30  O2  UNL     1      28.643  63.040  18.631  1.00  0.00    -0.365 OA
ATOM     31  H2  UNL     1      28.787  62.839  17.714  1.00  0.00     0.212 HD
ENDBRANCH  25  30
ENDBRANCH  22  25
ENDBRANCH  16  18
ENDBRANCH   9  14
ENDBRANCH   3   7
BRANCH   1  32
HETATM   32  N2  UNL     1      40.378  68.501  18.587  1.00  0.00    -0.317 N 
ATOM     33  H2  UNL     1      40.216  69.073  17.758  1.00  0.00     0.181 HD
BRANCH  32  34
HETATM   34  N1  UNL     1      40.616  69.150  19.760  1.00  0.00    -0.235 NA
HETATM   35  C3  UNL     1      41.359  70.396  19.652  1.00  0.00     0.136 C 
BRANCH  34  36
HETATM   36  C2  UNL     1      41.174  68.411  20.841  1.00  0.00     0.108 C 
HETATM   37  C1  UNL     1      40.675  68.928  22.164  1.00  0.00     0.022 C 
ENDBRANCH  34  36
ENDBRANCH  32  34
ENDBRANCH   1  32
BRANCH   6  38
HETATM   38  O3  UNL     1      42.407  67.267  17.218  1.00  0.00    -0.288 OA
BRANCH  38  39
HETATM   39  C17 UNL     1      43.462  67.817  17.872  1.00  0.00     0.196 A 
HETATM   40  N10 UNL     1      44.130  67.451  18.973  1.00  0.00    -0.263 N 
HETATM   41  N11 UNL     1      45.081  68.317  19.198  1.00  0.00    -0.238 N 
ATOM     42  H10 UNL     1      43.930  66.629  19.543  1.00  0.00     0.190 HD
HETATM   43  N12 UNL     1      45.091  69.265  18.291  1.00  0.00    -0.275 N 
ATOM     44  H11 UNL     1      45.734  68.264  19.981  1.00  0.00     0.208 HD
HETATM   45  C18 UNL     1      46.006  70.400  18.210  1.00  0.00     0.179 C 
HETATM   46  C19 UNL     1      44.094  68.996  17.441  1.00  0.00     0.145 A 
BRANCH  46  47
HETATM   47  C20 UNL     1      43.727  69.823  16.292  1.00  0.00     0.143 C 
HETATM   48  N13 UNL     1      42.615  70.465  16.285  1.00  0.00    -0.386 N 
ATOM     49 2H13 UNL     1      42.016  70.391  17.107  1.00  0.00     0.157 HD
ATOM     50 1H13 UNL     1      42.358  71.042  15.484  1.00  0.00     0.157 HD
HETATM   51  N14 UNL     1      44.562  69.927  15.144  1.00  0.00    -0.081 NA
ENDBRANCH  46  47
ENDBRANCH  38  39
ENDBRANCH   6  38
TORSDOF 12
ENDMDL
MODEL 3
REMARK VINA RESULT: -6.915833049      1.300      1.657
REMARK  12 active torsions:
REMARK  status: ('A' for Active; 'I' for Inactive)
REMARK    1  A    between atoms: C2_2  and  N1_3 
REMARK    2  A    between atoms: N1_3  and  N2_5 
REMARK    3  A    between atoms: N2_5  and  C4_7 
REMARK    4  A    between atoms: C6_9  and  N3_10 
REMARK    5  A    between atoms: C8_12  and  C9_13 
REMARK       I    between atoms: C9_13  and  N4_15 
REMARK    6  A    between atoms: N4_15  and  C10_17 
REMARK    7  A    between atoms: C12_21  and  C13_22 
REMARK    8  A    between atoms: C13_22  and  N6_23 
REMARK    9  A    between atoms: C13_22  and  O2_27 
REMARK   10  A    between atoms: C16_37  and  O3_38 
REMARK   11  A    between atoms: O3_38  and  C17_39 
REMARK   12  A    between atoms: C19_46  and  C20_47 
ROOT
HETATM    1  C4  UNL     1      40.748  68.330  18.715  1.00  0.00     0.079 A 
HETATM    2  C5  UNL     1      39.996  67.181  18.827  1.00  0.00     0.065 A 
HETATM    3  C6  UNL     1      40.436  65.930  18.424  1.00  0.00     0.059 A 
HETATM    4  C14 UNL     1      41.691  65.873  17.892  1.00  0.00     0.034 A 
HETATM    5  C15 UNL     1      42.468  67.010  17.768  1.00  0.00     0.042 A 
HETATM    6  C16 UNL     1      42.055  68.248  18.158  1.00  0.00     0.105 A 
ENDROOT
BRANCH   3   7
HETATM    7  N3  UNL     1      39.599  64.794  18.572  1.00  0.00    -0.251 N 
HETATM    8  C7  UNL     1      38.454  64.632  19.260  1.00  0.00     0.154 A 
HETATM    9  C8  UNL     1      38.013  63.341  19.071  1.00  0.00     0.135 A 
HETATM   10  N8  UNL     1      38.910  62.751  18.270  1.00  0.00    -0.279 N 
HETATM   11  N9  UNL     1      39.841  63.622  17.983  1.00  0.00    -0.235 N 
ATOM     12  H8  UNL     1      38.873  61.786  17.941  1.00  0.00     0.189 HD
ATOM     13  H9  UNL     1      40.647  63.431  17.387  1.00  0.00     0.209 HD
BRANCH   9  14
HETATM   14  C9  UNL     1      36.782  62.734  19.626  1.00  0.00     0.289 C 
HETATM   15  O1  UNL     1      36.652  62.476  20.842  1.00  0.00    -0.265 OA
HETATM   16  N4  UNL     1      35.725  62.443  18.739  1.00  0.00    -0.154 N 
ATOM     17  H4  UNL     1      35.939  61.941  17.877  1.00  0.00     0.187 HD
BRANCH  16  18
HETATM   18  C10 UNL     1      34.514  62.779  18.963  1.00  0.00     0.685 A 
HETATM   19  N5  UNL     1      33.660  62.125  19.758  1.00  0.00    -0.200 N 
HETATM   20  C11 UNL     1      32.454  62.775  19.758  1.00  0.00     0.136 A 
ATOM     21  H5  UNL     1      33.873  61.276  20.281  1.00  0.00     0.183 HD
HETATM   22  C12 UNL     1      32.643  63.848  18.917  1.00  0.00     0.098 A 
HETATM   23  N7  UNL     1      33.899  63.846  18.435  1.00  0.00    -0.190 N 
ATOM     24  H7  UNL     1      34.305  64.526  17.792  1.00  0.00     0.184 HD
BRANCH  22  25
HETATM   25  C13 UNL     1      31.561  64.849  18.620  1.00  0.00     0.369 C 
BRANCH  25  26
HETATM   26  N6  UNL     1      31.161  64.683  17.236  1.00  0.00    -0.047 N 
ATOM     27  H63 UNL     1      31.015  65.572  16.758  1.00  0.00     0.277 HD
ATOM     28  H62 UNL     1      31.917  64.334  16.647  1.00  0.00     0.277 HD
ATOM     29  H61 UNL     1      30.336  64.084  17.214  1.00  0.00     0.277 HD
ENDBRANCH  25  26
BRANCH  25  30
HETATM   30  O2  UNL     1      30.460  64.541  19.439  1.00  0.00    -0.365 OA
ATOM     31  H2  UNL     1      30.718  64.701  20.339  1.00  0.00     0.212 HD
ENDBRANCH  25  30
ENDBRANCH  22  25
ENDBRANCH  16  18
ENDBRANCH   9  14
ENDBRANCH   3   7
BRANCH   1  32
HETATM   32  N2  UNL     1      40.276  69.602  19.111  1.00  0.00    -0.317 N 
ATOM     33  H2  UNL     1      40.202  70.322  18.392  1.00  0.00     0.181 HD
BRANCH  32  34
HETATM   34  N1  UNL     1      39.911  69.940  20.378  1.00  0.00    -0.235 NA
HETATM   35  C3  UNL     1      39.185  71.193  20.512  1.00  0.00     0.136 C 
BRANCH  34  36
HETATM   36  C2  UNL     1      40.904  69.910  21.398  1.00  0.00     0.108 C 
HETATM   37  C1  UNL     1      40.573  68.879  22.445  1.00  0.00     0.022 C 
ENDBRANCH  34  36
ENDBRANCH  32  34
ENDBRANCH   1  32
BRANCH   6  38
HETATM   38  O3  UNL     1      42.795  69.398  18.051  1.00  0.00    -0.288 OA
BRANCH  38  39
HETATM   39  C17 UNL     1      44.132  69.576  18.207  1.00  0.00     0.196 A 
HETATM   40  N10 UNL     1      45.004  69.111  19.110  1.00  0.00    -0.263 N 
HETATM   41  N11 UNL     1      46.193  69.570  18.825  1.00  0.00    -0.238 N 
ATOM     42  H10 UNL     1      44.778  68.499  19.893  1.00  0.00     0.190 HD
HETATM   43  N12 UNL     1      46.170  70.333  17.759  1.00  0.00    -0.275 N 
ATOM     44  H11 UNL     1      47.034  69.363  19.365  1.00  0.00     0.208 HD
HETATM   45  C18 UNL     1      47.300  71.018  17.138  1.00  0.00     0.179 C 
HETATM   46  C19 UNL     1      44.901  70.368  17.337  1.00  0.00     0.145 A 
BRANCH  46  47
HETATM   47  C20 UNL     1      44.421  71.136  16.189  1.00  0.00     0.143 C 
HETATM   48  N13 UNL     1      44.318  70.582  15.035  1.00  0.00    -0.386 N 
ATOM     49 2H13 UNL     1      44.563  69.596  14.956  1.00  0.00     0.157 HD
ATOM     50 1H13 UNL     1      43.983  71.118  14.234  1.00  0.00     0.157 HD
HETATM   51  N14 UNL     1      44.079  72.515  16.298  1.00  0.00    -0.081 NA
ENDBRANCH  46  47
ENDBRANCH  38  39
ENDBRANCH   6  38
TORSDOF 12
ENDMDL
MODEL 4
REMARK VINA RESULT: -6.911651899      1.728      2.181
REMARK  12 active torsions:
REMARK  status: ('A' for Active; 'I' for Inactive)
REMARK    1  A    between atoms: C2_2  and  N1_3 
REMARK    2  A    between atoms: N1_3  and  N2_5 
REMARK    3  A    between atoms: N2_5  and  C4_7 
REMARK    4  A    between atoms: C6_9  and  N3_10 
REMARK    5  A    between atoms: C8_12  and  C9_13 
REMARK       I    between atoms: C9_13  and  N4_15 
REMARK    6  A    between atoms: N4_15  and  C10_17 
REMARK    7  A    between atoms: C12_21  and  C13_22 
REMARK    8  A    between atoms: C13_22  and  N6_23 
REMARK    9  A    between atoms: C13_22  and  O2_27 
REMARK   10  A    between atoms: C16_37  and  O3_38 
REMARK   11  A    between atoms: O3_38  and  C17_39 
REMARK   12  A    between atoms: C19_46  and  C20_47 
ROOT
HETATM    1  C4  UNL     1      40.373  66.916  19.468  1.00  0.00     0.079 A 
HETATM    2  C5  UNL     1      39.319  66.042  19.618  1.00  0.00     0.065 A 
HETATM    3  C6  UNL     1      39.288  64.770  19.066  1.00  0.00     0.059 A 
HETATM    4  C14 UNL     1      40.381  64.400  18.339  1.00  0.00     0.034 A 
HETATM    5  C15 UNL     1      41.454  65.256  18.173  1.00  0.00     0.042 A 
HETATM    6  C16 UNL     1      41.504  66.508  18.708  1.00  0.00     0.105 A 
ENDROOT
BRANCH   3   7
HETATM    7  N3  UNL     1      38.162  63.930  19.265  1.00  0.00    -0.251 N 
HETATM    8  C7  UNL     1      36.887  64.230  19.571  1.00  0.00     0.154 A 
HETATM    9  C8  UNL     1      36.168  63.056  19.637  1.00  0.00     0.135 A 
HETATM   10  N8  UNL     1      37.034  62.071  19.370  1.00  0.00    -0.279 N 
HETATM   11  N9  UNL     1      38.208  62.601  19.152  1.00  0.00    -0.235 N 
ATOM     12  H8  UNL     1      36.815  61.074  19.342  1.00  0.00     0.189 HD
ATOM     13  H9  UNL     1      39.049  62.071  18.924  1.00  0.00     0.209 HD
BRANCH   9  14
HETATM   14  C9  UNL     1      34.722  62.917  19.926  1.00  0.00     0.289 C 
HETATM   15  O1  UNL     1      34.240  63.149  21.054  1.00  0.00    -0.265 OA
HETATM   16  N4  UNL     1      33.872  62.507  18.879  1.00  0.00    -0.154 N 
ATOM     17  H4  UNL     1      34.142  61.695  18.323  1.00  0.00     0.187 HD
BRANCH  16  18
HETATM   18  C10 UNL     1      32.780  63.104  18.593  1.00  0.00     0.685 A 
HETATM   19  N5  UNL     1      32.486  63.667  17.415  1.00  0.00    -0.200 N 
HETATM   20  C11 UNL     1      31.230  64.209  17.475  1.00  0.00     0.136 A 
ATOM     21  H5  UNL     1      33.101  63.689  16.602  1.00  0.00     0.183 HD
HETATM   22  C12 UNL     1      30.799  63.937  18.753  1.00  0.00     0.098 A 
HETATM   23  N7  UNL     1      31.746  63.264  19.431  1.00  0.00    -0.190 N 
ATOM     24  H7  UNL     1      31.690  62.938  20.395  1.00  0.00     0.184 HD
BRANCH  22  25
HETATM   25  C13 UNL     1      29.448  64.357  19.263  1.00  0.00     0.369 C 
BRANCH  25  26
HETATM   26  N6  UNL     1      28.999  65.487  18.473  1.00  0.00    -0.047 N 
ATOM     27  H63 UNL     1      29.672  65.760  17.757  1.00  0.00     0.277 HD
ATOM     28  H62 UNL     1      28.226  65.250  17.851  1.00  0.00     0.277 HD
ATOM     29  H61 UNL     1      28.771  66.249  19.111  1.00  0.00     0.277 HD
ENDBRANCH  25  26
BRANCH  25  30
HETATM   30  O2  UNL     1      28.561  63.286  19.048  1.00  0.00    -0.365 OA
ATOM     31  H2  UNL     1      27.817  63.409  19.626  1.00  0.00     0.212 HD
ENDBRANCH  25  30
ENDBRANCH  22  25
ENDBRANCH  16  18
ENDBRANCH   9  14
ENDBRANCH   3   7
BRANCH   1  32
HETATM   32  N2  UNL     1      40.379  68.217  20.020  1.00  0.00    -0.317 N 
ATOM     33  H2  UNL     1      39.859  68.941  19.524  1.00  0.00     0.181 HD
BRANCH  32  34
HETATM   34  N1  UNL     1      41.027  68.578  21.161  1.00  0.00    -0.235 NA
HETATM   35  C3  UNL     1      40.272  68.410  22.394  1.00  0.00     0.136 C 
BRANCH  34  36
HETATM   36  C2  UNL     1      41.648  69.858  21.210  1.00  0.00     0.108 C 
HETATM   37  C1  UNL     1      40.844  70.817  22.048  1.00  0.00     0.022 C 
ENDBRANCH  34  36
ENDBRANCH  32  34
ENDBRANCH   1  32
BRANCH   6  38
HETATM   38  O3  UNL     1      42.549  67.387  18.565  1.00  0.00    -0.288 OA
BRANCH  38  39
HETATM   39  C17 UNL     1      43.165  67.811  17.431  1.00  0.00     0.196 A 
HETATM   40  N10 UNL     1      44.004  67.207  16.581  1.00  0.00    -0.263 N 
HETATM   41  N11 UNL     1      44.318  68.045  15.630  1.00  0.00    -0.238 N 
ATOM     42  H10 UNL     1      44.343  66.249  16.663  1.00  0.00     0.190 HD
HETATM   43  N12 UNL     1      43.723  69.202  15.795  1.00  0.00    -0.275 N 
ATOM     44  H11 UNL     1      44.946  67.827  14.856  1.00  0.00     0.208 HD
HETATM   45  C18 UNL     1      43.828  70.380  14.937  1.00  0.00     0.179 C 
HETATM   46  C19 UNL     1      42.992  69.105  16.910  1.00  0.00     0.145 A 
BRANCH  46  47
HETATM   47  C20 UNL     1      42.192  70.186  17.484  1.00  0.00     0.143 C 
HETATM   48  N13 UNL     1      42.764  71.185  18.055  1.00  0.00    -0.386 N 
ATOM     49 2H13 UNL     1      43.784  71.202  18.075  1.00  0.00     0.157 HD
ATOM     50 1H13 UNL     1      42.206  71.939  18.455  1.00  0.00     0.157 HD
HETATM   51  N14 UNL     1      40.768  70.163  17.457  1.00  0.00    -0.081 NA
ENDBRANCH  46  47
ENDBRANCH  38  39
ENDBRANCH   6  38
TORSDOF 12
ENDMDL
MODEL 5
REMARK VINA RESULT: -6.776505598      2.349      3.286
REMARK  12 active torsions:
REMARK  status: ('A' for Active; 'I' for Inactive)
REMARK    1  A    between atoms: C2_2  and  N1_3 
REMARK    2  A    between atoms: N1_3  and  N2_5 
REMARK    3  A    between atoms: N2_5  and  C4_7 
REMARK    4  A    between atoms: C6_9  and  N3_10 
REMARK    5  A    between atoms: C8_12  and  C9_13 
REMARK       I    between atoms: C9_13  and  N4_15 
REMARK    6  A    between atoms: N4_15  and  C10_17 
REMARK    7  A    between atoms: C12_21  and  C13_22 
REMARK    8  A    between atoms: C13_22  and  N6_23 
REMARK    9  A    between atoms: C13_22  and  O2_27 
REMARK   10  A    between atoms: C16_37  and  O3_38 
REMARK   11  A    between atoms: O3_38  and  C17_39 
REMARK   12  A    between atoms: C19_46  and  C20_47 
ROOT
HETATM    1  C4  UNL     1      41.063  66.363  18.419  1.00  0.00     0.079 A 
HETATM    2  C5  UNL     1      39.937  65.787  18.966  1.00  0.00     0.065 A 
HETATM    3  C6  UNL     1      39.414  64.573  18.549  1.00  0.00     0.059 A 
HETATM    4  C14 UNL     1      40.077  63.944  17.537  1.00  0.00     0.034 A 
HETATM    5  C15 UNL     1      41.210  64.499  16.970  1.00  0.00     0.042 A 
HETATM    6  C16 UNL     1      41.741  65.689  17.367  1.00  0.00     0.105 A 
ENDROOT
BRANCH   3   7
HETATM    7  N3  UNL     1      38.247  64.047  19.163  1.00  0.00    -0.251 N 
HETATM    8  C7  UNL     1      37.015  64.570  19.298  1.00  0.00     0.154 A 
HETATM    9  C8  UNL     1      36.225  63.655  19.957  1.00  0.00     0.135 A 
HETATM   10  N8  UNL     1      37.005  62.596  20.208  1.00  0.00    -0.279 N 
HETATM   11  N9  UNL     1      38.197  62.842  19.732  1.00  0.00    -0.235 N 
ATOM     12  H8  UNL     1      36.718  61.743  20.688  1.00  0.00     0.189 HD
ATOM     13  H9  UNL     1      38.986  62.197  19.788  1.00  0.00     0.209 HD
BRANCH   9  14
HETATM   14  C9  UNL     1      34.792  63.806  20.302  1.00  0.00     0.289 C 
HETATM   15  O1  UNL     1      34.395  64.598  21.181  1.00  0.00    -0.265 OA
HETATM   16  N4  UNL     1      33.854  63.019  19.602  1.00  0.00    -0.154 N 
ATOM     17  H4  UNL     1      34.032  62.019  19.508  1.00  0.00     0.187 HD
BRANCH  16  18
HETATM   18  C10 UNL     1      32.793  63.500  19.079  1.00  0.00     0.685 A 
HETATM   19  N5  UNL     1      32.668  63.914  17.813  1.00  0.00    -0.200 N 
HETATM   20  C11 UNL     1      31.390  64.363  17.609  1.00  0.00     0.136 A 
ATOM     21  H5  UNL     1      33.407  63.897  17.111  1.00  0.00     0.183 HD
HETATM   22  C12 UNL     1      30.768  64.194  18.825  1.00  0.00     0.098 A 
HETATM   23  N7  UNL     1      31.627  63.668  19.718  1.00  0.00    -0.190 N 
ATOM     24  H7  UNL     1      31.429  63.441  20.692  1.00  0.00     0.184 HD
BRANCH  22  25
HETATM   25  C13 UNL     1      29.330  64.562  19.062  1.00  0.00     0.369 C 
BRANCH  25  26
HETATM   26  N6  UNL     1      28.930  65.503  18.035  1.00  0.00    -0.047 N 
ATOM     27  H63 UNL     1      29.491  65.422  17.186  1.00  0.00     0.277 HD
ATOM     28  H62 UNL     1      28.026  65.275  17.622  1.00  0.00     0.277 HD
ATOM     29  H61 UNL     1      28.954  66.440  18.436  1.00  0.00     0.277 HD
ENDBRANCH  25  26
BRANCH  25  30
HETATM   30  O2  UNL     1      28.562  63.392  18.915  1.00  0.00    -0.365 OA
ATOM     31  H2  UNL     1      28.764  63.022  18.064  1.00  0.00     0.212 HD
ENDBRANCH  25  30
ENDBRANCH  22  25
ENDBRANCH  16  18
ENDBRANCH   9  14
ENDBRANCH   3   7
BRANCH   1  32
HETATM   32  N2  UNL     1      41.572  67.613  18.842  1.00  0.00    -0.317 N 
ATOM     33  H2  UNL     1      41.509  68.393  18.188  1.00  0.00     0.181 HD
BRANCH  32  34
HETATM   34  N1  UNL     1      42.139  67.854  20.056  1.00  0.00    -0.235 NA
HETATM   35  C3  UNL     1      41.356  68.675  20.966  1.00  0.00     0.136 C 
BRANCH  34  36
HETATM   36  C2  UNL     1      43.479  68.335  20.091  1.00  0.00     0.108 C 
HETATM   37  C1  UNL     1      44.449  67.265  19.664  1.00  0.00     0.022 C 
ENDBRANCH  34  36
ENDBRANCH  32  34
ENDBRANCH   1  32
BRANCH   6  38
HETATM   38  O3  UNL     1      42.861  66.272  16.829  1.00  0.00    -0.288 OA
BRANCH  38  39
HETATM   39  C17 UNL     1      43.050  66.784  15.586  1.00  0.00     0.196 A 
HETATM   40  N10 UNL     1      42.944  66.248  14.364  1.00  0.00    -0.263 N 
HETATM   41  N11 UNL     1      43.228  67.161  13.475  1.00  0.00    -0.238 N 
ATOM     42  H10 UNL     1      42.685  65.283  14.160  1.00  0.00     0.190 HD
HETATM   43  N12 UNL     1      43.523  68.306  14.041  1.00  0.00    -0.275 N 
ATOM     44  H11 UNL     1      43.220  67.004  12.466  1.00  0.00     0.208 HD
HETATM   45  C18 UNL     1      43.888  69.554  13.375  1.00  0.00     0.179 C 
HETATM   46  C19 UNL     1      43.427  68.120  15.362  1.00  0.00     0.145 A 
BRANCH  46  47
HETATM   47  C20 UNL     1      43.710  69.137  16.374  1.00  0.00     0.143 C 
HETATM   48  N13 UNL     1      44.912  69.330  16.782  1.00  0.00    -0.386 N 
ATOM     49 2H13 UNL     1      45.653  68.768  16.365  1.00  0.00     0.157 HD
ATOM     50 1H13 UNL     1      45.109  70.040  17.489  1.00  0.00     0.157 HD
HETATM   51  N14 UNL     1      42.675  69.923  16.958  1.00  0.00    -0.081 NA
ENDBRANCH  46  47
ENDBRANCH  38  39
ENDBRANCH   6  38
TORSDOF 12
ENDMDL
