MODEL 1
REMARK VINA RESULT: -5.544654155      0.000      0.000
REMARK  9 active torsions:
REMARK  status: ('A' for Active; 'I' for Inactive)
REMARK    1  A    between atoms: C2_2  and  N1_3 
REMARK    2  A    between atoms: N1_3  and  C3_4 
REMARK    3  A    between atoms: N1_3  and  C5_6 
REMARK    4  A    between atoms: N6_20  and  C10_21 
REMARK    5  A    between atoms: C11_22  and  O1_23 
REMARK    6  A    between atoms: C11_22  and  C12_25 
REMARK    7  A    between atoms: C13_26  and  C14_27 
REMARK    8  A    between atoms: C14_27  and  O2_28 
REMARK    9  A    between atoms: C16_30  and  N7_31 
ROOT
HETATM    1  C10 UNL     1     -31.041  -9.314 -12.036  1.00  0.00     0.155 A 
HETATM    2  C11 UNL     1     -31.804 -10.598 -11.850  1.00  0.00     0.190 A 
HETATM    3  C16 UNL     1     -31.963 -10.645 -13.370  1.00  0.00     0.263 A 
HETATM    4  C17 UNL     1     -31.492 -11.828 -14.029  1.00  0.00     0.104 C 
HETATM    5  N8  UNL     1     -31.091 -12.782 -14.556  1.00  0.00    -0.194 NA
HETATM    6  C18 UNL     1     -31.174  -9.394 -13.484  1.00  0.00     0.035 A 
HETATM    7  C19 UNL     1     -32.047  -8.318 -14.177  1.00  0.00     0.015 C 
HETATM    8  C20 UNL     1     -30.843  -7.816 -14.913  1.00  0.00     0.002 C 
HETATM    9  C21 UNL     1     -30.194  -9.140 -14.489  1.00  0.00     0.015 C 
ENDROOT
BRANCH   3  10
HETATM   10  N7  UNL     1     -33.389 -10.480 -13.713  1.00  0.00    -0.052 N 
ATOM     11  H73 UNL     1     -34.006 -10.903 -13.020  1.00  0.00     0.276 HD
ATOM     12  H72 UNL     1     -33.703  -9.514 -13.614  1.00  0.00     0.276 HD
ATOM     13  H71 UNL     1     -33.552 -10.845 -14.651  1.00  0.00     0.276 HD
ENDBRANCH   3  10
BRANCH   2  14
HETATM   14  O1  UNL     1     -31.178 -11.657 -11.257  1.00  0.00    -0.372 OA
ATOM     15  H1  UNL     1     -31.364 -12.534 -11.571  1.00  0.00     0.212 HD
ENDBRANCH   2  14
BRANCH   2  16
HETATM   16  C12 UNL     1     -33.120 -10.451 -11.159  1.00  0.00    -0.060 C 
HETATM   17  C13 UNL     1     -34.192 -10.325 -10.622  1.00  0.00    -0.077 C 
BRANCH  17  18
HETATM   18  C14 UNL     1     -35.504 -10.192  -9.982  1.00  0.00     0.260 C 
BRANCH  18  19
HETATM   19  O2  UNL     1     -35.387 -10.736  -8.715  1.00  0.00    -0.384 OA
HETATM   20  C15 UNL     1     -36.607 -11.239  -8.282  1.00  0.00     0.202 C 
ENDBRANCH  18  19
ENDBRANCH  17  18
ENDBRANCH   2  16
BRANCH   1  21
HETATM   21  N6  UNL     1     -29.844  -9.072 -11.324  1.00  0.00    -0.317 N 
HETATM   22  C7  UNL     1     -28.710  -9.787 -11.137  1.00  0.00     0.155 A 
HETATM   23  N4  UNL     1     -28.363 -10.981 -11.599  1.00  0.00    -0.174 N 
HETATM   24  C8  UNL     1     -27.799  -9.114 -10.341  1.00  0.00     0.123 A 
HETATM   25  C6  UNL     1     -27.178 -11.541 -11.318  1.00  0.00     0.679 A 
ATOM     26  H4  UNL     1     -29.021 -11.492 -12.187  1.00  0.00     0.186 HD
HETATM   27  N2  UNL     1     -26.306 -10.887 -10.551  1.00  0.00    -0.175 N 
HETATM   28  N3  UNL     1     -26.881 -12.736 -11.803  1.00  0.00    -0.234 N 
HETATM   29  C5  UNL     1     -26.569  -9.655 -10.029  1.00  0.00     0.150 A 
ATOM     30  H2  UNL     1     -25.408 -11.324 -10.346  1.00  0.00     0.186 HD
ATOM     31  H32 UNL     1     -25.978 -13.162 -11.590  1.00  0.00     0.174 HD
ATOM     32  H31 UNL     1     -27.548 -13.237 -12.390  1.00  0.00     0.174 HD
HETATM   33  N5  UNL     1     -28.393  -7.968 -10.040  1.00  0.00    -0.346 N 
HETATM   34  C9  UNL     1     -29.576  -7.935 -10.602  1.00  0.00     0.185 A 
ATOM     35  H5  UNL     1     -27.993  -7.229  -9.462  1.00  0.00     0.167 HD
BRANCH  29  36
HETATM   36  N1  UNL     1     -25.612  -9.024  -9.206  1.00  0.00    -0.366 N 
BRANCH  36  37
HETATM   37  C2  UNL     1     -24.547  -8.303  -9.869  1.00  0.00     0.120 C 
HETATM   38  C1  UNL     1     -23.307  -8.302  -9.029  1.00  0.00     0.026 C 
ENDBRANCH  36  37
BRANCH  36  39
HETATM   39  C3  UNL     1     -25.664  -9.087  -7.781  1.00  0.00     0.120 C 
HETATM   40  C4  UNL     1     -26.519  -8.060  -7.102  1.00  0.00     0.026 C 
ENDBRANCH  36  39
ENDBRANCH  29  36
ENDBRANCH   1  21
TORSDOF 9
ENDMDL
MODEL 2
REMARK VINA RESULT: -5.345585272      2.171      4.072
REMARK  9 active torsions:
REMARK  status: ('A' for Active; 'I' for Inactive)
REMARK    1  A    between atoms: C2_2  and  N1_3 
REMARK    2  A    between atoms: N1_3  and  C3_4 
REMARK    3  A    between atoms: N1_3  and  C5_6 
REMARK    4  A    between atoms: N6_20  and  C10_21 
REMARK    5  A    between atoms: C11_22  and  O1_23 
REMARK    6  A    between atoms: C11_22  and  C12_25 
REMARK    7  A    between atoms: C13_26  and  C14_27 
REMARK    8  A    between atoms: C14_27  and  O2_28 
REMARK    9  A    between atoms: C16_30  and  N7_31 
ROOT
HETATM    1  C10 UNL     1     -30.773 -10.861 -11.774  1.00  0.00     0.155 A 
HETATM    2  C11 UNL     1     -30.767 -10.952 -13.276  1.00  0.00     0.190 A 
HETATM    3  C16 UNL     1     -32.131 -10.260 -13.256  1.00  0.00     0.263 A 
HETATM    4  C17 UNL     1     -32.249  -9.053 -14.021  1.00  0.00     0.104 C 
HETATM    5  N8  UNL     1     -32.330  -8.067 -14.627  1.00  0.00    -0.194 NA
HETATM    6  C18 UNL     1     -32.057 -10.173 -11.777  1.00  0.00     0.035 A 
HETATM    7  C19 UNL     1     -33.268 -10.927 -11.175  1.00  0.00     0.015 C 
HETATM    8  C20 UNL     1     -33.387  -9.883 -10.107  1.00  0.00     0.002 C 
HETATM    9  C21 UNL     1     -32.471  -9.045 -11.008  1.00  0.00     0.015 C 
ENDROOT
BRANCH   3  10
HETATM   10  N7  UNL     1     -33.158 -11.201 -13.745  1.00  0.00    -0.052 N 
ATOM     11  H73 UNL     1     -32.778 -12.130 -13.925  1.00  0.00     0.276 HD
ATOM     12  H72 UNL     1     -33.825 -11.458 -13.017  1.00  0.00     0.276 HD
ATOM     13  H71 UNL     1     -33.614 -10.802 -14.565  1.00  0.00     0.276 HD
ENDBRANCH   3  10
BRANCH   2  14
HETATM   14  O1  UNL     1     -29.766 -10.335 -13.970  1.00  0.00    -0.372 OA
ATOM     15  H1  UNL     1     -29.200 -10.860 -14.523  1.00  0.00     0.212 HD
ENDBRANCH   2  14
BRANCH   2  16
HETATM   16  C12 UNL     1     -30.857 -12.340 -13.821  1.00  0.00    -0.060 C 
HETATM   17  C13 UNL     1     -30.909 -13.465 -14.252  1.00  0.00    -0.077 C 
BRANCH  17  18
HETATM   18  C14 UNL     1     -30.973 -14.842 -14.751  1.00  0.00     0.260 C 
BRANCH  18  19
HETATM   19  O2  UNL     1     -30.909 -15.670 -13.644  1.00  0.00    -0.384 OA
HETATM   20  C15 UNL     1     -29.591 -15.873 -13.258  1.00  0.00     0.202 C 
ENDBRANCH  18  19
ENDBRANCH  17  18
ENDBRANCH   2  16
BRANCH   1  21
HETATM   21  N6  UNL     1     -29.617 -10.459 -11.067  1.00  0.00    -0.317 N 
HETATM   22  C7  UNL     1     -28.855  -9.340 -11.085  1.00  0.00     0.155 A 
HETATM   23  N4  UNL     1     -28.979  -8.230 -11.801  1.00  0.00    -0.174 N 
HETATM   24  C8  UNL     1     -27.801  -9.416 -10.191  1.00  0.00     0.123 A 
HETATM   25  C6  UNL     1     -28.127  -7.203 -11.683  1.00  0.00     0.679 A 
ATOM     26  H4  UNL     1     -29.749  -8.155 -12.465  1.00  0.00     0.186 HD
HETATM   27  N2  UNL     1     -27.114  -7.283 -10.819  1.00  0.00    -0.175 N 
HETATM   28  N3  UNL     1     -28.294  -6.117 -12.420  1.00  0.00    -0.234 N 
HETATM   29  C5  UNL     1     -26.902  -8.381 -10.039  1.00  0.00     0.150 A 
ATOM     30  H2  UNL     1     -26.474  -6.494 -10.738  1.00  0.00     0.186 HD
ATOM     31  H32 UNL     1     -27.646  -5.334 -12.329  1.00  0.00     0.174 HD
ATOM     32  H31 UNL     1     -29.069  -6.055 -13.082  1.00  0.00     0.174 HD
HETATM   33  N5  UNL     1     -27.928 -10.605  -9.618  1.00  0.00    -0.346 N 
HETATM   34  C9  UNL     1     -28.974 -11.215 -10.118  1.00  0.00     0.185 A 
ATOM     35  H5  UNL     1     -27.309 -10.984  -8.902  1.00  0.00     0.167 HD
BRANCH  29  36
HETATM   36  N1  UNL     1     -25.800  -8.413  -9.159  1.00  0.00    -0.366 N 
BRANCH  36  37
HETATM   37  C2  UNL     1     -24.505  -8.700  -9.736  1.00  0.00     0.120 C 
HETATM   38  C1  UNL     1     -23.408  -8.328  -8.787  1.00  0.00     0.026 C 
ENDBRANCH  36  37
BRANCH  36  39
HETATM   39  C3  UNL     1     -25.932  -8.186  -7.756  1.00  0.00     0.120 C 
HETATM   40  C4  UNL     1     -27.074  -7.316  -7.329  1.00  0.00     0.026 C 
ENDBRANCH  36  39
ENDBRANCH  29  36
ENDBRANCH   1  21
TORSDOF 9
ENDMDL
MODEL 3
REMARK VINA RESULT: -5.340509360      2.523      7.556
REMARK  9 active torsions:
REMARK  status: ('A' for Active; 'I' for Inactive)
REMARK    1  A    between atoms: C2_2  and  N1_3 
REMARK    2  A    between atoms: N1_3  and  C3_4 
REMARK    3  A    between atoms: N1_3  and  C5_6 
REMARK    4  A    between atoms: N6_20  and  C10_21 
REMARK    5  A    between atoms: C11_22  and  O1_23 
REMARK    6  A    between atoms: C11_22  and  C12_25 
REMARK    7  A    between atoms: C13_26  and  C14_27 
REMARK    8  A    between atoms: C14_27  and  O2_28 
REMARK    9  A    between atoms: C16_30  and  N7_31 
ROOT
HETATM    1  C10 UNL     1     -28.534  -9.575 -10.918  1.00  0.00     0.155 A 
HETATM    2  C11 UNL     1     -27.814 -10.647 -10.144  1.00  0.00     0.190 A 
HETATM    3  C16 UNL     1     -26.930  -9.540  -9.566  1.00  0.00     0.263 A 
HETATM    4  C17 UNL     1     -26.878  -9.441  -8.137  1.00  0.00     0.104 C 
HETATM    5  N8  UNL     1     -26.857  -9.355  -6.980  1.00  0.00    -0.194 NA
HETATM    6  C18 UNL     1     -27.704  -8.532 -10.332  1.00  0.00     0.035 A 
HETATM    7  C19 UNL     1     -26.737  -7.779 -11.279  1.00  0.00     0.015 C 
HETATM    8  C20 UNL     1     -27.478  -6.503 -11.021  1.00  0.00     0.002 C 
HETATM    9  C21 UNL     1     -28.091  -7.254  -9.832  1.00  0.00     0.015 C 
ENDROOT
BRANCH   3  10
HETATM   10  N7  UNL     1     -25.548  -9.722 -10.053  1.00  0.00    -0.052 N 
ATOM     11  H73 UNL     1     -25.243  -8.955 -10.651  1.00  0.00     0.276 HD
ATOM     12  H72 UNL     1     -24.858  -9.608  -9.310  1.00  0.00     0.276 HD
ATOM     13  H71 UNL     1     -25.473 -10.628 -10.516  1.00  0.00     0.276 HD
ENDBRANCH   3  10
BRANCH   2  14
HETATM   14  O1  UNL     1     -28.521 -11.405  -9.256  1.00  0.00    -0.372 OA
ATOM     15  H1  UNL     1     -29.431 -11.601  -9.443  1.00  0.00     0.212 HD
ENDBRANCH   2  14
BRANCH   2  16
HETATM   16  C12 UNL     1     -27.029 -11.605 -10.979  1.00  0.00    -0.060 C 
HETATM   17  C13 UNL     1     -26.407 -12.370 -11.672  1.00  0.00    -0.077 C 
BRANCH  17  18
HETATM   18  C14 UNL     1     -25.637 -13.280 -12.525  1.00  0.00     0.260 C 
BRANCH  18  19
HETATM   19  O2  UNL     1     -24.375 -13.379 -11.965  1.00  0.00    -0.384 OA
HETATM   20  C15 UNL     1     -23.627 -12.241 -12.235  1.00  0.00     0.202 C 
ENDBRANCH  18  19
ENDBRANCH  17  18
ENDBRANCH   2  16
BRANCH   1  21
HETATM   21  N6  UNL     1     -29.945  -9.565 -11.002  1.00  0.00    -0.317 N 
HETATM   22  C7  UNL     1     -30.869 -10.511 -11.293  1.00  0.00     0.155 A 
HETATM   23  N4  UNL     1     -30.717 -11.795 -11.591  1.00  0.00    -0.174 N 
HETATM   24  C8  UNL     1     -32.158 -10.008 -11.248  1.00  0.00     0.123 A 
HETATM   25  C6  UNL     1     -31.758 -12.599 -11.845  1.00  0.00     0.679 A 
ATOM     26  H4  UNL     1     -29.775 -12.184 -11.628  1.00  0.00     0.186 HD
HETATM   27  N2  UNL     1     -32.996 -12.107 -11.800  1.00  0.00    -0.175 N 
HETATM   28  N3  UNL     1     -31.552 -13.874 -12.137  1.00  0.00    -0.234 N 
HETATM   29  C5  UNL     1     -33.256 -10.803 -11.504  1.00  0.00     0.150 A 
ATOM     30  H2  UNL     1     -33.780 -12.731 -11.994  1.00  0.00     0.186 HD
ATOM     31  H32 UNL     1     -32.345 -14.486 -12.330  1.00  0.00     0.174 HD
ATOM     32  H31 UNL     1     -30.605 -14.250 -12.172  1.00  0.00     0.174 HD
HETATM   33  N5  UNL     1     -32.012  -8.731 -10.923  1.00  0.00    -0.346 N 
HETATM   34  C9  UNL     1     -30.737  -8.465 -10.779  1.00  0.00     0.185 A 
ATOM     35  H5  UNL     1     -32.772  -8.062 -10.803  1.00  0.00     0.167 HD
BRANCH  29  36
HETATM   36  N1  UNL     1     -34.588 -10.338 -11.492  1.00  0.00    -0.366 N 
BRANCH  36  37
HETATM   37  C2  UNL     1     -35.294 -10.392 -10.231  1.00  0.00     0.120 C 
HETATM   38  C1  UNL     1     -36.775 -10.337 -10.450  1.00  0.00     0.026 C 
ENDBRANCH  36  37
BRANCH  36  39
HETATM   39  C3  UNL     1     -35.237  -9.841 -12.663  1.00  0.00     0.120 C 
HETATM   40  C4  UNL     1     -34.994  -8.401 -12.996  1.00  0.00     0.026 C 
ENDBRANCH  36  39
ENDBRANCH  29  36
ENDBRANCH   1  21
TORSDOF 9
ENDMDL
MODEL 4
REMARK VINA RESULT: -5.152227952      2.166      4.223
REMARK  9 active torsions:
REMARK  status: ('A' for Active; 'I' for Inactive)
REMARK    1  A    between atoms: C2_2  and  N1_3 
REMARK    2  A    between atoms: N1_3  and  C3_4 
REMARK    3  A    between atoms: N1_3  and  C5_6 
REMARK    4  A    between atoms: N6_20  and  C10_21 
REMARK    5  A    between atoms: C11_22  and  O1_23 
REMARK    6  A    between atoms: C11_22  and  C12_25 
REMARK    7  A    between atoms: C13_26  and  C14_27 
REMARK    8  A    between atoms: C14_27  and  O2_28 
REMARK    9  A    between atoms: C16_30  and  N7_31 
ROOT
HETATM    1  C10 UNL     1     -30.774 -10.846 -11.737  1.00  0.00     0.155 A 
HETATM    2  C11 UNL     1     -30.807 -10.923 -13.240  1.00  0.00     0.190 A 
HETATM    3  C16 UNL     1     -32.156 -10.206 -13.179  1.00  0.00     0.263 A 
HETATM    4  C17 UNL     1     -32.271  -8.990 -13.929  1.00  0.00     0.104 C 
HETATM    5  N8  UNL     1     -32.350  -7.996 -14.524  1.00  0.00    -0.194 NA
HETATM    6  C18 UNL     1     -32.044 -10.135 -11.702  1.00  0.00     0.035 A 
HETATM    7  C19 UNL     1     -33.253 -10.873 -11.076  1.00  0.00     0.015 C 
HETATM    8  C20 UNL     1     -33.326  -9.837  -9.996  1.00  0.00     0.002 C 
HETATM    9  C21 UNL     1     -32.418  -9.007 -10.912  1.00  0.00     0.015 C 
ENDROOT
BRANCH   3  10
HETATM   10  N7  UNL     1     -33.213 -11.124 -13.650  1.00  0.00    -0.052 N 
ATOM     11  H73 UNL     1     -33.100 -11.374 -14.632  1.00  0.00     0.276 HD
ATOM     12  H72 UNL     1     -33.120 -12.058 -13.252  1.00  0.00     0.276 HD
ATOM     13  H71 UNL     1     -34.125 -10.709 -13.458  1.00  0.00     0.276 HD
ENDBRANCH   3  10
BRANCH   2  14
HETATM   14  O1  UNL     1     -29.812 -10.317 -13.953  1.00  0.00    -0.372 OA
ATOM     15  H1  UNL     1     -29.002 -10.094 -13.510  1.00  0.00     0.212 HD
ENDBRANCH   2  14
BRANCH   2  16
HETATM   16  C12 UNL     1     -30.937 -12.304 -13.795  1.00  0.00    -0.060 C 
HETATM   17  C13 UNL     1     -31.051 -13.425 -14.223  1.00  0.00    -0.077 C 
BRANCH  17  18
HETATM   18  C14 UNL     1     -31.216 -14.785 -14.744  1.00  0.00     0.260 C 
BRANCH  18  19
HETATM   19  O2  UNL     1     -30.109 -15.507 -14.333  1.00  0.00    -0.384 OA
HETATM   20  C15 UNL     1     -30.285 -15.981 -13.040  1.00  0.00     0.202 C 
ENDBRANCH  18  19
ENDBRANCH  17  18
ENDBRANCH   2  16
BRANCH   1  21
HETATM   21  N6  UNL     1     -29.593 -10.472 -11.056  1.00  0.00    -0.317 N 
HETATM   22  C7  UNL     1     -28.809  -9.369 -11.086  1.00  0.00     0.155 A 
HETATM   23  N4  UNL     1     -28.927  -8.252 -11.792  1.00  0.00    -0.174 N 
HETATM   24  C8  UNL     1     -27.735  -9.473 -10.218  1.00  0.00     0.123 A 
HETATM   25  C6  UNL     1     -28.051  -7.244 -11.688  1.00  0.00     0.679 A 
ATOM     26  H4  UNL     1     -29.711  -8.158 -12.437  1.00  0.00     0.186 HD
HETATM   27  N2  UNL     1     -27.020  -7.350 -10.850  1.00  0.00    -0.175 N 
HETATM   28  N3  UNL     1     -28.214  -6.150 -12.415  1.00  0.00    -0.234 N 
HETATM   29  C5  UNL     1     -26.812  -8.457 -10.082  1.00  0.00     0.150 A 
ATOM     30  H2  UNL     1     -26.361  -6.575 -10.780  1.00  0.00     0.186 HD
ATOM     31  H32 UNL     1     -27.547  -5.382 -12.336  1.00  0.00     0.174 HD
ATOM     32  H31 UNL     1     -29.003  -6.068 -13.057  1.00  0.00     0.174 HD
HETATM   33  N5  UNL     1     -27.872 -10.662  -9.649  1.00  0.00    -0.346 N 
HETATM   34  C9  UNL     1     -28.942 -11.248 -10.127  1.00  0.00     0.185 A 
ATOM     35  H5  UNL     1     -27.245 -11.058  -8.950  1.00  0.00     0.167 HD
BRANCH  29  36
HETATM   36  N1  UNL     1     -25.689  -8.517  -9.229  1.00  0.00    -0.366 N 
BRANCH  36  37
HETATM   37  C2  UNL     1     -25.938  -8.428  -7.807  1.00  0.00     0.120 C 
HETATM   38  C1  UNL     1     -26.974  -7.386  -7.515  1.00  0.00     0.026 C 
ENDBRANCH  36  37
BRANCH  36  39
HETATM   39  C3  UNL     1     -24.357  -8.650  -9.723  1.00  0.00     0.120 C 
HETATM   40  C4  UNL     1     -23.259  -8.224  -8.796  1.00  0.00     0.026 C 
ENDBRANCH  36  39
ENDBRANCH  29  36
ENDBRANCH   1  21
TORSDOF 9
ENDMDL
MODEL 5
REMARK VINA RESULT: -5.151509326      2.862      7.471
REMARK  9 active torsions:
REMARK  status: ('A' for Active; 'I' for Inactive)
REMARK    1  A    between atoms: C2_2  and  N1_3 
REMARK    2  A    between atoms: N1_3  and  C3_4 
REMARK    3  A    between atoms: N1_3  and  C5_6 
REMARK    4  A    between atoms: N6_20  and  C10_21 
REMARK    5  A    between atoms: C11_22  and  O1_23 
REMARK    6  A    between atoms: C11_22  and  C12_25 
REMARK    7  A    between atoms: C13_26  and  C14_27 
REMARK    8  A    between atoms: C14_27  and  O2_28 
REMARK    9  A    between atoms: C16_30  and  N7_31 
ROOT
HETATM    1  C10 UNL     1     -29.813  -8.949 -11.107  1.00  0.00     0.155 A 
HETATM    2  C11 UNL     1     -29.422  -7.500 -10.999  1.00  0.00     0.190 A 
HETATM    3  C16 UNL     1     -28.384  -7.769 -12.089  1.00  0.00     0.263 A 
HETATM    4  C17 UNL     1     -28.455  -6.946 -13.260  1.00  0.00     0.104 C 
HETATM    5  N8  UNL     1     -28.533  -6.288 -14.214  1.00  0.00    -0.194 NA
HETATM    6  C18 UNL     1     -28.842  -9.178 -12.168  1.00  0.00     0.035 A 
HETATM    7  C19 UNL     1     -27.645 -10.107 -11.846  1.00  0.00     0.015 C 
HETATM    8  C20 UNL     1     -28.117 -11.075 -12.887  1.00  0.00     0.002 C 
HETATM    9  C21 UNL     1     -28.994  -9.916 -13.379  1.00  0.00     0.015 C 
ENDROOT
BRANCH   3  10
HETATM   10  N7  UNL     1     -27.031  -7.615 -11.517  1.00  0.00    -0.052 N 
ATOM     11  H73 UNL     1     -27.003  -7.840 -10.522  1.00  0.00     0.276 HD
ATOM     12  H72 UNL     1     -26.388  -8.336 -11.845  1.00  0.00     0.276 HD
ATOM     13  H71 UNL     1     -26.691  -6.674 -11.712  1.00  0.00     0.276 HD
ENDBRANCH   3  10
BRANCH   2  14
HETATM   14  O1  UNL     1     -30.361  -6.543 -11.257  1.00  0.00    -0.372 OA
ATOM     15  H1  UNL     1     -30.413  -5.785 -10.686  1.00  0.00     0.212 HD
ENDBRANCH   2  14
BRANCH   2  16
HETATM   16  C12 UNL     1     -28.781  -7.118  -9.705  1.00  0.00    -0.060 C 
HETATM   17  C13 UNL     1     -28.271  -6.830  -8.651  1.00  0.00    -0.077 C 
BRANCH  17  18
HETATM   18  C14 UNL     1     -27.632  -6.498  -7.374  1.00  0.00     0.260 C 
BRANCH  18  19
HETATM   19  O2  UNL     1     -26.362  -7.048  -7.410  1.00  0.00    -0.384 OA
HETATM   20  C15 UNL     1     -26.425  -8.433  -7.350  1.00  0.00     0.202 C 
ENDBRANCH  18  19
ENDBRANCH  17  18
ENDBRANCH   2  16
BRANCH   1  21
HETATM   21  N6  UNL     1     -31.174  -9.333 -11.130  1.00  0.00    -0.317 N 
HETATM   22  C7  UNL     1     -32.262  -8.871 -11.788  1.00  0.00     0.155 A 
HETATM   23  N4  UNL     1     -32.379  -7.876 -12.659  1.00  0.00    -0.174 N 
HETATM   24  C8  UNL     1     -33.402  -9.591 -11.475  1.00  0.00     0.123 A 
HETATM   25  C6  UNL     1     -33.550  -7.558 -13.229  1.00  0.00     0.679 A 
ATOM     26  H4  UNL     1     -31.551  -7.334 -12.902  1.00  0.00     0.186 HD
HETATM   27  N2  UNL     1     -34.643  -8.256 -12.922  1.00  0.00    -0.175 N 
HETATM   28  N3  UNL     1     -33.613  -6.556 -14.091  1.00  0.00    -0.234 N 
HETATM   29  C5  UNL     1     -34.626  -9.295 -12.040  1.00  0.00     0.150 A 
ATOM     30  H2  UNL     1     -35.527  -8.004 -13.364  1.00  0.00     0.186 HD
ATOM     31  H32 UNL     1     -34.504  -6.314 -14.525  1.00  0.00     0.174 HD
ATOM     32  H31 UNL     1     -32.777  -6.021 -14.325  1.00  0.00     0.174 HD
HETATM   33  N5  UNL     1     -32.996 -10.510 -10.610  1.00  0.00    -0.346 N 
HETATM   34  C9  UNL     1     -31.710 -10.368 -10.403  1.00  0.00     0.185 A 
ATOM     35  H5  UNL     1     -33.590 -11.214 -10.174  1.00  0.00     0.167 HD
BRANCH  29  36
HETATM   36  N1  UNL     1     -35.822  -9.982 -11.742  1.00  0.00    -0.366 N 
BRANCH  36  37
HETATM   37  C2  UNL     1     -36.282 -10.953 -12.709  1.00  0.00     0.120 C 
HETATM   38  C1  UNL     1     -35.546 -12.248 -12.551  1.00  0.00     0.026 C 
ENDBRANCH  36  37
BRANCH  36  39
HETATM   39  C3  UNL     1     -36.568  -9.740 -10.549  1.00  0.00     0.120 C 
HETATM   40  C4  UNL     1     -36.290 -10.654  -9.395  1.00  0.00     0.026 C 
ENDBRANCH  36  39
ENDBRANCH  29  36
ENDBRANCH   1  21
TORSDOF 9
ENDMDL
