MODEL 1
REMARK VINA RESULT: -6.829987837      0.000      0.000
REMARK  8 active torsions:
REMARK  status: ('A' for Active; 'I' for Inactive)
REMARK    1  A    between atoms: N1_1  and  C1_4 
REMARK       I    between atoms: N3_8  and  C3_10 
REMARK    2  A    between atoms: C3_10  and  C4_12 
REMARK    3  A    between atoms: C5_15  and  S1_16 
REMARK    4  A    between atoms: S1_16  and  N5_17 
REMARK    5  A    between atoms: C6_27  and  S3_28 
REMARK    6  A    between atoms: S3_28  and  C7_29 
REMARK    7  A    between atoms: C7_29  and  C8_30 
REMARK       I    between atoms: C8_30  and  N8_32 
REMARK    8  A    between atoms: C9_34  and  C10_35 
ROOT
HETATM    1  C1  UNL     1      12.589  17.541 -18.870  1.00  0.00     0.124 A 
HETATM    2  N2  UNL     1      13.259  16.843 -19.780  1.00  0.00    -0.322 N 
ATOM      3  H2  UNL     1      14.145  17.236 -20.100  1.00  0.00     0.169 HD
HETATM    4  C2  UNL     1      12.886  15.669 -20.320  1.00  0.00     0.154 A 
HETATM    5  N3  UNL     1      13.619  15.059 -21.213  1.00  0.00    -0.300 N 
ATOM      6  H3  UNL     1      13.318  14.168 -21.608  1.00  0.00     0.171 HD
HETATM    7  C3  UNL     1      14.839  15.649 -21.625  1.00  0.00     0.293 C 
HETATM    8  O1  UNL     1      14.777  16.578 -22.479  1.00  0.00    -0.264 OA
HETATM    9  S2  UNL     1      11.402  15.060 -19.748  1.00  0.00    -0.045 SA
HETATM   10  C6  UNL     1      10.662  16.057 -18.593  1.00  0.00     0.070 A 
HETATM   11  C11 UNL     1      11.385  17.211 -18.298  1.00  0.00     0.101 A 
HETATM   12 CL1  UNL     1      10.642  18.277 -17.089  1.00  0.00    -0.078 Cl
ENDROOT
BRANCH   1  13
HETATM   13  N1  UNL     1      13.099  18.673 -18.443  1.00  0.00    -0.384 N 
ATOM     14  H12 UNL     1      12.502  19.487 -18.596  1.00  0.00     0.157 HD
ATOM     15  H11 UNL     1      14.019  18.660 -18.004  1.00  0.00     0.157 HD
ENDBRANCH   1  13
BRANCH   7  16
HETATM   16  C4  UNL     1      16.119  15.199 -21.084  1.00  0.00     0.192 A 
HETATM   17  N4  UNL     1      16.980  14.311 -21.625  1.00  0.00    -0.311 N 
HETATM   18  C5  UNL     1      18.044  14.166 -20.823  1.00  0.00     0.240 A 
ATOM     19  H4  UNL     1      16.841  13.823 -22.510  1.00  0.00     0.170 HD
HETATM   20  N6  UNL     1      17.853  14.971 -19.766  1.00  0.00    -0.273 N 
HETATM   21  N7  UNL     1      16.699  15.588 -19.927  1.00  0.00    -0.279 N 
ATOM     22  H6  UNL     1      18.490  15.086 -18.977  1.00  0.00     0.189 HD
ATOM     23  H7  UNL     1      16.301  16.262 -19.273  1.00  0.00     0.189 HD
BRANCH  18  24
HETATM   24  S1  UNL     1      19.428  13.128 -21.083  1.00  0.00     0.290 S 
HETATM   25  O2  UNL     1      20.163  13.436 -22.342  1.00  0.00    -0.198 OA
HETATM   26  O3  UNL     1      18.914  11.708 -21.202  1.00  0.00    -0.198 OA
BRANCH  24  27
HETATM   27  N5  UNL     1      20.491  13.154 -19.715  1.00  0.00    -0.322 N 
ATOM     28  H52 UNL     1      20.260  13.602 -18.828  1.00  0.00     0.169 HD
ATOM     29  H51 UNL     1      21.363  12.666 -19.920  1.00  0.00     0.169 HD
ENDBRANCH  24  27
ENDBRANCH  18  24
ENDBRANCH   7  16
BRANCH  10  30
HETATM   30  S3  UNL     1       9.097  15.728 -17.774  1.00  0.00    -0.111 SA
BRANCH  30  31
HETATM   31  C7  UNL     1       9.197  14.294 -16.701  1.00  0.00     0.183 C 
BRANCH  31  32
HETATM   32  C8  UNL     1      10.327  14.370 -15.734  1.00  0.00     0.231 C 
HETATM   33  O4  UNL     1      11.380  13.790 -16.072  1.00  0.00    -0.272 OA
HETATM   34  N8  UNL     1      10.164  15.054 -14.564  1.00  0.00    -0.330 N 
HETATM   35  C9  UNL     1      10.354  14.818 -13.373  1.00  0.00     0.175 C 
ATOM     36  H8  UNL     1       9.794  15.992 -14.715  1.00  0.00     0.168 HD
BRANCH  35  37
HETATM   37  C10 UNL     1      10.865  13.595 -12.819  1.00  0.00     0.214 C 
HETATM   38  O5  UNL     1      12.050  13.241 -12.948  1.00  0.00    -0.643 OA
HETATM   39  O6  UNL     1      10.008  12.745 -12.092  1.00  0.00    -0.643 OA
ENDBRANCH  35  37
ENDBRANCH  31  32
ENDBRANCH  30  31
ENDBRANCH  10  30
TORSDOF 8
ENDMDL
MODEL 2
REMARK VINA RESULT: -6.626448471      1.188      1.310
REMARK  8 active torsions:
REMARK  status: ('A' for Active; 'I' for Inactive)
REMARK    1  A    between atoms: N1_1  and  C1_4 
REMARK       I    between atoms: N3_8  and  C3_10 
REMARK    2  A    between atoms: C3_10  and  C4_12 
REMARK    3  A    between atoms: C5_15  and  S1_16 
REMARK    4  A    between atoms: S1_16  and  N5_17 
REMARK    5  A    between atoms: C6_27  and  S3_28 
REMARK    6  A    between atoms: S3_28  and  C7_29 
REMARK    7  A    between atoms: C7_29  and  C8_30 
REMARK       I    between atoms: C8_30  and  N8_32 
REMARK    8  A    between atoms: C9_34  and  C10_35 
ROOT
HETATM    1  C1  UNL     1      13.109  18.191 -19.665  1.00  0.00     0.124 A 
HETATM    2  N2  UNL     1      13.603  17.111 -20.260  1.00  0.00    -0.322 N 
ATOM      3  H2  UNL     1      14.424  17.246 -20.850  1.00  0.00     0.169 HD
HETATM    4  C2  UNL     1      13.128  15.857 -20.162  1.00  0.00     0.154 A 
HETATM    5  N3  UNL     1      13.688  14.857 -20.790  1.00  0.00    -0.300 N 
ATOM      6  H3  UNL     1      13.311  13.914 -20.700  1.00  0.00     0.171 HD
HETATM    7  C3  UNL     1      14.825  15.101 -21.599  1.00  0.00     0.293 C 
HETATM    8  O1  UNL     1      14.627  15.568 -22.756  1.00  0.00    -0.264 OA
HETATM    9  S2  UNL     1      11.758  15.689 -19.165  1.00  0.00    -0.045 SA
HETATM   10  C6  UNL     1      11.241  17.150 -18.474  1.00  0.00     0.070 A 
HETATM   11  C11 UNL     1      12.019  18.249 -18.833  1.00  0.00     0.101 A 
HETATM   12 CL1  UNL     1      11.510  19.795 -18.125  1.00  0.00    -0.078 Cl
ENDROOT
BRANCH   1  13
HETATM   13  N1  UNL     1      13.699  19.346 -19.866  1.00  0.00    -0.384 N 
ATOM     14  H12 UNL     1      13.391  19.836 -20.707  1.00  0.00     0.157 HD
ATOM     15  H11 UNL     1      14.397  19.663 -19.192  1.00  0.00     0.157 HD
ENDBRANCH   1  13
BRANCH   7  16
HETATM   16  C4  UNL     1      16.174  14.820 -21.114  1.00  0.00     0.192 A 
HETATM   17  N4  UNL     1      17.083  13.971 -21.639  1.00  0.00    -0.311 N 
HETATM   18  C5  UNL     1      18.203  13.996 -20.903  1.00  0.00     0.240 A 
ATOM     19  H4  UNL     1      16.939  13.398 -22.471  1.00  0.00     0.170 HD
HETATM   20  N6  UNL     1      17.999  14.868 -19.904  1.00  0.00    -0.273 N 
HETATM   21  N7  UNL     1      16.782  15.360 -20.034  1.00  0.00    -0.279 N 
ATOM     22  H6  UNL     1      18.667  15.109 -19.172  1.00  0.00     0.189 HD
ATOM     23  H7  UNL     1      16.360  16.047 -19.410  1.00  0.00     0.189 HD
BRANCH  18  24
HETATM   24  S1  UNL     1      19.664  13.072 -21.174  1.00  0.00     0.290 S 
HETATM   25  O2  UNL     1      20.286  13.336 -22.501  1.00  0.00    -0.198 OA
HETATM   26  O3  UNL     1      19.285  11.606 -21.142  1.00  0.00    -0.198 OA
BRANCH  24  27
HETATM   27  N5  UNL     1      20.801  13.316 -19.890  1.00  0.00    -0.322 N 
ATOM     28  H52 UNL     1      21.741  13.686 -20.030  1.00  0.00     0.169 HD
ATOM     29  H51 UNL     1      20.403  13.042 -18.991  1.00  0.00     0.169 HD
ENDBRANCH  24  27
ENDBRANCH  18  24
ENDBRANCH   7  16
BRANCH  10  30
HETATM   30  S3  UNL     1       9.837  17.348 -17.370  1.00  0.00    -0.111 SA
BRANCH  30  31
HETATM   31  C7  UNL     1      10.315  17.172 -15.650  1.00  0.00     0.183 C 
BRANCH  31  32
HETATM   32  C8  UNL     1      10.739  15.786 -15.305  1.00  0.00     0.231 C 
HETATM   33  O4  UNL     1      10.021  14.866 -15.748  1.00  0.00    -0.272 OA
HETATM   34  N8  UNL     1      11.859  15.595 -14.548  1.00  0.00    -0.330 N 
HETATM   35  C9  UNL     1      12.137  14.961 -13.534  1.00  0.00     0.175 C 
ATOM     36  H8  UNL     1      12.662  16.105 -14.915  1.00  0.00     0.168 HD
BRANCH  35  37
HETATM   37  C10 UNL     1      11.240  14.141 -12.769  1.00  0.00     0.214 C 
HETATM   38  O5  UNL     1      10.332  14.613 -12.063  1.00  0.00    -0.643 OA
HETATM   39  O6  UNL     1      11.371  12.738 -12.805  1.00  0.00    -0.643 OA
ENDBRANCH  35  37
ENDBRANCH  31  32
ENDBRANCH  30  31
ENDBRANCH  10  30
TORSDOF 8
ENDMDL
MODEL 3
REMARK VINA RESULT: -6.284542793      2.099      2.735
REMARK  8 active torsions:
REMARK  status: ('A' for Active; 'I' for Inactive)
REMARK    1  A    between atoms: N1_1  and  C1_4 
REMARK       I    between atoms: N3_8  and  C3_10 
REMARK    2  A    between atoms: C3_10  and  C4_12 
REMARK    3  A    between atoms: C5_15  and  S1_16 
REMARK    4  A    between atoms: S1_16  and  N5_17 
REMARK    5  A    between atoms: C6_27  and  S3_28 
REMARK    6  A    between atoms: S3_28  and  C7_29 
REMARK    7  A    between atoms: C7_29  and  C8_30 
REMARK       I    between atoms: C8_30  and  N8_32 
REMARK    8  A    between atoms: C9_34  and  C10_35 
ROOT
HETATM    1  C1  UNL     1       9.862  17.836 -19.136  1.00  0.00     0.124 A 
HETATM    2  N2  UNL     1      10.677  16.904 -19.617  1.00  0.00    -0.322 N 
ATOM      3  H2  UNL     1      11.244  17.161 -20.426  1.00  0.00     0.169 HD
HETATM    4  C2  UNL     1      10.830  15.655 -19.143  1.00  0.00     0.154 A 
HETATM    5  N3  UNL     1      11.662  14.808 -19.689  1.00  0.00    -0.300 N 
ATOM      6  H3  UNL     1      11.763  13.866 -19.312  1.00  0.00     0.171 HD
HETATM    7  C3  UNL     1      12.423  15.216 -20.813  1.00  0.00     0.293 C 
HETATM    8  O1  UNL     1      11.851  15.204 -21.939  1.00  0.00    -0.264 OA
HETATM    9  S2  UNL     1       9.862  15.280 -17.793  1.00  0.00    -0.045 SA
HETATM   10  C6  UNL     1       8.873  16.565 -17.293  1.00  0.00     0.070 A 
HETATM   11  C11 UNL     1       9.013  17.716 -18.065  1.00  0.00     0.101 A 
HETATM   12 CL1  UNL     1       7.996  19.084 -17.566  1.00  0.00    -0.078 Cl
ENDROOT
BRANCH   1  13
HETATM   13  N1  UNL     1       9.837  19.012 -19.719  1.00  0.00    -0.384 N 
ATOM     14  H12 UNL     1      10.712  19.532 -19.654  1.00  0.00     0.157 HD
ATOM     15  H11 UNL     1       8.977  19.311 -20.180  1.00  0.00     0.157 HD
ENDBRANCH   1  13
BRANCH   7  16
HETATM   16  C4  UNL     1      13.816  15.633 -20.673  1.00  0.00     0.192 A 
HETATM   17  N4  UNL     1      14.926  14.920 -20.961  1.00  0.00    -0.311 N 
HETATM   18  C5  UNL     1      16.016  15.654 -20.696  1.00  0.00     0.240 A 
ATOM     19  H4  UNL     1      14.934  13.967 -21.324  1.00  0.00     0.170 HD
HETATM   20  N6  UNL     1      15.590  16.841 -20.237  1.00  0.00    -0.273 N 
HETATM   21  N7  UNL     1      14.271  16.824 -20.226  1.00  0.00    -0.279 N 
ATOM     22  H6  UNL     1      16.182  17.620 -19.949  1.00  0.00     0.189 HD
ATOM     23  H7  UNL     1      13.680  17.598 -19.922  1.00  0.00     0.189 HD
BRANCH  18  24
HETATM   24  S1  UNL     1      17.687  15.175 -20.900  1.00  0.00     0.290 S 
HETATM   25  O2  UNL     1      18.574  16.301 -21.304  1.00  0.00    -0.198 OA
HETATM   26  O3  UNL     1      17.731  14.149 -22.013  1.00  0.00    -0.198 OA
BRANCH  24  27
HETATM   27  N5  UNL     1      18.284  14.385 -19.478  1.00  0.00    -0.322 N 
ATOM     28  H52 UNL     1      17.708  14.177 -18.662  1.00  0.00     0.169 HD
ATOM     29  H51 UNL     1      19.275  14.162 -19.572  1.00  0.00     0.169 HD
ENDBRANCH  24  27
ENDBRANCH  18  24
ENDBRANCH   7  16
BRANCH  10  30
HETATM   30  S3  UNL     1       7.731  16.529 -15.906  1.00  0.00    -0.111 SA
BRANCH  30  31
HETATM   31  C7  UNL     1       8.577  16.770 -14.343  1.00  0.00     0.183 C 
BRANCH  31  32
HETATM   32  C8  UNL     1       8.650  15.528 -13.525  1.00  0.00     0.231 C 
HETATM   33  O4  UNL     1       8.474  15.667 -12.297  1.00  0.00    -0.272 OA
HETATM   34  N8  UNL     1       8.893  14.333 -14.139  1.00  0.00    -0.330 N 
HETATM   35  C9  UNL     1       9.680  13.403 -13.973  1.00  0.00     0.175 C 
ATOM     36  H8  UNL     1       8.269  14.172 -14.929  1.00  0.00     0.168 HD
BRANCH  35  37
HETATM   37  C10 UNL     1      10.688  13.312 -12.955  1.00  0.00     0.214 C 
HETATM   38  O5  UNL     1      10.431  13.000 -11.778  1.00  0.00    -0.643 OA
HETATM   39  O6  UNL     1      12.034  13.581 -13.276  1.00  0.00    -0.643 OA
ENDBRANCH  35  37
ENDBRANCH  31  32
ENDBRANCH  30  31
ENDBRANCH  10  30
TORSDOF 8
ENDMDL
MODEL 4
REMARK VINA RESULT: -6.261189301      5.487      8.846
REMARK  8 active torsions:
REMARK  status: ('A' for Active; 'I' for Inactive)
REMARK    1  A    between atoms: N1_1  and  C1_4 
REMARK       I    between atoms: N3_8  and  C3_10 
REMARK    2  A    between atoms: C3_10  and  C4_12 
REMARK    3  A    between atoms: C5_15  and  S1_16 
REMARK    4  A    between atoms: S1_16  and  N5_17 
REMARK    5  A    between atoms: C6_27  and  S3_28 
REMARK    6  A    between atoms: S3_28  and  C7_29 
REMARK    7  A    between atoms: C7_29  and  C8_30 
REMARK       I    between atoms: C8_30  and  N8_32 
REMARK    8  A    between atoms: C9_34  and  C10_35 
ROOT
HETATM    1  C1  UNL     1      11.880  17.813 -18.463  1.00  0.00     0.124 A 
HETATM    2  N2  UNL     1      10.748  17.387 -17.914  1.00  0.00    -0.322 N 
ATOM      3  H2  UNL     1      10.651  16.380 -17.783  1.00  0.00     0.169 HD
HETATM    4  C2  UNL     1       9.718  18.153 -17.513  1.00  0.00     0.154 A 
HETATM    5  N3  UNL     1       8.642  17.635 -16.982  1.00  0.00    -0.300 N 
ATOM      6  H3  UNL     1       7.873  18.235 -16.683  1.00  0.00     0.171 HD
HETATM    7  C3  UNL     1       8.557  16.230 -16.826  1.00  0.00     0.293 C 
HETATM    8  O1  UNL     1       8.244  15.549 -17.842  1.00  0.00    -0.264 OA
HETATM    9  S2  UNL     1       9.934  19.825 -17.754  1.00  0.00    -0.045 SA
HETATM   10  C6  UNL     1      11.424  20.218 -18.463  1.00  0.00     0.070 A 
HETATM   11  C11 UNL     1      12.228  19.113 -18.733  1.00  0.00     0.101 A 
HETATM   12 CL1  UNL     1      13.799  19.488 -19.472  1.00  0.00    -0.078 Cl
ENDROOT
BRANCH   1  13
HETATM   13  N1  UNL     1      12.791  16.928 -18.796  1.00  0.00    -0.384 N 
ATOM     14  H12 UNL     1      12.508  16.294 -19.544  1.00  0.00     0.157 HD
ATOM     15  H11 UNL     1      13.684  16.937 -18.304  1.00  0.00     0.157 HD
ENDBRANCH   1  13
BRANCH   7  16
HETATM   16  C4  UNL     1       8.820  15.594 -15.537  1.00  0.00     0.192 A 
HETATM   17  N4  UNL     1       9.744  14.652 -15.252  1.00  0.00    -0.311 N 
HETATM   18  C5  UNL     1       9.671  14.325 -13.954  1.00  0.00     0.240 A 
ATOM     19  H4  UNL     1      10.398  14.249 -15.923  1.00  0.00     0.170 HD
HETATM   20  N6  UNL     1       8.692  15.068 -13.414  1.00  0.00    -0.273 N 
HETATM   21  N7  UNL     1       8.186  15.827 -14.367  1.00  0.00    -0.279 N 
ATOM     22  H6  UNL     1       8.393  15.050 -12.439  1.00  0.00     0.189 HD
ATOM     23  H7  UNL     1       7.424  16.494 -14.238  1.00  0.00     0.189 HD
BRANCH  18  24
HETATM   24  S1  UNL     1      10.653  13.153 -13.104  1.00  0.00     0.290 S 
HETATM   25  O2  UNL     1      10.753  11.848 -13.815  1.00  0.00    -0.198 OA
HETATM   26  O3  UNL     1       9.987  12.884 -11.771  1.00  0.00    -0.198 OA
BRANCH  24  27
HETATM   27  N5  UNL     1      12.223  13.795 -12.751  1.00  0.00    -0.322 N 
ATOM     28  H52 UNL     1      12.456  14.787 -12.816  1.00  0.00     0.169 HD
ATOM     29  H51 UNL     1      12.867  13.055 -12.472  1.00  0.00     0.169 HD
ENDBRANCH  24  27
ENDBRANCH  18  24
ENDBRANCH   7  16
BRANCH  10  30
HETATM   30  S3  UNL     1      11.991  21.877 -18.857  1.00  0.00    -0.111 SA
BRANCH  30  31
HETATM   31  C7  UNL     1      10.666  22.894 -19.511  1.00  0.00     0.183 C 
BRANCH  31  32
HETATM   32  C8  UNL     1       9.998  23.719 -18.467  1.00  0.00     0.231 C 
HETATM   33  O4  UNL     1      10.729  24.520 -17.849  1.00  0.00    -0.272 OA
HETATM   34  N8  UNL     1       8.659  23.569 -18.246  1.00  0.00    -0.330 N 
HETATM   35  C9  UNL     1       7.945  23.382 -17.264  1.00  0.00     0.175 C 
ATOM     36  H8  UNL     1       8.118  23.626 -19.109  1.00  0.00     0.168 HD
BRANCH  35  37
HETATM   37  C10 UNL     1       8.385  23.253 -15.903  1.00  0.00     0.214 C 
HETATM   38  O5  UNL     1       8.834  24.210 -15.247  1.00  0.00    -0.643 OA
HETATM   39  O6  UNL     1       8.315  22.001 -15.260  1.00  0.00    -0.643 OA
ENDBRANCH  35  37
ENDBRANCH  31  32
ENDBRANCH  30  31
ENDBRANCH  10  30
TORSDOF 8
ENDMDL
MODEL 5
REMARK VINA RESULT: -6.174181608      3.112      8.825
REMARK  8 active torsions:
REMARK  status: ('A' for Active; 'I' for Inactive)
REMARK    1  A    between atoms: N1_1  and  C1_4 
REMARK       I    between atoms: N3_8  and  C3_10 
REMARK    2  A    between atoms: C3_10  and  C4_12 
REMARK    3  A    between atoms: C5_15  and  S1_16 
REMARK    4  A    between atoms: S1_16  and  N5_17 
REMARK    5  A    between atoms: C6_27  and  S3_28 
REMARK    6  A    between atoms: S3_28  and  C7_29 
REMARK    7  A    between atoms: C7_29  and  C8_30 
REMARK       I    between atoms: C8_30  and  N8_32 
REMARK    8  A    between atoms: C9_34  and  C10_35 
ROOT
HETATM    1  C1  UNL     1       9.709  16.253 -19.639  1.00  0.00     0.124 A 
HETATM    2  N2  UNL     1       9.624  16.721 -18.399  1.00  0.00    -0.322 N 
ATOM      3  H2  UNL     1       8.796  16.458 -17.864  1.00  0.00     0.169 HD
HETATM    4  C2  UNL     1      10.521  17.508 -17.779  1.00  0.00     0.154 A 
HETATM    5  N3  UNL     1      10.345  17.918 -16.551  1.00  0.00    -0.300 N 
ATOM      6  H3  UNL     1      11.040  18.513 -16.100  1.00  0.00     0.171 HD
HETATM    7  C3  UNL     1       9.177  17.525 -15.853  1.00  0.00     0.293 C 
HETATM    8  O1  UNL     1       8.112  18.160 -16.096  1.00  0.00    -0.264 OA
HETATM    9  S2  UNL     1      11.882  17.916 -18.718  1.00  0.00    -0.045 SA
HETATM   10  C6  UNL     1      11.852  17.248 -20.277  1.00  0.00     0.070 A 
HETATM   11  C11 UNL     1      10.722  16.475 -20.538  1.00  0.00     0.101 A 
HETATM   12 CL1  UNL     1      10.659  15.756 -22.160  1.00  0.00    -0.078 Cl
ENDROOT
BRANCH   1  13
HETATM   13  N1  UNL     1       8.741  15.491 -20.092  1.00  0.00    -0.384 N 
ATOM     14  H12 UNL     1       8.763  15.338 -21.101  1.00  0.00     0.157 HD
ATOM     15  H11 UNL     1       8.062  15.116 -19.429  1.00  0.00     0.157 HD
ENDBRANCH   1  13
BRANCH   7  16
HETATM   16  C4  UNL     1       9.203  16.428 -14.889  1.00  0.00     0.192 A 
HETATM   17  N4  UNL     1      10.190  15.530 -14.684  1.00  0.00    -0.311 N 
HETATM   18  C5  UNL     1       9.834  14.682 -13.708  1.00  0.00     0.240 A 
ATOM     19  H4  UNL     1      11.074  15.501 -15.194  1.00  0.00     0.170 HD
HETATM   20  N6  UNL     1       8.611  15.048 -13.294  1.00  0.00    -0.273 N 
HETATM   21  N7  UNL     1       8.238  16.095 -14.004  1.00  0.00    -0.279 N 
ATOM     22  H6  UNL     1       8.067  14.596 -12.559  1.00  0.00     0.189 HD
ATOM     23  H7  UNL     1       7.348  16.582 -13.900  1.00  0.00     0.189 HD
BRANCH  18  24
HETATM   24  S1  UNL     1      10.769  13.342 -13.081  1.00  0.00     0.290 S 
HETATM   25  O2  UNL     1      10.679  12.119 -13.927  1.00  0.00    -0.198 OA
HETATM   26  O3  UNL     1      10.200  12.988 -11.723  1.00  0.00    -0.198 OA
BRANCH  24  27
HETATM   27  N5  UNL     1      12.418  13.803 -12.820  1.00  0.00    -0.322 N 
ATOM     28  H52 UNL     1      13.067  14.037 -13.573  1.00  0.00     0.169 HD
ATOM     29  H51 UNL     1      12.644  13.808 -11.826  1.00  0.00     0.169 HD
ENDBRANCH  24  27
ENDBRANCH  18  24
ENDBRANCH   7  16
BRANCH  10  30
HETATM   30  S3  UNL     1      13.119  17.462 -21.534  1.00  0.00    -0.111 SA
BRANCH  30  31
HETATM   31  C7  UNL     1      14.311  18.718 -21.066  1.00  0.00     0.183 C 
BRANCH  31  32
HETATM   32  C8  UNL     1      15.637  18.150 -20.692  1.00  0.00     0.231 C 
HETATM   33  O4  UNL     1      16.612  18.924 -20.786  1.00  0.00    -0.272 OA
HETATM   34  N8  UNL     1      15.717  16.854 -20.273  1.00  0.00    -0.330 N 
HETATM   35  C9  UNL     1      16.398  15.874 -20.569  1.00  0.00     0.175 C 
ATOM     36  H8  UNL     1      15.048  16.646 -19.533  1.00  0.00     0.168 HD
BRANCH  35  37
HETATM   37  C10 UNL     1      17.429  15.825 -21.568  1.00  0.00     0.214 C 
HETATM   38  O5  UNL     1      18.583  16.242 -21.367  1.00  0.00    -0.643 OA
HETATM   39  O6  UNL     1      17.147  15.284 -22.839  1.00  0.00    -0.643 OA
ENDBRANCH  35  37
ENDBRANCH  31  32
ENDBRANCH  30  31
ENDBRANCH  10  30
TORSDOF 8
ENDMDL
