MODEL 1
REMARK VINA RESULT: -7.336861050      0.000      0.000
REMARK  8 active torsions:
REMARK  status: ('A' for Active; 'I' for Inactive)
REMARK    1  A    between atoms: C2_2  and  C3_3 
REMARK    2  A    between atoms: C2_2  and  N3_21 
REMARK    3  A    between atoms: C3_3  and  O1_4 
REMARK    4  A    between atoms: O1_4  and  C4_5 
REMARK       I    between atoms: C4_5  and  N1_7 
REMARK    5  A    between atoms: C7_10  and  C8_11 
REMARK    6  A    between atoms: C8_11  and  C9_12 
REMARK    7  A    between atoms: C9_12  and  O3_13 
REMARK    8  A    between atoms: N2_15  and  O4_17 
ROOT
HETATM    1  C4  UNL     1      18.189   8.423  12.189  1.00  0.00     0.362 C 
HETATM    2  O2  UNL     1      18.559   7.239  12.337  1.00  0.00    -0.238 OA
HETATM    3  N1  UNL     1      19.130   9.306  11.534  1.00  0.00    -0.328 N 
HETATM    4  C5  UNL     1      18.704  10.681  11.357  1.00  0.00     0.128 C 
HETATM    5  C6  UNL     1      19.583  11.213  10.214  1.00  0.00     0.025 C 
HETATM    6  C7  UNL     1      20.989  11.192  10.747  1.00  0.00    -0.004 C 
HETATM    7  C10 UNL     1      21.474   9.783  10.947  1.00  0.00     0.025 C 
HETATM    8  C11 UNL     1      20.376   8.783  11.121  1.00  0.00     0.128 C 
ENDROOT
BRANCH   1   9
HETATM    9  O1  UNL     1      16.990   8.810  12.624  1.00  0.00    -0.302 OA
BRANCH   9  10
HETATM   10  C3  UNL     1      15.937   8.119  13.151  1.00  0.00     0.205 C 
BRANCH  10  11
HETATM   11  C2  UNL     1      14.976   7.401  12.293  1.00  0.00     0.108 C 
HETATM   12  C1  UNL     1      13.996   6.469  12.930  1.00  0.00     0.034 C 
BRANCH  11  13
HETATM   13  N3  UNL     1      14.236   8.244  11.405  1.00  0.00    -0.339 N 
HETATM   14  C12 UNL     1      13.559   9.342  11.916  1.00  0.00     0.063 C 
HETATM   15  C13 UNL     1      12.055   9.267  11.880  1.00  0.00     0.044 C 
HETATM   16  C14 UNL     1      11.519   8.458  10.737  1.00  0.00     0.006 C 
HETATM   17  C15 UNL     1      11.995   8.901   9.390  1.00  0.00     0.023 C 
HETATM   18  C16 UNL     1      13.475   8.967   9.242  1.00  0.00     0.135 C 
HETATM   19 BR1  UNL     1      13.895   8.637   7.365  1.00  0.00    -0.084 Br
HETATM   20  C17 UNL     1      14.238   7.960  10.046  1.00  0.00     0.269 C 
HETATM   21  F1  UNL     1      13.744   6.691   9.728  1.00  0.00    -0.199 F 
HETATM   22 CL1  UNL     1      15.927   7.986   9.426  1.00  0.00    -0.058 Cl
ENDBRANCH  11  13
ENDBRANCH  10  11
ENDBRANCH   9  10
ENDBRANCH   1   9
BRANCH   6  23
HETATM   23  C8  UNL     1      21.891  11.941   9.760  1.00  0.00     0.090 C 
BRANCH  23  24
HETATM   24  C9  UNL     1      23.172  12.268  10.431  1.00  0.00     0.135 C 
HETATM   25  N2  UNL     1      23.257  13.289  11.211  1.00  0.00    -0.251 N 
ATOM     26  H2  UNL     1      24.139  13.513  11.673  1.00  0.00     0.196 HD
BRANCH  24  27
HETATM   27  O3  UNL     1      24.263  11.441  10.190  1.00  0.00    -0.348 OA
ATOM     28  H3  UNL     1      24.823  11.219  10.924  1.00  0.00     0.219 HD
ENDBRANCH  24  27
BRANCH  25  29
HETATM   29  O4  UNL     1      22.148  14.070  11.413  1.00  0.00    -0.288 OA
ATOM     30  H4  UNL     1      21.304  13.651  11.534  1.00  0.00     0.244 HD
ENDBRANCH  25  29
ENDBRANCH  23  24
ENDBRANCH   6  23
TORSDOF 8
ENDMDL
MODEL 2
REMARK VINA RESULT: -7.325414855      2.535      4.132
REMARK  8 active torsions:
REMARK  status: ('A' for Active; 'I' for Inactive)
REMARK    1  A    between atoms: C2_2  and  C3_3 
REMARK    2  A    between atoms: C2_2  and  N3_21 
REMARK    3  A    between atoms: C3_3  and  O1_4 
REMARK    4  A    between atoms: O1_4  and  C4_5 
REMARK       I    between atoms: C4_5  and  N1_7 
REMARK    5  A    between atoms: C7_10  and  C8_11 
REMARK    6  A    between atoms: C8_11  and  C9_12 
REMARK    7  A    between atoms: C9_12  and  O3_13 
REMARK    8  A    between atoms: N2_15  and  O4_17 
ROOT
HETATM    1  C4  UNL     1      13.890   6.835  12.597  1.00  0.00     0.362 C 
HETATM    2  O2  UNL     1      13.867   6.110  13.614  1.00  0.00    -0.238 OA
HETATM    3  N1  UNL     1      15.173   7.410  12.253  1.00  0.00    -0.328 N 
HETATM    4  C5  UNL     1      15.206   8.249  11.072  1.00  0.00     0.128 C 
HETATM    5  C6  UNL     1      16.683   8.257  10.645  1.00  0.00     0.025 C 
HETATM    6  C7  UNL     1      17.420   8.941  11.763  1.00  0.00    -0.004 C 
HETATM    7  C10 UNL     1      17.412   8.104  13.012  1.00  0.00     0.025 C 
HETATM    8  C11 UNL     1      16.285   7.121  13.076  1.00  0.00     0.128 C 
ENDROOT
BRANCH   1   9
HETATM    9  O1  UNL     1      12.775   7.044  11.897  1.00  0.00    -0.302 OA
BRANCH   9  10
HETATM   10  C3  UNL     1      11.720   7.892  12.080  1.00  0.00     0.205 C 
BRANCH  10  11
HETATM   11  C2  UNL     1      11.044   8.543  10.942  1.00  0.00     0.108 C 
HETATM   12  C1  UNL     1       9.633   9.007  11.110  1.00  0.00     0.034 C 
BRANCH  11  13
HETATM   13  N3  UNL     1      11.777   9.628  10.365  1.00  0.00    -0.339 N 
HETATM   14  C12 UNL     1      12.345  10.583  11.197  1.00  0.00     0.063 C 
HETATM   15  C13 UNL     1      11.735  11.958  11.138  1.00  0.00     0.044 C 
HETATM   16  C14 UNL     1      11.160  12.306   9.797  1.00  0.00     0.006 C 
HETATM   17  C15 UNL     1      12.122  12.175   8.660  1.00  0.00     0.023 C 
HETATM   18  C16 UNL     1      12.770  10.839   8.541  1.00  0.00     0.135 C 
HETATM   19 BR1  UNL     1      13.185  10.551   6.657  1.00  0.00    -0.084 Br
HETATM   20  C17 UNL     1      11.926   9.684   8.987  1.00  0.00     0.269 C 
HETATM   21  F1  UNL     1      10.718   9.737   8.283  1.00  0.00    -0.199 F 
HETATM   22 CL1  UNL     1      12.754   8.196   8.407  1.00  0.00    -0.058 Cl
ENDBRANCH  11  13
ENDBRANCH  10  11
ENDBRANCH   9  10
ENDBRANCH   1   9
BRANCH   6  23
HETATM   23  C8  UNL     1      18.856   9.211  11.301  1.00  0.00     0.090 C 
BRANCH  23  24
HETATM   24  C9  UNL     1      19.123  10.667  11.384  1.00  0.00     0.135 C 
HETATM   25  N2  UNL     1      20.328  11.114  11.303  1.00  0.00    -0.251 N 
ATOM     26  H2  UNL     1      20.511  12.116  11.359  1.00  0.00     0.196 HD
BRANCH  24  27
HETATM   27  O3  UNL     1      18.038  11.519  11.548  1.00  0.00    -0.348 OA
ATOM     28  H3  UNL     1      18.154  12.435  11.325  1.00  0.00     0.219 HD
ENDBRANCH  24  27
BRANCH  25  29
HETATM   29  O4  UNL     1      21.360  10.227  11.140  1.00  0.00    -0.288 OA
ATOM     30  H4  UNL     1      21.328   9.391  11.591  1.00  0.00     0.244 HD
ENDBRANCH  25  29
ENDBRANCH  23  24
ENDBRANCH   6  23
TORSDOF 8
ENDMDL
MODEL 3
REMARK VINA RESULT: -7.207514688      2.703      3.728
REMARK  8 active torsions:
REMARK  status: ('A' for Active; 'I' for Inactive)
REMARK    1  A    between atoms: C2_2  and  C3_3 
REMARK    2  A    between atoms: C2_2  and  N3_21 
REMARK    3  A    between atoms: C3_3  and  O1_4 
REMARK    4  A    between atoms: O1_4  and  C4_5 
REMARK       I    between atoms: C4_5  and  N1_7 
REMARK    5  A    between atoms: C7_10  and  C8_11 
REMARK    6  A    between atoms: C8_11  and  C9_12 
REMARK    7  A    between atoms: C9_12  and  O3_13 
REMARK    8  A    between atoms: N2_15  and  O4_17 
ROOT
HETATM    1  C4  UNL     1      20.570   9.510   8.802  1.00  0.00     0.362 C 
HETATM    2  O2  UNL     1      20.932   8.808   7.833  1.00  0.00    -0.238 OA
HETATM    3  N1  UNL     1      21.291  10.750   8.994  1.00  0.00    -0.328 N 
HETATM    4  C5  UNL     1      20.873  11.570  10.114  1.00  0.00     0.128 C 
HETATM    5  C6  UNL     1      21.377  12.981   9.769  1.00  0.00     0.025 C 
HETATM    6  C7  UNL     1      22.877  12.879   9.759  1.00  0.00    -0.004 C 
HETATM    7  C10 UNL     1      23.357  12.035   8.610  1.00  0.00     0.025 C 
HETATM    8  C11 UNL     1      22.335  11.072   8.097  1.00  0.00     0.128 C 
ENDROOT
BRANCH   1   9
HETATM    9  O1  UNL     1      19.574   9.104   9.589  1.00  0.00    -0.302 OA
BRANCH   9  10
HETATM   10  C3  UNL     1      18.267   9.487   9.689  1.00  0.00     0.205 C 
BRANCH  10  11
HETATM   11  C2  UNL     1      17.601   9.633  10.997  1.00  0.00     0.108 C 
HETATM   12  C1  UNL     1      17.569  10.980  11.645  1.00  0.00     0.034 C 
BRANCH  11  13
HETATM   13  N3  UNL     1      16.268   9.115  11.039  1.00  0.00    -0.339 N 
HETATM   14  C12 UNL     1      15.398   9.392   9.994  1.00  0.00     0.063 C 
HETATM   15  C13 UNL     1      14.244  10.303  10.319  1.00  0.00     0.044 C 
HETATM   16  C14 UNL     1      13.780  10.205  11.741  1.00  0.00     0.006 C 
HETATM   17  C15 UNL     1      13.417   8.822  12.179  1.00  0.00     0.023 C 
HETATM   18  C16 UNL     1      14.486   7.805  11.981  1.00  0.00     0.135 C 
HETATM   19 BR1  UNL     1      14.254   6.433  13.349  1.00  0.00    -0.084 Br
HETATM   20  C17 UNL     1      15.886   8.323  12.113  1.00  0.00     0.269 C 
HETATM   21  F1  UNL     1      15.997   8.954  13.356  1.00  0.00    -0.199 F 
HETATM   22 CL1  UNL     1      16.956   6.880  12.210  1.00  0.00    -0.058 Cl
ENDBRANCH  11  13
ENDBRANCH  10  11
ENDBRANCH   9  10
ENDBRANCH   1   9
BRANCH   6  23
HETATM   23  C8  UNL     1      23.456  14.295   9.670  1.00  0.00     0.090 C 
BRANCH  23  24
HETATM   24  C9  UNL     1      23.620  14.835  11.041  1.00  0.00     0.135 C 
HETATM   25  N2  UNL     1      23.972  16.060  11.222  1.00  0.00    -0.251 N 
ATOM     26  H2  UNL     1      24.084  16.432  12.165  1.00  0.00     0.196 HD
BRANCH  24  27
HETATM   27  O3  UNL     1      23.380  13.980  12.110  1.00  0.00    -0.348 OA
ATOM     28  H3  UNL     1      24.066  13.875  12.758  1.00  0.00     0.219 HD
ENDBRANCH  24  27
BRANCH  25  29
HETATM   29  O4  UNL     1      24.196  16.859  10.130  1.00  0.00    -0.288 OA
ATOM     30  H4  UNL     1      23.534  16.907   9.449  1.00  0.00     0.244 HD
ENDBRANCH  25  29
ENDBRANCH  23  24
ENDBRANCH   6  23
TORSDOF 8
ENDMDL
MODEL 4
REMARK VINA RESULT: -7.139590224      4.162      9.019
REMARK  8 active torsions:
REMARK  status: ('A' for Active; 'I' for Inactive)
REMARK    1  A    between atoms: C2_2  and  C3_3 
REMARK    2  A    between atoms: C2_2  and  N3_21 
REMARK    3  A    between atoms: C3_3  and  O1_4 
REMARK    4  A    between atoms: O1_4  and  C4_5 
REMARK       I    between atoms: C4_5  and  N1_7 
REMARK    5  A    between atoms: C7_10  and  C8_11 
REMARK    6  A    between atoms: C8_11  and  C9_12 
REMARK    7  A    between atoms: C9_12  and  O3_13 
REMARK    8  A    between atoms: N2_15  and  O4_17 
ROOT
HETATM    1  C4  UNL     1      20.308   8.686  11.411  1.00  0.00     0.362 C 
HETATM    2  O2  UNL     1      20.986   7.667  11.662  1.00  0.00    -0.238 OA
HETATM    3  N1  UNL     1      18.912   8.630  11.788  1.00  0.00    -0.328 N 
HETATM    4  C5  UNL     1      18.121   9.811  11.503  1.00  0.00     0.128 C 
HETATM    5  C6  UNL     1      16.916   9.708  12.452  1.00  0.00     0.025 C 
HETATM    6  C7  UNL     1      16.162   8.484  12.009  1.00  0.00    -0.004 C 
HETATM    7  C10 UNL     1      16.946   7.231  12.286  1.00  0.00     0.025 C 
HETATM    8  C11 UNL     1      18.421   7.452  12.395  1.00  0.00     0.128 C 
ENDROOT
BRANCH   1   9
HETATM    9  O1  UNL     1      20.875   9.742  10.829  1.00  0.00    -0.302 OA
BRANCH   9  10
HETATM   10  C3  UNL     1      21.359   9.947   9.569  1.00  0.00     0.205 C 
BRANCH  10  11
HETATM   11  C2  UNL     1      21.316  11.276   8.930  1.00  0.00     0.108 C 
HETATM   12  C1  UNL     1      20.276  12.255   9.371  1.00  0.00     0.034 C 
BRANCH  11  13
HETATM   13  N3  UNL     1      22.568  11.967   8.925  1.00  0.00    -0.339 N 
HETATM   14  C12 UNL     1      23.253  12.142  10.119  1.00  0.00     0.063 C 
HETATM   15  C13 UNL     1      23.337  13.555  10.632  1.00  0.00     0.044 C 
HETATM   16  C14 UNL     1      23.343  14.591   9.548  1.00  0.00     0.006 C 
HETATM   17  C15 UNL     1      24.415  14.405   8.521  1.00  0.00     0.023 C 
HETATM   18  C16 UNL     1      24.427  13.067   7.868  1.00  0.00     0.135 C 
HETATM   19 BR1  UNL     1      25.154  13.294   6.072  1.00  0.00    -0.084 Br
HETATM   20  C17 UNL     1      23.083  12.422   7.719  1.00  0.00     0.269 C 
HETATM   21  F1  UNL     1      22.248  13.319   7.044  1.00  0.00    -0.199 F 
HETATM   22 CL1  UNL     1      23.305  11.035   6.595  1.00  0.00    -0.058 Cl
ENDBRANCH  11  13
ENDBRANCH  10  11
ENDBRANCH   9  10
ENDBRANCH   1   9
BRANCH   6  23
HETATM   23  C8  UNL     1      14.816   8.455  12.742  1.00  0.00     0.090 C 
BRANCH  23  24
HETATM   24  C9  UNL     1      13.785   7.897  11.835  1.00  0.00     0.135 C 
HETATM   25  N2  UNL     1      13.188   6.794  12.126  1.00  0.00    -0.251 N 
ATOM     26  H2  UNL     1      12.478   6.411  11.502  1.00  0.00     0.196 HD
BRANCH  24  27
HETATM   27  O3  UNL     1      13.491   8.600  10.673  1.00  0.00    -0.348 OA
ATOM     28  H3  UNL     1      12.729   9.168  10.678  1.00  0.00     0.219 HD
ENDBRANCH  24  27
BRANCH  25  29
HETATM   29  O4  UNL     1      13.517   6.143  13.287  1.00  0.00    -0.288 OA
ATOM     30  H4  UNL     1      12.968   5.429  13.589  1.00  0.00     0.244 HD
ENDBRANCH  25  29
ENDBRANCH  23  24
ENDBRANCH   6  23
TORSDOF 8
ENDMDL
MODEL 5
REMARK VINA RESULT: -7.101642641      2.587      3.483
REMARK  8 active torsions:
REMARK  status: ('A' for Active; 'I' for Inactive)
REMARK    1  A    between atoms: C2_2  and  C3_3 
REMARK    2  A    between atoms: C2_2  and  N3_21 
REMARK    3  A    between atoms: C3_3  and  O1_4 
REMARK    4  A    between atoms: O1_4  and  C4_5 
REMARK       I    between atoms: C4_5  and  N1_7 
REMARK    5  A    between atoms: C7_10  and  C8_11 
REMARK    6  A    between atoms: C8_11  and  C9_12 
REMARK    7  A    between atoms: C9_12  and  O3_13 
REMARK    8  A    between atoms: N2_15  and  O4_17 
ROOT
HETATM    1  C4  UNL     1      19.366   9.103  10.686  1.00  0.00     0.362 C 
HETATM    2  O2  UNL     1      19.538   8.791  11.883  1.00  0.00    -0.238 OA
HETATM    3  N1  UNL     1      20.490   9.731  10.025  1.00  0.00    -0.328 N 
HETATM    4  C5  UNL     1      20.298  10.093   8.634  1.00  0.00     0.128 C 
HETATM    5  C6  UNL     1      21.720  10.203   8.063  1.00  0.00     0.025 C 
HETATM    6  C7  UNL     1      22.357  11.353   8.793  1.00  0.00    -0.004 C 
HETATM    7  C10 UNL     1      22.577  11.021  10.244  1.00  0.00     0.025 C 
HETATM    8  C11 UNL     1      21.676   9.946  10.763  1.00  0.00     0.128 C 
ENDROOT
BRANCH   1   9
HETATM    9  O1  UNL     1      18.200   8.857  10.089  1.00  0.00    -0.302 OA
BRANCH   9  10
HETATM   10  C3  UNL     1      17.020   9.543  10.061  1.00  0.00     0.205 C 
BRANCH  10  11
HETATM   11  C2  UNL     1      15.734   8.860   9.818  1.00  0.00     0.108 C 
HETATM   12  C1  UNL     1      15.730   7.586   9.036  1.00  0.00     0.034 C 
BRANCH  11  13
HETATM   13  N3  UNL     1      14.959   8.631  10.999  1.00  0.00    -0.339 N 
HETATM   14  C12 UNL     1      15.546   8.807  12.244  1.00  0.00     0.063 C 
HETATM   15  C13 UNL     1      15.760   7.558  13.056  1.00  0.00     0.044 C 
HETATM   16  C14 UNL     1      14.742   6.488  12.797  1.00  0.00     0.006 C 
HETATM   17  C15 UNL     1      13.325   6.926  12.983  1.00  0.00     0.023 C 
HETATM   18  C16 UNL     1      12.933   8.124  12.190  1.00  0.00     0.135 C 
HETATM   19 BR1  UNL     1      11.022   7.988  11.821  1.00  0.00    -0.084 Br
HETATM   20  C17 UNL     1      13.626   8.265  10.869  1.00  0.00     0.269 C 
HETATM   21  F1  UNL     1      13.427   7.082  10.151  1.00  0.00    -0.199 F 
HETATM   22 CL1  UNL     1      12.736   9.535   9.959  1.00  0.00    -0.058 Cl
ENDBRANCH  11  13
ENDBRANCH  10  11
ENDBRANCH   9  10
ENDBRANCH   1   9
BRANCH   6  23
HETATM   23  C8  UNL     1      23.687  11.684   8.106  1.00  0.00     0.090 C 
BRANCH  23  24
HETATM   24  C9  UNL     1      23.407  12.260   6.768  1.00  0.00     0.135 C 
HETATM   25  N2  UNL     1      23.818  11.664   5.703  1.00  0.00    -0.251 N 
ATOM     26  H2  UNL     1      23.624  12.060   4.783  1.00  0.00     0.196 HD
BRANCH  24  27
HETATM   27  O3  UNL     1      22.691  13.449   6.709  1.00  0.00    -0.348 OA
ATOM     28  H3  UNL     1      23.173  14.250   6.536  1.00  0.00     0.219 HD
ENDBRANCH  24  27
BRANCH  25  29
HETATM   29  O4  UNL     1      24.519  10.492   5.822  1.00  0.00    -0.288 OA
ATOM     30  H4  UNL     1      24.130   9.686   5.503  1.00  0.00     0.244 HD
ENDBRANCH  25  29
ENDBRANCH  23  24
ENDBRANCH   6  23
TORSDOF 8
ENDMDL
