MODEL 1
REMARK VINA RESULT: -7.272959592      0.000      0.000
REMARK  6 active torsions:
REMARK  status: ('A' for Active; 'I' for Inactive)
REMARK    1  A    between atoms: C5_5  and  C6_6 
REMARK    2  A    between atoms: C6_6  and  C7_7 
REMARK    3  A    between atoms: C6_6  and  C8_10 
REMARK    4  A    between atoms: C7_7  and  O1_8 
REMARK    5  A    between atoms: C9_15  and  N3_16 
REMARK    6  A    between atoms: N4_19  and  O2_20 
ROOT
HETATM    1  C8  UNL     1      40.254  14.248 -18.871  1.00  0.00     0.177 A 
HETATM    2  N1  UNL     1      40.090  15.566 -18.728  1.00  0.00    -0.268 N 
ATOM      3  H1  UNL     1      40.244  16.080 -17.860  1.00  0.00     0.189 HD
HETATM    4  N2  UNL     1      39.700  16.112 -19.867  1.00  0.00    -0.129 N 
ATOM      5  H2  UNL     1      39.503  17.098 -20.037  1.00  0.00     0.205 HD
HETATM    6  C9  UNL     1      39.614  15.107 -20.758  1.00  0.00     0.718 A 
HETATM    7  N4  UNL     1      39.958  13.937 -20.144  1.00  0.00    -0.032 N 
ENDROOT
BRANCH   1   8
HETATM    8  C6  UNL     1      40.687  13.264 -17.822  1.00  0.00     0.040 C 
BRANCH   8   9
HETATM    9  C5  UNL     1      39.818  12.910 -16.906  1.00  0.00     0.044 A 
HETATM   10  C4  UNL     1      38.973  11.837 -16.891  1.00  0.00     0.032 A 
HETATM   11  C3  UNL     1      38.227  11.867 -15.704  1.00  0.00     0.031 A 
HETATM   12  C2  UNL     1      38.644  12.974 -15.014  1.00  0.00     0.023 A 
HETATM   13  C1  UNL     1      38.173  13.359 -13.824  1.00  0.00     0.043 C 
HETATM   14  N5  UNL     1      39.585  13.588 -15.731  1.00  0.00    -0.356 N 
ATOM     15  H5  UNL     1      40.065  14.442 -15.448  1.00  0.00     0.166 HD
ENDBRANCH   8   9
BRANCH   8  16
HETATM   16  C7  UNL     1      42.069  12.814 -17.963  1.00  0.00     0.209 C 
BRANCH  16  17
HETATM   17  O1  UNL     1      42.266  11.714 -18.736  1.00  0.00    -0.396 OA
ATOM     18  H1  UNL     1      42.370  10.890 -18.275  1.00  0.00     0.209 HD
ENDBRANCH  16  17
ENDBRANCH   8  16
ENDBRANCH   1   8
BRANCH   7  19
HETATM   19  O2  UNL     1      39.997  12.677 -20.718  1.00  0.00    -0.268 OA
ATOM     20  H2  UNL     1      40.433  12.435 -21.527  1.00  0.00     0.246 HD
ENDBRANCH   7  19
BRANCH   6  21
HETATM   21  N3  UNL     1      39.260  15.224 -22.003  1.00  0.00    -0.231 N 
ATOM     22  H32 UNL     1      39.478  16.019 -22.603  1.00  0.00     0.174 HD
ATOM     23  H31 UNL     1      38.723  14.541 -22.537  1.00  0.00     0.174 HD
ENDBRANCH   6  21
TORSDOF 6
ENDMDL
MODEL 2
REMARK VINA RESULT: -6.679893250      1.748      4.931
REMARK  6 active torsions:
REMARK  status: ('A' for Active; 'I' for Inactive)
REMARK    1  A    between atoms: C5_5  and  C6_6 
REMARK    2  A    between atoms: C6_6  and  C7_7 
REMARK    3  A    between atoms: C6_6  and  C8_10 
REMARK    4  A    between atoms: C7_7  and  O1_8 
REMARK    5  A    between atoms: C9_15  and  N3_16 
REMARK    6  A    between atoms: N4_19  and  O2_20 
ROOT
HETATM    1  C8  UNL     1      39.631  12.858 -17.052  1.00  0.00     0.177 A 
HETATM    2  N1  UNL     1      38.713  11.893 -17.161  1.00  0.00    -0.268 N 
ATOM      3  H1  UNL     1      38.570  11.319 -17.992  1.00  0.00     0.189 HD
HETATM    4  N2  UNL     1      38.017  11.787 -16.042  1.00  0.00    -0.129 N 
ATOM      5  H2  UNL     1      37.258  11.133 -15.855  1.00  0.00     0.205 HD
HETATM    6  C9  UNL     1      38.509  12.714 -15.200  1.00  0.00     0.718 A 
HETATM    7  N4  UNL     1      39.519  13.390 -15.823  1.00  0.00    -0.032 N 
ENDROOT
BRANCH   1   8
HETATM    8  C6  UNL     1      40.621  13.296 -18.093  1.00  0.00     0.040 C 
BRANCH   8   9
HETATM    9  C5  UNL     1      40.205  14.085 -19.054  1.00  0.00     0.044 A 
HETATM   10  C4  UNL     1      39.963  13.791 -20.366  1.00  0.00     0.032 A 
HETATM   11  C3  UNL     1      39.532  14.955 -21.017  1.00  0.00     0.031 A 
HETATM   12  C2  UNL     1      39.519  15.945 -20.071  1.00  0.00     0.023 A 
HETATM   13  C1  UNL     1      39.164  17.215 -20.293  1.00  0.00     0.043 C 
HETATM   14  N5  UNL     1      39.919  15.425 -18.911  1.00  0.00    -0.356 N 
ATOM     15  H5  UNL     1      40.003  15.947 -18.039  1.00  0.00     0.166 HD
ENDBRANCH   8   9
BRANCH   8  16
HETATM   16  C7  UNL     1      41.968  12.767 -17.893  1.00  0.00     0.209 C 
BRANCH  16  17
HETATM   17  O1  UNL     1      42.312  11.699 -18.659  1.00  0.00    -0.396 OA
ATOM     18  H1  UNL     1      41.607  11.110 -18.898  1.00  0.00     0.209 HD
ENDBRANCH  16  17
ENDBRANCH   8  16
ENDBRANCH   1   8
BRANCH   7  19
HETATM   19  O2  UNL     1      40.280  14.419 -15.294  1.00  0.00    -0.268 OA
ATOM     20  H2  UNL     1      40.656  15.150 -15.771  1.00  0.00     0.246 HD
ENDBRANCH   7  19
BRANCH   6  21
HETATM   21  N3  UNL     1      38.095  12.936 -13.989  1.00  0.00    -0.231 N 
ATOM     22  H32 UNL     1      37.284  12.496 -13.555  1.00  0.00     0.174 HD
ATOM     23  H31 UNL     1      38.524  13.576 -13.320  1.00  0.00     0.174 HD
ENDBRANCH   6  21
TORSDOF 6
ENDMDL
MODEL 3
REMARK VINA RESULT: -6.588115242      4.334      5.875
REMARK  6 active torsions:
REMARK  status: ('A' for Active; 'I' for Inactive)
REMARK    1  A    between atoms: C5_5  and  C6_6 
REMARK    2  A    between atoms: C6_6  and  C7_7 
REMARK    3  A    between atoms: C6_6  and  C8_10 
REMARK    4  A    between atoms: C7_7  and  O1_8 
REMARK    5  A    between atoms: C9_15  and  N3_16 
REMARK    6  A    between atoms: N4_19  and  O2_20 
ROOT
HETATM    1  C8  UNL     1      39.299  12.972 -13.949  1.00  0.00     0.177 A 
HETATM    2  N1  UNL     1      40.558  12.529 -14.018  1.00  0.00    -0.268 N 
ATOM      3  H1  UNL     1      41.310  12.816 -13.391  1.00  0.00     0.189 HD
HETATM    4  N2  UNL     1      40.692  11.666 -15.010  1.00  0.00    -0.129 N 
ATOM      5  H2  UNL     1      41.544  11.177 -15.284  1.00  0.00     0.205 HD
HETATM    6  C9  UNL     1      39.482  11.561 -15.588  1.00  0.00     0.718 A 
HETATM    7  N4  UNL     1      38.603  12.375 -14.932  1.00  0.00    -0.032 N 
ENDROOT
BRANCH   1   8
HETATM    8  C6  UNL     1      38.732  13.958 -12.968  1.00  0.00     0.040 C 
BRANCH   8   9
HETATM    9  C5  UNL     1      38.677  15.221 -13.318  1.00  0.00     0.044 A 
HETATM   10  C4  UNL     1      37.651  16.110 -13.172  1.00  0.00     0.032 A 
HETATM   11  C3  UNL     1      38.049  17.348 -13.695  1.00  0.00     0.031 A 
HETATM   12  C2  UNL     1      39.329  17.181 -14.153  1.00  0.00     0.023 A 
HETATM   13  C1  UNL     1      40.069  18.133 -14.728  1.00  0.00     0.043 C 
HETATM   14  N5  UNL     1      39.695  15.919 -13.928  1.00  0.00    -0.356 N 
ATOM     15  H5  UNL     1      40.603  15.526 -14.175  1.00  0.00     0.166 HD
ENDBRANCH   8   9
BRANCH   8  16
HETATM   16  C7  UNL     1      38.301  13.361 -11.707  1.00  0.00     0.209 C 
BRANCH  16  17
HETATM   17  O1  UNL     1      39.203  12.559 -11.083  1.00  0.00    -0.396 OA
ATOM     18  H1  UNL     1      39.931  12.998 -10.660  1.00  0.00     0.209 HD
ENDBRANCH  16  17
ENDBRANCH   8  16
ENDBRANCH   1   8
BRANCH   7  19
HETATM   19  O2  UNL     1      37.260  12.551 -15.219  1.00  0.00    -0.268 OA
ATOM     20  H2  UNL     1      36.820  12.335 -16.033  1.00  0.00     0.246 HD
ENDBRANCH   7  19
BRANCH   6  21
HETATM   21  N3  UNL     1      39.189  10.810 -16.607  1.00  0.00    -0.231 N 
ATOM     22  H32 UNL     1      38.244  10.577 -16.912  1.00  0.00     0.174 HD
ATOM     23  H31 UNL     1      39.860  10.360 -17.229  1.00  0.00     0.174 HD
ENDBRANCH   6  21
TORSDOF 6
ENDMDL
MODEL 4
REMARK VINA RESULT: -6.584524897      3.437      4.839
REMARK  6 active torsions:
REMARK  status: ('A' for Active; 'I' for Inactive)
REMARK    1  A    between atoms: C5_5  and  C6_6 
REMARK    2  A    between atoms: C6_6  and  C7_7 
REMARK    3  A    between atoms: C6_6  and  C8_10 
REMARK    4  A    between atoms: C7_7  and  O1_8 
REMARK    5  A    between atoms: C9_15  and  N3_16 
REMARK    6  A    between atoms: N4_19  and  O2_20 
ROOT
HETATM    1  C8  UNL     1      40.850  12.584 -15.676  1.00  0.00     0.177 A 
HETATM    2  N1  UNL     1      40.969  11.512 -14.888  1.00  0.00    -0.268 N 
ATOM      3  H1  UNL     1      41.728  11.361 -14.224  1.00  0.00     0.189 HD
HETATM    4  N2  UNL     1      39.966  10.674 -15.089  1.00  0.00    -0.129 N 
ATOM      5  H2  UNL     1      39.812   9.781 -14.621  1.00  0.00     0.205 HD
HETATM    6  C9  UNL     1      39.189  11.233 -16.035  1.00  0.00     0.718 A 
HETATM    7  N4  UNL     1      39.734  12.429 -16.408  1.00  0.00    -0.032 N 
ENDROOT
BRANCH   1   8
HETATM    8  C6  UNL     1      41.776  13.764 -15.756  1.00  0.00     0.040 C 
BRANCH   8   9
HETATM    9  C5  UNL     1      41.656  14.710 -14.856  1.00  0.00     0.044 A 
HETATM   10  C4  UNL     1      40.795  15.769 -14.831  1.00  0.00     0.032 A 
HETATM   11  C3  UNL     1      41.034  16.518 -13.670  1.00  0.00     0.031 A 
HETATM   12  C2  UNL     1      42.051  15.886 -13.006  1.00  0.00     0.023 A 
HETATM   13  C1  UNL     1      42.578  16.289 -11.845  1.00  0.00     0.043 C 
HETATM   14  N5  UNL     1      42.417  14.817 -13.713  1.00  0.00    -0.356 N 
ATOM     15  H5  UNL     1      43.157  14.169 -13.445  1.00  0.00     0.166 HD
ENDBRANCH   8   9
BRANCH   8  16
HETATM   16  C7  UNL     1      42.724  13.701 -16.866  1.00  0.00     0.209 C 
BRANCH  16  17
HETATM   17  O1  UNL     1      43.861  14.430 -16.725  1.00  0.00    -0.396 OA
ATOM     18  H1  UNL     1      44.670  13.936 -16.658  1.00  0.00     0.209 HD
ENDBRANCH  16  17
ENDBRANCH   8  16
ENDBRANCH   1   8
BRANCH   7  19
HETATM   19  O2  UNL     1      39.236  13.309 -17.355  1.00  0.00    -0.268 OA
ATOM     20  H2  UNL     1      38.586  13.987 -17.213  1.00  0.00     0.246 HD
ENDBRANCH   7  19
BRANCH   6  21
HETATM   21  N3  UNL     1      38.097  10.724 -16.519  1.00  0.00    -0.231 N 
ATOM     22  H32 UNL     1      38.050  10.059 -17.291  1.00  0.00     0.174 HD
ATOM     23  H31 UNL     1      37.151  10.922 -16.193  1.00  0.00     0.174 HD
ENDBRANCH   6  21
TORSDOF 6
ENDMDL
MODEL 5
REMARK VINA RESULT: -6.547160702      3.844      5.863
REMARK  6 active torsions:
REMARK  status: ('A' for Active; 'I' for Inactive)
REMARK    1  A    between atoms: C5_5  and  C6_6 
REMARK    2  A    between atoms: C6_6  and  C7_7 
REMARK    3  A    between atoms: C6_6  and  C8_10 
REMARK    4  A    between atoms: C7_7  and  O1_8 
REMARK    5  A    between atoms: C9_15  and  N3_16 
REMARK    6  A    between atoms: N4_19  and  O2_20 
ROOT
HETATM    1  C8  UNL     1      38.557  13.315 -14.234  1.00  0.00     0.177 A 
HETATM    2  N1  UNL     1      37.535  12.580 -14.681  1.00  0.00    -0.268 N 
ATOM      3  H1  UNL     1      36.593  12.595 -14.289  1.00  0.00     0.189 HD
HETATM    4  N2  UNL     1      37.914  11.831 -15.702  1.00  0.00    -0.129 N 
ATOM      5  H2  UNL     1      37.335  11.178 -16.230  1.00  0.00     0.205 HD
HETATM    6  C9  UNL     1      39.217  12.100 -15.907  1.00  0.00     0.718 A 
HETATM    7  N4  UNL     1      39.628  13.027 -14.993  1.00  0.00    -0.032 N 
ENDROOT
BRANCH   1   8
HETATM    8  C6  UNL     1      38.546  14.293 -13.094  1.00  0.00     0.040 C 
BRANCH   8   9
HETATM    9  C5  UNL     1      38.592  15.573 -13.372  1.00  0.00     0.044 A 
HETATM   10  C4  UNL     1      37.602  16.509 -13.282  1.00  0.00     0.032 A 
HETATM   11  C3  UNL     1      38.115  17.750 -13.686  1.00  0.00     0.031 A 
HETATM   12  C2  UNL     1      39.427  17.535 -14.016  1.00  0.00     0.023 A 
HETATM   13  C1  UNL     1      40.273  18.475 -14.453  1.00  0.00     0.043 C 
HETATM   14  N5  UNL     1      39.703  16.245 -13.829  1.00  0.00    -0.356 N 
ATOM     15  H5  UNL     1      40.612  15.815 -14.001  1.00  0.00     0.166 HD
ENDBRANCH   8   9
BRANCH   8  16
HETATM   16  C7  UNL     1      38.483  13.667 -11.775  1.00  0.00     0.209 C 
BRANCH  16  17
HETATM   17  O1  UNL     1      37.401  12.882 -11.535  1.00  0.00    -0.396 OA
ATOM     18  H1  UNL     1      36.597  13.335 -11.307  1.00  0.00     0.209 HD
ENDBRANCH  16  17
ENDBRANCH   8  16
ENDBRANCH   1   8
BRANCH   7  19
HETATM   19  O2  UNL     1      40.898  13.567 -14.870  1.00  0.00    -0.268 OA
ATOM     20  H2  UNL     1      41.511  13.740 -15.574  1.00  0.00     0.246 HD
ENDBRANCH   7  19
BRANCH   6  21
HETATM   21  N3  UNL     1      39.968  11.567 -16.822  1.00  0.00    -0.231 N 
ATOM     22  H32 UNL     1      39.757  11.553 -17.820  1.00  0.00     0.174 HD
ATOM     23  H31 UNL     1      40.859  11.097 -16.664  1.00  0.00     0.174 HD
ENDBRANCH   6  21
TORSDOF 6
ENDMDL
