MODEL 1
REMARK VINA RESULT: -8.003036101      0.000      0.000
REMARK  14 active torsions:
REMARK  status: ('A' for Active; 'I' for Inactive)
REMARK    1  A    between atoms: C2_2  and  C4_4 
REMARK    2  A    between atoms: C4_4  and  O1_5 
REMARK    3  A    between atoms: C4_4  and  C5_7 
REMARK    4  A    between atoms: C5_7  and  C6_8 
REMARK    5  A    between atoms: C6_8  and  O2_9 
REMARK    6  A    between atoms: C6_8  and  C30_43 
REMARK    7  A    between atoms: O2_9  and  N1_10 
REMARK    8  A    between atoms: C19_25  and  C20_26 
REMARK    9  A    between atoms: C19_25  and  C21_29 
REMARK   10  A    between atoms: C20_26  and  O4_27 
REMARK   11  A    between atoms: C21_29  and  O5_30 
REMARK   12  A    between atoms: O5_30  and  C22_31 
REMARK   13  A    between atoms: C27_37  and  O7_38 
REMARK   14  A    between atoms: C30_43  and  C32_45 
ROOT
HETATM    1  N1  UNL     1      43.184 -24.397  29.746  1.00  0.00    -0.271 N 
ATOM      2  H1  UNL     1      43.182 -24.526  30.757  1.00  0.00     0.194 HD
HETATM    3  C7  UNL     1      42.828 -23.251  29.293  1.00  0.00     0.032 C 
HETATM    4  C8  UNL     1      42.431 -22.167  30.171  1.00  0.00     0.024 C 
HETATM    5  C9  UNL     1      41.520 -21.339  29.733  1.00  0.00    -0.011 C 
HETATM    6  C10 UNL     1      40.883 -21.464  28.391  1.00  0.00     0.021 C 
HETATM    7  C11 UNL     1      39.727 -22.431  28.590  1.00  0.00     0.024 C 
HETATM    8  C12 UNL     1      41.782 -22.058  27.352  1.00  0.00    -0.025 C 
HETATM    9  C13 UNL     1      41.013 -22.778  26.255  1.00  0.00     0.016 C 
HETATM   10  C14 UNL     1      42.539 -20.924  26.645  1.00  0.00     0.011 C 
HETATM   11  C15 UNL     1      41.629 -19.996  25.918  1.00  0.00     0.011 C 
HETATM   12  C16 UNL     1      40.258 -19.880  26.543  1.00  0.00     0.059 C 
HETATM   13  C17 UNL     1      39.754 -18.513  26.267  1.00  0.00     0.138 C 
HETATM   14  O3  UNL     1      40.458 -17.469  26.793  1.00  0.00    -0.384 OA
HETATM   15  C18 UNL     1      39.681 -16.383  26.322  1.00  0.00     0.182 C 
HETATM   16  C19 UNL     1      38.292 -16.793  26.844  1.00  0.00     0.034 C 
HETATM   17  C24 UNL     1      38.351 -18.253  26.834  1.00  0.00    -0.001 C 
HETATM   18  C25 UNL     1      37.432 -18.764  25.713  1.00  0.00     0.019 C 
HETATM   19  C26 UNL     1      38.083 -18.996  28.073  1.00  0.00     0.048 C 
HETATM   20  C27 UNL     1      39.202 -19.635  28.801  1.00  0.00     0.160 C 
HETATM   21  C28 UNL     1      40.393 -20.069  28.030  1.00  0.00     0.146 C 
HETATM   22  F1  UNL     1      41.438 -19.207  28.407  1.00  0.00    -0.238 F 
HETATM   23  C29 UNL     1      42.819 -23.017  27.855  1.00  0.00     0.069 C 
ENDROOT
BRANCH   1  24
HETATM   24  O2  UNL     1      43.563 -25.448  28.983  1.00  0.00    -0.274 OA
BRANCH  24  25
HETATM   25  C6  UNL     1      42.820 -26.663  28.859  1.00  0.00     0.159 C 
BRANCH  25  26
HETATM   26  C5  UNL     1      43.695 -27.837  29.014  1.00  0.00     0.071 C 
BRANCH  26  27
HETATM   27  C4  UNL     1      43.188 -29.004  29.782  1.00  0.00     0.148 C 
BRANCH  27  28
HETATM   28  C2  UNL     1      44.297 -29.409  30.730  1.00  0.00    -0.065 C 
HETATM   29  C1  UNL     1      45.488 -28.840  30.648  1.00  0.00     0.016 C 
HETATM   30  C3  UNL     1      44.037 -30.453  31.755  1.00  0.00     0.045 C 
ENDBRANCH  27  28
BRANCH  27  31
HETATM   31  O1  UNL     1      42.899 -30.114  28.983  1.00  0.00    -0.391 OA
ATOM     32  H1  UNL     1      43.506 -30.101  28.253  1.00  0.00     0.210 HD
ENDBRANCH  27  31
ENDBRANCH  26  27
ENDBRANCH  25  26
BRANCH  25  33
HETATM   33  C30 UNL     1      41.940 -26.525  27.682  1.00  0.00     0.027 C 
HETATM   34  C31 UNL     1      42.076 -27.564  26.614  1.00  0.00     0.014 C 
BRANCH  33  35
HETATM   35  C32 UNL     1      40.493 -26.190  27.973  1.00  0.00     0.121 C 
HETATM   36 CL1  UNL     1      40.144 -25.790  29.638  1.00  0.00    -0.130 Cl
ENDBRANCH  33  35
ENDBRANCH  25  33
ENDBRANCH  24  25
ENDBRANCH   1  24
BRANCH  20  37
HETATM   37  O7  UNL     1      39.557 -18.840  29.924  1.00  0.00    -0.392 OA
ATOM     38  H7  UNL     1      39.959 -19.387  30.587  1.00  0.00     0.210 HD
ENDBRANCH  20  37
BRANCH  16  39
HETATM   39  C20 UNL     1      37.314 -16.150  25.881  1.00  0.00     0.178 C 
BRANCH  39  40
HETATM   40  O4  UNL     1      37.856 -15.106  25.155  1.00  0.00    -0.400 OA
ATOM     41  H4  UNL     1      38.547 -15.373  24.562  1.00  0.00     0.209 HD
ENDBRANCH  39  40
ENDBRANCH  16  39
BRANCH  16  42
HETATM   42  C21 UNL     1      38.123 -16.085  28.152  1.00  0.00     0.193 C 
BRANCH  42  43
HETATM   43  O5  UNL     1      37.272 -14.953  27.881  1.00  0.00    -0.321 OA
BRANCH  43  44
HETATM   44  C22 UNL     1      36.013 -14.826  28.419  1.00  0.00     0.254 C 
HETATM   45  C23 UNL     1      35.276 -13.528  28.466  1.00  0.00     0.126 C 
HETATM   46  O6  UNL     1      35.460 -15.852  28.890  1.00  0.00    -0.266 OA
ENDBRANCH  43  44
ENDBRANCH  42  43
ENDBRANCH  16  42
TORSDOF 14
ENDMDL
MODEL 2
REMARK VINA RESULT: -7.803377950      6.574     11.407
REMARK  14 active torsions:
REMARK  status: ('A' for Active; 'I' for Inactive)
REMARK    1  A    between atoms: C2_2  and  C4_4 
REMARK    2  A    between atoms: C4_4  and  O1_5 
REMARK    3  A    between atoms: C4_4  and  C5_7 
REMARK    4  A    between atoms: C5_7  and  C6_8 
REMARK    5  A    between atoms: C6_8  and  O2_9 
REMARK    6  A    between atoms: C6_8  and  C30_43 
REMARK    7  A    between atoms: O2_9  and  N1_10 
REMARK    8  A    between atoms: C19_25  and  C20_26 
REMARK    9  A    between atoms: C19_25  and  C21_29 
REMARK   10  A    between atoms: C20_26  and  O4_27 
REMARK   11  A    between atoms: C21_29  and  O5_30 
REMARK   12  A    between atoms: O5_30  and  C22_31 
REMARK   13  A    between atoms: C27_37  and  O7_38 
REMARK   14  A    between atoms: C30_43  and  C32_45 
ROOT
HETATM    1  N1  UNL     1      36.518 -17.717  24.304  1.00  0.00    -0.271 N 
ATOM      2  H1  UNL     1      35.662 -17.172  24.203  1.00  0.00     0.194 HD
HETATM    3  C7  UNL     1      36.541 -18.888  23.781  1.00  0.00     0.032 C 
HETATM    4  C8  UNL     1      35.401 -19.436  23.071  1.00  0.00     0.024 C 
HETATM    5  C9  UNL     1      35.211 -20.726  23.140  1.00  0.00    -0.011 C 
HETATM    6  C10 UNL     1      36.103 -21.642  23.908  1.00  0.00     0.021 C 
HETATM    7  C11 UNL     1      35.568 -21.615  25.330  1.00  0.00     0.024 C 
HETATM    8  C12 UNL     1      37.528 -21.185  23.964  1.00  0.00    -0.025 C 
HETATM    9  C13 UNL     1      38.252 -21.678  25.206  1.00  0.00     0.016 C 
HETATM   10  C14 UNL     1      38.290 -21.794  22.777  1.00  0.00     0.011 C 
HETATM   11  C15 UNL     1      38.333 -23.281  22.828  1.00  0.00     0.011 C 
HETATM   12  C16 UNL     1      37.135 -23.898  23.511  1.00  0.00     0.059 C 
HETATM   13  C17 UNL     1      36.896 -25.222  22.888  1.00  0.00     0.138 C 
HETATM   14  O3  UNL     1      36.579 -25.241  21.561  1.00  0.00    -0.384 OA
HETATM   15  C18 UNL     1      36.434 -26.635  21.360  1.00  0.00     0.182 C 
HETATM   16  C19 UNL     1      35.411 -26.966  22.462  1.00  0.00     0.034 C 
HETATM   17  C24 UNL     1      35.708 -25.980  23.498  1.00  0.00    -0.001 C 
HETATM   18  C25 UNL     1      36.346 -26.711  24.690  1.00  0.00     0.019 C 
HETATM   19  C26 UNL     1      34.642 -25.089  23.976  1.00  0.00     0.048 C 
HETATM   20  C27 UNL     1      34.642 -23.664  23.576  1.00  0.00     0.160 C 
HETATM   21  C28 UNL     1      35.941 -23.015  23.272  1.00  0.00     0.146 C 
HETATM   22  F1  UNL     1      35.943 -22.776  21.886  1.00  0.00    -0.238 F 
HETATM   23  C29 UNL     1      37.743 -19.703  23.897  1.00  0.00     0.069 C 
ENDROOT
BRANCH   1  24
HETATM   24  O2  UNL     1      37.543 -17.148  24.979  1.00  0.00    -0.274 OA
BRANCH  24  25
HETATM   25  C6  UNL     1      37.859 -17.424  26.345  1.00  0.00     0.159 C 
BRANCH  25  26
HETATM   26  C5  UNL     1      37.079 -16.568  27.253  1.00  0.00     0.071 C 
BRANCH  26  27
HETATM   27  C4  UNL     1      37.291 -15.097  27.199  1.00  0.00     0.148 C 
BRANCH  27  28
HETATM   28  C2  UNL     1      36.142 -14.469  27.959  1.00  0.00    -0.065 C 
HETATM   29  C1  UNL     1      35.790 -13.217  27.724  1.00  0.00     0.016 C 
HETATM   30  C3  UNL     1      35.412 -15.272  28.974  1.00  0.00     0.045 C 
ENDBRANCH  27  28
BRANCH  27  31
HETATM   31  O1  UNL     1      37.265 -14.578  25.902  1.00  0.00    -0.391 OA
ATOM     32  H1  UNL     1      38.165 -14.424  25.641  1.00  0.00     0.210 HD
ENDBRANCH  27  31
ENDBRANCH  26  27
ENDBRANCH  25  26
BRANCH  25  33
HETATM   33  C30 UNL     1      39.330 -17.499  26.452  1.00  0.00     0.027 C 
HETATM   34  C31 UNL     1      39.900 -18.753  27.037  1.00  0.00     0.014 C 
BRANCH  33  35
HETATM   35  C32 UNL     1      40.107 -17.028  25.242  1.00  0.00     0.121 C 
HETATM   36 CL1  UNL     1      41.016 -18.269  24.414  1.00  0.00    -0.130 Cl
ENDBRANCH  33  35
ENDBRANCH  25  33
ENDBRANCH  24  25
ENDBRANCH   1  24
BRANCH  20  37
HETATM   37  O7  UNL     1      33.689 -23.458  22.543  1.00  0.00    -0.392 OA
ATOM     38  H7  UNL     1      33.936 -22.699  22.028  1.00  0.00     0.210 HD
ENDBRANCH  20  37
BRANCH  16  39
HETATM   39  C20 UNL     1      35.678 -28.416  22.812  1.00  0.00     0.178 C 
BRANCH  39  40
HETATM   40  O4  UNL     1      34.531 -29.171  22.965  1.00  0.00    -0.400 OA
ATOM     41  H4  UNL     1      34.283 -29.308  23.872  1.00  0.00     0.209 HD
ENDBRANCH  39  40
ENDBRANCH  16  39
BRANCH  16  42
HETATM   42  C21 UNL     1      34.070 -26.934  21.796  1.00  0.00     0.193 C 
BRANCH  42  43
HETATM   43  O5  UNL     1      34.290 -27.389  20.445  1.00  0.00    -0.321 OA
BRANCH  43  44
HETATM   44  C22 UNL     1      33.458 -28.288  19.822  1.00  0.00     0.254 C 
HETATM   45  C23 UNL     1      33.345 -28.397  18.336  1.00  0.00     0.126 C 
HETATM   46  O6  UNL     1      32.764 -29.054  20.538  1.00  0.00    -0.266 OA
ENDBRANCH  43  44
ENDBRANCH  42  43
ENDBRANCH  16  42
TORSDOF 14
ENDMDL
MODEL 3
REMARK VINA RESULT: -7.791699828      1.457      1.618
REMARK  14 active torsions:
REMARK  status: ('A' for Active; 'I' for Inactive)
REMARK    1  A    between atoms: C2_2  and  C4_4 
REMARK    2  A    between atoms: C4_4  and  O1_5 
REMARK    3  A    between atoms: C4_4  and  C5_7 
REMARK    4  A    between atoms: C5_7  and  C6_8 
REMARK    5  A    between atoms: C6_8  and  O2_9 
REMARK    6  A    between atoms: C6_8  and  C30_43 
REMARK    7  A    between atoms: O2_9  and  N1_10 
REMARK    8  A    between atoms: C19_25  and  C20_26 
REMARK    9  A    between atoms: C19_25  and  C21_29 
REMARK   10  A    between atoms: C20_26  and  O4_27 
REMARK   11  A    between atoms: C21_29  and  O5_30 
REMARK   12  A    between atoms: O5_30  and  C22_31 
REMARK   13  A    between atoms: C27_37  and  O7_38 
REMARK   14  A    between atoms: C30_43  and  C32_45 
ROOT
HETATM    1  N1  UNL     1      41.708 -25.588  29.174  1.00  0.00    -0.271 N 
ATOM      2  H1  UNL     1      41.087 -26.083  29.814  1.00  0.00     0.194 HD
HETATM    3  C7  UNL     1      41.477 -24.342  28.970  1.00  0.00     0.032 C 
HETATM    4  C8  UNL     1      40.379 -23.648  29.613  1.00  0.00     0.024 C 
HETATM    5  C9  UNL     1      39.804 -22.682  28.947  1.00  0.00    -0.011 C 
HETATM    6  C10 UNL     1      40.224 -22.275  27.576  1.00  0.00     0.021 C 
HETATM    7  C11 UNL     1      39.467 -23.200  26.638  1.00  0.00     0.024 C 
HETATM    8  C12 UNL     1      41.684 -22.474  27.311  1.00  0.00    -0.025 C 
HETATM    9  C13 UNL     1      41.985 -22.704  25.838  1.00  0.00     0.016 C 
HETATM   10  C14 UNL     1      42.436 -21.189  27.687  1.00  0.00     0.011 C 
HETATM   11  C15 UNL     1      42.023 -20.023  26.857  1.00  0.00     0.011 C 
HETATM   12  C16 UNL     1      40.591 -20.095  26.382  1.00  0.00     0.059 C 
HETATM   13  C17 UNL     1      40.089 -18.705  26.261  1.00  0.00     0.138 C 
HETATM   14  O3  UNL     1      40.032 -17.959  27.403  1.00  0.00    -0.384 OA
HETATM   15  C18 UNL     1      39.518 -16.747  26.883  1.00  0.00     0.182 C 
HETATM   16  C19 UNL     1      38.258 -17.268  26.169  1.00  0.00     0.034 C 
HETATM   17  C24 UNL     1      38.637 -18.620  25.767  1.00  0.00    -0.001 C 
HETATM   18  C25 UNL     1      38.796 -18.642  24.239  1.00  0.00     0.019 C 
HETATM   19  C26 UNL     1      37.816 -19.759  26.197  1.00  0.00     0.048 C 
HETATM   20  C27 UNL     1      38.315 -20.666  27.255  1.00  0.00     0.160 C 
HETATM   21  C28 UNL     1      39.780 -20.827  27.416  1.00  0.00     0.146 C 
HETATM   22  F1  UNL     1      40.110 -20.209  28.635  1.00  0.00    -0.238 F 
HETATM   23  C29 UNL     1      42.339 -23.591  28.067  1.00  0.00     0.069 C 
ENDROOT
BRANCH   1  24
HETATM   24  O2  UNL     1      42.713 -26.294  28.606  1.00  0.00    -0.274 OA
BRANCH  24  25
HETATM   25  C6  UNL     1      42.552 -27.578  28.000  1.00  0.00     0.159 C 
BRANCH  25  26
HETATM   26  C5  UNL     1      43.223 -28.624  28.788  1.00  0.00     0.071 C 
BRANCH  26  27
HETATM   27  C4  UNL     1      42.624 -29.029  30.086  1.00  0.00     0.148 C 
BRANCH  27  28
HETATM   28  C2  UNL     1      43.344 -30.289  30.518  1.00  0.00    -0.065 C 
HETATM   29  C1  UNL     1      43.458 -31.311  29.687  1.00  0.00     0.016 C 
HETATM   30  C3  UNL     1      43.922 -30.369  31.884  1.00  0.00     0.045 C 
ENDBRANCH  27  28
BRANCH  27  31
HETATM   31  O1  UNL     1      41.263 -29.337  30.000  1.00  0.00    -0.391 OA
ATOM     32  H1  UNL     1      40.948 -29.473  30.885  1.00  0.00     0.210 HD
ENDBRANCH  27  31
ENDBRANCH  26  27
ENDBRANCH  25  26
BRANCH  25  33
HETATM   33  C30 UNL     1      42.827 -27.422  26.557  1.00  0.00     0.027 C 
HETATM   34  C31 UNL     1      43.309 -28.638  25.829  1.00  0.00     0.014 C 
BRANCH  33  35
HETATM   35  C32 UNL     1      41.792 -26.654  25.765  1.00  0.00     0.121 C 
HETATM   36 CL1  UNL     1      40.158 -26.765  26.373  1.00  0.00    -0.130 Cl
ENDBRANCH  33  35
ENDBRANCH  25  33
ENDBRANCH  24  25
ENDBRANCH   1  24
BRANCH  20  37
HETATM   37  O7  UNL     1      37.675 -20.360  28.487  1.00  0.00    -0.392 OA
ATOM     38  H7  UNL     1      38.269 -20.536  29.207  1.00  0.00     0.210 HD
ENDBRANCH  20  37
BRANCH  16  39
HETATM   39  C20 UNL     1      38.011 -16.275  25.050  1.00  0.00     0.178 C 
BRANCH  39  40
HETATM   40  O4  UNL     1      38.537 -15.020  25.295  1.00  0.00    -0.400 OA
ATOM     41  H4  UNL     1      39.310 -14.824  24.780  1.00  0.00     0.209 HD
ENDBRANCH  39  40
ENDBRANCH  16  39
BRANCH  16  42
HETATM   42  C21 UNL     1      37.135 -17.090  27.144  1.00  0.00     0.193 C 
BRANCH  42  43
HETATM   43  O5  UNL     1      37.206 -15.718  27.582  1.00  0.00    -0.321 OA
BRANCH  43  44
HETATM   44  C22 UNL     1      36.160 -15.086  28.211  1.00  0.00     0.254 C 
HETATM   45  C23 UNL     1      35.913 -13.617  28.101  1.00  0.00     0.126 C 
HETATM   46  O6  UNL     1      35.377 -15.780  28.908  1.00  0.00    -0.266 OA
ENDBRANCH  43  44
ENDBRANCH  42  43
ENDBRANCH  16  42
TORSDOF 14
ENDMDL
MODEL 4
REMARK VINA RESULT: -7.791472700      5.802      7.549
REMARK  14 active torsions:
REMARK  status: ('A' for Active; 'I' for Inactive)
REMARK    1  A    between atoms: C2_2  and  C4_4 
REMARK    2  A    between atoms: C4_4  and  O1_5 
REMARK    3  A    between atoms: C4_4  and  C5_7 
REMARK    4  A    between atoms: C5_7  and  C6_8 
REMARK    5  A    between atoms: C6_8  and  O2_9 
REMARK    6  A    between atoms: C6_8  and  C30_43 
REMARK    7  A    between atoms: O2_9  and  N1_10 
REMARK    8  A    between atoms: C19_25  and  C20_26 
REMARK    9  A    between atoms: C19_25  and  C21_29 
REMARK   10  A    between atoms: C20_26  and  O4_27 
REMARK   11  A    between atoms: C21_29  and  O5_30 
REMARK   12  A    between atoms: O5_30  and  C22_31 
REMARK   13  A    between atoms: C27_37  and  O7_38 
REMARK   14  A    between atoms: C30_43  and  C32_45 
ROOT
HETATM    1  N1  UNL     1      33.895 -23.992  21.799  1.00  0.00    -0.271 N 
ATOM      2  H1  UNL     1      33.219 -23.653  21.115  1.00  0.00     0.194 HD
HETATM    3  C7  UNL     1      34.341 -23.152  22.660  1.00  0.00     0.032 C 
HETATM    4  C8  UNL     1      33.912 -21.767  22.676  1.00  0.00     0.024 C 
HETATM    5  C9  UNL     1      34.782 -20.871  23.061  1.00  0.00    -0.011 C 
HETATM    6  C10 UNL     1      36.173 -21.211  23.476  1.00  0.00     0.021 C 
HETATM    7  C11 UNL     1      36.974 -21.248  22.185  1.00  0.00     0.024 C 
HETATM    8  C12 UNL     1      36.297 -22.561  24.111  1.00  0.00    -0.025 C 
HETATM    9  C13 UNL     1      37.678 -23.170  23.927  1.00  0.00     0.016 C 
HETATM   10  C14 UNL     1      36.114 -22.413  25.629  1.00  0.00     0.011 C 
HETATM   11  C15 UNL     1      37.170 -21.566  26.252  1.00  0.00     0.011 C 
HETATM   12  C16 UNL     1      37.720 -20.507  25.326  1.00  0.00     0.059 C 
HETATM   13  C17 UNL     1      38.128 -19.351  26.161  1.00  0.00     0.138 C 
HETATM   14  O3  UNL     1      37.149 -18.713  26.866  1.00  0.00    -0.384 OA
HETATM   15  C18 UNL     1      37.917 -17.709  27.504  1.00  0.00     0.182 C 
HETATM   16  C19 UNL     1      38.607 -17.074  26.283  1.00  0.00     0.034 C 
HETATM   17  C24 UNL     1      38.726 -18.192  25.350  1.00  0.00    -0.001 C 
HETATM   18  C25 UNL     1      40.210 -18.579  25.248  1.00  0.00     0.019 C 
HETATM   19  C26 UNL     1      38.151 -18.075  24.003  1.00  0.00     0.048 C 
HETATM   20  C27 UNL     1      36.913 -18.813  23.668  1.00  0.00     0.160 C 
HETATM   21  C28 UNL     1      36.626 -20.079  24.386  1.00  0.00     0.146 C 
HETATM   22  F1  UNL     1      35.522 -19.815  25.216  1.00  0.00    -0.238 F 
HETATM   23  C29 UNL     1      35.306 -23.591  23.659  1.00  0.00     0.069 C 
ENDROOT
BRANCH   1  24
HETATM   24  O2  UNL     1      34.254 -25.295  21.729  1.00  0.00    -0.274 OA
BRANCH  24  25
HETATM   25  C6  UNL     1      35.227 -25.814  20.819  1.00  0.00     0.159 C 
BRANCH  25  26
HETATM   26  C5  UNL     1      36.046 -26.858  21.458  1.00  0.00     0.071 C 
BRANCH  26  27
HETATM   27  C4  UNL     1      35.731 -27.250  22.857  1.00  0.00     0.148 C 
BRANCH  27  28
HETATM   28  C2  UNL     1      36.993 -27.019  23.662  1.00  0.00    -0.065 C 
HETATM   29  C1  UNL     1      38.180 -27.141  23.094  1.00  0.00     0.016 C 
HETATM   30  C3  UNL     1      36.886 -26.654  25.098  1.00  0.00     0.045 C 
ENDBRANCH  27  28
BRANCH  27  31
HETATM   31  O1  UNL     1      35.392 -28.599  22.994  1.00  0.00    -0.391 OA
ATOM     32  H1  UNL     1      35.011 -28.708  23.857  1.00  0.00     0.210 HD
ENDBRANCH  27  31
ENDBRANCH  26  27
ENDBRANCH  25  26
BRANCH  25  33
HETATM   33  C30 UNL     1      35.860 -24.663  20.144  1.00  0.00     0.027 C 
HETATM   34  C31 UNL     1      37.316 -24.444  20.410  1.00  0.00     0.014 C 
BRANCH  33  35
HETATM   35  C32 UNL     1      35.511 -24.479  18.684  1.00  0.00     0.121 C 
HETATM   36 CL1  UNL     1      34.992 -25.928  17.856  1.00  0.00    -0.130 Cl
ENDBRANCH  33  35
ENDBRANCH  25  33
ENDBRANCH  24  25
ENDBRANCH   1  24
BRANCH  20  37
HETATM   37  O7  UNL     1      35.804 -17.923  23.694  1.00  0.00    -0.392 OA
ATOM     38  H7  UNL     1      35.006 -18.414  23.846  1.00  0.00     0.210 HD
ENDBRANCH  20  37
BRANCH  16  39
HETATM   39  C20 UNL     1      39.903 -16.506  26.825  1.00  0.00     0.178 C 
BRANCH  39  40
HETATM   40  O4  UNL     1      39.893 -15.130  26.959  1.00  0.00    -0.400 OA
ATOM     41  H4  UNL     1      39.718 -14.835  27.844  1.00  0.00     0.209 HD
ENDBRANCH  39  40
ENDBRANCH  16  39
BRANCH  16  42
HETATM   42  C21 UNL     1      37.760 -15.900  25.901  1.00  0.00     0.193 C 
BRANCH  42  43
HETATM   43  O5  UNL     1      36.892 -15.657  27.027  1.00  0.00    -0.321 OA
BRANCH  43  44
HETATM   44  C22 UNL     1      36.673 -14.399  27.535  1.00  0.00     0.254 C 
HETATM   45  C23 UNL     1      35.508 -14.067  28.411  1.00  0.00     0.126 C 
HETATM   46  O6  UNL     1      37.493 -13.490  27.250  1.00  0.00    -0.266 OA
ENDBRANCH  43  44
ENDBRANCH  42  43
ENDBRANCH  16  42
TORSDOF 14
ENDMDL
MODEL 5
REMARK VINA RESULT: -7.786703029      2.412      3.957
REMARK  14 active torsions:
REMARK  status: ('A' for Active; 'I' for Inactive)
REMARK    1  A    between atoms: C2_2  and  C4_4 
REMARK    2  A    between atoms: C4_4  and  O1_5 
REMARK    3  A    between atoms: C4_4  and  C5_7 
REMARK    4  A    between atoms: C5_7  and  C6_8 
REMARK    5  A    between atoms: C6_8  and  O2_9 
REMARK    6  A    between atoms: C6_8  and  C30_43 
REMARK    7  A    between atoms: O2_9  and  N1_10 
REMARK    8  A    between atoms: C19_25  and  C20_26 
REMARK    9  A    between atoms: C19_25  and  C21_29 
REMARK   10  A    between atoms: C20_26  and  O4_27 
REMARK   11  A    between atoms: C21_29  and  O5_30 
REMARK   12  A    between atoms: O5_30  and  C22_31 
REMARK   13  A    between atoms: C27_37  and  O7_38 
REMARK   14  A    between atoms: C30_43  and  C32_45 
ROOT
HETATM    1  N1  UNL     1      43.037 -23.689  30.738  1.00  0.00    -0.271 N 
ATOM      2  H1  UNL     1      42.653 -23.764  31.680  1.00  0.00     0.194 HD
HETATM    3  C7  UNL     1      42.596 -22.744  29.991  1.00  0.00     0.032 C 
HETATM    4  C8  UNL     1      41.587 -21.809  30.449  1.00  0.00     0.024 C 
HETATM    5  C9  UNL     1      40.748 -21.345  29.562  1.00  0.00    -0.011 C 
HETATM    6  C10 UNL     1      40.785 -21.734  28.124  1.00  0.00     0.021 C 
HETATM    7  C11 UNL     1      39.970 -23.014  28.038  1.00  0.00     0.024 C 
HETATM    8  C12 UNL     1      42.159 -22.051  27.622  1.00  0.00    -0.025 C 
HETATM    9  C13 UNL     1      42.147 -23.033  26.461  1.00  0.00     0.016 C 
HETATM   10  C14 UNL     1      42.792 -20.767  27.065  1.00  0.00     0.011 C 
HETATM   11  C15 UNL     1      42.044 -20.222  25.898  1.00  0.00     0.011 C 
HETATM   12  C16 UNL     1      40.566 -20.530  25.929  1.00  0.00     0.059 C 
HETATM   13  C17 UNL     1      39.862 -19.417  25.248  1.00  0.00     0.138 C 
HETATM   14  O3  UNL     1      39.963 -18.176  25.809  1.00  0.00    -0.384 OA
HETATM   15  C18 UNL     1      39.182 -17.427  24.897  1.00  0.00     0.182 C 
HETATM   16  C19 UNL     1      37.876 -18.242  24.919  1.00  0.00     0.034 C 
HETATM   17  C24 UNL     1      38.338 -19.602  25.188  1.00  0.00    -0.001 C 
HETATM   18  C25 UNL     1      38.147 -20.437  23.913  1.00  0.00     0.019 C 
HETATM   19  C26 UNL     1      37.802 -20.332  26.345  1.00  0.00     0.048 C 
HETATM   20  C27 UNL     1      38.649 -20.536  27.541  1.00  0.00     0.160 C 
HETATM   21  C28 UNL     1      40.120 -20.594  27.365  1.00  0.00     0.146 C 
HETATM   22  F1  UNL     1      40.630 -19.422  27.951  1.00  0.00    -0.238 F 
HETATM   23  C29 UNL     1      43.117 -22.595  28.639  1.00  0.00     0.069 C 
ENDROOT
BRANCH   1  24
HETATM   24  O2  UNL     1      43.975 -24.594  30.372  1.00  0.00    -0.274 OA
BRANCH  24  25
HETATM   25  C6  UNL     1      45.297 -24.647  30.913  1.00  0.00     0.159 C 
BRANCH  25  26
HETATM   26  C5  UNL     1      46.018 -23.387  30.672  1.00  0.00     0.071 C 
BRANCH  26  27
HETATM   27  C4  UNL     1      46.281 -22.488  31.826  1.00  0.00     0.148 C 
BRANCH  27  28
HETATM   28  C2  UNL     1      46.597 -21.125  31.246  1.00  0.00    -0.065 C 
HETATM   29  C1  UNL     1      47.851 -20.721  31.131  1.00  0.00     0.016 C 
HETATM   30  C3  UNL     1      45.485 -20.243  30.808  1.00  0.00     0.045 C 
ENDBRANCH  27  28
BRANCH  27  31
HETATM   31  O1  UNL     1      47.382 -22.877  32.595  1.00  0.00    -0.391 OA
ATOM     32  H1  UNL     1      47.295 -23.808  32.762  1.00  0.00     0.210 HD
ENDBRANCH  27  31
ENDBRANCH  26  27
ENDBRANCH  25  26
BRANCH  25  33
HETATM   33  C30 UNL     1      45.884 -25.943  30.517  1.00  0.00     0.027 C 
HETATM   34  C31 UNL     1      45.938 -27.006  31.569  1.00  0.00     0.014 C 
BRANCH  33  35
HETATM   35  C32 UNL     1      45.444 -26.487  29.176  1.00  0.00     0.121 C 
HETATM   36 CL1  UNL     1      44.370 -27.863  29.248  1.00  0.00    -0.130 Cl
ENDBRANCH  33  35
ENDBRANCH  25  33
ENDBRANCH  24  25
ENDBRANCH   1  24
BRANCH  20  37
HETATM   37  O7  UNL     1      38.270 -19.617  28.557  1.00  0.00    -0.392 OA
ATOM     38  H7  UNL     1      38.944 -18.956  28.655  1.00  0.00     0.210 HD
ENDBRANCH  20  37
BRANCH  16  39
HETATM   39  C20 UNL     1      37.247 -17.999  23.562  1.00  0.00     0.178 C 
BRANCH  39  40
HETATM   40  O4  UNL     1      35.921 -17.614  23.626  1.00  0.00    -0.400 OA
ATOM     41  H4  UNL     1      35.802 -16.684  23.775  1.00  0.00     0.209 HD
ENDBRANCH  39  40
ENDBRANCH  16  39
BRANCH  16  42
HETATM   42  C21 UNL     1      36.991 -17.567  25.921  1.00  0.00     0.193 C 
BRANCH  42  43
HETATM   43  O5  UNL     1      37.262 -16.156  25.798  1.00  0.00    -0.321 OA
BRANCH  43  44
HETATM   44  C22 UNL     1      37.264 -15.305  26.878  1.00  0.00     0.254 C 
HETATM   45  C23 UNL     1      38.107 -15.532  28.090  1.00  0.00     0.126 C 
HETATM   46  O6  UNL     1      36.523 -14.290  26.838  1.00  0.00    -0.266 OA
ENDBRANCH  43  44
ENDBRANCH  42  43
ENDBRANCH  16  42
TORSDOF 14
ENDMDL
