MODEL 1
REMARK VINA RESULT: -8.122318649      0.000      0.000
REMARK  11 active torsions:
REMARK  status: ('A' for Active; 'I' for Inactive)
REMARK    1  A    between atoms: C2_2  and  C3_3 
REMARK    2  A    between atoms: C3_3  and  C4_4 
REMARK    3  A    between atoms: C4_4  and  N1_5 
REMARK    4  A    between atoms: N1_5  and  C5_8 
REMARK    5  A    between atoms: C5_8  and  C6_9 
REMARK    6  A    between atoms: C6_9  and  C7_10 
REMARK    7  A    between atoms: C7_10  and  C8_11 
REMARK    8  A    between atoms: C8_11  and  N2_12 
REMARK    9  A    between atoms: C15_19  and  C16_20 
REMARK   10  A    between atoms: C17_21  and  C18_22 
REMARK   11  A    between atoms: C26_31  and  O1_32 
ROOT
HETATM    1  N2  UNL     1      33.796 -18.514 -12.713  1.00  0.00     0.093 N 
HETATM    2  C9  UNL     1      32.338 -18.189 -12.794  1.00  0.00     0.273 C 
HETATM    3  C10 UNL     1      31.605 -19.488 -12.545  1.00  0.00     0.037 C 
HETATM    4  C11 UNL     1      32.683 -20.313 -11.925  1.00  0.00     0.026 C 
HETATM    5  C12 UNL     1      33.825 -19.927 -12.854  1.00  0.00     0.227 C 
HETATM    6  C13 UNL     1      35.071 -20.666 -12.691  1.00  0.00     0.038 C 
HETATM    7  C14 UNL     1      35.024 -21.879 -13.619  1.00  0.00     0.025 C 
HETATM    8  C15 UNL     1      34.056 -22.942 -13.129  1.00  0.00     0.034 C 
HETATM    9  C24 UNL     1      32.985 -23.191 -14.128  1.00  0.00     0.032 C 
HETATM   10  C25 UNL     1      33.175 -24.569 -14.800  1.00  0.00     0.014 C 
HETATM   11  C26 UNL     1      31.589 -23.026 -13.667  1.00  0.00     0.132 C 
HETATM   12  C27 UNL     1      31.347 -22.469 -12.325  1.00  0.00    -0.013 C 
HETATM   13  C28 UNL     1      29.970 -21.914 -12.164  1.00  0.00     0.018 C 
HETATM   14  C29 UNL     1      31.380 -23.698 -11.369  1.00  0.00     0.012 C 
HETATM   15  C30 UNL     1      32.865 -23.939 -11.210  1.00  0.00     0.007 C 
HETATM   16  C31 UNL     1      33.566 -22.679 -11.745  1.00  0.00     0.012 C 
HETATM   17  C32 UNL     1      32.435 -21.697 -11.651  1.00  0.00     0.008 C 
ENDROOT
BRANCH   1  18
HETATM   18  C8  UNL     1      34.372 -17.833 -11.641  1.00  0.00     0.273 C 
BRANCH  18  19
HETATM   19  C7  UNL     1      35.846 -17.835 -11.452  1.00  0.00     0.032 C 
BRANCH  19  20
HETATM   20  C6  UNL     1      36.253 -18.255 -10.021  1.00  0.00     0.029 C 
BRANCH  20  21
HETATM   21  C5  UNL     1      35.268 -19.176  -9.385  1.00  0.00     0.232 C 
BRANCH  21  22
HETATM   22  N1  UNL     1      35.936 -20.154  -8.567  1.00  0.00    -0.075 N 
ATOM     23  H12 UNL     1      35.704 -20.028  -7.582  1.00  0.00     0.277 HD
ATOM     24  H11 UNL     1      36.939 -19.972  -8.524  1.00  0.00     0.277 HD
BRANCH  22  25
HETATM   25  C4  UNL     1      35.673 -21.489  -8.990  1.00  0.00     0.232 C 
BRANCH  25  26
HETATM   26  C3  UNL     1      36.752 -21.963  -9.921  1.00  0.00     0.027 C 
BRANCH  26  27
HETATM   27  C2  UNL     1      36.784 -23.488  -9.993  1.00  0.00    -0.003 C 
HETATM   28  C1  UNL     1      35.774 -24.098  -9.051  1.00  0.00     0.005 C 
ENDBRANCH  26  27
ENDBRANCH  25  26
ENDBRANCH  22  25
ENDBRANCH  21  22
ENDBRANCH  20  21
ENDBRANCH  19  20
ENDBRANCH  18  19
ENDBRANCH   1  18
BRANCH   8  29
HETATM   29  C16 UNL     1      34.892 -24.167 -13.035  1.00  0.00    -0.090 C 
HETATM   30  C17 UNL     1      35.604 -25.161 -12.957  1.00  0.00    -0.066 C 
BRANCH  30  31
HETATM   31  C18 UNL     1      36.457 -26.298 -12.862  1.00  0.00     0.020 A 
HETATM   32  C19 UNL     1      37.204 -26.766 -13.933  1.00  0.00     0.038 A 
HETATM   33  C20 UNL     1      38.017 -27.870 -13.824  1.00  0.00     0.091 A 
HETATM   34  N3  UNL     1      38.105 -28.532 -12.653  1.00  0.00    -0.371 N 
HETATM   35  C21 UNL     1      38.959 -29.708 -12.506  1.00  0.00     0.154 C 
HETATM   36  C22 UNL     1      37.384 -28.080 -11.613  1.00  0.00     0.091 A 
HETATM   37  C23 UNL     1      36.563 -26.984 -11.684  1.00  0.00     0.038 A 
ENDBRANCH  30  31
ENDBRANCH   8  29
BRANCH  11  38
HETATM   38  O1  UNL     1      30.850 -22.395 -14.702  1.00  0.00    -0.394 OA
ATOM     39  H1  UNL     1      30.038 -22.874 -14.822  1.00  0.00     0.210 HD
ENDBRANCH  11  38
TORSDOF 11
ENDMDL
MODEL 2
REMARK VINA RESULT: -8.115510076      1.497      2.215
REMARK  11 active torsions:
REMARK  status: ('A' for Active; 'I' for Inactive)
REMARK    1  A    between atoms: C2_2  and  C3_3 
REMARK    2  A    between atoms: C3_3  and  C4_4 
REMARK    3  A    between atoms: C4_4  and  N1_5 
REMARK    4  A    between atoms: N1_5  and  C5_8 
REMARK    5  A    between atoms: C5_8  and  C6_9 
REMARK    6  A    between atoms: C6_9  and  C7_10 
REMARK    7  A    between atoms: C7_10  and  C8_11 
REMARK    8  A    between atoms: C8_11  and  N2_12 
REMARK    9  A    between atoms: C15_19  and  C16_20 
REMARK   10  A    between atoms: C17_21  and  C18_22 
REMARK   11  A    between atoms: C26_31  and  O1_32 
ROOT
HETATM    1  N2  UNL     1      33.816 -18.707 -12.514  1.00  0.00     0.093 N 
HETATM    2  C9  UNL     1      32.355 -18.396 -12.578  1.00  0.00     0.273 C 
HETATM    3  C10 UNL     1      31.637 -19.708 -12.356  1.00  0.00     0.037 C 
HETATM    4  C11 UNL     1      32.729 -20.536 -11.763  1.00  0.00     0.026 C 
HETATM    5  C12 UNL     1      33.860 -20.116 -12.689  1.00  0.00     0.227 C 
HETATM    6  C13 UNL     1      35.115 -20.844 -12.551  1.00  0.00     0.038 C 
HETATM    7  C14 UNL     1      35.076 -22.035 -13.508  1.00  0.00     0.025 C 
HETATM    8  C15 UNL     1      34.122 -23.121 -13.037  1.00  0.00     0.034 C 
HETATM    9  C24 UNL     1      33.047 -23.357 -14.035  1.00  0.00     0.032 C 
HETATM   10  C25 UNL     1      33.248 -24.717 -14.741  1.00  0.00     0.014 C 
HETATM   11  C26 UNL     1      31.652 -23.218 -13.562  1.00  0.00     0.132 C 
HETATM   12  C27 UNL     1      31.413 -22.696 -12.206  1.00  0.00    -0.013 C 
HETATM   13  C28 UNL     1      30.032 -22.160 -12.023  1.00  0.00     0.018 C 
HETATM   14  C29 UNL     1      31.465 -23.948 -11.279  1.00  0.00     0.012 C 
HETATM   15  C30 UNL     1      32.954 -24.175 -11.135  1.00  0.00     0.007 C 
HETATM   16  C31 UNL     1      33.638 -22.896 -11.644  1.00  0.00     0.012 C 
HETATM   17  C32 UNL     1      32.497 -21.928 -11.520  1.00  0.00     0.008 C 
ENDROOT
BRANCH   1  18
HETATM   18  C8  UNL     1      34.392 -18.045 -11.430  1.00  0.00     0.273 C 
BRANCH  18  19
HETATM   19  C7  UNL     1      35.862 -17.833 -11.370  1.00  0.00     0.032 C 
BRANCH  19  20
HETATM   20  C6  UNL     1      36.512 -18.568 -10.176  1.00  0.00     0.029 C 
BRANCH  20  21
HETATM   21  C5  UNL     1      35.525 -18.958  -9.128  1.00  0.00     0.232 C 
BRANCH  21  22
HETATM   22  N1  UNL     1      35.897 -18.415  -7.849  1.00  0.00    -0.075 N 
ATOM     23  H12 UNL     1      35.839 -17.397  -7.852  1.00  0.00     0.277 HD
ATOM     24  H11 UNL     1      36.897 -18.521  -7.681  1.00  0.00     0.277 HD
BRANCH  22  25
HETATM   25  C4  UNL     1      35.134 -18.969  -6.779  1.00  0.00     0.232 C 
BRANCH  25  26
HETATM   26  C3  UNL     1      35.520 -18.328  -5.477  1.00  0.00     0.027 C 
BRANCH  26  27
HETATM   27  C2  UNL     1      34.428 -18.518  -4.427  1.00  0.00    -0.003 C 
HETATM   28  C1  UNL     1      33.902 -19.933  -4.440  1.00  0.00     0.005 C 
ENDBRANCH  26  27
ENDBRANCH  25  26
ENDBRANCH  22  25
ENDBRANCH  21  22
ENDBRANCH  20  21
ENDBRANCH  19  20
ENDBRANCH  18  19
ENDBRANCH   1  18
BRANCH   8  29
HETATM   29  C16 UNL     1      34.972 -24.338 -12.978  1.00  0.00    -0.090 C 
HETATM   30  C17 UNL     1      35.694 -25.327 -12.939  1.00  0.00    -0.066 C 
BRANCH  30  31
HETATM   31  C18 UNL     1      36.558 -26.459 -12.904  1.00  0.00     0.020 A 
HETATM   32  C19 UNL     1      36.650 -27.297 -11.801  1.00  0.00     0.038 A 
HETATM   33  C20 UNL     1      37.496 -28.381 -11.783  1.00  0.00     0.091 A 
HETATM   34  N3  UNL     1      38.267 -28.656 -12.854  1.00  0.00    -0.371 N 
HETATM   35  C21 UNL     1      39.176 -29.800 -12.864  1.00  0.00     0.154 C 
HETATM   36  C22 UNL     1      38.179 -27.847 -13.924  1.00  0.00     0.091 A 
HETATM   37  C23 UNL     1      37.348 -26.758 -13.978  1.00  0.00     0.038 A 
ENDBRANCH  30  31
ENDBRANCH   8  29
BRANCH  11  38
HETATM   38  O1  UNL     1      30.901 -22.572 -14.577  1.00  0.00    -0.394 OA
ATOM     39  H1  UNL     1      30.731 -21.679 -14.299  1.00  0.00     0.210 HD
ENDBRANCH  11  38
TORSDOF 11
ENDMDL
MODEL 3
REMARK VINA RESULT: -7.948720903      3.091      6.306
REMARK  11 active torsions:
REMARK  status: ('A' for Active; 'I' for Inactive)
REMARK    1  A    between atoms: C2_2  and  C3_3 
REMARK    2  A    between atoms: C3_3  and  C4_4 
REMARK    3  A    between atoms: C4_4  and  N1_5 
REMARK    4  A    between atoms: N1_5  and  C5_8 
REMARK    5  A    between atoms: C5_8  and  C6_9 
REMARK    6  A    between atoms: C6_9  and  C7_10 
REMARK    7  A    between atoms: C7_10  and  C8_11 
REMARK    8  A    between atoms: C8_11  and  N2_12 
REMARK    9  A    between atoms: C15_19  and  C16_20 
REMARK   10  A    between atoms: C17_21  and  C18_22 
REMARK   11  A    between atoms: C26_31  and  O1_32 
ROOT
HETATM    1  N2  UNL     1      36.367 -19.577 -10.904  1.00  0.00     0.093 N 
HETATM    2  C9  UNL     1      37.697 -20.101 -11.344  1.00  0.00     0.273 C 
HETATM    3  C10 UNL     1      37.455 -21.518 -11.814  1.00  0.00     0.037 C 
HETATM    4  C11 UNL     1      35.974 -21.508 -12.004  1.00  0.00     0.026 C 
HETATM    5  C12 UNL     1      35.589 -20.754 -10.740  1.00  0.00     0.227 C 
HETATM    6  C13 UNL     1      34.164 -20.668 -10.446  1.00  0.00     0.038 C 
HETATM    7  C14 UNL     1      33.791 -21.867  -9.574  1.00  0.00     0.025 C 
HETATM    8  C15 UNL     1      33.790 -23.170 -10.357  1.00  0.00     0.034 C 
HETATM    9  C24 UNL     1      34.771 -24.132  -9.792  1.00  0.00     0.032 C 
HETATM   10  C25 UNL     1      34.047 -25.293  -9.075  1.00  0.00     0.014 C 
HETATM   11  C26 UNL     1      35.803 -24.655 -10.715  1.00  0.00     0.132 C 
HETATM   12  C27 UNL     1      35.906 -24.075 -12.065  1.00  0.00    -0.013 C 
HETATM   13  C28 UNL     1      37.231 -24.320 -12.706  1.00  0.00     0.018 C 
HETATM   14  C29 UNL     1      34.902 -24.894 -12.930  1.00  0.00     0.012 C 
HETATM   15  C30 UNL     1      33.576 -24.271 -12.556  1.00  0.00     0.007 C 
HETATM   16  C31 UNL     1      33.906 -22.957 -11.829  1.00  0.00     0.012 C 
HETATM   17  C32 UNL     1      35.303 -22.731 -12.327  1.00  0.00     0.008 C 
ENDROOT
BRANCH   1  18
HETATM   18  C8  UNL     1      35.990 -18.508 -11.716  1.00  0.00     0.273 C 
BRANCH  18  19
HETATM   19  C7  UNL     1      35.339 -17.307 -11.129  1.00  0.00     0.032 C 
BRANCH  19  20
HETATM   20  C6  UNL     1      33.809 -17.305 -11.345  1.00  0.00     0.029 C 
BRANCH  20  21
HETATM   21  C5  UNL     1      33.400 -17.982 -12.609  1.00  0.00     0.232 C 
BRANCH  21  22
HETATM   22  N1  UNL     1      32.048 -17.637 -12.959  1.00  0.00    -0.075 N 
ATOM     23  H12 UNL     1      31.967 -17.435 -13.955  1.00  0.00     0.277 HD
ATOM     24  H11 UNL     1      31.794 -16.722 -12.585  1.00  0.00     0.277 HD
BRANCH  22  25
HETATM   25  C4  UNL     1      31.111 -18.634 -12.560  1.00  0.00     0.232 C 
BRANCH  25  26
HETATM   26  C3  UNL     1      31.554 -19.987 -13.038  1.00  0.00     0.027 C 
BRANCH  26  27
HETATM   27  C2  UNL     1      30.782 -21.099 -12.331  1.00  0.00    -0.003 C 
HETATM   28  C1  UNL     1      30.360 -20.672 -10.946  1.00  0.00     0.005 C 
ENDBRANCH  26  27
ENDBRANCH  25  26
ENDBRANCH  22  25
ENDBRANCH  21  22
ENDBRANCH  20  21
ENDBRANCH  19  20
ENDBRANCH  18  19
ENDBRANCH   1  18
BRANCH   8  29
HETATM   29  C16 UNL     1      32.427 -23.718 -10.133  1.00  0.00    -0.090 C 
HETATM   30  C17 UNL     1      31.309 -24.171  -9.922  1.00  0.00    -0.066 C 
BRANCH  30  31
HETATM   31  C18 UNL     1      30.014 -24.697  -9.644  1.00  0.00     0.020 A 
HETATM   32  C19 UNL     1      28.847 -24.007  -9.938  1.00  0.00     0.038 A 
HETATM   33  C20 UNL     1      27.606 -24.529  -9.655  1.00  0.00     0.091 A 
HETATM   34  N3  UNL     1      27.497 -25.741  -9.077  1.00  0.00    -0.371 N 
HETATM   35  C21 UNL     1      26.193 -26.322  -8.764  1.00  0.00     0.154 C 
HETATM   36  C22 UNL     1      28.626 -26.412  -8.793  1.00  0.00     0.091 A 
HETATM   37  C23 UNL     1      29.880 -25.925  -9.059  1.00  0.00     0.038 A 
ENDBRANCH  30  31
ENDBRANCH   8  29
BRANCH  11  38
HETATM   38  O1  UNL     1      37.035 -24.721 -10.014  1.00  0.00    -0.394 OA
ATOM     39  H1  UNL     1      36.929 -25.315  -9.280  1.00  0.00     0.210 HD
ENDBRANCH  11  38
TORSDOF 11
ENDMDL
MODEL 4
REMARK VINA RESULT: -7.895677599      4.313      6.511
REMARK  11 active torsions:
REMARK  status: ('A' for Active; 'I' for Inactive)
REMARK    1  A    between atoms: C2_2  and  C3_3 
REMARK    2  A    between atoms: C3_3  and  C4_4 
REMARK    3  A    between atoms: C4_4  and  N1_5 
REMARK    4  A    between atoms: N1_5  and  C5_8 
REMARK    5  A    between atoms: C5_8  and  C6_9 
REMARK    6  A    between atoms: C6_9  and  C7_10 
REMARK    7  A    between atoms: C7_10  and  C8_11 
REMARK    8  A    between atoms: C8_11  and  N2_12 
REMARK    9  A    between atoms: C15_19  and  C16_20 
REMARK   10  A    between atoms: C17_21  and  C18_22 
REMARK   11  A    between atoms: C26_31  and  O1_32 
ROOT
HETATM    1  N2  UNL     1      30.212 -23.784  -8.796  1.00  0.00     0.093 N 
HETATM    2  C9  UNL     1      29.494 -22.537  -9.205  1.00  0.00     0.273 C 
HETATM    3  C10 UNL     1      29.962 -22.227 -10.610  1.00  0.00     0.037 C 
HETATM    4  C11 UNL     1      30.549 -23.539 -11.014  1.00  0.00     0.026 C 
HETATM    5  C12 UNL     1      31.285 -23.865  -9.723  1.00  0.00     0.227 C 
HETATM    6  C13 UNL     1      32.158 -25.032  -9.751  1.00  0.00     0.038 C 
HETATM    7  C14 UNL     1      33.553 -24.566 -10.165  1.00  0.00     0.025 C 
HETATM    8  C15 UNL     1      33.621 -24.187 -11.636  1.00  0.00     0.034 C 
HETATM    9  C24 UNL     1      34.013 -22.764 -11.803  1.00  0.00     0.032 C 
HETATM   10  C25 UNL     1      35.452 -22.656 -12.356  1.00  0.00     0.014 C 
HETATM   11  C26 UNL     1      33.093 -21.903 -12.577  1.00  0.00     0.132 C 
HETATM   12  C27 UNL     1      31.786 -22.447 -12.982  1.00  0.00    -0.013 C 
HETATM   13  C28 UNL     1      30.789 -21.386 -13.313  1.00  0.00     0.018 C 
HETATM   14  C29 UNL     1      32.052 -23.162 -14.341  1.00  0.00     0.012 C 
HETATM   15  C30 UNL     1      32.673 -24.468 -13.898  1.00  0.00     0.007 C 
HETATM   16  C31 UNL     1      32.398 -24.587 -12.390  1.00  0.00     0.012 C 
HETATM   17  C32 UNL     1      31.240 -23.640 -12.264  1.00  0.00     0.008 C 
ENDROOT
BRANCH   1  18
HETATM   18  C8  UNL     1      29.292 -24.811  -8.588  1.00  0.00     0.273 C 
BRANCH  18  19
HETATM   19  C7  UNL     1      28.731 -25.059  -7.234  1.00  0.00     0.032 C 
BRANCH  19  20
HETATM   20  C6  UNL     1      27.196 -24.891  -7.195  1.00  0.00     0.029 C 
BRANCH  20  21
HETATM   21  C5  UNL     1      26.500 -25.660  -8.268  1.00  0.00     0.232 C 
BRANCH  21  22
HETATM   22  N1  UNL     1      25.410 -26.424  -7.723  1.00  0.00    -0.075 N 
ATOM     23  H12 UNL     1      24.518 -25.958  -7.887  1.00  0.00     0.277 HD
ATOM     24  H11 UNL     1      25.421 -26.405  -6.704  1.00  0.00     0.277 HD
BRANCH  22  25
HETATM   25  C4  UNL     1      25.387 -27.763  -8.212  1.00  0.00     0.232 C 
BRANCH  25  26
HETATM   26  C3  UNL     1      26.566 -28.531  -7.685  1.00  0.00     0.027 C 
BRANCH  26  27
HETATM   27  C2  UNL     1      26.172 -29.960  -7.322  1.00  0.00    -0.003 C 
HETATM   28  C1  UNL     1      25.316 -30.579  -8.401  1.00  0.00     0.005 C 
ENDBRANCH  26  27
ENDBRANCH  25  26
ENDBRANCH  22  25
ENDBRANCH  21  22
ENDBRANCH  20  21
ENDBRANCH  19  20
ENDBRANCH  18  19
ENDBRANCH   1  18
BRANCH   8  29
HETATM   29  C16 UNL     1      34.720 -25.034 -12.170  1.00  0.00    -0.090 C 
HETATM   30  C17 UNL     1      35.611 -25.754 -12.604  1.00  0.00    -0.066 C 
BRANCH  30  31
HETATM   31  C18 UNL     1      36.628 -26.616 -13.104  1.00  0.00     0.020 A 
HETATM   32  C19 UNL     1      37.161 -26.486 -14.379  1.00  0.00     0.038 A 
HETATM   33  C20 UNL     1      38.138 -27.333 -14.847  1.00  0.00     0.091 A 
HETATM   34  N3  UNL     1      38.604 -28.326 -14.064  1.00  0.00    -0.371 N 
HETATM   35  C21 UNL     1      39.640 -29.243 -14.532  1.00  0.00     0.154 C 
HETATM   36  C22 UNL     1      38.090 -28.455 -12.828  1.00  0.00     0.091 A 
HETATM   37  C23 UNL     1      37.117 -27.630 -12.328  1.00  0.00     0.038 A 
ENDBRANCH  30  31
ENDBRANCH   8  29
BRANCH  11  38
HETATM   38  O1  UNL     1      33.025 -20.637 -11.939  1.00  0.00    -0.394 OA
ATOM     39  H1  UNL     1      32.115 -20.362 -11.921  1.00  0.00     0.210 HD
ENDBRANCH  11  38
TORSDOF 11
ENDMDL
MODEL 5
REMARK VINA RESULT: -7.880790350      4.697      7.056
REMARK  11 active torsions:
REMARK  status: ('A' for Active; 'I' for Inactive)
REMARK    1  A    between atoms: C2_2  and  C3_3 
REMARK    2  A    between atoms: C3_3  and  C4_4 
REMARK    3  A    between atoms: C4_4  and  N1_5 
REMARK    4  A    between atoms: N1_5  and  C5_8 
REMARK    5  A    between atoms: C5_8  and  C6_9 
REMARK    6  A    between atoms: C6_9  and  C7_10 
REMARK    7  A    between atoms: C7_10  and  C8_11 
REMARK    8  A    between atoms: C8_11  and  N2_12 
REMARK    9  A    between atoms: C15_19  and  C16_20 
REMARK   10  A    between atoms: C17_21  and  C18_22 
REMARK   11  A    between atoms: C26_31  and  O1_32 
ROOT
HETATM    1  N2  UNL     1      29.911 -23.995  -7.599  1.00  0.00     0.093 N 
HETATM    2  C9  UNL     1      29.079 -22.813  -7.982  1.00  0.00     0.273 C 
HETATM    3  C10 UNL     1      29.459 -22.478  -9.408  1.00  0.00     0.037 C 
HETATM    4  C11 UNL     1      30.129 -23.743  -9.831  1.00  0.00     0.026 C 
HETATM    5  C12 UNL     1      30.945 -23.998  -8.573  1.00  0.00     0.227 C 
HETATM    6  C13 UNL     1      31.906 -25.093  -8.634  1.00  0.00     0.038 C 
HETATM    7  C14 UNL     1      33.240 -24.521  -9.112  1.00  0.00     0.025 C 
HETATM    8  C15 UNL     1      33.213 -24.151 -10.586  1.00  0.00     0.034 C 
HETATM    9  C24 UNL     1      33.483 -22.702 -10.778  1.00  0.00     0.032 C 
HETATM   10  C25 UNL     1      34.883 -22.485 -11.394  1.00  0.00     0.014 C 
HETATM   11  C26 UNL     1      32.463 -21.923 -11.514  1.00  0.00     0.132 C 
HETATM   12  C27 UNL     1      31.187 -22.573 -11.858  1.00  0.00    -0.013 C 
HETATM   13  C28 UNL     1      30.096 -21.597 -12.150  1.00  0.00     0.018 C 
HETATM   14  C29 UNL     1      31.450 -23.276 -13.223  1.00  0.00     0.012 C 
HETATM   15  C30 UNL     1      32.191 -24.525 -12.802  1.00  0.00     0.007 C 
HETATM   16  C31 UNL     1      31.993 -24.652 -11.282  1.00  0.00     0.012 C 
HETATM   17  C32 UNL     1      30.771 -23.799 -11.110  1.00  0.00     0.008 C 
ENDROOT
BRANCH   1  18
HETATM   18  C8  UNL     1      29.086 -25.090  -7.345  1.00  0.00     0.273 C 
BRANCH  18  19
HETATM   19  C7  UNL     1      27.695 -24.890  -6.860  1.00  0.00     0.032 C 
BRANCH  19  20
HETATM   20  C6  UNL     1      26.644 -25.435  -7.853  1.00  0.00     0.029 C 
BRANCH  20  21
HETATM   21  C5  UNL     1      26.792 -26.896  -8.112  1.00  0.00     0.232 C 
BRANCH  21  22
HETATM   22  N1  UNL     1      25.663 -27.403  -8.845  1.00  0.00    -0.075 N 
ATOM     23  H12 UNL     1      25.943 -27.735  -9.768  1.00  0.00     0.277 HD
ATOM     24  H11 UNL     1      25.038 -26.647  -9.125  1.00  0.00     0.277 HD
BRANCH  22  25
HETATM   25  C4  UNL     1      24.958 -28.413  -8.128  1.00  0.00     0.232 C 
BRANCH  25  26
HETATM   26  C3  UNL     1      25.897 -29.510  -7.714  1.00  0.00     0.027 C 
BRANCH  26  27
HETATM   27  C2  UNL     1      25.274 -30.884  -7.948  1.00  0.00    -0.003 C 
HETATM   28  C1  UNL     1      24.691 -30.987  -9.337  1.00  0.00     0.005 C 
ENDBRANCH  26  27
ENDBRANCH  25  26
ENDBRANCH  22  25
ENDBRANCH  21  22
ENDBRANCH  20  21
ENDBRANCH  19  20
ENDBRANCH  18  19
ENDBRANCH   1  18
BRANCH   8  29
HETATM   29  C16 UNL     1      34.351 -24.912 -11.164  1.00  0.00    -0.090 C 
HETATM   30  C17 UNL     1      35.273 -25.561 -11.642  1.00  0.00    -0.066 C 
BRANCH  30  31
HETATM   31  C18 UNL     1      36.326 -26.342 -12.199  1.00  0.00     0.020 A 
HETATM   32  C19 UNL     1      37.177 -27.116 -11.423  1.00  0.00     0.038 A 
HETATM   33  C20 UNL     1      38.193 -27.857 -11.979  1.00  0.00     0.091 A 
HETATM   34  N3  UNL     1      38.387 -27.847 -13.313  1.00  0.00    -0.371 N 
HETATM   35  C21 UNL     1      39.457 -28.623 -13.934  1.00  0.00     0.154 C 
HETATM   36  C22 UNL     1      37.563 -27.099 -14.068  1.00  0.00     0.091 A 
HETATM   37  C23 UNL     1      36.541 -26.347 -13.550  1.00  0.00     0.038 A 
ENDBRANCH  30  31
ENDBRANCH   8  29
BRANCH  11  38
HETATM   38  O1  UNL     1      32.323 -20.662 -10.880  1.00  0.00    -0.394 OA
ATOM     39  H1  UNL     1      31.479 -20.299 -11.123  1.00  0.00     0.210 HD
ENDBRANCH  11  38
TORSDOF 11
ENDMDL
