MODEL 1
REMARK VINA RESULT: -8.356786677      0.000      0.000
REMARK  7 active torsions:
REMARK  status: ('A' for Active; 'I' for Inactive)
REMARK    1  A    between atoms: C2_2  and  C3_3 
REMARK    2  A    between atoms: C3_3  and  C4_4 
REMARK    3  A    between atoms: C6_6  and  O1_7 
REMARK    4  A    between atoms: N1_9  and  C7_10 
REMARK    5  A    between atoms: C7_10  and  C8_11 
REMARK    6  A    between atoms: C12_16  and  C13_17 
REMARK    7  A    between atoms: N2_26  and  N3_27 
ROOT
HETATM    1  C4  UNL     1      27.008   5.341   0.646  1.00  0.00    -0.025 A 
HETATM    2  C5  UNL     1      26.584   5.722  -0.636  1.00  0.00     0.065 A 
HETATM    3  C6  UNL     1      26.249   7.019  -0.529  1.00  0.00     0.143 A 
HETATM    4  N1  UNL     1      26.426   7.504   0.743  1.00  0.00    -0.323 N 
HETATM    5  C12 UNL     1      26.889   6.481   1.456  1.00  0.00     0.073 A 
ENDROOT
BRANCH   5   6
HETATM    6  C13 UNL     1      27.184   6.370   2.906  1.00  0.00     0.109 A 
HETATM    7  C14 UNL     1      26.619   5.378   3.688  1.00  0.00     0.072 A 
HETATM    8 CL1  UNL     1      25.341   4.343   3.023  1.00  0.00    -0.081 Cl
HETATM    9  C15 UNL     1      26.927   5.150   5.009  1.00  0.00    -0.011 A 
HETATM   10  C16 UNL     1      26.310   4.081   5.827  1.00  0.00     0.052 C 
HETATM   11  C17 UNL     1      27.862   5.967   5.599  1.00  0.00     0.111 A 
HETATM   12 CL2  UNL     1      28.295   5.727   7.283  1.00  0.00    -0.078 Cl
HETATM   13  C18 UNL     1      28.429   6.957   4.833  1.00  0.00     0.288 A 
HETATM   14  O3  UNL     1      29.291   7.713   5.372  1.00  0.00    -0.264 OA
HETATM   15  N2  UNL     1      28.100   7.153   3.518  1.00  0.00    -0.222 N 
BRANCH  15  16
HETATM   16  N3  UNL     1      28.762   8.134   2.797  1.00  0.00    -0.335 N 
ATOM     17  H32 UNL     1      28.541   8.257   1.809  1.00  0.00     0.177 HD
ATOM     18  H31 UNL     1      29.428   8.748   3.267  1.00  0.00     0.177 HD
ENDBRANCH  15  16
ENDBRANCH   5   6
BRANCH   1  19
HETATM   19  C3  UNL     1      27.557   4.003   0.952  1.00  0.00     0.041 C 
BRANCH  19  20
HETATM   20  C2  UNL     1      26.871   3.034  -0.037  1.00  0.00     0.000 C 
HETATM   21  C1  UNL     1      25.855   2.165   0.671  1.00  0.00     0.005 C 
ENDBRANCH  19  20
ENDBRANCH   1  19
BRANCH   4  22
HETATM   22  C7  UNL     1      26.182   8.841   1.148  1.00  0.00     0.163 C 
BRANCH  22  23
HETATM   23  C8  UNL     1      26.919   9.945   0.537  1.00  0.00     0.140 C 
HETATM   24  C9  UNL     1      26.979  11.182   1.352  1.00  0.00     0.035 C 
HETATM   25  C10 UNL     1      28.340  11.773   0.950  1.00  0.00     0.029 C 
HETATM   26  C11 UNL     1      28.902  10.734   0.033  1.00  0.00     0.168 C 
HETATM   27  O2  UNL     1      28.291   9.554   0.424  1.00  0.00    -0.384 OA
ENDBRANCH  22  23
ENDBRANCH   4  22
BRANCH   3  28
HETATM   28  O1  UNL     1      25.778   7.802  -1.555  1.00  0.00    -0.346 OA
ATOM     29  H1  UNL     1      26.289   8.445  -2.032  1.00  0.00     0.219 HD
ENDBRANCH   3  28
TORSDOF 7
ENDMDL
MODEL 2
REMARK VINA RESULT: -8.313080021      1.686      2.152
REMARK  7 active torsions:
REMARK  status: ('A' for Active; 'I' for Inactive)
REMARK    1  A    between atoms: C2_2  and  C3_3 
REMARK    2  A    between atoms: C3_3  and  C4_4 
REMARK    3  A    between atoms: C6_6  and  O1_7 
REMARK    4  A    between atoms: N1_9  and  C7_10 
REMARK    5  A    between atoms: C7_10  and  C8_11 
REMARK    6  A    between atoms: C12_16  and  C13_17 
REMARK    7  A    between atoms: N2_26  and  N3_27 
ROOT
HETATM    1  C4  UNL     1      27.011   5.225   0.658  1.00  0.00    -0.025 A 
HETATM    2  C5  UNL     1      26.550   5.671  -0.590  1.00  0.00     0.065 A 
HETATM    3  C6  UNL     1      26.208   6.958  -0.404  1.00  0.00     0.143 A 
HETATM    4  N1  UNL     1      26.416   7.374   0.888  1.00  0.00    -0.323 N 
HETATM    5  C12 UNL     1      26.904   6.318   1.532  1.00  0.00     0.073 A 
ENDROOT
BRANCH   5   6
HETATM    6  C13 UNL     1      27.238   6.130   2.966  1.00  0.00     0.109 A 
HETATM    7  C14 UNL     1      28.124   6.968   3.620  1.00  0.00     0.072 A 
HETATM    8 CL1  UNL     1      29.063   8.159   2.701  1.00  0.00    -0.081 Cl
HETATM    9  C15 UNL     1      28.399   6.920   4.967  1.00  0.00    -0.011 A 
HETATM   10  C16 UNL     1      29.351   7.829   5.647  1.00  0.00     0.052 C 
HETATM   11  C17 UNL     1      27.751   5.970   5.719  1.00  0.00     0.111 A 
HETATM   12 CL2  UNL     1      28.062   5.858   7.444  1.00  0.00    -0.078 Cl
HETATM   13  C18 UNL     1      26.870   5.131   5.081  1.00  0.00     0.288 A 
HETATM   14  O3  UNL     1      26.270   4.253   5.770  1.00  0.00    -0.264 OA
HETATM   15  N2  UNL     1      26.618   5.209   3.737  1.00  0.00    -0.222 N 
BRANCH  15  16
HETATM   16  N3  UNL     1      25.670   4.367   3.179  1.00  0.00    -0.335 N 
ATOM     17  H32 UNL     1      25.905   3.847   2.333  1.00  0.00     0.177 HD
ATOM     18  H31 UNL     1      24.768   4.241   3.639  1.00  0.00     0.177 HD
ENDBRANCH  15  16
ENDBRANCH   5   6
BRANCH   1  19
HETATM   19  C3  UNL     1      27.577   3.877   0.877  1.00  0.00     0.041 C 
BRANCH  19  20
HETATM   20  C2  UNL     1      26.789   2.936  -0.062  1.00  0.00     0.000 C 
HETATM   21  C1  UNL     1      25.762   2.135   0.708  1.00  0.00     0.005 C 
ENDBRANCH  19  20
ENDBRANCH   1  19
BRANCH   4  22
HETATM   22  C7  UNL     1      26.172   8.685   1.372  1.00  0.00     0.163 C 
BRANCH  22  23
HETATM   23  C8  UNL     1      26.768   9.841   0.706  1.00  0.00     0.140 C 
HETATM   24  C9  UNL     1      27.258  10.903   1.616  1.00  0.00     0.035 C 
HETATM   25  C10 UNL     1      28.446  11.484   0.833  1.00  0.00     0.029 C 
HETATM   26  C11 UNL     1      28.520  10.601  -0.372  1.00  0.00     0.168 C 
HETATM   27  O2  UNL     1      27.954   9.404   0.035  1.00  0.00    -0.384 OA
ENDBRANCH  22  23
ENDBRANCH   4  22
BRANCH   3  28
HETATM   28  O1  UNL     1      25.705   7.791  -1.372  1.00  0.00    -0.346 OA
ATOM     29  H1  UNL     1      24.797   7.821  -1.651  1.00  0.00     0.219 HD
ENDBRANCH   3  28
TORSDOF 7
ENDMDL
MODEL 3
REMARK VINA RESULT: -8.261171065      2.835      5.648
REMARK  7 active torsions:
REMARK  status: ('A' for Active; 'I' for Inactive)
REMARK    1  A    between atoms: C2_2  and  C3_3 
REMARK    2  A    between atoms: C3_3  and  C4_4 
REMARK    3  A    between atoms: C6_6  and  O1_7 
REMARK    4  A    between atoms: N1_9  and  C7_10 
REMARK    5  A    between atoms: C7_10  and  C8_11 
REMARK    6  A    between atoms: C12_16  and  C13_17 
REMARK    7  A    between atoms: N2_26  and  N3_27 
ROOT
HETATM    1  C4  UNL     1      28.028   7.072   3.317  1.00  0.00    -0.025 A 
HETATM    2  C5  UNL     1      27.521   5.765   3.368  1.00  0.00     0.065 A 
HETATM    3  C6  UNL     1      26.666   5.674   2.334  1.00  0.00     0.143 A 
HETATM    4  N1  UNL     1      26.585   6.842   1.617  1.00  0.00    -0.323 N 
HETATM    5  C12 UNL     1      27.414   7.691   2.218  1.00  0.00     0.073 A 
ENDROOT
BRANCH   5   6
HETATM    6  C13 UNL     1      27.685   9.126   1.953  1.00  0.00     0.109 A 
HETATM    7  C14 UNL     1      27.425  10.101   2.900  1.00  0.00     0.072 A 
HETATM    8 CL1  UNL     1      26.543   9.685   4.382  1.00  0.00    -0.081 Cl
HETATM    9  C15 UNL     1      27.747  11.431   2.766  1.00  0.00    -0.011 A 
HETATM   10  C16 UNL     1      27.460  12.457   3.794  1.00  0.00     0.052 C 
HETATM   11  C17 UNL     1      28.371  11.824   1.606  1.00  0.00     0.111 A 
HETATM   12 CL2  UNL     1      28.807  13.510   1.376  1.00  0.00    -0.078 Cl
HETATM   13  C18 UNL     1      28.635  10.866   0.658  1.00  0.00     0.288 A 
HETATM   14  O3  UNL     1      29.210  11.224  -0.414  1.00  0.00    -0.264 OA
HETATM   15  N2  UNL     1      28.301   9.548   0.827  1.00  0.00    -0.222 N 
BRANCH  15  16
HETATM   16  N3  UNL     1      28.656   8.633  -0.152  1.00  0.00    -0.335 N 
ATOM     17  H32 UNL     1      29.195   7.808   0.114  1.00  0.00     0.177 HD
ATOM     18  H31 UNL     1      28.341   8.768  -1.113  1.00  0.00     0.177 HD
ENDBRANCH  15  16
ENDBRANCH   5   6
BRANCH   1  19
HETATM   19  C3  UNL     1      29.080   7.567   4.229  1.00  0.00     0.041 C 
BRANCH  19  20
HETATM   20  C2  UNL     1      28.644   7.130   5.646  1.00  0.00     0.000 C 
HETATM   21  C1  UNL     1      29.111   8.122   6.689  1.00  0.00     0.005 C 
ENDBRANCH  19  20
ENDBRANCH   1  19
BRANCH   4  22
HETATM   22  C7  UNL     1      25.787   7.036   0.460  1.00  0.00     0.163 C 
BRANCH  22  23
HETATM   23  C8  UNL     1      26.322   6.732  -0.865  1.00  0.00     0.140 C 
HETATM   24  C9  UNL     1      26.454   5.286  -1.170  1.00  0.00     0.035 C 
HETATM   25  C10 UNL     1      26.221   5.249  -2.689  1.00  0.00     0.029 C 
HETATM   26  C11 UNL     1      25.894   6.672  -3.016  1.00  0.00     0.168 C 
HETATM   27  O2  UNL     1      25.380   7.192  -1.840  1.00  0.00    -0.384 OA
ENDBRANCH  22  23
ENDBRANCH   4  22
BRANCH   3  28
HETATM   28  O1  UNL     1      25.940   4.557   2.003  1.00  0.00    -0.346 OA
ATOM     29  H1  UNL     1      25.239   4.530   1.363  1.00  0.00     0.219 HD
ENDBRANCH   3  28
TORSDOF 7
ENDMDL
MODEL 4
REMARK VINA RESULT: -8.175534012      3.532      6.404
REMARK  7 active torsions:
REMARK  status: ('A' for Active; 'I' for Inactive)
REMARK    1  A    between atoms: C2_2  and  C3_3 
REMARK    2  A    between atoms: C3_3  and  C4_4 
REMARK    3  A    between atoms: C6_6  and  O1_7 
REMARK    4  A    between atoms: N1_9  and  C7_10 
REMARK    5  A    between atoms: C7_10  and  C8_11 
REMARK    6  A    between atoms: C12_16  and  C13_17 
REMARK    7  A    between atoms: N2_26  and  N3_27 
ROOT
HETATM    1  C4  UNL     1      28.120  11.452   1.271  1.00  0.00    -0.025 A 
HETATM    2  C5  UNL     1      28.804  12.665   1.438  1.00  0.00     0.065 A 
HETATM    3  C6  UNL     1      29.775  12.657   0.508  1.00  0.00     0.143 A 
HETATM    4  N1  UNL     1      29.765  11.512  -0.250  1.00  0.00    -0.323 N 
HETATM    5  C12 UNL     1      28.757  10.780   0.217  1.00  0.00     0.073 A 
ENDROOT
BRANCH   5   6
HETATM    6  C13 UNL     1      28.310   9.412  -0.142  1.00  0.00     0.109 A 
HETATM    7  C14 UNL     1      28.495   8.340   0.713  1.00  0.00     0.072 A 
HETATM    8 CL1  UNL     1      29.480   8.531   2.176  1.00  0.00    -0.081 Cl
HETATM    9  C15 UNL     1      28.014   7.070   0.494  1.00  0.00    -0.011 A 
HETATM   10  C16 UNL     1      28.223   5.937   1.425  1.00  0.00     0.052 C 
HETATM   11  C17 UNL     1      27.301   6.845  -0.660  1.00  0.00     0.111 A 
HETATM   12 CL2  UNL     1      26.663   5.245  -0.996  1.00  0.00    -0.078 Cl
HETATM   13  C18 UNL     1      27.112   7.902  -1.518  1.00  0.00     0.288 A 
HETATM   14  O3  UNL     1      26.455   7.700  -2.583  1.00  0.00    -0.264 OA
HETATM   15  N2  UNL     1      27.603   9.155  -1.266  1.00  0.00    -0.222 N 
BRANCH  15  16
HETATM   16  N3  UNL     1      27.317  10.181  -2.152  1.00  0.00    -0.335 N 
ATOM     17  H32 UNL     1      27.540  10.059  -3.140  1.00  0.00     0.177 HD
ATOM     18  H31 UNL     1      26.852  11.026  -1.819  1.00  0.00     0.177 HD
ENDBRANCH  15  16
ENDBRANCH   5   6
BRANCH   1  19
HETATM   19  C3  UNL     1      26.909  11.094   2.040  1.00  0.00     0.041 C 
BRANCH  19  20
HETATM   20  C2  UNL     1      27.270  11.334   3.523  1.00  0.00     0.000 C 
HETATM   21  C1  UNL     1      27.263  10.037   4.301  1.00  0.00     0.005 C 
ENDBRANCH  19  20
ENDBRANCH   1  19
BRANCH   4  22
HETATM   22  C7  UNL     1      30.653  11.235  -1.321  1.00  0.00     0.163 C 
BRANCH  22  23
HETATM   23  C8  UNL     1      30.460  11.870  -2.623  1.00  0.00     0.140 C 
HETATM   24  C9  UNL     1      31.697  12.048  -3.421  1.00  0.00     0.035 C 
HETATM   25  C10 UNL     1      31.178  11.927  -4.863  1.00  0.00     0.029 C 
HETATM   26  C11 UNL     1      29.730  11.601  -4.674  1.00  0.00     0.168 C 
HETATM   27  O2  UNL     1      29.667  10.994  -3.431  1.00  0.00    -0.384 OA
ENDBRANCH  22  23
ENDBRANCH   4  22
BRANCH   3  28
HETATM   28  O1  UNL     1      30.691  13.661   0.310  1.00  0.00    -0.346 OA
ATOM     29  H1  UNL     1      31.528  13.560  -0.126  1.00  0.00     0.219 HD
ENDBRANCH   3  28
TORSDOF 7
ENDMDL
MODEL 5
REMARK VINA RESULT: -8.004408811      2.125      5.128
REMARK  7 active torsions:
REMARK  status: ('A' for Active; 'I' for Inactive)
REMARK    1  A    between atoms: C2_2  and  C3_3 
REMARK    2  A    between atoms: C3_3  and  C4_4 
REMARK    3  A    between atoms: C6_6  and  O1_7 
REMARK    4  A    between atoms: N1_9  and  C7_10 
REMARK    5  A    between atoms: C7_10  and  C8_11 
REMARK    6  A    between atoms: C12_16  and  C13_17 
REMARK    7  A    between atoms: N2_26  and  N3_27 
ROOT
HETATM    1  C4  UNL     1      26.994   8.587   1.286  1.00  0.00    -0.025 A 
HETATM    2  C5  UNL     1      26.936   8.767  -0.105  1.00  0.00     0.065 A 
HETATM    3  C6  UNL     1      27.150   7.548  -0.630  1.00  0.00     0.143 A 
HETATM    4  N1  UNL     1      27.345   6.589   0.333  1.00  0.00    -0.323 N 
HETATM    5  C12 UNL     1      27.249   7.224   1.498  1.00  0.00     0.073 A 
ENDROOT
BRANCH   5   6
HETATM    6  C13 UNL     1      27.454   6.735   2.883  1.00  0.00     0.109 A 
HETATM    7  C14 UNL     1      28.278   7.400   3.774  1.00  0.00     0.072 A 
HETATM    8 CL1  UNL     1      29.296   8.739   3.210  1.00  0.00    -0.081 Cl
HETATM    9  C15 UNL     1      28.432   7.067   5.099  1.00  0.00    -0.011 A 
HETATM   10  C16 UNL     1      29.320   7.795   6.036  1.00  0.00     0.052 C 
HETATM   11  C17 UNL     1      27.719   5.993   5.576  1.00  0.00     0.111 A 
HETATM   12 CL2  UNL     1      27.875   5.517   7.259  1.00  0.00    -0.078 Cl
HETATM   13  C18 UNL     1      26.898   5.323   4.702  1.00  0.00     0.288 A 
HETATM   14  O3  UNL     1      26.239   4.331   5.137  1.00  0.00    -0.264 OA
HETATM   15  N2  UNL     1      26.767   5.685   3.387  1.00  0.00    -0.222 N 
BRANCH  15  16
HETATM   16  N3  UNL     1      25.873   4.996   2.585  1.00  0.00    -0.335 N 
ATOM     17  H32 UNL     1      26.203   4.191   2.052  1.00  0.00     0.177 HD
ATOM     18  H31 UNL     1      24.890   5.270   2.566  1.00  0.00     0.177 HD
ENDBRANCH  15  16
ENDBRANCH   5   6
BRANCH   1  19
HETATM   19  C3  UNL     1      26.718   9.670   2.254  1.00  0.00     0.041 C 
BRANCH  19  20
HETATM   20  C2  UNL     1      27.018  10.987   1.502  1.00  0.00     0.000 C 
HETATM   21  C1  UNL     1      27.819  11.935   2.368  1.00  0.00     0.005 C 
ENDBRANCH  19  20
ENDBRANCH   1  19
BRANCH   4  22
HETATM   22  C7  UNL     1      27.566   5.211   0.079  1.00  0.00     0.163 C 
BRANCH  22  23
HETATM   23  C8  UNL     1      26.440   4.319  -0.190  1.00  0.00     0.140 C 
HETATM   24  C9  UNL     1      26.265   3.946  -1.615  1.00  0.00     0.035 C 
HETATM   25  C10 UNL     1      25.673   2.531  -1.512  1.00  0.00     0.029 C 
HETATM   26  C11 UNL     1      25.686   2.265  -0.040  1.00  0.00     0.168 C 
HETATM   27  O2  UNL     1      26.702   3.067   0.452  1.00  0.00    -0.384 OA
ENDBRANCH  22  23
ENDBRANCH   4  22
BRANCH   3  28
HETATM   28  O1  UNL     1      27.177   7.258  -1.972  1.00  0.00    -0.346 OA
ATOM     29  H1  UNL     1      27.771   6.643  -2.387  1.00  0.00     0.219 HD
ENDBRANCH   3  28
TORSDOF 7
ENDMDL
