MODEL 1
REMARK VINA RESULT: -5.366978781      0.000      0.000
REMARK  5 active torsions:
REMARK  status: ('A' for Active; 'I' for Inactive)
REMARK    1  A    between atoms: C4_4  and  O1_5 
REMARK    2  A    between atoms: N2_10  and  N3_12 
REMARK    3  A    between atoms: N3_12  and  C7_14 
REMARK    4  A    between atoms: C7_14  and  C8_15 
REMARK    5  A    between atoms: C8_15  and  N4_16 
ROOT
HETATM    1  C1  UNL     1      -8.317  31.860  31.724  1.00  0.00     0.048 C 
HETATM    2  C2  UNL     1      -8.160  33.187  31.075  1.00  0.00    -0.054 A 
HETATM    3  C3  UNL     1      -8.602  34.315  31.748  1.00  0.00     0.062 A 
HETATM    4  C4  UNL     1      -8.454  35.527  31.142  1.00  0.00     0.141 A 
HETATM    5  N1  UNL     1      -7.883  35.624  29.903  1.00  0.00    -0.323 N 
ATOM      6  H1  UNL     1      -7.788  36.547  29.481  1.00  0.00     0.169 HD
HETATM    7  C5  UNL     1      -7.445  34.565  29.220  1.00  0.00     0.118 A 
HETATM    8  N2  UNL     1      -6.907  34.610  28.061  1.00  0.00    -0.305 N 
ATOM      9  H2  UNL     1      -6.602  33.745  27.616  1.00  0.00     0.182 HD
HETATM   10  C9  UNL     1      -7.590  33.318  29.828  1.00  0.00     0.056 A 
ENDROOT
BRANCH   8  11
HETATM   11  N3  UNL     1      -6.733  35.802  27.406  1.00  0.00    -0.233 NA
HETATM   12  C6  UNL     1      -5.524  36.453  27.873  1.00  0.00     0.136 C 
BRANCH  11  13
HETATM   13  C7  UNL     1      -6.736  35.660  25.959  1.00  0.00     0.140 C 
BRANCH  13  14
HETATM   14  C8  UNL     1      -7.904  36.332  25.302  1.00  0.00     0.245 C 
BRANCH  14  15
HETATM   15  N4  UNL     1      -9.171  35.916  25.870  1.00  0.00    -0.078 N 
ATOM     16  H43 UNL     1      -9.847  35.696  25.138  1.00  0.00     0.274 HD
ATOM     17  H42 UNL     1      -9.096  34.997  26.304  1.00  0.00     0.274 HD
ATOM     18  H41 UNL     1      -9.548  36.602  26.524  1.00  0.00     0.274 HD
ENDBRANCH  14  15
ENDBRANCH  13  14
ENDBRANCH  11  13
ENDBRANCH   8  11
BRANCH   4  19
HETATM   19  O1  UNL     1      -8.884  36.689  31.782  1.00  0.00    -0.346 OA
ATOM     20  H1  UNL     1      -9.721  37.077  31.556  1.00  0.00     0.219 HD
ENDBRANCH   4  19
TORSDOF 5
ENDMDL
MODEL 2
REMARK VINA RESULT: -5.339409648      1.032      2.150
REMARK  5 active torsions:
REMARK  status: ('A' for Active; 'I' for Inactive)
REMARK    1  A    between atoms: C4_4  and  O1_5 
REMARK    2  A    between atoms: N2_10  and  N3_12 
REMARK    3  A    between atoms: N3_12  and  C7_14 
REMARK    4  A    between atoms: C7_14  and  C8_15 
REMARK    5  A    between atoms: C8_15  and  N4_16 
ROOT
HETATM    1  C1  UNL     1      -8.226  31.845  31.732  1.00  0.00     0.048 C 
HETATM    2  C2  UNL     1      -8.155  33.157  31.038  1.00  0.00    -0.054 A 
HETATM    3  C3  UNL     1      -8.508  34.301  31.735  1.00  0.00     0.062 A 
HETATM    4  C4  UNL     1      -8.439  35.498  31.087  1.00  0.00     0.141 A 
HETATM    5  N1  UNL     1      -8.031  35.565  29.783  1.00  0.00    -0.323 N 
ATOM      6  H1  UNL     1      -7.991  36.478  29.332  1.00  0.00     0.169 HD
HETATM    7  C5  UNL     1      -7.682  34.490  29.075  1.00  0.00     0.118 A 
HETATM    8  N2  UNL     1      -7.295  34.507  27.857  1.00  0.00    -0.305 N 
ATOM      9  H2  UNL     1      -7.048  33.631  27.397  1.00  0.00     0.182 HD
HETATM   10  C9  UNL     1      -7.747  33.257  29.726  1.00  0.00     0.056 A 
ENDROOT
BRANCH   8  11
HETATM   11  N3  UNL     1      -7.207  35.683  27.158  1.00  0.00    -0.233 NA
HETATM   12  C6  UNL     1      -8.534  36.163  26.825  1.00  0.00     0.136 C 
BRANCH  11  13
HETATM   13  C7  UNL     1      -6.432  36.699  27.852  1.00  0.00     0.140 C 
BRANCH  13  14
HETATM   14  C8  UNL     1      -4.951  36.514  27.706  1.00  0.00     0.245 C 
BRANCH  14  15
HETATM   15  N4  UNL     1      -4.200  37.284  28.677  1.00  0.00    -0.078 N 
ATOM     16  H43 UNL     1      -3.646  38.009  28.222  1.00  0.00     0.274 HD
ATOM     17  H42 UNL     1      -4.817  37.876  29.234  1.00  0.00     0.274 HD
ATOM     18  H41 UNL     1      -3.618  36.696  29.274  1.00  0.00     0.274 HD
ENDBRANCH  14  15
ENDBRANCH  13  14
ENDBRANCH  11  13
ENDBRANCH   8  11
BRANCH   4  19
HETATM   19  O1  UNL     1      -8.786  36.675  31.749  1.00  0.00    -0.346 OA
ATOM     20  H1  UNL     1      -8.527  37.518  31.393  1.00  0.00     0.219 HD
ENDBRANCH   4  19
TORSDOF 5
ENDMDL
MODEL 3
REMARK VINA RESULT: -5.121846180      2.589      5.532
REMARK  5 active torsions:
REMARK  status: ('A' for Active; 'I' for Inactive)
REMARK    1  A    between atoms: C4_4  and  O1_5 
REMARK    2  A    between atoms: N2_10  and  N3_12 
REMARK    3  A    between atoms: N3_12  and  C7_14 
REMARK    4  A    between atoms: C7_14  and  C8_15 
REMARK    5  A    between atoms: C8_15  and  N4_16 
ROOT
HETATM    1  C1  UNL     1      -6.717  35.961  26.846  1.00  0.00     0.048 C 
HETATM    2  C2  UNL     1      -7.630  35.425  27.888  1.00  0.00    -0.054 A 
HETATM    3  C3  UNL     1      -8.926  35.908  27.951  1.00  0.00     0.062 A 
HETATM    4  C4  UNL     1      -9.754  35.408  28.913  1.00  0.00     0.141 A 
HETATM    5  N1  UNL     1      -9.313  34.455  29.789  1.00  0.00    -0.323 N 
ATOM      6  H1  UNL     1      -9.961  34.105  30.494  1.00  0.00     0.169 HD
HETATM    7  C5  UNL     1      -8.074  33.963  29.764  1.00  0.00     0.118 A 
HETATM    8  N2  UNL     1      -7.620  33.074  30.563  1.00  0.00    -0.305 N 
ATOM      9  H2  UNL     1      -6.656  32.758  30.466  1.00  0.00     0.182 HD
HETATM   10  C9  UNL     1      -7.215  34.465  28.785  1.00  0.00     0.056 A 
ENDROOT
BRANCH   8  11
HETATM   11  N3  UNL     1      -8.409  32.537  31.547  1.00  0.00    -0.233 NA
HETATM   12  C6  UNL     1      -7.950  31.202  31.878  1.00  0.00     0.136 C 
BRANCH  11  13
HETATM   13  C7  UNL     1      -8.493  33.380  32.729  1.00  0.00     0.140 C 
BRANCH  13  14
HETATM   14  C8  UNL     1      -8.442  32.605  34.012  1.00  0.00     0.245 C 
BRANCH  14  15
HETATM   15  N4  UNL     1      -8.864  33.394  35.151  1.00  0.00    -0.078 N 
ATOM     16  H43 UNL     1      -8.087  33.562  35.791  1.00  0.00     0.274 HD
ATOM     17  H42 UNL     1      -9.061  34.357  34.879  1.00  0.00     0.274 HD
ATOM     18  H41 UNL     1      -9.658  32.980  35.639  1.00  0.00     0.274 HD
ENDBRANCH  14  15
ENDBRANCH  13  14
ENDBRANCH  11  13
ENDBRANCH   8  11
BRANCH   4  19
HETATM   19  O1  UNL     1     -11.068  35.865  29.014  1.00  0.00    -0.346 OA
ATOM     20  H1  UNL     1     -11.529  35.814  29.843  1.00  0.00     0.219 HD
ENDBRANCH   4  19
TORSDOF 5
ENDMDL
MODEL 4
REMARK VINA RESULT: -4.687400718      2.558      5.122
REMARK  5 active torsions:
REMARK  status: ('A' for Active; 'I' for Inactive)
REMARK    1  A    between atoms: C4_4  and  O1_5 
REMARK    2  A    between atoms: N2_10  and  N3_12 
REMARK    3  A    between atoms: N3_12  and  C7_14 
REMARK    4  A    between atoms: C7_14  and  C8_15 
REMARK    5  A    between atoms: C8_15  and  N4_16 
ROOT
HETATM    1  C1  UNL     1      -4.721  37.948  29.019  1.00  0.00     0.048 C 
HETATM    2  C2  UNL     1      -5.717  36.936  28.580  1.00  0.00    -0.054 A 
HETATM    3  C3  UNL     1      -5.586  36.374  27.321  1.00  0.00     0.062 A 
HETATM    4  C4  UNL     1      -6.507  35.447  26.930  1.00  0.00     0.141 A 
HETATM    5  N1  UNL     1      -7.531  35.086  27.761  1.00  0.00    -0.323 N 
ATOM      6  H1  UNL     1      -8.200  34.389  27.434  1.00  0.00     0.169 HD
HETATM    7  C5  UNL     1      -7.695  35.602  28.980  1.00  0.00     0.118 A 
HETATM    8  N2  UNL     1      -8.637  35.293  29.787  1.00  0.00    -0.305 N 
ATOM      9  H2  UNL     1      -8.680  35.742  30.701  1.00  0.00     0.182 HD
HETATM   10  C9  UNL     1      -6.760  36.551  29.393  1.00  0.00     0.056 A 
ENDROOT
BRANCH   8  11
HETATM   11  N3  UNL     1      -9.588  34.367  29.445  1.00  0.00    -0.233 NA
HETATM   12  C6  UNL     1      -9.869  34.445  28.025  1.00  0.00     0.136 C 
BRANCH  11  13
HETATM   13  C7  UNL     1      -9.234  33.015  29.845  1.00  0.00     0.140 C 
BRANCH  13  14
HETATM   14  C8  UNL     1      -8.048  32.961  30.760  1.00  0.00     0.245 C 
BRANCH  14  15
HETATM   15  N4  UNL     1      -8.182  31.937  31.777  1.00  0.00    -0.078 N 
ATOM     16  H43 UNL     1      -7.474  32.046  32.504  1.00  0.00     0.274 HD
ATOM     17  H42 UNL     1      -9.018  32.085  32.340  1.00  0.00     0.274 HD
ATOM     18  H41 UNL     1      -8.164  30.995  31.385  1.00  0.00     0.274 HD
ENDBRANCH  14  15
ENDBRANCH  13  14
ENDBRANCH  11  13
ENDBRANCH   8  11
BRANCH   4  19
HETATM   19  O1  UNL     1      -6.414  34.855  25.671  1.00  0.00    -0.346 OA
ATOM     20  H1  UNL     1      -5.665  35.033  25.113  1.00  0.00     0.219 HD
ENDBRANCH   4  19
TORSDOF 5
ENDMDL
MODEL 5
REMARK VINA RESULT: -4.625488702      1.256      1.550
REMARK  5 active torsions:
REMARK  status: ('A' for Active; 'I' for Inactive)
REMARK    1  A    between atoms: C4_4  and  O1_5 
REMARK    2  A    between atoms: N2_10  and  N3_12 
REMARK    3  A    between atoms: N3_12  and  C7_14 
REMARK    4  A    between atoms: C7_14  and  C8_15 
REMARK    5  A    between atoms: C8_15  and  N4_16 
ROOT
HETATM    1  C1  UNL     1      -8.073  31.485  31.931  1.00  0.00     0.048 C 
HETATM    2  C2  UNL     1      -8.177  32.831  31.310  1.00  0.00    -0.054 A 
HETATM    3  C3  UNL     1      -8.403  33.926  32.128  1.00  0.00     0.062 A 
HETATM    4  C4  UNL     1      -8.497  35.156  31.546  1.00  0.00     0.141 A 
HETATM    5  N1  UNL     1      -8.371  35.300  30.192  1.00  0.00    -0.323 N 
ATOM      6  H1  UNL     1      -8.447  36.236  29.793  1.00  0.00     0.169 HD
HETATM    7  C5  UNL     1      -8.153  34.274  29.368  1.00  0.00     0.118 A 
HETATM    8  N2  UNL     1      -8.029  34.364  28.099  1.00  0.00    -0.305 N 
ATOM      9  H2  UNL     1      -7.865  33.520  27.551  1.00  0.00     0.182 HD
HETATM   10  C9  UNL     1      -8.054  33.009  29.950  1.00  0.00     0.056 A 
ENDROOT
BRANCH   8  11
HETATM   11  N3  UNL     1      -8.115  35.575  27.463  1.00  0.00    -0.233 NA
HETATM   12  C6  UNL     1      -9.204  36.352  28.021  1.00  0.00     0.136 C 
BRANCH  11  13
HETATM   13  C7  UNL     1      -6.865  36.317  27.485  1.00  0.00     0.140 C 
BRANCH  13  14
HETATM   14  C8  UNL     1      -5.997  36.047  26.293  1.00  0.00     0.245 C 
BRANCH  14  15
HETATM   15  N4  UNL     1      -6.768  35.822  25.087  1.00  0.00    -0.078 N 
ATOM     16  H43 UNL     1      -7.766  35.936  25.262  1.00  0.00     0.274 HD
ATOM     17  H42 UNL     1      -6.633  36.579  24.418  1.00  0.00     0.274 HD
ATOM     18  H41 UNL     1      -6.571  34.916  24.664  1.00  0.00     0.274 HD
ENDBRANCH  14  15
ENDBRANCH  13  14
ENDBRANCH  11  13
ENDBRANCH   8  11
BRANCH   4  19
HETATM   19  O1  UNL     1      -8.724  36.287  32.330  1.00  0.00    -0.346 OA
ATOM     20  H1  UNL     1      -9.524  36.364  32.836  1.00  0.00     0.219 HD
ENDBRANCH   4  19
TORSDOF 5
ENDMDL
