MODEL 1
REMARK VINA RESULT: -9.490651259      0.000      0.000
REMARK  2 active torsions:
REMARK  status: ('A' for Active; 'I' for Inactive)
REMARK    1  A    between atoms: C3_3  and  C4_4 
REMARK    2  A    between atoms: C4_4  and  N1_5 
ROOT
HETATM    1  C1  UNL     1       6.274 -13.501 -27.777  1.00  0.00     0.013 C 
HETATM    2  C2  UNL     1       5.937 -13.830 -26.654  1.00  0.00    -0.102 C 
HETATM    3  C3  UNL     1       5.514 -14.207 -25.287  1.00  0.00     0.054 C 
HETATM    4  C15 UNL     1       4.174 -14.884 -25.211  1.00  0.00     0.028 C 
HETATM    5  C16 UNL     1       4.869 -16.132 -25.788  1.00  0.00     0.004 C 
HETATM    6  C17 UNL     1       6.102 -15.638 -25.073  1.00  0.00     0.028 C 
ENDROOT
BRANCH   3   7
HETATM    7  C4  UNL     1       5.911 -13.274 -24.218  1.00  0.00     0.081 C 
BRANCH   7   8
HETATM    8  N1  UNL     1       5.224 -12.073 -24.024  1.00  0.00    -0.386 N 
HETATM    9  C5  UNL     1       3.839 -12.138 -24.486  1.00  0.00     0.127 C 
HETATM   10  C6  UNL     1       2.840 -11.412 -23.680  1.00  0.00     0.060 C 
HETATM   11  C7  UNL     1       3.037  -9.903 -23.748  1.00  0.00    -0.029 A 
HETATM   12  C8  UNL     1       4.222  -9.294 -23.454  1.00  0.00    -0.002 A 
HETATM   13  C11 UNL     1       2.005  -9.103 -24.120  1.00  0.00     0.023 A 
HETATM   14  S1  UNL     1       3.887  -7.646 -23.695  1.00  0.00    -0.074 SA
HETATM   15  C12 UNL     1       5.458  -9.970 -23.034  1.00  0.00     0.051 A 
HETATM   16  C9  UNL     1       2.252  -7.758 -24.164  1.00  0.00     0.101 A 
HETATM   17  N2  UNL     1       1.142  -7.061 -24.549  1.00  0.00    -0.293 N 
HETATM   18  N3  UNL     1       0.183  -7.940 -24.753  1.00  0.00    -0.310 N 
ATOM     19  H2  UNL     1       1.070  -6.049 -24.657  1.00  0.00     0.187 HD
HETATM   20  C10 UNL     1       0.644  -9.175 -24.512  1.00  0.00     0.122 A 
ATOM     21  H3  UNL     1      -0.766  -7.715 -25.050  1.00  0.00     0.186 HD
HETATM   22  C13 UNL     1       6.734  -9.961 -23.643  1.00  0.00     0.038 A 
HETATM   23  C14 UNL     1       5.823 -10.833 -24.295  1.00  0.00     0.093 A 
ENDBRANCH   7   8
ENDBRANCH   3   7
TORSDOF 2
ENDMDL
MODEL 2
REMARK VINA RESULT: -9.388714060      1.964      2.635
REMARK  2 active torsions:
REMARK  status: ('A' for Active; 'I' for Inactive)
REMARK    1  A    between atoms: C3_3  and  C4_4 
REMARK    2  A    between atoms: C4_4  and  N1_5 
ROOT
HETATM    1  C1  UNL     1       8.363 -12.240 -24.750  1.00  0.00     0.013 C 
HETATM    2  C2  UNL     1       7.437 -12.974 -25.047  1.00  0.00    -0.102 C 
HETATM    3  C3  UNL     1       6.297 -13.845 -25.405  1.00  0.00     0.054 C 
HETATM    4  C15 UNL     1       5.881 -13.772 -26.848  1.00  0.00     0.028 C 
HETATM    5  C16 UNL     1       7.145 -14.595 -27.162  1.00  0.00     0.004 C 
HETATM    6  C17 UNL     1       6.950 -15.208 -25.798  1.00  0.00     0.028 C 
ENDROOT
BRANCH   3   7
HETATM    7  C4  UNL     1       5.264 -14.001 -24.365  1.00  0.00     0.081 C 
BRANCH   7   8
HETATM    8  N1  UNL     1       4.206 -13.094 -24.265  1.00  0.00    -0.386 N 
HETATM    9  C5  UNL     1       2.916 -13.700 -24.591  1.00  0.00     0.127 C 
HETATM   10  C6  UNL     1       1.757 -13.248 -23.798  1.00  0.00     0.060 C 
HETATM   11  C7  UNL     1       1.407 -11.792 -24.076  1.00  0.00    -0.029 A 
HETATM   12  C8  UNL     1       2.311 -10.776 -23.969  1.00  0.00    -0.002 A 
HETATM   13  C11 UNL     1       0.145 -11.462 -24.454  1.00  0.00     0.023 A 
HETATM   14  S1  UNL     1       1.407  -9.399 -24.388  1.00  0.00    -0.074 SA
HETATM   15  C12 UNL     1       3.721 -10.915 -23.577  1.00  0.00     0.051 A 
HETATM   16  C9  UNL     1      -0.100 -10.136 -24.691  1.00  0.00     0.101 A 
HETATM   17  N2  UNL     1      -1.399  -9.929 -25.062  1.00  0.00    -0.293 N 
HETATM   18  N3  UNL     1      -1.993 -11.104 -25.066  1.00  0.00    -0.310 N 
ATOM     19  H2  UNL     1      -1.827  -9.033 -25.292  1.00  0.00     0.187 HD
HETATM   20  C10 UNL     1      -1.117 -12.054 -24.711  1.00  0.00     0.122 A 
ATOM     21  H3  UNL     1      -2.971 -11.267 -25.304  1.00  0.00     0.186 HD
HETATM   22  C13 UNL     1       4.887 -10.560 -24.294  1.00  0.00     0.038 A 
HETATM   23  C14 UNL     1       4.318 -11.780 -24.745  1.00  0.00     0.093 A 
ENDBRANCH   7   8
ENDBRANCH   3   7
TORSDOF 2
ENDMDL
MODEL 3
REMARK VINA RESULT: -9.376456821      1.291      1.548
REMARK  2 active torsions:
REMARK  status: ('A' for Active; 'I' for Inactive)
REMARK    1  A    between atoms: C3_3  and  C4_4 
REMARK    2  A    between atoms: C4_4  and  N1_5 
ROOT
HETATM    1  C1  UNL     1       9.310 -12.991 -25.944  1.00  0.00     0.013 C 
HETATM    2  C2  UNL     1       8.163 -13.343 -25.732  1.00  0.00    -0.102 C 
HETATM    3  C3  UNL     1       6.764 -13.744 -25.470  1.00  0.00     0.054 C 
HETATM    4  C15 UNL     1       5.860 -13.683 -26.670  1.00  0.00     0.028 C 
HETATM    5  C16 UNL     1       6.571 -14.957 -27.162  1.00  0.00     0.004 C 
HETATM    6  C17 UNL     1       6.747 -15.289 -25.701  1.00  0.00     0.028 C 
ENDROOT
BRANCH   3   7
HETATM    7  C4  UNL     1       6.231 -13.372 -24.147  1.00  0.00     0.081 C 
BRANCH   7   8
HETATM    8  N1  UNL     1       5.289 -12.350 -24.016  1.00  0.00    -0.386 N 
HETATM    9  C5  UNL     1       3.959 -12.751 -24.471  1.00  0.00     0.127 C 
HETATM   10  C6  UNL     1       2.814 -12.229 -23.703  1.00  0.00     0.060 C 
HETATM   11  C7  UNL     1       2.665 -10.721 -23.853  1.00  0.00    -0.029 A 
HETATM   12  C8  UNL     1       3.678  -9.844 -23.596  1.00  0.00    -0.002 A 
HETATM   13  C11 UNL     1       1.482 -10.196 -24.265  1.00  0.00     0.023 A 
HETATM   14  S1  UNL     1       2.981  -8.329 -23.925  1.00  0.00    -0.074 SA
HETATM   15  C12 UNL     1       5.031 -10.199 -23.143  1.00  0.00     0.051 A 
HETATM   16  C9  UNL     1       1.419  -8.834 -24.383  1.00  0.00     0.101 A 
HETATM   17  N2  UNL     1       0.183  -8.428 -24.802  1.00  0.00    -0.293 N 
HETATM   18  N3  UNL     1      -0.549  -9.511 -24.956  1.00  0.00    -0.310 N 
ATOM     19  H2  UNL     1      -0.115  -7.467 -24.965  1.00  0.00     0.187 HD
HETATM   20  C10 UNL     1       0.177 -10.595 -24.649  1.00  0.00     0.122 A 
ATOM     21  H3  UNL     1      -1.522  -9.523 -25.262  1.00  0.00     0.186 HD
HETATM   22  C13 UNL     1       6.278  -9.933 -23.755  1.00  0.00     0.038 A 
HETATM   23  C14 UNL     1       5.594 -11.023 -24.356  1.00  0.00     0.093 A 
ENDBRANCH   7   8
ENDBRANCH   3   7
TORSDOF 2
ENDMDL
MODEL 4
REMARK VINA RESULT: -9.136848083      0.960      1.811
REMARK  2 active torsions:
REMARK  status: ('A' for Active; 'I' for Inactive)
REMARK    1  A    between atoms: C3_3  and  C4_4 
REMARK    2  A    between atoms: C4_4  and  N1_5 
ROOT
HETATM    1  C1  UNL     1       4.780 -16.232 -25.461  1.00  0.00     0.013 C 
HETATM    2  C2  UNL     1       5.522 -15.268 -25.405  1.00  0.00    -0.102 C 
HETATM    3  C3  UNL     1       6.434 -14.107 -25.314  1.00  0.00     0.054 C 
HETATM    4  C15 UNL     1       7.787 -14.324 -25.934  1.00  0.00     0.028 C 
HETATM    5  C16 UNL     1       7.086 -14.194 -27.299  1.00  0.00     0.004 C 
HETATM    6  C17 UNL     1       6.129 -13.265 -26.594  1.00  0.00     0.028 C 
ENDROOT
BRANCH   3   7
HETATM    7  C4  UNL     1       6.327 -13.307 -24.082  1.00  0.00     0.081 C 
BRANCH   7   8
HETATM    8  N1  UNL     1       5.364 -12.303 -23.961  1.00  0.00    -0.386 N 
HETATM    9  C5  UNL     1       4.048 -12.727 -24.438  1.00  0.00     0.127 C 
HETATM   10  C6  UNL     1       2.882 -12.229 -23.685  1.00  0.00     0.060 C 
HETATM   11  C7  UNL     1       2.708 -10.723 -23.832  1.00  0.00    -0.029 A 
HETATM   12  C8  UNL     1       3.701  -9.828 -23.556  1.00  0.00    -0.002 A 
HETATM   13  C11 UNL     1       1.522 -10.219 -24.260  1.00  0.00     0.023 A 
HETATM   14  S1  UNL     1       2.981  -8.326 -23.890  1.00  0.00    -0.074 SA
HETATM   15  C12 UNL     1       5.053 -10.160 -23.084  1.00  0.00     0.051 A 
HETATM   16  C9  UNL     1       1.435  -8.857 -24.373  1.00  0.00     0.101 A 
HETATM   17  N2  UNL     1       0.199  -8.472 -24.810  1.00  0.00    -0.293 N 
HETATM   18  N3  UNL     1      -0.511  -9.568 -24.979  1.00  0.00    -0.310 N 
ATOM     19  H2  UNL     1      -0.114  -7.516 -24.974  1.00  0.00     0.187 HD
HETATM   20  C10 UNL     1       0.230 -10.639 -24.665  1.00  0.00     0.122 A 
ATOM     21  H3  UNL     1      -1.479  -9.597 -25.300  1.00  0.00     0.186 HD
HETATM   22  C13 UNL     1       6.304  -9.870 -23.676  1.00  0.00     0.038 A 
HETATM   23  C14 UNL     1       5.649 -10.969 -24.292  1.00  0.00     0.093 A 
ENDBRANCH   7   8
ENDBRANCH   3   7
TORSDOF 2
ENDMDL
MODEL 5
REMARK VINA RESULT: -9.014918611      2.587      6.611
REMARK  2 active torsions:
REMARK  status: ('A' for Active; 'I' for Inactive)
REMARK    1  A    between atoms: C3_3  and  C4_4 
REMARK    2  A    between atoms: C4_4  and  N1_5 
ROOT
HETATM    1  C1  UNL     1       1.566  -7.353 -23.962  1.00  0.00     0.013 C 
HETATM    2  C2  UNL     1       2.685  -7.331 -23.478  1.00  0.00    -0.102 C 
HETATM    3  C3  UNL     1       4.048  -7.327 -22.906  1.00  0.00     0.054 C 
HETATM    4  C15 UNL     1       5.069  -6.590 -23.728  1.00  0.00     0.028 C 
HETATM    5  C16 UNL     1       4.407  -5.292 -23.229  1.00  0.00     0.004 C 
HETATM    6  C17 UNL     1       4.083  -6.070 -21.979  1.00  0.00     0.028 C 
ENDROOT
BRANCH   3   7
HETATM    7  C4  UNL     1       4.445  -8.555 -22.196  1.00  0.00     0.081 C 
BRANCH   7   8
HETATM    8  N1  UNL     1       4.928  -9.663 -22.897  1.00  0.00    -0.386 N 
HETATM    9  C5  UNL     1       3.904 -10.684 -23.108  1.00  0.00     0.127 C 
HETATM   10  C6  UNL     1       3.941 -11.400 -24.397  1.00  0.00     0.060 C 
HETATM   11  C7  UNL     1       5.177 -12.281 -24.526  1.00  0.00    -0.029 A 
HETATM   12  C8  UNL     1       6.447 -11.810 -24.359  1.00  0.00    -0.002 A 
HETATM   13  C11 UNL     1       5.038 -13.600 -24.815  1.00  0.00     0.023 A 
HETATM   14  S1  UNL     1       7.412 -13.187 -24.603  1.00  0.00    -0.074 SA
HETATM   15  C12 UNL     1       6.817 -10.423 -24.042  1.00  0.00     0.051 A 
HETATM   16  C9  UNL     1       6.189 -14.334 -24.912  1.00  0.00     0.101 A 
HETATM   17  N2  UNL     1       5.922 -15.642 -25.206  1.00  0.00    -0.293 N 
HETATM   18  N3  UNL     1       4.614 -15.759 -25.299  1.00  0.00    -0.310 N 
ATOM     19  H2  UNL     1       6.607 -16.387 -25.330  1.00  0.00     0.187 HD
HETATM   20  C10 UNL     1       4.037 -14.570 -25.075  1.00  0.00     0.122 A 
ATOM     21  H3  UNL     1       4.115 -16.623 -25.511  1.00  0.00     0.186 HD
HETATM   22  C13 UNL     1       7.539  -9.921 -22.935  1.00  0.00     0.038 A 
HETATM   23  C14 UNL     1       6.187 -10.216 -22.617  1.00  0.00     0.093 A 
ENDBRANCH   7   8
ENDBRANCH   3   7
TORSDOF 2
ENDMDL
