MODEL 1
REMARK VINA RESULT: -9.969468294      0.000      0.000
REMARK  3 active torsions:
REMARK  status: ('A' for Active; 'I' for Inactive)
REMARK    1  A    between atoms: C1_6  and  C2_7 
REMARK    2  A    between atoms: N3_15  and  C8_17 
REMARK    3  A    between atoms: C13_22  and  C14_23 
ROOT
HETATM    1  O1  UNL     1       0.763  -6.737 -22.861  1.00  0.00    -0.200 OA
HETATM    2  S1  UNL     1       1.604  -6.699 -24.119  1.00  0.00     0.265 S 
HETATM    3  O2  UNL     1       1.901  -5.270 -24.465  1.00  0.00    -0.200 OA
HETATM    4  N1  UNL     1       3.089  -7.496 -23.741  1.00  0.00    -0.275 N 
ATOM      5  H1  UNL     1       3.841  -6.865 -23.465  1.00  0.00     0.179 HD
HETATM    6  C1  UNL     1       3.423  -8.742 -23.742  1.00  0.00     0.113 C 
HETATM    7  C7  UNL     1       2.565  -9.887 -24.090  1.00  0.00     0.136 C 
HETATM    8  N3  UNL     1       2.881 -10.968 -23.460  1.00  0.00    -0.340 N 
ATOM      9  H3  UNL     1       3.662 -10.941 -22.803  1.00  0.00     0.167 HD
HETATM   10  N4  UNL     1       1.497  -9.886 -25.000  1.00  0.00    -0.339 N 
ATOM     11  H4  UNL     1       1.135 -10.822 -25.185  1.00  0.00     0.167 HD
HETATM   12  C16 UNL     1       0.806  -8.877 -25.722  1.00  0.00     0.057 A 
HETATM   13  C17 UNL     1       0.098  -9.362 -26.810  1.00  0.00     0.031 A 
HETATM   14  C18 UNL     1      -0.633  -8.526 -27.625  1.00  0.00     0.002 A 
HETATM   15  C19 UNL     1      -0.645  -7.178 -27.332  1.00  0.00     0.002 A 
HETATM   16  C20 UNL     1       0.060  -6.699 -26.248  1.00  0.00     0.027 A 
HETATM   17  C21 UNL     1       0.796  -7.532 -25.425  1.00  0.00     0.106 A 
ENDROOT
BRANCH   6  18
HETATM   18  C2  UNL     1       4.796  -9.040 -23.358  1.00  0.00     0.063 A 
HETATM   19  C3  UNL     1       5.769  -8.992 -24.331  1.00  0.00     0.032 A 
HETATM   20  C4  UNL     1       7.071  -9.269 -23.985  1.00  0.00     0.004 A 
HETATM   21  C5  UNL     1       7.379  -9.584 -22.698  1.00  0.00     0.017 A 
HETATM   22  C6  UNL     1       6.400  -9.629 -21.730  1.00  0.00     0.088 A 
HETATM   23  N2  UNL     1       5.138  -9.354 -22.095  1.00  0.00    -0.364 N 
ATOM     24  H2  UNL     1       4.407  -9.385 -21.385  1.00  0.00     0.165 HD
ENDBRANCH   6  18
BRANCH   8  25
HETATM   25  C8  UNL     1       2.186 -12.195 -23.642  1.00  0.00     0.044 A 
HETATM   26  C9  UNL     1       0.917 -12.390 -23.202  1.00  0.00     0.030 A 
HETATM   27  C10 UNL     1       0.282 -13.587 -23.398  1.00  0.00     0.002 A 
HETATM   28  C11 UNL     1       0.895 -14.634 -24.041  1.00  0.00     0.001 A 
HETATM   29  C12 UNL     1       2.197 -14.425 -24.488  1.00  0.00     0.014 A 
HETATM   30  C13 UNL     1       2.856 -13.238 -24.307  1.00  0.00    -0.009 A 
BRANCH  30  31
HETATM   31  C14 UNL     1       4.206 -13.042 -24.780  1.00  0.00     0.025 C 
HETATM   32  C15 UNL     1       5.105 -13.865 -25.184  1.00  0.00     0.085 C 
HETATM   33 CL1  UNL     1       5.104 -15.579 -25.348  1.00  0.00    -0.097 Cl
ENDBRANCH  30  31
ENDBRANCH   8  25
TORSDOF 3
ENDMDL
MODEL 2
REMARK VINA RESULT: -9.763733095      3.070      4.862
REMARK  3 active torsions:
REMARK  status: ('A' for Active; 'I' for Inactive)
REMARK    1  A    between atoms: C1_6  and  C2_7 
REMARK    2  A    between atoms: N3_15  and  C8_17 
REMARK    3  A    between atoms: C13_22  and  C14_23 
ROOT
HETATM    1  O1  UNL     1       5.083  -9.388 -21.623  1.00  0.00    -0.200 OA
HETATM    2  S1  UNL     1       5.524  -9.370 -23.070  1.00  0.00     0.265 S 
HETATM    3  O2  UNL     1       6.990  -9.059 -23.130  1.00  0.00    -0.200 OA
HETATM    4  N1  UNL     1       5.272 -10.966 -23.680  1.00  0.00    -0.275 N 
ATOM      5  H1  UNL     1       6.101 -11.559 -23.649  1.00  0.00     0.179 HD
HETATM    6  C1  UNL     1       4.229 -11.548 -24.168  1.00  0.00     0.113 C 
HETATM    7  C7  UNL     1       2.890 -10.961 -24.342  1.00  0.00     0.136 C 
HETATM    8  N3  UNL     1       1.940 -11.829 -24.250  1.00  0.00    -0.340 N 
ATOM      9  H3  UNL     1       2.183 -12.804 -24.072  1.00  0.00     0.167 HD
HETATM   10  N4  UNL     1       2.593  -9.611 -24.586  1.00  0.00    -0.339 N 
ATOM     11  H4  UNL     1       1.610  -9.457 -24.809  1.00  0.00     0.167 HD
HETATM   12  C16 UNL     1       3.353  -8.410 -24.592  1.00  0.00     0.057 A 
HETATM   13  C17 UNL     1       2.746  -7.376 -25.285  1.00  0.00     0.031 A 
HETATM   14  C18 UNL     1       3.338  -6.137 -25.394  1.00  0.00     0.002 A 
HETATM   15  C19 UNL     1       4.564  -5.946 -24.793  1.00  0.00     0.002 A 
HETATM   16  C20 UNL     1       5.165  -6.978 -24.103  1.00  0.00     0.027 A 
HETATM   17  C21 UNL     1       4.577  -8.225 -23.989  1.00  0.00     0.106 A 
ENDROOT
BRANCH   6  18
HETATM   18  C2  UNL     1       4.402 -12.932 -24.588  1.00  0.00     0.063 A 
HETATM   19  C3  UNL     1       5.684 -13.404 -24.756  1.00  0.00     0.032 A 
HETATM   20  C4  UNL     1       5.866 -14.710 -25.153  1.00  0.00     0.004 A 
HETATM   21  C5  UNL     1       4.787 -15.509 -25.370  1.00  0.00     0.017 A 
HETATM   22  C6  UNL     1       3.507 -15.028 -25.199  1.00  0.00     0.088 A 
HETATM   23  N2  UNL     1       3.360 -13.752 -24.812  1.00  0.00    -0.364 N 
ATOM     24  H2  UNL     1       2.416 -13.388 -24.683  1.00  0.00     0.165 HD
ENDBRANCH   6  18
BRANCH   8  25
HETATM   25  C8  UNL     1       0.566 -11.483 -24.387  1.00  0.00     0.044 A 
HETATM   26  C9  UNL     1       0.102 -10.718 -25.407  1.00  0.00     0.030 A 
HETATM   27  C10 UNL     1      -1.228 -10.408 -25.503  1.00  0.00     0.002 A 
HETATM   28  C11 UNL     1      -2.142 -10.851 -24.580  1.00  0.00     0.001 A 
HETATM   29  C12 UNL     1      -1.656 -11.635 -23.536  1.00  0.00     0.014 A 
HETATM   30  C13 UNL     1      -0.331 -11.961 -23.416  1.00  0.00    -0.009 A 
BRANCH  30  31
HETATM   31  C14 UNL     1       0.151 -12.776 -22.326  1.00  0.00     0.025 C 
HETATM   32  C15 UNL     1      -0.447 -13.327 -21.332  1.00  0.00     0.085 C 
HETATM   33 CL1  UNL     1      -2.101 -13.345 -20.851  1.00  0.00    -0.097 Cl
ENDBRANCH  30  31
ENDBRANCH   8  25
TORSDOF 3
ENDMDL
MODEL 3
REMARK VINA RESULT: -9.740071804      2.073      4.865
REMARK  3 active torsions:
REMARK  status: ('A' for Active; 'I' for Inactive)
REMARK    1  A    between atoms: C1_6  and  C2_7 
REMARK    2  A    between atoms: N3_15  and  C8_17 
REMARK    3  A    between atoms: C13_22  and  C14_23 
ROOT
HETATM    1  O1  UNL     1       1.296  -7.105 -26.542  1.00  0.00    -0.200 OA
HETATM    2  S1  UNL     1       0.972  -7.008 -25.067  1.00  0.00     0.265 S 
HETATM    3  O2  UNL     1      -0.143  -6.023 -24.876  1.00  0.00    -0.200 OA
HETATM    4  N1  UNL     1       0.420  -8.571 -24.582  1.00  0.00    -0.275 N 
ATOM      5  H1  UNL     1      -0.595  -8.673 -24.588  1.00  0.00     0.179 HD
HETATM    6  C1  UNL     1       1.052  -9.633 -24.213  1.00  0.00     0.113 C 
HETATM    7  C7  UNL     1       2.511  -9.799 -24.103  1.00  0.00     0.136 C 
HETATM    8  N3  UNL     1       2.901 -11.009 -24.323  1.00  0.00    -0.340 N 
ATOM      9  H3  UNL     1       2.200 -11.717 -24.544  1.00  0.00     0.167 HD
HETATM   10  N4  UNL     1       3.447  -8.799 -23.797  1.00  0.00    -0.339 N 
ATOM     11  H4  UNL     1       4.384  -9.170 -23.640  1.00  0.00     0.167 HD
HETATM   12  C16 UNL     1       3.384  -7.387 -23.656  1.00  0.00     0.057 A 
HETATM   13  C17 UNL     1       4.448  -6.855 -22.946  1.00  0.00     0.031 A 
HETATM   14  C18 UNL     1       4.553  -5.501 -22.713  1.00  0.00     0.002 A 
HETATM   15  C19 UNL     1       3.563  -4.677 -23.207  1.00  0.00     0.002 A 
HETATM   16  C20 UNL     1       2.506  -5.210 -23.913  1.00  0.00     0.027 A 
HETATM   17  C21 UNL     1       2.394  -6.568 -24.151  1.00  0.00     0.106 A 
ENDROOT
BRANCH   6  18
HETATM   18  C2  UNL     1       0.230 -10.785 -23.870  1.00  0.00     0.063 A 
HETATM   19  C3  UNL     1      -1.092 -10.778 -24.257  1.00  0.00     0.032 A 
HETATM   20  C4  UNL     1      -1.883 -11.859 -23.942  1.00  0.00     0.004 A 
HETATM   21  C5  UNL     1      -1.355 -12.911 -23.260  1.00  0.00     0.017 A 
HETATM   22  C6  UNL     1      -0.031 -12.909 -22.877  1.00  0.00     0.088 A 
HETATM   23  N2  UNL     1       0.717 -11.843 -23.197  1.00  0.00    -0.364 N 
ATOM     24  H2  UNL     1       1.698 -11.834 -22.918  1.00  0.00     0.165 HD
ENDBRANCH   6  18
BRANCH   8  25
HETATM   25  C8  UNL     1       4.269 -11.398 -24.270  1.00  0.00     0.044 A 
HETATM   26  C9  UNL     1       5.270 -10.519 -24.009  1.00  0.00     0.030 A 
HETATM   27  C10 UNL     1       6.574 -10.933 -23.967  1.00  0.00     0.002 A 
HETATM   28  C11 UNL     1       6.924 -12.243 -24.183  1.00  0.00     0.001 A 
HETATM   29  C12 UNL     1       5.890 -13.138 -24.450  1.00  0.00     0.014 A 
HETATM   30  C13 UNL     1       4.577 -12.750 -24.498  1.00  0.00    -0.009 A 
BRANCH  30  31
HETATM   31  C14 UNL     1       3.521 -13.695 -24.775  1.00  0.00     0.025 C 
HETATM   32  C15 UNL     1       3.539 -14.914 -25.178  1.00  0.00     0.085 C 
HETATM   33 CL1  UNL     1       4.836 -15.977 -25.570  1.00  0.00    -0.097 Cl
ENDBRANCH  30  31
ENDBRANCH   8  25
TORSDOF 3
ENDMDL
MODEL 4
REMARK VINA RESULT: -8.811449317      3.940      7.615
REMARK  3 active torsions:
REMARK  status: ('A' for Active; 'I' for Inactive)
REMARK    1  A    between atoms: C1_6  and  C2_7 
REMARK    2  A    between atoms: N3_15  and  C8_17 
REMARK    3  A    between atoms: C13_22  and  C14_23 
ROOT
HETATM    1  O1  UNL     1       2.711 -11.112 -22.695  1.00  0.00    -0.200 OA
HETATM    2  S1  UNL     1       3.322 -11.276 -24.070  1.00  0.00     0.265 S 
HETATM    3  O2  UNL     1       3.097 -12.682 -24.540  1.00  0.00    -0.200 OA
HETATM    4  N1  UNL     1       2.470 -10.199 -25.117  1.00  0.00    -0.275 N 
ATOM      5  H1  UNL     1       1.705 -10.637 -25.630  1.00  0.00     0.179 HD
HETATM    6  C1  UNL     1       2.620  -8.943 -25.371  1.00  0.00     0.113 C 
HETATM    7  C7  UNL     1       3.628  -8.040 -24.792  1.00  0.00     0.136 C 
HETATM    8  N3  UNL     1       3.223  -6.818 -24.704  1.00  0.00    -0.340 N 
ATOM      9  H3  UNL     1       2.283  -6.590 -25.027  1.00  0.00     0.167 HD
HETATM   10  N4  UNL     1       4.915  -8.391 -24.357  1.00  0.00    -0.339 N 
ATOM     11  H4  UNL     1       5.487  -7.580 -24.121  1.00  0.00     0.167 HD
HETATM   12  C16 UNL     1       5.603  -9.620 -24.172  1.00  0.00     0.057 A 
HETATM   13  C17 UNL     1       6.980  -9.482 -24.124  1.00  0.00     0.031 A 
HETATM   14  C18 UNL     1       7.807 -10.569 -23.949  1.00  0.00     0.002 A 
HETATM   15  C19 UNL     1       7.228 -11.814 -23.820  1.00  0.00     0.002 A 
HETATM   16  C20 UNL     1       5.857 -11.948 -23.867  1.00  0.00     0.027 A 
HETATM   17  C21 UNL     1       5.019 -10.861 -24.043  1.00  0.00     0.106 A 
ENDROOT
BRANCH   6  18
HETATM   18  C2  UNL     1       1.691  -8.366 -26.332  1.00  0.00     0.063 A 
HETATM   19  C3  UNL     1       2.127  -8.176 -27.624  1.00  0.00     0.032 A 
HETATM   20  C4  UNL     1       1.262  -7.632 -28.546  1.00  0.00     0.004 A 
HETATM   21  C5  UNL     1      -0.001  -7.293 -28.173  1.00  0.00     0.017 A 
HETATM   22  C6  UNL     1      -0.429  -7.486 -26.878  1.00  0.00     0.088 A 
HETATM   23  N2  UNL     1       0.435  -8.018 -26.000  1.00  0.00    -0.364 N 
ATOM     24  H2  UNL     1       0.126  -8.165 -25.040  1.00  0.00     0.165 HD
ENDBRANCH   6  18
BRANCH   8  25
HETATM   25  C8  UNL     1       4.034  -5.775 -24.176  1.00  0.00     0.044 A 
HETATM   26  C9  UNL     1       4.367  -5.701 -22.862  1.00  0.00     0.030 A 
HETATM   27  C10 UNL     1       5.150  -4.681 -22.392  1.00  0.00     0.002 A 
HETATM   28  C11 UNL     1       5.629  -3.697 -23.221  1.00  0.00     0.001 A 
HETATM   29  C12 UNL     1       5.282  -3.781 -24.567  1.00  0.00     0.014 A 
HETATM   30  C13 UNL     1       4.501  -4.790 -25.064  1.00  0.00    -0.009 A 
BRANCH  30  31
HETATM   31  C14 UNL     1       4.154  -4.859 -26.464  1.00  0.00     0.025 C 
HETATM   32  C15 UNL     1       4.775  -4.487 -27.525  1.00  0.00     0.085 C 
HETATM   33 CL1  UNL     1       6.309  -3.739 -27.756  1.00  0.00    -0.097 Cl
ENDBRANCH  30  31
ENDBRANCH   8  25
TORSDOF 3
ENDMDL
MODEL 5
REMARK VINA RESULT: -8.630897685      2.867      5.152
REMARK  3 active torsions:
REMARK  status: ('A' for Active; 'I' for Inactive)
REMARK    1  A    between atoms: C1_6  and  C2_7 
REMARK    2  A    between atoms: N3_15  and  C8_17 
REMARK    3  A    between atoms: C13_22  and  C14_23 
ROOT
HETATM    1  O1  UNL     1      -1.096 -11.764 -27.918  1.00  0.00    -0.200 OA
HETATM    2  S1  UNL     1      -1.527 -10.661 -26.977  1.00  0.00     0.265 S 
HETATM    3  O2  UNL     1      -2.915 -10.224 -27.340  1.00  0.00    -0.200 OA
HETATM    4  N1  UNL     1      -1.560 -11.351 -25.394  1.00  0.00    -0.275 N 
ATOM      5  H1  UNL     1      -2.481 -11.678 -25.103  1.00  0.00     0.179 HD
HETATM    6  C1  UNL     1      -0.636 -11.529 -24.511  1.00  0.00     0.113 C 
HETATM    7  C7  UNL     1       0.785 -11.165 -24.634  1.00  0.00     0.136 C 
HETATM    8  N3  UNL     1       1.567 -11.944 -23.966  1.00  0.00    -0.340 N 
ATOM      9  H3  UNL     1       1.156 -12.711 -23.433  1.00  0.00     0.167 HD
HETATM   10  N4  UNL     1       1.315 -10.101 -25.379  1.00  0.00    -0.339 N 
ATOM     11  H4  UNL     1       2.310  -9.956 -25.207  1.00  0.00     0.167 HD
HETATM   12  C16 UNL     1       0.780  -9.178 -26.317  1.00  0.00     0.057 A 
HETATM   13  C17 UNL     1       1.559  -8.046 -26.486  1.00  0.00     0.031 A 
HETATM   14  C18 UNL     1       1.195  -7.044 -27.359  1.00  0.00     0.002 A 
HETATM   15  C19 UNL     1       0.022  -7.194 -28.068  1.00  0.00     0.002 A 
HETATM   16  C20 UNL     1      -0.752  -8.322 -27.898  1.00  0.00     0.027 A 
HETATM   17  C21 UNL     1      -0.392  -9.333 -27.024  1.00  0.00     0.106 A 
ENDROOT
BRANCH   6  18
HETATM   18  C2  UNL     1      -1.051 -12.157 -23.264  1.00  0.00     0.063 A 
HETATM   19  C3  UNL     1      -0.074 -12.561 -22.383  1.00  0.00     0.032 A 
HETATM   20  C4  UNL     1      -0.448 -13.155 -21.200  1.00  0.00     0.004 A 
HETATM   21  C5  UNL     1      -1.767 -13.333 -20.917  1.00  0.00     0.017 A 
HETATM   22  C6  UNL     1      -2.739 -12.925 -21.805  1.00  0.00     0.088 A 
HETATM   23  N2  UNL     1      -2.345 -12.349 -22.951  1.00  0.00    -0.364 N 
ATOM     24  H2  UNL     1      -3.058 -12.044 -23.613  1.00  0.00     0.165 HD
ENDBRANCH   6  18
BRANCH   8  25
HETATM   25  C8  UNL     1       2.980 -11.778 -23.941  1.00  0.00     0.044 A 
HETATM   26  C9  UNL     1       3.576 -10.643 -23.494  1.00  0.00     0.030 A 
HETATM   27  C10 UNL     1       4.939 -10.523 -23.486  1.00  0.00     0.002 A 
HETATM   28  C11 UNL     1       5.757 -11.534 -23.925  1.00  0.00     0.001 A 
HETATM   29  C12 UNL     1       5.137 -12.695 -24.383  1.00  0.00     0.014 A 
HETATM   30  C13 UNL     1       3.775 -12.842 -24.401  1.00  0.00    -0.009 A 
BRANCH  30  31
HETATM   31  C14 UNL     1       3.153 -14.055 -24.878  1.00  0.00     0.025 C 
HETATM   32  C15 UNL     1       3.640 -15.153 -25.331  1.00  0.00     0.085 C 
HETATM   33 CL1  UNL     1       5.263 -15.677 -25.573  1.00  0.00    -0.097 Cl
ENDBRANCH  30  31
ENDBRANCH   8  25
TORSDOF 3
ENDMDL
