MODEL 1
REMARK VINA RESULT: -6.889457511      0.000      0.000
REMARK  12 active torsions:
REMARK  status: ('A' for Active; 'I' for Inactive)
REMARK    1  A    between atoms: C5_5  and  C6_6 
REMARK    2  A    between atoms: C6_6  and  O1_7 
REMARK    3  A    between atoms: O1_7  and  C7_8 
REMARK    4  A    between atoms: C9_11  and  O3_12 
REMARK    5  A    between atoms: C10_14  and  O4_15 
REMARK    6  A    between atoms: C11_17  and  O5_18 
REMARK    7  A    between atoms: C15_23  and  O6_24 
REMARK    8  A    between atoms: O6_24  and  C16_25 
REMARK    9  A    between atoms: C18_27  and  O7_28 
REMARK   10  A    between atoms: C19_30  and  O8_31 
REMARK   11  A    between atoms: C20_33  and  C21_34 
REMARK   12  A    between atoms: C21_34  and  O9_35 
ROOT
HETATM    1  C1  UNL     1      10.563  14.297  28.066  1.00  0.00     0.018 C 
HETATM    2  C2  UNL     1      11.316  13.474  29.039  1.00  0.00    -0.014 C 
HETATM    3  C3  UNL     1      11.216  13.922  30.471  1.00  0.00     0.012 C 
HETATM    4  C4  UNL     1      10.054  13.200  31.076  1.00  0.00     0.008 C 
HETATM    5  C5  UNL     1       9.497  12.353  29.924  1.00  0.00     0.014 C 
HETATM    6  C12 UNL     1      10.733  12.044  29.180  1.00  0.00     0.002 C 
HETATM    7  C13 UNL     1      11.852  11.434  30.000  1.00  0.00     0.008 C 
HETATM    8  C14 UNL     1      13.127  12.118  29.625  1.00  0.00     0.033 C 
HETATM    9  C15 UNL     1      12.772  13.268  28.703  1.00  0.00     0.133 C 
ENDROOT
BRANCH   5  10
HETATM   10  C6  UNL     1       8.632  11.267  30.416  1.00  0.00     0.176 C 
BRANCH  10  11
HETATM   11  O1  UNL     1       8.192  10.407  29.509  1.00  0.00    -0.358 OA
BRANCH  11  12
HETATM   12  C7  UNL     1       7.634  10.682  28.336  1.00  0.00     0.290 C 
HETATM   13  O2  UNL     1       6.262  10.332  28.416  1.00  0.00    -0.356 OA
HETATM   14  C8  UNL     1       5.678  10.262  27.147  1.00  0.00     0.205 C 
HETATM   15  C9  UNL     1       6.096   8.942  26.528  1.00  0.00     0.173 C 
HETATM   16  C10 UNL     1       7.455   8.559  27.106  1.00  0.00     0.182 C 
HETATM   17  C11 UNL     1       8.254   9.817  27.224  1.00  0.00     0.204 C 
BRANCH  15  18
HETATM   18  O3  UNL     1       5.174   7.961  26.828  1.00  0.00    -0.391 OA
ATOM     19  H3  UNL     1       4.291   8.300  26.738  1.00  0.00     0.210 HD
ENDBRANCH  15  18
BRANCH  16  20
HETATM   20  O4  UNL     1       8.065   7.634  26.288  1.00  0.00    -0.390 OA
ATOM     21  H4  UNL     1       8.517   6.986  26.817  1.00  0.00     0.210 HD
ENDBRANCH  16  20
BRANCH  17  22
HETATM   22  O5  UNL     1       8.272  10.479  26.015  1.00  0.00    -0.388 OA
ATOM     23  H5  UNL     1       8.706  11.322  26.084  1.00  0.00     0.210 HD
ENDBRANCH  17  22
ENDBRANCH  11  12
ENDBRANCH  10  11
ENDBRANCH   5  10
BRANCH   9  24
HETATM   24  O6  UNL     1      13.427  14.437  29.033  1.00  0.00    -0.355 OA
BRANCH  24  25
HETATM   25  C16 UNL     1      14.248  14.928  28.033  1.00  0.00     0.263 C 
HETATM   26  C17 UNL     1      13.879  14.437  26.660  1.00  0.00     0.095 C 
HETATM   27  C18 UNL     1      13.266  15.543  25.818  1.00  0.00     0.154 C 
HETATM   28  C19 UNL     1      14.306  16.638  25.684  1.00  0.00     0.178 C 
HETATM   29  C20 UNL     1      14.795  16.963  27.068  1.00  0.00     0.179 C 
HETATM   30  O10 UNL     1      14.075  16.313  28.044  1.00  0.00    -0.351 OA
BRANCH  27  31
HETATM   31  O7  UNL     1      13.025  15.049  24.549  1.00  0.00    -0.393 OA
ATOM     32  H7  UNL     1      13.018  15.776  23.937  1.00  0.00     0.210 HD
ENDBRANCH  27  31
BRANCH  28  33
HETATM   33  O8  UNL     1      13.752  17.724  25.032  1.00  0.00    -0.390 OA
ATOM     34  H8  UNL     1      12.838  17.549  24.843  1.00  0.00     0.210 HD
ENDBRANCH  28  33
BRANCH  29  35
HETATM   35  C21 UNL     1      14.734  18.448  27.366  1.00  0.00     0.198 C 
BRANCH  35  36
HETATM   36  O9  UNL     1      13.540  18.818  27.969  1.00  0.00    -0.398 OA
ATOM     37  H9  UNL     1      12.781  18.498  27.495  1.00  0.00     0.209 HD
ENDBRANCH  35  36
ENDBRANCH  29  35
ENDBRANCH  24  25
ENDBRANCH   9  24
TORSDOF 12
ENDMDL
MODEL 2
REMARK VINA RESULT: -6.867239116      1.884      9.421
REMARK  12 active torsions:
REMARK  status: ('A' for Active; 'I' for Inactive)
REMARK    1  A    between atoms: C5_5  and  C6_6 
REMARK    2  A    between atoms: C6_6  and  O1_7 
REMARK    3  A    between atoms: O1_7  and  C7_8 
REMARK    4  A    between atoms: C9_11  and  O3_12 
REMARK    5  A    between atoms: C10_14  and  O4_15 
REMARK    6  A    between atoms: C11_17  and  O5_18 
REMARK    7  A    between atoms: C15_23  and  O6_24 
REMARK    8  A    between atoms: O6_24  and  C16_25 
REMARK    9  A    between atoms: C18_27  and  O7_28 
REMARK   10  A    between atoms: C19_30  and  O8_31 
REMARK   11  A    between atoms: C20_33  and  C21_34 
REMARK   12  A    between atoms: C21_34  and  O9_35 
ROOT
HETATM    1  C1  UNL     1      12.029  11.910  24.886  1.00  0.00     0.018 C 
HETATM    2  C2  UNL     1      11.518  12.272  26.227  1.00  0.00    -0.014 C 
HETATM    3  C3  UNL     1      12.081  11.468  27.367  1.00  0.00     0.012 C 
HETATM    4  C4  UNL     1      13.291  12.196  27.861  1.00  0.00     0.008 C 
HETATM    5  C5  UNL     1      13.395  13.420  26.940  1.00  0.00     0.014 C 
HETATM    6  C12 UNL     1      11.970  13.689  26.669  1.00  0.00     0.002 C 
HETATM    7  C13 UNL     1      11.087  13.824  27.894  1.00  0.00     0.008 C 
HETATM    8  C14 UNL     1       9.834  13.046  27.650  1.00  0.00     0.033 C 
HETATM    9  C15 UNL     1      10.014  12.287  26.351  1.00  0.00     0.133 C 
ENDROOT
BRANCH   5  10
HETATM   10  C6  UNL     1      14.253  14.467  27.522  1.00  0.00     0.176 C 
BRANCH  10  11
HETATM   11  O1  UNL     1      15.247  14.903  26.763  1.00  0.00    -0.358 OA
BRANCH  11  12
HETATM   12  C7  UNL     1      15.195  15.831  25.814  1.00  0.00     0.290 C 
HETATM   13  O2  UNL     1      16.457  16.477  25.770  1.00  0.00    -0.356 OA
HETATM   14  C8  UNL     1      16.391  17.677  25.055  1.00  0.00     0.205 C 
HETATM   15  C9  UNL     1      15.766  18.714  25.967  1.00  0.00     0.173 C 
HETATM   16  C10 UNL     1      14.836  17.990  26.936  1.00  0.00     0.182 C 
HETATM   17  C11 UNL     1      14.152  16.907  26.165  1.00  0.00     0.204 C 
BRANCH  15  18
HETATM   18  O3  UNL     1      16.744  19.379  26.676  1.00  0.00    -0.391 OA
ATOM     19  H3  UNL     1      17.071  20.116  26.174  1.00  0.00     0.210 HD
ENDBRANCH  15  18
BRANCH  16  20
HETATM   20  O4  UNL     1      13.938  18.885  27.477  1.00  0.00    -0.390 OA
ATOM     21  H4  UNL     1      13.092  18.466  27.585  1.00  0.00     0.210 HD
ENDBRANCH  16  20
BRANCH  17  22
HETATM   22  O5  UNL     1      13.563  17.432  25.034  1.00  0.00    -0.388 OA
ATOM     23  H5  UNL     1      13.539  16.799  24.327  1.00  0.00     0.210 HD
ENDBRANCH  17  22
ENDBRANCH  11  12
ENDBRANCH  10  11
ENDBRANCH   5  10
BRANCH   9  24
HETATM   24  O6  UNL     1       9.607  10.971  26.441  1.00  0.00    -0.355 OA
BRANCH  24  25
HETATM   25  C16 UNL     1       8.461  10.783  27.193  1.00  0.00     0.263 C 
HETATM   26  C17 UNL     1       7.195  11.100  26.445  1.00  0.00     0.095 C 
HETATM   27  C18 UNL     1       6.413   9.841  26.111  1.00  0.00     0.154 C 
HETATM   28  C19 UNL     1       6.054   9.172  27.424  1.00  0.00     0.178 C 
HETATM   29  C20 UNL     1       7.319   9.052  28.227  1.00  0.00     0.179 C 
HETATM   30  O10 UNL     1       8.433   9.425  27.510  1.00  0.00    -0.351 OA
BRANCH  27  31
HETATM   31  O7  UNL     1       5.228  10.206  25.500  1.00  0.00    -0.393 OA
ATOM     32  H7  UNL     1       4.575   9.542  25.685  1.00  0.00     0.210 HD
ENDBRANCH  27  31
BRANCH  28  33
HETATM   33  O8  UNL     1       5.451   7.954  27.171  1.00  0.00    -0.390 OA
ATOM     34  H8  UNL     1       4.906   8.024  26.397  1.00  0.00     0.210 HD
ENDBRANCH  28  33
BRANCH  29  35
HETATM   35  C21 UNL     1       7.550   7.641  28.732  1.00  0.00     0.198 C 
BRANCH  35  36
HETATM   36  O9  UNL     1       8.008   6.792  27.735  1.00  0.00    -0.398 OA
ATOM     37  H9  UNL     1       8.752   7.153  27.266  1.00  0.00     0.209 HD
ENDBRANCH  35  36
ENDBRANCH  29  35
ENDBRANCH  24  25
ENDBRANCH   9  24
TORSDOF 12
ENDMDL
MODEL 3
REMARK VINA RESULT: -6.827721961      1.744      2.606
REMARK  12 active torsions:
REMARK  status: ('A' for Active; 'I' for Inactive)
REMARK    1  A    between atoms: C5_5  and  C6_6 
REMARK    2  A    between atoms: C6_6  and  O1_7 
REMARK    3  A    between atoms: O1_7  and  C7_8 
REMARK    4  A    between atoms: C9_11  and  O3_12 
REMARK    5  A    between atoms: C10_14  and  O4_15 
REMARK    6  A    between atoms: C11_17  and  O5_18 
REMARK    7  A    between atoms: C15_23  and  O6_24 
REMARK    8  A    between atoms: O6_24  and  C16_25 
REMARK    9  A    between atoms: C18_27  and  O7_28 
REMARK   10  A    between atoms: C19_30  and  O8_31 
REMARK   11  A    between atoms: C20_33  and  C21_34 
REMARK   12  A    between atoms: C21_34  and  O9_35 
ROOT
HETATM    1  C1  UNL     1      10.579  14.356  27.770  1.00  0.00     0.018 C 
HETATM    2  C2  UNL     1      11.168  13.119  27.211  1.00  0.00    -0.014 C 
HETATM    3  C3  UNL     1      11.188  11.939  28.144  1.00  0.00     0.012 C 
HETATM    4  C4  UNL     1       9.916  11.184  27.923  1.00  0.00     0.008 C 
HETATM    5  C5  UNL     1       9.176  11.999  26.853  1.00  0.00     0.014 C 
HETATM    6  C12 UNL     1      10.309  12.521  26.066  1.00  0.00     0.002 C 
HETATM    7  C13 UNL     1      11.297  11.481  25.576  1.00  0.00     0.008 C 
HETATM    8  C14 UNL     1      12.677  12.002  25.820  1.00  0.00     0.033 C 
HETATM    9  C15 UNL     1      12.546  13.283  26.619  1.00  0.00     0.133 C 
ENDROOT
BRANCH   5  10
HETATM   10  C6  UNL     1       8.118  11.207  26.202  1.00  0.00     0.176 C 
BRANCH  10  11
HETATM   11  O1  UNL     1       6.893  11.350  26.685  1.00  0.00    -0.358 OA
BRANCH  11  12
HETATM   12  C7  UNL     1       6.131  10.420  27.249  1.00  0.00     0.290 C 
HETATM   13  O2  UNL     1       6.539  10.286  28.601  1.00  0.00    -0.356 OA
HETATM   14  C8  UNL     1       6.040   9.111  29.171  1.00  0.00     0.205 C 
HETATM   15  C9  UNL     1       6.903   7.966  28.678  1.00  0.00     0.173 C 
HETATM   16  C10 UNL     1       7.449   8.344  27.304  1.00  0.00     0.182 C 
HETATM   17  C11 UNL     1       6.354   9.054  26.575  1.00  0.00     0.204 C 
BRANCH  15  18
HETATM   18  O3  UNL     1       7.952   7.749  29.547  1.00  0.00    -0.391 OA
ATOM     19  H3  UNL     1       8.723   7.467  29.069  1.00  0.00     0.210 HD
ENDBRANCH  15  18
BRANCH  16  20
HETATM   20  O4  UNL     1       7.862   7.210  26.639  1.00  0.00    -0.390 OA
ATOM     21  H4  UNL     1       7.826   7.358  25.701  1.00  0.00     0.210 HD
ENDBRANCH  16  20
BRANCH  17  22
HETATM   22  O5  UNL     1       5.207   8.289  26.584  1.00  0.00    -0.388 OA
ATOM     23  H5  UNL     1       4.559   8.638  27.185  1.00  0.00     0.210 HD
ENDBRANCH  17  22
ENDBRANCH  11  12
ENDBRANCH  10  11
ENDBRANCH   5  10
BRANCH   9  24
HETATM   24  O6  UNL     1      13.430  13.346  27.676  1.00  0.00    -0.355 OA
BRANCH  24  25
HETATM   25  C16 UNL     1      14.273  14.443  27.645  1.00  0.00     0.263 C 
HETATM   26  C17 UNL     1      14.220  15.203  26.348  1.00  0.00     0.095 C 
HETATM   27  C18 UNL     1      13.527  16.544  26.515  1.00  0.00     0.154 C 
HETATM   28  C19 UNL     1      14.330  17.345  27.521  1.00  0.00     0.178 C 
HETATM   29  C20 UNL     1      14.532  16.474  28.730  1.00  0.00     0.179 C 
HETATM   30  O10 UNL     1      13.822  15.297  28.652  1.00  0.00    -0.351 OA
BRANCH  27  31
HETATM   31  O7  UNL     1      13.584  17.223  25.312  1.00  0.00    -0.393 OA
ATOM     32  H7  UNL     1      14.216  17.928  25.391  1.00  0.00     0.210 HD
ENDBRANCH  27  31
BRANCH  28  33
HETATM   33  O8  UNL     1      13.670  18.526  27.804  1.00  0.00    -0.390 OA
ATOM     34  H8  UNL     1      12.916  18.613  27.234  1.00  0.00     0.210 HD
ENDBRANCH  28  33
BRANCH  29  35
HETATM   35  C21 UNL     1      14.126  17.169  30.015  1.00  0.00     0.198 C 
BRANCH  35  36
HETATM   36  O9  UNL     1      12.765  17.065  30.265  1.00  0.00    -0.398 OA
ATOM     37  H9  UNL     1      12.351  17.913  30.373  1.00  0.00     0.209 HD
ENDBRANCH  35  36
ENDBRANCH  29  35
ENDBRANCH  24  25
ENDBRANCH   9  24
TORSDOF 12
ENDMDL
MODEL 4
REMARK VINA RESULT: -6.825046876      1.799      9.268
REMARK  12 active torsions:
REMARK  status: ('A' for Active; 'I' for Inactive)
REMARK    1  A    between atoms: C5_5  and  C6_6 
REMARK    2  A    between atoms: C6_6  and  O1_7 
REMARK    3  A    between atoms: O1_7  and  C7_8 
REMARK    4  A    between atoms: C9_11  and  O3_12 
REMARK    5  A    between atoms: C10_14  and  O4_15 
REMARK    6  A    between atoms: C11_17  and  O5_18 
REMARK    7  A    between atoms: C15_23  and  O6_24 
REMARK    8  A    between atoms: O6_24  and  C16_25 
REMARK    9  A    between atoms: C18_27  and  O7_28 
REMARK   10  A    between atoms: C19_30  and  O8_31 
REMARK   11  A    between atoms: C20_33  and  C21_34 
REMARK   12  A    between atoms: C21_34  and  O9_35 
ROOT
HETATM    1  C1  UNL     1      10.414  13.522  28.190  1.00  0.00     0.018 C 
HETATM    2  C2  UNL     1      10.980  12.625  27.158  1.00  0.00    -0.014 C 
HETATM    3  C3  UNL     1      11.046  13.204  25.771  1.00  0.00     0.012 C 
HETATM    4  C4  UNL     1      12.383  13.861  25.634  1.00  0.00     0.008 C 
HETATM    5  C5  UNL     1      13.048  13.648  27.001  1.00  0.00     0.014 C 
HETATM    6  C12 UNL     1      12.487  12.338  27.384  1.00  0.00     0.002 C 
HETATM    7  C13 UNL     1      12.652  11.233  26.360  1.00  0.00     0.008 C 
HETATM    8  C14 UNL     1      11.353  10.503  26.252  1.00  0.00     0.033 C 
HETATM    9  C15 UNL     1      10.333  11.264  27.076  1.00  0.00     0.133 C 
ENDROOT
BRANCH   5  10
HETATM   10  C6  UNL     1      14.507  13.842  26.931  1.00  0.00     0.176 C 
BRANCH  10  11
HETATM   11  O1  UNL     1      14.996  14.876  27.601  1.00  0.00    -0.358 OA
BRANCH  11  12
HETATM   12  C7  UNL     1      15.739  15.869  27.127  1.00  0.00     0.290 C 
HETATM   13  O2  UNL     1      15.622  16.964  28.022  1.00  0.00    -0.356 OA
HETATM   14  C8  UNL     1      16.083  18.149  27.441  1.00  0.00     0.205 C 
HETATM   15  C9  UNL     1      14.996  18.649  26.509  1.00  0.00     0.173 C 
HETATM   16  C10 UNL     1      14.215  17.440  26.003  1.00  0.00     0.182 C 
HETATM   17  C11 UNL     1      15.205  16.345  25.764  1.00  0.00     0.204 C 
BRANCH  15  18
HETATM   18  O3  UNL     1      14.144  19.500  27.181  1.00  0.00    -0.391 OA
ATOM     19  H3  UNL     1      13.630  19.017  27.818  1.00  0.00     0.210 HD
ENDBRANCH  15  18
BRANCH  16  20
HETATM   20  O4  UNL     1      13.528  17.774  24.857  1.00  0.00    -0.390 OA
ATOM     21  H4  UNL     1      12.710  17.292  24.820  1.00  0.00     0.210 HD
ENDBRANCH  16  20
BRANCH  17  22
HETATM   22  O5  UNL     1      16.221  16.796  24.949  1.00  0.00    -0.388 OA
ATOM     23  H5  UNL     1      16.688  16.077  24.541  1.00  0.00     0.210 HD
ENDBRANCH  17  22
ENDBRANCH  11  12
ENDBRANCH  10  11
ENDBRANCH   5  10
BRANCH   9  24
HETATM   24  O6  UNL     1       9.132  11.431  26.417  1.00  0.00    -0.355 OA
BRANCH  24  25
HETATM   25  C16 UNL     1       8.022  11.082  27.166  1.00  0.00     0.263 C 
HETATM   26  C17 UNL     1       6.724  11.240  26.423  1.00  0.00     0.095 C 
HETATM   27  C18 UNL     1       6.115   9.894  26.070  1.00  0.00     0.154 C 
HETATM   28  C19 UNL     1       5.849   9.163  27.372  1.00  0.00     0.178 C 
HETATM   29  C20 UNL     1       7.121   9.200  28.174  1.00  0.00     0.179 C 
HETATM   30  O10 UNL     1       8.174   9.726  27.462  1.00  0.00    -0.351 OA
BRANCH  27  31
HETATM   31  O7  UNL     1       4.890  10.108  25.464  1.00  0.00    -0.393 OA
ATOM     32  H7  UNL     1       4.298   9.412  25.723  1.00  0.00     0.210 HD
ENDBRANCH  27  31
BRANCH  28  33
HETATM   33  O8  UNL     1       5.412   7.880  27.101  1.00  0.00    -0.390 OA
ATOM     34  H8  UNL     1       4.553   7.915  26.699  1.00  0.00     0.210 HD
ENDBRANCH  28  33
BRANCH  29  35
HETATM   35  C21 UNL     1       7.536   7.824  28.656  1.00  0.00     0.198 C 
BRANCH  35  36
HETATM   36  O9  UNL     1       7.948   7.001  27.617  1.00  0.00    -0.398 OA
ATOM     37  H9  UNL     1       8.283   6.168  27.927  1.00  0.00     0.209 HD
ENDBRANCH  35  36
ENDBRANCH  29  35
ENDBRANCH  24  25
ENDBRANCH   9  24
TORSDOF 12
ENDMDL
MODEL 5
REMARK VINA RESULT: -6.799368299      2.023      9.201
REMARK  12 active torsions:
REMARK  status: ('A' for Active; 'I' for Inactive)
REMARK    1  A    between atoms: C5_5  and  C6_6 
REMARK    2  A    between atoms: C6_6  and  O1_7 
REMARK    3  A    between atoms: O1_7  and  C7_8 
REMARK    4  A    between atoms: C9_11  and  O3_12 
REMARK    5  A    between atoms: C10_14  and  O4_15 
REMARK    6  A    between atoms: C11_17  and  O5_18 
REMARK    7  A    between atoms: C15_23  and  O6_24 
REMARK    8  A    between atoms: O6_24  and  C16_25 
REMARK    9  A    between atoms: C18_27  and  O7_28 
REMARK   10  A    between atoms: C19_30  and  O8_31 
REMARK   11  A    between atoms: C20_33  and  C21_34 
REMARK   12  A    between atoms: C21_34  and  O9_35 
ROOT
HETATM    1  C1  UNL     1      11.750  10.773  25.200  1.00  0.00     0.018 C 
HETATM    2  C2  UNL     1      11.421  11.663  26.335  1.00  0.00    -0.014 C 
HETATM    3  C3  UNL     1      12.525  11.854  27.340  1.00  0.00     0.012 C 
HETATM    4  C4  UNL     1      13.313  13.047  26.904  1.00  0.00     0.008 C 
HETATM    5  C5  UNL     1      12.626  13.499  25.608  1.00  0.00     0.014 C 
HETATM    6  C12 UNL     1      11.224  13.137  25.893  1.00  0.00     0.002 C 
HETATM    7  C13 UNL     1      10.663  13.678  27.193  1.00  0.00     0.008 C 
HETATM    8  C14 UNL     1       9.913  12.576  27.868  1.00  0.00     0.033 C 
HETATM    9  C15 UNL     1      10.156  11.307  27.077  1.00  0.00     0.133 C 
ENDROOT
BRANCH   5  10
HETATM   10  C6  UNL     1      12.981  14.885  25.259  1.00  0.00     0.176 C 
BRANCH  10  11
HETATM   11  O1  UNL     1      13.052  15.746  26.264  1.00  0.00    -0.358 OA
BRANCH  11  12
HETATM   12  C7  UNL     1      13.893  16.764  26.401  1.00  0.00     0.290 C 
HETATM   13  O2  UNL     1      14.261  17.200  25.102  1.00  0.00    -0.356 OA
HETATM   14  C8  UNL     1      15.389  18.026  25.141  1.00  0.00     0.205 C 
HETATM   15  C9  UNL     1      16.600  17.129  25.307  1.00  0.00     0.173 C 
HETATM   16  C10 UNL     1      16.162  15.877  26.059  1.00  0.00     0.182 C 
HETATM   17  C11 UNL     1      15.185  16.310  27.105  1.00  0.00     0.204 C 
BRANCH  15  18
HETATM   18  O3  UNL     1      17.104  16.773  24.073  1.00  0.00    -0.391 OA
ATOM     19  H3  UNL     1      17.295  17.550  23.559  1.00  0.00     0.210 HD
ENDBRANCH  15  18
BRANCH  16  20
HETATM   20  O4  UNL     1      17.261  15.252  26.607  1.00  0.00    -0.390 OA
ATOM     21  H4  UNL     1      17.363  15.517  27.514  1.00  0.00     0.210 HD
ENDBRANCH  16  20
BRANCH  17  22
HETATM   22  O5  UNL     1      15.729  17.319  27.870  1.00  0.00    -0.388 OA
ATOM     23  H5  UNL     1      16.248  16.974  28.587  1.00  0.00     0.210 HD
ENDBRANCH  17  22
ENDBRANCH  11  12
ENDBRANCH  10  11
ENDBRANCH   5  10
BRANCH   9  24
HETATM   24  O6  UNL     1      10.455  10.225  27.880  1.00  0.00    -0.355 OA
BRANCH  24  25
HETATM   25  C16 UNL     1       9.378   9.395  28.136  1.00  0.00     0.263 C 
HETATM   26  C17 UNL     1       8.801   9.569  29.513  1.00  0.00     0.095 C 
HETATM   27  C18 UNL     1       7.444  10.253  29.468  1.00  0.00     0.154 C 
HETATM   28  C19 UNL     1       6.519   9.366  28.656  1.00  0.00     0.178 C 
HETATM   29  C20 UNL     1       7.221   9.051  27.364  1.00  0.00     0.179 C 
HETATM   30  O10 UNL     1       8.392   9.758  27.218  1.00  0.00    -0.351 OA
BRANCH  27  31
HETATM   31  O7  UNL     1       6.935  10.309  30.752  1.00  0.00    -0.393 OA
ATOM     32  H7  UNL     1       7.599  10.673  31.326  1.00  0.00     0.210 HD
ENDBRANCH  27  31
BRANCH  28  33
HETATM   33  O8  UNL     1       5.307  10.004  28.478  1.00  0.00    -0.390 OA
ATOM     34  H8  UNL     1       4.784   9.522  27.849  1.00  0.00     0.210 HD
ENDBRANCH  28  33
BRANCH  29  35
HETATM   35  C21 UNL     1       6.355   9.343  26.154  1.00  0.00     0.198 C 
BRANCH  35  36
HETATM   36  O9  UNL     1       5.244   8.514  26.087  1.00  0.00    -0.398 OA
ATOM     37  H9  UNL     1       4.935   8.395  25.197  1.00  0.00     0.209 HD
ENDBRANCH  35  36
ENDBRANCH  29  35
ENDBRANCH  24  25
ENDBRANCH   9  24
TORSDOF 12
ENDMDL
