MODEL 1
REMARK VINA RESULT: -5.550101241      0.000      0.000
REMARK  6 active torsions:
REMARK  status: ('A' for Active; 'I' for Inactive)
REMARK    1  A    between atoms: C6_8  and  O1_9 
REMARK    2  A    between atoms: C7_11  and  O2_12 
REMARK    3  A    between atoms: C10_16  and  O3_17 
REMARK    4  A    between atoms: O3_17  and  C11_18 
REMARK    5  A    between atoms: C14_22  and  C15_23 
REMARK    6  A    between atoms: C15_23  and  C16_24 
ROOT
HETATM    1  C1  UNL     1     -14.674  36.803   6.743  1.00  0.00     0.052 C 
HETATM    2  C2  UNL     1     -13.768  35.737   6.206  1.00  0.00    -0.012 A 
HETATM    3  C3  UNL     1     -12.896  35.149   7.086  1.00  0.00     0.098 A 
HETATM    4  N1  UNL     1     -12.079  34.163   6.719  1.00  0.00    -0.364 N 
ATOM      5  H1  UNL     1     -11.440  33.745   7.396  1.00  0.00     0.165 HD
HETATM    6  C4  UNL     1     -12.104  33.723   5.451  1.00  0.00     0.048 A 
HETATM    7  C5  UNL     1     -11.227  32.700   5.135  1.00  0.00     0.069 A 
HETATM    8  C6  UNL     1     -11.220  32.230   3.845  1.00  0.00     0.101 A 
HETATM    9  C7  UNL     1     -12.071  32.778   2.909  1.00  0.00     0.099 A 
HETATM   10  C8  UNL     1     -12.928  33.780   3.227  1.00  0.00     0.056 A 
HETATM   11  C9  UNL     1     -12.964  34.280   4.524  1.00  0.00     0.028 A 
HETATM   12  C10 UNL     1     -13.823  35.305   4.869  1.00  0.00     0.096 A 
ENDROOT
BRANCH  12  13
HETATM   13  O3  UNL     1     -14.681  35.917   4.072  1.00  0.00    -0.306 OA
BRANCH  13  14
HETATM   14  C11 UNL     1     -15.692  35.752   3.244  1.00  0.00     0.115 A 
HETATM   15  C12 UNL     1     -16.936  35.267   3.560  1.00  0.00     0.069 A 
HETATM   16 CL1  UNL     1     -17.266  34.862   5.230  1.00  0.00    -0.081 Cl
HETATM   17  C13 UNL     1     -17.947  35.117   2.603  1.00  0.00     0.034 A 
HETATM   18  C14 UNL     1     -17.724  35.458   1.293  1.00  0.00    -0.054 A 
HETATM   19  C17 UNL     1     -16.485  35.948   0.951  1.00  0.00     0.029 A 
HETATM   20  C18 UNL     1     -15.500  36.092   1.889  1.00  0.00     0.047 A 
HETATM   21 BR1  UNL     1     -13.783  36.748   1.326  1.00  0.00    -0.048 Br
BRANCH  18  22
HETATM   22  C15 UNL     1     -18.793  35.305   0.264  1.00  0.00     0.053 C 
BRANCH  22  23
HETATM   23  C16 UNL     1     -19.504  36.623   0.040  1.00  0.00     0.119 C 
HETATM   24 CL2  UNL     1     -18.994  37.319  -1.516  1.00  0.00    -0.130 Cl
ENDBRANCH  22  23
ENDBRANCH  18  22
ENDBRANCH  13  14
ENDBRANCH  12  13
BRANCH   9  25
HETATM   25  O2  UNL     1     -12.043  32.283   1.608  1.00  0.00    -0.358 OA
ATOM     26  H2  UNL     1     -12.461  32.786   0.919  1.00  0.00     0.217 HD
ENDBRANCH   9  25
BRANCH   8  27
HETATM   27  O1  UNL     1     -10.366  31.199   3.434  1.00  0.00    -0.358 OA
ATOM     28  H1  UNL     1      -9.444  31.185   3.664  1.00  0.00     0.217 HD
ENDBRANCH   8  27
TORSDOF 6
ENDMDL
MODEL 2
REMARK VINA RESULT: -5.512196989      6.780      9.741
REMARK  6 active torsions:
REMARK  status: ('A' for Active; 'I' for Inactive)
REMARK    1  A    between atoms: C6_8  and  O1_9 
REMARK    2  A    between atoms: C7_11  and  O2_12 
REMARK    3  A    between atoms: C10_16  and  O3_17 
REMARK    4  A    between atoms: O3_17  and  C11_18 
REMARK    5  A    between atoms: C14_22  and  C15_23 
REMARK    6  A    between atoms: C15_23  and  C16_24 
ROOT
HETATM    1  C1  UNL     1     -24.454  35.704  -1.327  1.00  0.00     0.052 C 
HETATM    2  C2  UNL     1     -23.052  36.140  -1.027  1.00  0.00    -0.012 A 
HETATM    3  C3  UNL     1     -22.701  37.417  -1.384  1.00  0.00     0.098 A 
HETATM    4  N1  UNL     1     -21.494  37.916  -1.123  1.00  0.00    -0.364 N 
ATOM      5  H1  UNL     1     -21.260  38.870  -1.400  1.00  0.00     0.165 HD
HETATM    6  C4  UNL     1     -20.587  37.154  -0.491  1.00  0.00     0.048 A 
HETATM    7  C5  UNL     1     -19.351  37.731  -0.257  1.00  0.00     0.069 A 
HETATM    8  C6  UNL     1     -18.396  36.978   0.381  1.00  0.00     0.101 A 
HETATM    9  C7  UNL     1     -18.684  35.685   0.766  1.00  0.00     0.099 A 
HETATM   10  C8  UNL     1     -19.897  35.127   0.531  1.00  0.00     0.056 A 
HETATM   11  C9  UNL     1     -20.890  35.860  -0.111  1.00  0.00     0.028 A 
HETATM   12  C10 UNL     1     -22.130  35.310  -0.366  1.00  0.00     0.096 A 
ENDROOT
BRANCH  12  13
HETATM   13  O3  UNL     1     -22.531  34.090  -0.056  1.00  0.00    -0.306 OA
BRANCH  13  14
HETATM   14  C11 UNL     1     -23.341  33.379   0.700  1.00  0.00     0.115 A 
HETATM   15  C12 UNL     1     -23.507  33.499   2.058  1.00  0.00     0.069 A 
HETATM   16 CL1  UNL     1     -22.603  34.743   2.894  1.00  0.00    -0.081 Cl
HETATM   17  C13 UNL     1     -24.388  32.685   2.780  1.00  0.00     0.034 A 
HETATM   18  C14 UNL     1     -25.133  31.725   2.142  1.00  0.00    -0.054 A 
HETATM   19  C17 UNL     1     -24.985  31.586   0.782  1.00  0.00     0.029 A 
HETATM   20  C18 UNL     1     -24.122  32.381   0.080  1.00  0.00     0.047 A 
HETATM   21 BR1  UNL     1     -23.944  32.101  -1.813  1.00  0.00    -0.048 Br
BRANCH  18  22
HETATM   22  C15 UNL     1     -26.077  30.854   2.900  1.00  0.00     0.053 C 
BRANCH  22  23
HETATM   23  C16 UNL     1     -25.788  30.927   4.384  1.00  0.00     0.119 C 
HETATM   24 CL2  UNL     1     -24.985  29.430   4.912  1.00  0.00    -0.130 Cl
ENDBRANCH  22  23
ENDBRANCH  18  22
ENDBRANCH  13  14
ENDBRANCH  12  13
BRANCH   9  25
HETATM   25  O2  UNL     1     -17.697  34.943   1.409  1.00  0.00    -0.358 OA
ATOM     26  H2  UNL     1     -17.843  34.016   1.552  1.00  0.00     0.217 HD
ENDBRANCH   9  25
BRANCH   8  27
HETATM   27  O1  UNL     1     -17.118  37.478   0.660  1.00  0.00    -0.358 OA
ATOM     28  H1  UNL     1     -16.420  36.923   0.988  1.00  0.00     0.217 HD
ENDBRANCH   8  27
TORSDOF 6
ENDMDL
MODEL 3
REMARK VINA RESULT: -5.504762325      6.343      9.073
REMARK  6 active torsions:
REMARK  status: ('A' for Active; 'I' for Inactive)
REMARK    1  A    between atoms: C6_8  and  O1_9 
REMARK    2  A    between atoms: C7_11  and  O2_12 
REMARK    3  A    between atoms: C10_16  and  O3_17 
REMARK    4  A    between atoms: O3_17  and  C11_18 
REMARK    5  A    between atoms: C14_22  and  C15_23 
REMARK    6  A    between atoms: C15_23  and  C16_24 
ROOT
HETATM    1  C1  UNL     1     -23.867  37.236  -1.054  1.00  0.00     0.052 C 
HETATM    2  C2  UNL     1     -22.399  37.135  -0.772  1.00  0.00    -0.012 A 
HETATM    3  C3  UNL     1     -21.558  37.912  -1.526  1.00  0.00     0.098 A 
HETATM    4  N1  UNL     1     -20.241  37.928  -1.325  1.00  0.00    -0.364 N 
ATOM      5  H1  UNL     1     -19.640  38.516  -1.903  1.00  0.00     0.165 HD
HETATM    6  C4  UNL     1     -19.712  37.164  -0.356  1.00  0.00     0.048 A 
HETATM    7  C5  UNL     1     -18.337  37.224  -0.205  1.00  0.00     0.069 A 
HETATM    8  C6  UNL     1     -17.761  36.450   0.772  1.00  0.00     0.101 A 
HETATM    9  C7  UNL     1     -18.550  35.644   1.566  1.00  0.00     0.099 A 
HETATM   10  C8  UNL     1     -19.896  35.591   1.410  1.00  0.00     0.056 A 
HETATM   11  C9  UNL     1     -20.515  36.363   0.432  1.00  0.00     0.028 A 
HETATM   12  C10 UNL     1     -21.883  36.320   0.251  1.00  0.00     0.096 A 
ENDROOT
BRANCH  12  13
HETATM   13  O3  UNL     1     -22.747  35.592   0.936  1.00  0.00    -0.306 OA
BRANCH  13  14
HETATM   14  C11 UNL     1     -22.910  34.496   1.648  1.00  0.00     0.115 A 
HETATM   15  C12 UNL     1     -22.895  33.206   1.177  1.00  0.00     0.069 A 
HETATM   16 CL1  UNL     1     -22.581  32.952  -0.526  1.00  0.00    -0.081 Cl
HETATM   17  C13 UNL     1     -23.090  32.101   2.014  1.00  0.00     0.034 A 
HETATM   18  C14 UNL     1     -23.305  32.272   3.358  1.00  0.00    -0.054 A 
HETATM   19  C17 UNL     1     -23.323  33.555   3.854  1.00  0.00     0.029 A 
HETATM   20  C18 UNL     1     -23.134  34.632   3.033  1.00  0.00     0.047 A 
HETATM   21 BR1  UNL     1     -23.211  36.395   3.796  1.00  0.00    -0.048 Br
BRANCH  18  22
HETATM   22  C15 UNL     1     -23.512  31.103   4.260  1.00  0.00     0.053 C 
BRANCH  22  23
HETATM   23  C16 UNL     1     -24.763  30.346   3.866  1.00  0.00     0.119 C 
HETATM   24 CL2  UNL     1     -25.379  29.439   5.266  1.00  0.00    -0.130 Cl
ENDBRANCH  22  23
ENDBRANCH  18  22
ENDBRANCH  13  14
ENDBRANCH  12  13
BRANCH   9  25
HETATM   25  O2  UNL     1     -17.939  34.869   2.548  1.00  0.00    -0.358 OA
ATOM     26  H2  UNL     1     -18.212  33.965   2.651  1.00  0.00     0.217 HD
ENDBRANCH   9  25
BRANCH   8  27
HETATM   27  O1  UNL     1     -16.379  36.445   0.998  1.00  0.00    -0.358 OA
ATOM     28  H1  UNL     1     -15.823  35.731   0.708  1.00  0.00     0.217 HD
ENDBRANCH   8  27
TORSDOF 6
ENDMDL
MODEL 4
REMARK VINA RESULT: -5.455082449      6.561      9.232
REMARK  6 active torsions:
REMARK  status: ('A' for Active; 'I' for Inactive)
REMARK    1  A    between atoms: C6_8  and  O1_9 
REMARK    2  A    between atoms: C7_11  and  O2_12 
REMARK    3  A    between atoms: C10_16  and  O3_17 
REMARK    4  A    between atoms: O3_17  and  C11_18 
REMARK    5  A    between atoms: C14_22  and  C15_23 
REMARK    6  A    between atoms: C15_23  and  C16_24 
ROOT
HETATM    1  C1  UNL     1     -24.054  37.081  -1.462  1.00  0.00     0.052 C 
HETATM    2  C2  UNL     1     -22.598  37.114  -1.107  1.00  0.00    -0.012 A 
HETATM    3  C3  UNL     1     -21.842  38.125  -1.643  1.00  0.00     0.098 A 
HETATM    4  N1  UNL     1     -20.550  38.269  -1.356  1.00  0.00    -0.364 N 
ATOM      5  H1  UNL     1     -20.012  39.030  -1.771  1.00  0.00     0.165 HD
HETATM    6  C4  UNL     1     -19.960  37.403  -0.516  1.00  0.00     0.048 A 
HETATM    7  C5  UNL     1     -18.614  37.606  -0.265  1.00  0.00     0.069 A 
HETATM    8  C6  UNL     1     -17.977  36.735   0.584  1.00  0.00     0.101 A 
HETATM    9  C7  UNL     1     -18.678  35.696   1.157  1.00  0.00     0.099 A 
HETATM   10  C8  UNL     1     -19.997  35.504   0.905  1.00  0.00     0.056 A 
HETATM   11  C9  UNL     1     -20.676  36.367   0.052  1.00  0.00     0.028 A 
HETATM   12  C10 UNL     1     -22.017  36.187  -0.224  1.00  0.00     0.096 A 
ENDROOT
BRANCH  12  13
HETATM   13  O3  UNL     1     -22.800  35.235   0.251  1.00  0.00    -0.306 OA
BRANCH  13  14
HETATM   14  C11 UNL     1     -22.984  34.381   1.238  1.00  0.00     0.115 A 
HETATM   15  C12 UNL     1     -22.988  34.671   2.579  1.00  0.00     0.069 A 
HETATM   16 CL1  UNL     1     -22.780  36.340   3.065  1.00  0.00    -0.081 Cl
HETATM   17  C13 UNL     1     -23.182  33.689   3.558  1.00  0.00     0.034 A 
HETATM   18  C14 UNL     1     -23.381  32.379   3.202  1.00  0.00    -0.054 A 
HETATM   19  C17 UNL     1     -23.382  32.063   1.863  1.00  0.00     0.029 A 
HETATM   20  C18 UNL     1     -23.190  33.025   0.910  1.00  0.00     0.047 A 
HETATM   21 BR1  UNL     1     -23.168  32.499  -0.938  1.00  0.00    -0.048 Br
BRANCH  18  22
HETATM   22  C15 UNL     1     -23.591  31.323   4.234  1.00  0.00     0.053 C 
BRANCH  22  23
HETATM   23  C16 UNL     1     -24.763  30.442   3.858  1.00  0.00     0.119 C 
HETATM   24 CL2  UNL     1     -25.182  29.388   5.229  1.00  0.00    -0.130 Cl
ENDBRANCH  22  23
ENDBRANCH  18  22
ENDBRANCH  13  14
ENDBRANCH  12  13
BRANCH   9  25
HETATM   25  O2  UNL     1     -18.007  34.827   2.013  1.00  0.00    -0.358 OA
ATOM     26  H2  UNL     1     -17.276  35.160   2.520  1.00  0.00     0.217 HD
ENDBRANCH   9  25
BRANCH   8  27
HETATM   27  O1  UNL     1     -16.617  36.862   0.897  1.00  0.00    -0.358 OA
ATOM     28  H1  UNL     1     -16.306  36.891   1.794  1.00  0.00     0.217 HD
ENDBRANCH   8  27
TORSDOF 6
ENDMDL
MODEL 5
REMARK VINA RESULT: -5.450195013      1.854      2.084
REMARK  6 active torsions:
REMARK  status: ('A' for Active; 'I' for Inactive)
REMARK    1  A    between atoms: C6_8  and  O1_9 
REMARK    2  A    between atoms: C7_11  and  O2_12 
REMARK    3  A    between atoms: C10_16  and  O3_17 
REMARK    4  A    between atoms: O3_17  and  C11_18 
REMARK    5  A    between atoms: C14_22  and  C15_23 
REMARK    6  A    between atoms: C15_23  and  C16_24 
ROOT
HETATM    1  C1  UNL     1     -13.990  38.182   6.375  1.00  0.00     0.052 C 
HETATM    2  C2  UNL     1     -13.165  36.990   5.998  1.00  0.00    -0.012 A 
HETATM    3  C3  UNL     1     -11.920  36.882   6.562  1.00  0.00     0.098 A 
HETATM    4  N1  UNL     1     -11.125  35.840   6.326  1.00  0.00    -0.364 N 
ATOM      5  H1  UNL     1     -10.203  35.787   6.759  1.00  0.00     0.165 HD
HETATM    6  C4  UNL     1     -11.548  34.858   5.513  1.00  0.00     0.048 A 
HETATM    7  C5  UNL     1     -10.671  33.808   5.306  1.00  0.00     0.069 A 
HETATM    8  C6  UNL     1     -11.068  32.789   4.474  1.00  0.00     0.101 A 
HETATM    9  C7  UNL     1     -12.308  32.835   3.874  1.00  0.00     0.099 A 
HETATM   10  C8  UNL     1     -13.161  33.869   4.081  1.00  0.00     0.056 A 
HETATM   11  C9  UNL     1     -12.794  34.917   4.919  1.00  0.00     0.028 A 
HETATM   12  C10 UNL     1     -13.643  35.983   5.140  1.00  0.00     0.096 A 
ENDROOT
BRANCH  12  13
HETATM   13  O3  UNL     1     -14.849  36.152   4.626  1.00  0.00    -0.306 OA
BRANCH  13  14
HETATM   14  C11 UNL     1     -15.606  35.961   3.565  1.00  0.00     0.115 A 
HETATM   15  C12 UNL     1     -15.247  36.169   2.257  1.00  0.00     0.069 A 
HETATM   16 CL1  UNL     1     -13.611  36.693   1.922  1.00  0.00    -0.081 Cl
HETATM   17  C13 UNL     1     -16.130  35.948   1.193  1.00  0.00     0.034 A 
HETATM   18  C14 UNL     1     -17.408  35.505   1.427  1.00  0.00    -0.054 A 
HETATM   19  C17 UNL     1     -17.791  35.288   2.730  1.00  0.00     0.029 A 
HETATM   20  C18 UNL     1     -16.926  35.507   3.767  1.00  0.00     0.047 A 
HETATM   21 BR1  UNL     1     -17.548  35.216   5.562  1.00  0.00    -0.048 Br
BRANCH  18  22
HETATM   22  C15 UNL     1     -18.357  35.263   0.303  1.00  0.00     0.053 C 
BRANCH  22  23
HETATM   23  C16 UNL     1     -19.322  36.423   0.168  1.00  0.00     0.119 C 
HETATM   24 CL2  UNL     1     -19.036  37.260  -1.376  1.00  0.00    -0.130 Cl
ENDBRANCH  22  23
ENDBRANCH  18  22
ENDBRANCH  13  14
ENDBRANCH  12  13
BRANCH   9  25
HETATM   25  O2  UNL     1     -12.684  31.790   3.034  1.00  0.00    -0.358 OA
ATOM     26  H2  UNL     1     -12.774  31.962   2.104  1.00  0.00     0.217 HD
ENDBRANCH   9  25
BRANCH   8  27
HETATM   27  O1  UNL     1     -10.248  31.686   4.206  1.00  0.00    -0.358 OA
ATOM     28  H1  UNL     1      -9.876  31.532   3.345  1.00  0.00     0.217 HD
ENDBRANCH   8  27
TORSDOF 6
ENDMDL
