MODEL 1
REMARK VINA RESULT: -5.849499531      0.000      0.000
REMARK  9 active torsions:
REMARK  status: ('A' for Active; 'I' for Inactive)
REMARK    1  A    between atoms: C1_2  and  C2_4 
REMARK    2  A    between atoms: C2_4  and  C3_5 
REMARK    3  A    between atoms: C2_4  and  N3_12 
REMARK    4  A    between atoms: C3_5  and  N1_6 
REMARK    5  A    between atoms: N3_12  and  C7_14 
REMARK    6  A    between atoms: C7_14  and  C8_15 
REMARK    7  A    between atoms: C8_15  and  C9_16 
REMARK    8  A    between atoms: C9_16  and  O3_17 
REMARK    9  A    between atoms: C9_16  and  C10_19 
ROOT
HETATM    1  N3  UNL     1      -6.475 -57.913  -6.555  1.00  0.00    -0.407 N 
ATOM      2  H3  UNL     1      -5.578 -57.934  -6.068  1.00  0.00     0.154 HD
ENDROOT
BRANCH   1   3
HETATM    3  C2  UNL     1      -7.623 -57.297  -5.988  1.00  0.00     0.197 C 
BRANCH   3   4
HETATM    4  C1  UNL     1      -7.392 -56.674  -4.680  1.00  0.00     0.198 C 
HETATM    5  O1  UNL     1      -7.588 -57.251  -3.598  1.00  0.00    -0.646 OA
HETATM    6  O2  UNL     1      -6.927 -55.357  -4.675  1.00  0.00    -0.646 OA
ENDBRANCH   3   4
BRANCH   3   7
HETATM    7  C3  UNL     1      -8.791 -58.293  -5.933  1.00  0.00     0.165 C 
BRANCH   7   8
HETATM    8  N1  UNL     1     -10.052 -57.581  -5.957  1.00  0.00    -0.349 N 
HETATM    9  C4  UNL     1     -10.501 -56.762  -6.949  1.00  0.00     0.108 A 
HETATM   10  C5  UNL     1     -11.741 -56.252  -6.637  1.00  0.00     0.106 A 
HETATM   11  N2  UNL     1     -12.055 -56.775  -5.426  1.00  0.00    -0.361 N 
HETATM   12  C6  UNL     1     -11.026 -57.577  -5.024  1.00  0.00     0.182 A 
ATOM     13  H2  UNL     1     -12.913 -56.599  -4.905  1.00  0.00     0.166 HD
ENDBRANCH   7   8
ENDBRANCH   3   7
ENDBRANCH   1   3
BRANCH   1  14
HETATM   14  C7  UNL     1      -6.649 -58.508  -7.854  1.00  0.00     0.117 C 
BRANCH  14  15
HETATM   15  C8  UNL     1      -5.357 -59.230  -8.187  1.00  0.00     0.057 C 
BRANCH  15  16
HETATM   16  C9  UNL     1      -5.416 -60.687  -7.798  1.00  0.00     0.170 C 
BRANCH  16  17
HETATM   17  O3  UNL     1      -6.566 -60.871  -7.044  1.00  0.00    -0.389 OA
ATOM     18  H3  UNL     1      -6.296 -61.032  -6.147  1.00  0.00     0.210 HD
ENDBRANCH  16  17
BRANCH  16  19
HETATM   19  C10 UNL     1      -4.186 -61.010  -7.049  1.00  0.00     0.054 A 
HETATM   20  C11 UNL     1      -3.517 -62.209  -7.073  1.00  0.00     0.116 A 
HETATM   21  N4  UNL     1      -2.434 -62.124  -6.255  1.00  0.00    -0.360 N 
HETATM   22  C12 UNL     1      -2.431 -60.889  -5.728  1.00  0.00     0.180 A 
ATOM     23  H4  UNL     1      -1.753 -62.861  -6.075  1.00  0.00     0.166 HD
HETATM   24  N5  UNL     1      -3.506 -60.211  -6.217  1.00  0.00    -0.352 N 
ATOM     25  H5  UNL     1      -3.753 -59.248  -5.987  1.00  0.00     0.166 HD
ENDBRANCH  16  19
ENDBRANCH  15  16
ENDBRANCH  14  15
ENDBRANCH   1  14
TORSDOF 9
ENDMDL
MODEL 2
REMARK VINA RESULT: -5.510825736      2.265      3.047
REMARK  9 active torsions:
REMARK  status: ('A' for Active; 'I' for Inactive)
REMARK    1  A    between atoms: C1_2  and  C2_4 
REMARK    2  A    between atoms: C2_4  and  C3_5 
REMARK    3  A    between atoms: C2_4  and  N3_12 
REMARK    4  A    between atoms: C3_5  and  N1_6 
REMARK    5  A    between atoms: N3_12  and  C7_14 
REMARK    6  A    between atoms: C7_14  and  C8_15 
REMARK    7  A    between atoms: C8_15  and  C9_16 
REMARK    8  A    between atoms: C9_16  and  O3_17 
REMARK    9  A    between atoms: C9_16  and  C10_19 
ROOT
HETATM    1  N3  UNL     1      -6.584 -57.982  -6.614  1.00  0.00    -0.407 N 
ATOM      2  H3  UNL     1      -5.843 -58.415  -6.062  1.00  0.00     0.154 HD
ENDROOT
BRANCH   1   3
HETATM    3  C2  UNL     1      -7.693 -57.333  -6.006  1.00  0.00     0.197 C 
BRANCH   3   4
HETATM    4  C1  UNL     1      -7.388 -56.687  -4.724  1.00  0.00     0.198 C 
HETATM    5  O1  UNL     1      -7.528 -57.242  -3.622  1.00  0.00    -0.646 OA
HETATM    6  O2  UNL     1      -6.915 -55.374  -4.770  1.00  0.00    -0.646 OA
ENDBRANCH   3   4
BRANCH   3   7
HETATM    7  C3  UNL     1      -8.873 -58.308  -5.872  1.00  0.00     0.165 C 
BRANCH   7   8
HETATM    8  N1  UNL     1     -10.125 -57.581  -5.921  1.00  0.00    -0.349 N 
HETATM    9  C4  UNL     1     -10.561 -56.786  -6.940  1.00  0.00     0.108 A 
HETATM   10  C5  UNL     1     -11.795 -56.252  -6.647  1.00  0.00     0.106 A 
HETATM   11  N2  UNL     1     -12.118 -56.733  -5.421  1.00  0.00    -0.361 N 
HETATM   12  C6  UNL     1     -11.101 -57.535  -4.991  1.00  0.00     0.182 A 
ATOM     13  H2  UNL     1     -12.976 -56.530  -4.908  1.00  0.00     0.166 HD
ENDBRANCH   7   8
ENDBRANCH   3   7
ENDBRANCH   1   3
BRANCH   1  14
HETATM   14  C7  UNL     1      -6.567 -57.992  -8.053  1.00  0.00     0.117 C 
BRANCH  14  15
HETATM   15  C8  UNL     1      -6.063 -59.358  -8.480  1.00  0.00     0.057 C 
BRANCH  15  16
HETATM   16  C9  UNL     1      -6.814 -60.471  -7.789  1.00  0.00     0.170 C 
BRANCH  16  17
HETATM   17  O3  UNL     1      -5.914 -61.133  -6.966  1.00  0.00    -0.389 OA
ATOM     18  H3  UNL     1      -6.108 -62.062  -7.021  1.00  0.00     0.210 HD
ENDBRANCH  16  17
BRANCH  16  19
HETATM   19  C10 UNL     1      -7.389 -61.347  -8.827  1.00  0.00     0.054 A 
HETATM   20  C11 UNL     1      -8.460 -61.050  -9.633  1.00  0.00     0.116 A 
HETATM   21  N4  UNL     1      -8.695 -62.104 -10.459  1.00  0.00    -0.360 N 
HETATM   22  C12 UNL     1      -7.781 -63.046 -10.169  1.00  0.00     0.180 A 
ATOM     23  H4  UNL     1      -9.426 -62.168 -11.166  1.00  0.00     0.166 HD
HETATM   24  N5  UNL     1      -6.984 -62.577  -9.169  1.00  0.00    -0.352 N 
ATOM     25  H5  UNL     1      -6.204 -63.082  -8.748  1.00  0.00     0.166 HD
ENDBRANCH  16  19
ENDBRANCH  15  16
ENDBRANCH  14  15
ENDBRANCH   1  14
TORSDOF 9
ENDMDL
MODEL 3
REMARK VINA RESULT: -5.506132898      0.755      1.066
REMARK  9 active torsions:
REMARK  status: ('A' for Active; 'I' for Inactive)
REMARK    1  A    between atoms: C1_2  and  C2_4 
REMARK    2  A    between atoms: C2_4  and  C3_5 
REMARK    3  A    between atoms: C2_4  and  N3_12 
REMARK    4  A    between atoms: C3_5  and  N1_6 
REMARK    5  A    between atoms: N3_12  and  C7_14 
REMARK    6  A    between atoms: C7_14  and  C8_15 
REMARK    7  A    between atoms: C8_15  and  C9_16 
REMARK    8  A    between atoms: C9_16  and  O3_17 
REMARK    9  A    between atoms: C9_16  and  C10_19 
ROOT
HETATM    1  N3  UNL     1      -6.343 -57.885  -6.533  1.00  0.00    -0.407 N 
ATOM      2  H3  UNL     1      -5.487 -57.943  -5.982  1.00  0.00     0.154 HD
ENDROOT
BRANCH   1   3
HETATM    3  C2  UNL     1      -7.511 -57.240  -6.043  1.00  0.00     0.197 C 
BRANCH   3   4
HETATM    4  C1  UNL     1      -7.319 -56.521  -4.778  1.00  0.00     0.198 C 
HETATM    5  O1  UNL     1      -6.923 -55.346  -4.707  1.00  0.00    -0.646 OA
HETATM    6  O2  UNL     1      -7.604 -57.217  -3.601  1.00  0.00    -0.646 OA
ENDBRANCH   3   4
BRANCH   3   7
HETATM    7  C3  UNL     1      -8.672 -58.240  -5.945  1.00  0.00     0.165 C 
BRANCH   7   8
HETATM    8  N1  UNL     1      -9.938 -57.534  -5.965  1.00  0.00    -0.349 N 
HETATM    9  C4  UNL     1     -10.409 -56.744  -6.971  1.00  0.00     0.108 A 
HETATM   10  C5  UNL     1     -11.645 -56.233  -6.650  1.00  0.00     0.106 A 
HETATM   11  N2  UNL     1     -11.934 -56.724  -5.420  1.00  0.00    -0.361 N 
HETATM   12  C6  UNL     1     -10.895 -57.510  -5.015  1.00  0.00     0.182 A 
ATOM     13  H2  UNL     1     -12.784 -56.537  -4.888  1.00  0.00     0.166 HD
ENDBRANCH   7   8
ENDBRANCH   3   7
ENDBRANCH   1   3
BRANCH   1  14
HETATM   14  C7  UNL     1      -6.439 -58.454  -7.852  1.00  0.00     0.117 C 
BRANCH  14  15
HETATM   15  C8  UNL     1      -5.196 -59.298  -8.061  1.00  0.00     0.057 C 
BRANCH  15  16
HETATM   16  C9  UNL     1      -5.487 -60.771  -7.903  1.00  0.00     0.170 C 
BRANCH  16  17
HETATM   17  O3  UNL     1      -6.474 -60.899  -6.937  1.00  0.00    -0.389 OA
ATOM     18  H3  UNL     1      -6.197 -61.578  -6.333  1.00  0.00     0.210 HD
ENDBRANCH  16  17
BRANCH  16  19
HETATM   19  C10 UNL     1      -4.231 -61.448  -7.528  1.00  0.00     0.054 A 
HETATM   20  C11 UNL     1      -3.079 -61.484  -8.274  1.00  0.00     0.116 A 
HETATM   21  N4  UNL     1      -2.142 -62.203  -7.601  1.00  0.00    -0.360 N 
HETATM   22  C12 UNL     1      -2.705 -62.610  -6.451  1.00  0.00     0.180 A 
ATOM     23  H4  UNL     1      -1.190 -62.398  -7.911  1.00  0.00     0.166 HD
HETATM   24  N5  UNL     1      -3.984 -62.145  -6.411  1.00  0.00    -0.352 N 
ATOM     25  H5  UNL     1      -4.648 -62.302  -5.653  1.00  0.00     0.166 HD
ENDBRANCH  16  19
ENDBRANCH  15  16
ENDBRANCH  14  15
ENDBRANCH   1  14
TORSDOF 9
ENDMDL
MODEL 4
REMARK VINA RESULT: -5.451303263      1.232      1.578
REMARK  9 active torsions:
REMARK  status: ('A' for Active; 'I' for Inactive)
REMARK    1  A    between atoms: C1_2  and  C2_4 
REMARK    2  A    between atoms: C2_4  and  C3_5 
REMARK    3  A    between atoms: C2_4  and  N3_12 
REMARK    4  A    between atoms: C3_5  and  N1_6 
REMARK    5  A    between atoms: N3_12  and  C7_14 
REMARK    6  A    between atoms: C7_14  and  C8_15 
REMARK    7  A    between atoms: C8_15  and  C9_16 
REMARK    8  A    between atoms: C9_16  and  O3_17 
REMARK    9  A    between atoms: C9_16  and  C10_19 
ROOT
HETATM    1  N3  UNL     1      -6.336 -57.897  -6.433  1.00  0.00    -0.407 N 
ATOM      2  H3  UNL     1      -5.553 -58.058  -5.800  1.00  0.00     0.154 HD
ENDROOT
BRANCH   1   3
HETATM    3  C2  UNL     1      -7.532 -57.261  -6.003  1.00  0.00     0.197 C 
BRANCH   3   4
HETATM    4  C1  UNL     1      -7.413 -56.549  -4.725  1.00  0.00     0.198 C 
HETATM    5  O1  UNL     1      -7.079 -55.357  -4.630  1.00  0.00    -0.646 OA
HETATM    6  O2  UNL     1      -7.695 -57.272  -3.564  1.00  0.00    -0.646 OA
ENDBRANCH   3   4
BRANCH   3   7
HETATM    7  C3  UNL     1      -8.691 -58.268  -5.974  1.00  0.00     0.165 C 
BRANCH   7   8
HETATM    8  N1  UNL     1      -9.959 -57.566  -5.979  1.00  0.00    -0.349 N 
HETATM    9  C4  UNL     1     -10.426 -56.746  -6.962  1.00  0.00     0.108 A 
HETATM   10  C5  UNL     1     -11.666 -56.248  -6.632  1.00  0.00     0.106 A 
HETATM   11  N2  UNL     1     -11.961 -56.779  -5.420  1.00  0.00    -0.361 N 
HETATM   12  C6  UNL     1     -10.921 -57.574  -5.034  1.00  0.00     0.182 A 
ATOM     13  H2  UNL     1     -12.815 -56.611  -4.887  1.00  0.00     0.166 HD
ENDBRANCH   7   8
ENDBRANCH   3   7
ENDBRANCH   1   3
BRANCH   1  14
HETATM   14  C7  UNL     1      -6.294 -58.302  -7.814  1.00  0.00     0.117 C 
BRANCH  14  15
HETATM   15  C8  UNL     1      -4.869 -58.732  -8.106  1.00  0.00     0.057 C 
BRANCH  15  16
HETATM   16  C9  UNL     1      -4.097 -59.002  -6.837  1.00  0.00     0.170 C 
BRANCH  16  17
HETATM   17  O3  UNL     1      -2.987 -58.169  -6.838  1.00  0.00    -0.389 OA
ATOM     18  H3  UNL     1      -2.268 -58.652  -7.228  1.00  0.00     0.210 HD
ENDBRANCH  16  17
BRANCH  16  19
HETATM   19  C10 UNL     1      -3.735 -60.432  -6.818  1.00  0.00     0.054 A 
HETATM   20  C11 UNL     1      -2.459 -60.943  -6.806  1.00  0.00     0.116 A 
HETATM   21  N4  UNL     1      -2.530 -62.301  -6.793  1.00  0.00    -0.360 N 
HETATM   22  C12 UNL     1      -3.832 -62.630  -6.799  1.00  0.00     0.180 A 
ATOM     23  H4  UNL     1      -1.742 -62.947  -6.782  1.00  0.00     0.166 HD
HETATM   24  N5  UNL     1      -4.565 -61.483  -6.814  1.00  0.00    -0.352 N 
ATOM     25  H5  UNL     1      -5.584 -61.431  -6.821  1.00  0.00     0.166 HD
ENDBRANCH  16  19
ENDBRANCH  15  16
ENDBRANCH  14  15
ENDBRANCH   1  14
TORSDOF 9
ENDMDL
MODEL 5
REMARK VINA RESULT: -5.448789788      2.608      3.803
REMARK  9 active torsions:
REMARK  status: ('A' for Active; 'I' for Inactive)
REMARK    1  A    between atoms: C1_2  and  C2_4 
REMARK    2  A    between atoms: C2_4  and  C3_5 
REMARK    3  A    between atoms: C2_4  and  N3_12 
REMARK    4  A    between atoms: C3_5  and  N1_6 
REMARK    5  A    between atoms: N3_12  and  C7_14 
REMARK    6  A    between atoms: C7_14  and  C8_15 
REMARK    7  A    between atoms: C8_15  and  C9_16 
REMARK    8  A    between atoms: C9_16  and  O3_17 
REMARK    9  A    between atoms: C9_16  and  C10_19 
ROOT
HETATM    1  N3  UNL     1      -6.470 -57.892  -6.539  1.00  0.00    -0.407 N 
ATOM      2  H3  UNL     1      -5.529 -57.624  -6.252  1.00  0.00     0.154 HD
ENDROOT
BRANCH   1   3
HETATM    3  C2  UNL     1      -7.627 -57.280  -5.985  1.00  0.00     0.197 C 
BRANCH   3   4
HETATM    4  C1  UNL     1      -7.417 -56.666  -4.669  1.00  0.00     0.198 C 
HETATM    5  O1  UNL     1      -7.595 -57.263  -3.595  1.00  0.00    -0.646 OA
HETATM    6  O2  UNL     1      -6.992 -55.336  -4.647  1.00  0.00    -0.646 OA
ENDBRANCH   3   4
BRANCH   3   7
HETATM    7  C3  UNL     1      -8.795 -58.277  -5.955  1.00  0.00     0.165 C 
BRANCH   7   8
HETATM    8  N1  UNL     1     -10.057 -57.564  -5.959  1.00  0.00    -0.349 N 
HETATM    9  C4  UNL     1     -10.507 -56.720  -6.929  1.00  0.00     0.108 A 
HETATM   10  C5  UNL     1     -11.746 -56.218  -6.602  1.00  0.00     0.106 A 
HETATM   11  N2  UNL     1     -12.058 -56.771  -5.404  1.00  0.00    -0.361 N 
HETATM   12  C6  UNL     1     -11.029 -57.583  -5.024  1.00  0.00     0.182 A 
ATOM     13  H2  UNL     1     -12.916 -56.608  -4.877  1.00  0.00     0.166 HD
ENDBRANCH   7   8
ENDBRANCH   3   7
ENDBRANCH   1   3
BRANCH   1  14
HETATM   14  C7  UNL     1      -6.703 -58.911  -7.528  1.00  0.00     0.117 C 
BRANCH  14  15
HETATM   15  C8  UNL     1      -6.147 -58.391  -8.840  1.00  0.00     0.057 C 
BRANCH  15  16
HETATM   16  C9  UNL     1      -7.245 -57.941  -9.773  1.00  0.00     0.170 C 
BRANCH  16  17
HETATM   17  O3  UNL     1      -7.806 -56.793  -9.233  1.00  0.00    -0.389 OA
ATOM     18  H3  UNL     1      -7.483 -56.054  -9.735  1.00  0.00     0.210 HD
ENDBRANCH  16  17
BRANCH  16  19
HETATM   19  C10 UNL     1      -8.216 -59.044  -9.901  1.00  0.00     0.054 A 
HETATM   20  C11 UNL     1      -7.992 -60.250 -10.519  1.00  0.00     0.116 A 
HETATM   21  N4  UNL     1      -9.121 -61.002 -10.436  1.00  0.00    -0.360 N 
HETATM   22  C12 UNL     1     -10.036 -60.273  -9.777  1.00  0.00     0.180 A 
ATOM     23  H4  UNL     1      -9.250 -61.944 -10.806  1.00  0.00     0.166 HD
HETATM   24  N5  UNL     1      -9.477 -59.075  -9.451  1.00  0.00    -0.352 N 
ATOM     25  H5  UNL     1      -9.944 -58.321  -8.946  1.00  0.00     0.166 HD
ENDBRANCH  16  19
ENDBRANCH  15  16
ENDBRANCH  14  15
ENDBRANCH   1  14
TORSDOF 9
ENDMDL
