MODEL 1
REMARK VINA RESULT: -6.230824897      0.000      0.000
REMARK  6 active torsions:
REMARK  status: ('A' for Active; 'I' for Inactive)
REMARK    1  A    between atoms: C2_2  and  N1_3 
REMARK    2  A    between atoms: N1_3  and  C3_4 
REMARK       I    between atoms: N1_3  and  C5_6 
REMARK    3  A    between atoms: C5_6  and  C6_8 
REMARK    4  A    between atoms: C7_9  and  C8_10 
REMARK    5  A    between atoms: C16_18  and  N2_19 
REMARK    6  A    between atoms: N2_19  and  C17_21 
ROOT
HETATM    1  C8  UNL     1      28.386  -4.701  -0.544  1.00  0.00    -0.053 C 
HETATM    2  C9  UNL     1      29.141  -5.666  -1.119  1.00  0.00    -0.018 C 
HETATM    3  C10 UNL     1      29.808  -5.253  -2.326  1.00  0.00     0.033 C 
HETATM    4  C11 UNL     1      29.246  -3.941  -2.663  1.00  0.00     0.006 C 
HETATM    5  C12 UNL     1      30.214  -2.946  -3.197  1.00  0.00    -0.004 C 
HETATM    6  C13 UNL     1      29.505  -1.819  -3.841  1.00  0.00     0.006 C 
HETATM    7  C14 UNL     1      30.289  -0.500  -3.702  1.00  0.00     0.008 C 
HETATM    8  C15 UNL     1      31.714  -0.863  -3.936  1.00  0.00     0.017 C 
HETATM    9  C16 UNL     1      32.624   0.255  -4.304  1.00  0.00     0.088 C 
HETATM   10  C18 UNL     1      32.542   1.301  -3.220  1.00  0.00     0.026 C 
HETATM   11  C19 UNL     1      32.575   0.741  -1.845  1.00  0.00     0.003 C 
HETATM   12  C20 UNL     1      32.934  -0.701  -1.746  1.00  0.00     0.010 C 
HETATM   13  C21 UNL     1      32.262  -1.616  -2.712  1.00  0.00    -0.035 C 
HETATM   14  C22 UNL     1      33.376  -2.483  -3.347  1.00  0.00     0.016 C 
HETATM   15  C23 UNL     1      31.238  -2.527  -2.138  1.00  0.00    -0.001 C 
HETATM   16  C24 UNL     1      30.594  -2.145  -0.864  1.00  0.00     0.007 C 
HETATM   17  C25 UNL     1      29.131  -2.367  -0.731  1.00  0.00     0.015 C 
HETATM   18  C26 UNL     1      28.517  -3.528  -1.403  1.00  0.00    -0.013 C 
HETATM   19  C27 UNL     1      27.092  -3.133  -1.860  1.00  0.00     0.021 C 
ENDROOT
BRANCH   1  20
HETATM   20  C7  UNL     1      27.630  -4.893   0.672  1.00  0.00     0.013 C 
HETATM   21  C6  UNL     1      27.170  -4.329   1.689  1.00  0.00     0.075 C 
BRANCH  21  22
HETATM   22  C5  UNL     1      27.078  -3.092   2.348  1.00  0.00     0.243 C 
HETATM   23  N1  UNL     1      28.255  -2.548   3.041  1.00  0.00    -0.349 N 
HETATM   24  O1  UNL     1      26.061  -2.364   2.417  1.00  0.00    -0.268 OA
BRANCH  23  25
HETATM   25  C2  UNL     1      28.108  -1.312   3.743  1.00  0.00     0.121 C 
HETATM   26  C1  UNL     1      28.704  -0.199   2.878  1.00  0.00     0.026 C 
ENDBRANCH  23  25
BRANCH  23  27
HETATM   27  C3  UNL     1      29.521  -3.199   2.996  1.00  0.00     0.121 C 
HETATM   28  C4  UNL     1      30.255  -3.132   4.311  1.00  0.00     0.026 C 
ENDBRANCH  23  27
ENDBRANCH  21  22
ENDBRANCH   1  20
BRANCH   9  29
HETATM   29  N2  UNL     1      32.181   0.838  -5.548  1.00  0.00    -0.363 N 
ATOM     30  H2  UNL     1      31.287   0.536  -5.935  1.00  0.00     0.162 HD
BRANCH  29  31
HETATM   31  C17 UNL     1      32.932   1.811  -6.258  1.00  0.00     0.348 C 
HETATM   32  O2  UNL     1      34.129   1.500  -6.561  1.00  0.00    -0.284 OA
ENDBRANCH  29  31
ENDBRANCH   9  29
TORSDOF 6
ENDMDL
MODEL 2
REMARK VINA RESULT: -5.859513515      4.715      7.334
REMARK  6 active torsions:
REMARK  status: ('A' for Active; 'I' for Inactive)
REMARK    1  A    between atoms: C2_2  and  N1_3 
REMARK    2  A    between atoms: N1_3  and  C3_4 
REMARK       I    between atoms: N1_3  and  C5_6 
REMARK    3  A    between atoms: C5_6  and  C6_8 
REMARK    4  A    between atoms: C7_9  and  C8_10 
REMARK    5  A    between atoms: C16_18  and  N2_19 
REMARK    6  A    between atoms: N2_19  and  C17_21 
ROOT
HETATM    1  C8  UNL     1      31.030   0.791  -3.636  1.00  0.00    -0.053 C 
HETATM    2  C9  UNL     1      30.418   1.727  -2.873  1.00  0.00    -0.018 C 
HETATM    3  C10 UNL     1      29.841   2.813  -3.621  1.00  0.00     0.033 C 
HETATM    4  C11 UNL     1      30.324   2.651  -4.997  1.00  0.00     0.006 C 
HETATM    5  C12 UNL     1      29.335   2.957  -6.064  1.00  0.00    -0.004 C 
HETATM    6  C13 UNL     1      30.009   3.124  -7.370  1.00  0.00     0.006 C 
HETATM    7  C14 UNL     1      29.110   2.672  -8.537  1.00  0.00     0.008 C 
HETATM    8  C15 UNL     1      27.749   3.178  -8.202  1.00  0.00     0.017 C 
HETATM    9  C16 UNL     1      26.792   3.281  -9.337  1.00  0.00     0.088 C 
HETATM   10  C18 UNL     1      26.680   1.921  -9.981  1.00  0.00     0.026 C 
HETATM   11  C19 UNL     1      26.558   0.807  -9.007  1.00  0.00     0.003 C 
HETATM   12  C20 UNL     1      26.310   1.210  -7.595  1.00  0.00     0.010 C 
HETATM   13  C21 UNL     1      27.147   2.327  -7.072  1.00  0.00    -0.035 C 
HETATM   14  C22 UNL     1      26.176   3.330  -6.404  1.00  0.00     0.016 C 
HETATM   15  C23 UNL     1      28.181   1.950  -6.073  1.00  0.00    -0.001 C 
HETATM   16  C24 UNL     1      28.662   0.553  -6.054  1.00  0.00     0.007 C 
HETATM   17  C25 UNL     1      30.119   0.323  -5.869  1.00  0.00     0.015 C 
HETATM   18  C26 UNL     1      30.889   1.247  -5.016  1.00  0.00    -0.013 C 
HETATM   19  C27 UNL     1      32.314   1.382  -5.603  1.00  0.00     0.021 C 
ENDROOT
BRANCH   1  20
HETATM   20  C7  UNL     1      31.675  -0.384  -3.099  1.00  0.00     0.013 C 
HETATM   21  C6  UNL     1      31.539  -1.368  -2.338  1.00  0.00     0.075 C 
BRANCH  21  22
HETATM   22  C5  UNL     1      30.636  -2.005  -1.471  1.00  0.00     0.243 C 
HETATM   23  N1  UNL     1      29.849  -3.150  -1.953  1.00  0.00    -0.349 N 
HETATM   24  O1  UNL     1      30.411  -1.696  -0.279  1.00  0.00    -0.268 OA
BRANCH  23  25
HETATM   25  C2  UNL     1      28.905  -3.739  -1.059  1.00  0.00     0.121 C 
HETATM   26  C1  UNL     1      27.514  -3.622  -1.687  1.00  0.00     0.026 C 
ENDBRANCH  23  25
BRANCH  23  27
HETATM   27  C3  UNL     1      30.035  -3.693  -3.257  1.00  0.00     0.121 C 
HETATM   28  C4  UNL     1      30.817  -4.982  -3.243  1.00  0.00     0.026 C 
ENDBRANCH  23  27
ENDBRANCH  21  22
ENDBRANCH   1  20
BRANCH   9  29
HETATM   29  N2  UNL     1      27.305   4.216 -10.308  1.00  0.00    -0.363 N 
ATOM     30  H2  UNL     1      28.316   4.283 -10.432  1.00  0.00     0.162 HD
BRANCH  29  31
HETATM   31  C17 UNL     1      26.471   5.047 -11.100  1.00  0.00     0.348 C 
HETATM   32  O2  UNL     1      25.323   5.327 -10.623  1.00  0.00    -0.284 OA
ENDBRANCH  29  31
ENDBRANCH   9  29
TORSDOF 6
ENDMDL
MODEL 3
REMARK VINA RESULT: -5.699071572      4.419      6.583
REMARK  6 active torsions:
REMARK  status: ('A' for Active; 'I' for Inactive)
REMARK    1  A    between atoms: C2_2  and  N1_3 
REMARK    2  A    between atoms: N1_3  and  C3_4 
REMARK       I    between atoms: N1_3  and  C5_6 
REMARK    3  A    between atoms: C5_6  and  C6_8 
REMARK    4  A    between atoms: C7_9  and  C8_10 
REMARK    5  A    between atoms: C16_18  and  N2_19 
REMARK    6  A    between atoms: N2_19  and  C17_21 
ROOT
HETATM    1  C8  UNL     1      30.166   0.446  -2.419  1.00  0.00    -0.053 C 
HETATM    2  C9  UNL     1      29.510   1.386  -1.698  1.00  0.00    -0.018 C 
HETATM    3  C10 UNL     1      29.076   2.522  -2.466  1.00  0.00     0.033 C 
HETATM    4  C11 UNL     1      29.711   2.381  -3.781  1.00  0.00     0.006 C 
HETATM    5  C12 UNL     1      28.871   2.770  -4.944  1.00  0.00    -0.004 C 
HETATM    6  C13 UNL     1      29.701   2.946  -6.155  1.00  0.00     0.006 C 
HETATM    7  C14 UNL     1      28.927   2.577  -7.435  1.00  0.00     0.008 C 
HETATM    8  C15 UNL     1      27.561   3.138  -7.243  1.00  0.00     0.017 C 
HETATM    9  C16 UNL     1      26.751   3.325  -8.477  1.00  0.00     0.088 C 
HETATM   10  C18 UNL     1      26.655   1.994  -9.181  1.00  0.00     0.026 C 
HETATM   11  C19 UNL     1      26.367   0.856  -8.271  1.00  0.00     0.003 C 
HETATM   12  C20 UNL     1      25.973   1.225  -6.884  1.00  0.00     0.010 C 
HETATM   13  C21 UNL     1      26.791   2.282  -6.224  1.00  0.00    -0.035 C 
HETATM   14  C22 UNL     1      25.794   3.310  -5.637  1.00  0.00     0.016 C 
HETATM   15  C23 UNL     1      27.681   1.822  -5.126  1.00  0.00    -0.001 C 
HETATM   16  C24 UNL     1      28.093   0.404  -5.104  1.00  0.00     0.007 C 
HETATM   17  C25 UNL     1      29.505   0.095  -4.758  1.00  0.00     0.015 C 
HETATM   18  C26 UNL     1      30.210   0.953  -3.787  1.00  0.00    -0.013 C 
HETATM   19  C27 UNL     1      31.700   1.036  -4.197  1.00  0.00     0.021 C 
ENDROOT
BRANCH   1  20
HETATM   20  C7  UNL     1      30.689  -0.777  -1.854  1.00  0.00     0.013 C 
HETATM   21  C6  UNL     1      30.539  -1.633  -0.955  1.00  0.00     0.075 C 
BRANCH  21  22
HETATM   22  C5  UNL     1      29.735  -1.989   0.141  1.00  0.00     0.243 C 
HETATM   23  N1  UNL     1      28.706  -3.026  -0.018  1.00  0.00    -0.349 N 
HETATM   24  O1  UNL     1      29.796  -1.500   1.292  1.00  0.00    -0.268 OA
BRANCH  23  25
HETATM   25  C2  UNL     1      27.874  -3.324   1.104  1.00  0.00     0.121 C 
HETATM   26  C1  UNL     1      27.961  -4.827   1.377  1.00  0.00     0.026 C 
ENDBRANCH  23  25
BRANCH  23  27
HETATM   27  C3  UNL     1      28.550  -3.750  -1.235  1.00  0.00     0.121 C 
HETATM   28  C4  UNL     1      27.279  -3.395  -1.964  1.00  0.00     0.026 C 
ENDBRANCH  23  27
ENDBRANCH  21  22
ENDBRANCH   1  20
BRANCH   9  29
HETATM   29  N2  UNL     1      27.418   4.264  -9.346  1.00  0.00    -0.363 N 
ATOM     30  H2  UNL     1      28.286   4.692  -9.024  1.00  0.00     0.162 HD
BRANCH  29  31
HETATM   31  C17 UNL     1      26.923   4.621 -10.627  1.00  0.00     0.348 C 
HETATM   32  O2  UNL     1      25.724   5.049 -10.679  1.00  0.00    -0.284 OA
ENDBRANCH  29  31
ENDBRANCH   9  29
TORSDOF 6
ENDMDL
MODEL 4
REMARK VINA RESULT: -5.689537410      4.548      6.702
REMARK  6 active torsions:
REMARK  status: ('A' for Active; 'I' for Inactive)
REMARK    1  A    between atoms: C2_2  and  N1_3 
REMARK    2  A    between atoms: N1_3  and  C3_4 
REMARK       I    between atoms: N1_3  and  C5_6 
REMARK    3  A    between atoms: C5_6  and  C6_8 
REMARK    4  A    between atoms: C7_9  and  C8_10 
REMARK    5  A    between atoms: C16_18  and  N2_19 
REMARK    6  A    between atoms: N2_19  and  C17_21 
ROOT
HETATM    1  C8  UNL     1      29.741   0.997  -2.119  1.00  0.00    -0.053 C 
HETATM    2  C9  UNL     1      29.139   2.105  -1.625  1.00  0.00    -0.018 C 
HETATM    3  C10 UNL     1      28.861   3.115  -2.612  1.00  0.00     0.033 C 
HETATM    4  C11 UNL     1      29.554   2.683  -3.830  1.00  0.00     0.006 C 
HETATM    5  C12 UNL     1      28.822   2.923  -5.103  1.00  0.00    -0.004 C 
HETATM    6  C13 UNL     1      29.734   2.805  -6.262  1.00  0.00     0.006 C 
HETATM    7  C14 UNL     1      29.002   2.276  -7.510  1.00  0.00     0.008 C 
HETATM    8  C15 UNL     1      27.687   2.975  -7.521  1.00  0.00     0.017 C 
HETATM    9  C16 UNL     1      26.971   3.003  -8.824  1.00  0.00     0.088 C 
HETATM   10  C18 UNL     1      26.787   1.579  -9.287  1.00  0.00     0.026 C 
HETATM   11  C19 UNL     1      26.340   0.654  -8.215  1.00  0.00     0.003 C 
HETATM   12  C20 UNL     1      25.904   1.302  -6.947  1.00  0.00     0.010 C 
HETATM   13  C21 UNL     1      26.781   2.388  -6.426  1.00  0.00    -0.035 C 
HETATM   14  C22 UNL     1      25.856   3.586  -6.104  1.00  0.00     0.016 C 
HETATM   15  C23 UNL     1      27.559   2.063  -5.201  1.00  0.00    -0.001 C 
HETATM   16  C24 UNL     1      27.830   0.642  -4.899  1.00  0.00     0.007 C 
HETATM   17  C25 UNL     1      29.184   0.283  -4.402  1.00  0.00     0.015 C 
HETATM   18  C26 UNL     1      29.912   1.241  -3.548  1.00  0.00    -0.013 C 
HETATM   19  C27 UNL     1      31.423   1.122  -3.856  1.00  0.00     0.021 C 
ENDROOT
BRANCH   1  20
HETATM   20  C7  UNL     1      30.110  -0.142  -1.311  1.00  0.00     0.013 C 
HETATM   21  C6  UNL     1      29.913  -1.360  -1.110  1.00  0.00     0.075 C 
BRANCH  21  22
HETATM   22  C5  UNL     1      29.174  -2.470  -1.553  1.00  0.00     0.243 C 
HETATM   23  N1  UNL     1      28.530  -3.354  -0.572  1.00  0.00    -0.349 N 
HETATM   24  O1  UNL     1      28.992  -2.810  -2.745  1.00  0.00    -0.268 OA
BRANCH  23  25
HETATM   25  C2  UNL     1      27.831  -4.501  -1.058  1.00  0.00     0.121 C 
HETATM   26  C1  UNL     1      28.666  -5.742  -0.735  1.00  0.00     0.026 C 
ENDBRANCH  23  25
BRANCH  23  27
HETATM   27  C3  UNL     1      28.560  -3.074   0.825  1.00  0.00     0.121 C 
HETATM   28  C4  UNL     1      27.265  -3.418   1.515  1.00  0.00     0.026 C 
ENDBRANCH  23  27
ENDBRANCH  21  22
ENDBRANCH   1  20
BRANCH   9  29
HETATM   29  N2  UNL     1      27.773   3.708  -9.793  1.00  0.00    -0.363 N 
ATOM     30  H2  UNL     1      28.749   3.902  -9.567  1.00  0.00     0.162 HD
BRANCH  29  31
HETATM   31  C17 UNL     1      27.270   4.144 -11.046  1.00  0.00     0.348 C 
HETATM   32  O2  UNL     1      26.028   4.425 -11.098  1.00  0.00    -0.284 OA
ENDBRANCH  29  31
ENDBRANCH   9  29
TORSDOF 6
ENDMDL
MODEL 5
REMARK VINA RESULT: -5.674152098      4.158      6.739
REMARK  6 active torsions:
REMARK  status: ('A' for Active; 'I' for Inactive)
REMARK    1  A    between atoms: C2_2  and  N1_3 
REMARK    2  A    between atoms: N1_3  and  C3_4 
REMARK       I    between atoms: N1_3  and  C5_6 
REMARK    3  A    between atoms: C5_6  and  C6_8 
REMARK    4  A    between atoms: C7_9  and  C8_10 
REMARK    5  A    between atoms: C16_18  and  N2_19 
REMARK    6  A    between atoms: N2_19  and  C17_21 
ROOT
HETATM    1  C8  UNL     1      29.714   0.644  -1.922  1.00  0.00    -0.053 C 
HETATM    2  C9  UNL     1      29.209   1.791  -1.410  1.00  0.00    -0.018 C 
HETATM    3  C10 UNL     1      29.084   2.859  -2.365  1.00  0.00     0.033 C 
HETATM    4  C11 UNL     1      29.783   2.401  -3.570  1.00  0.00     0.006 C 
HETATM    5  C12 UNL     1      29.140   2.762  -4.862  1.00  0.00    -0.004 C 
HETATM    6  C13 UNL     1      30.087   2.589  -5.985  1.00  0.00     0.006 C 
HETATM    7  C14 UNL     1      29.362   2.185  -7.283  1.00  0.00     0.008 C 
HETATM    8  C15 UNL     1      28.130   3.021  -7.321  1.00  0.00     0.017 C 
HETATM    9  C16 UNL     1      27.481   3.170  -8.651  1.00  0.00     0.088 C 
HETATM   10  C18 UNL     1      27.171   1.791  -9.179  1.00  0.00     0.026 C 
HETATM   11  C19 UNL     1      26.581   0.881  -8.165  1.00  0.00     0.003 C 
HETATM   12  C20 UNL     1      26.157   1.526  -6.891  1.00  0.00     0.010 C 
HETATM   13  C21 UNL     1      27.118   2.493  -6.290  1.00  0.00    -0.035 C 
HETATM   14  C22 UNL     1      26.309   3.771  -5.959  1.00  0.00     0.016 C 
HETATM   15  C23 UNL     1      27.800   2.044  -5.048  1.00  0.00    -0.001 C 
HETATM   16  C24 UNL     1      27.907   0.593  -4.793  1.00  0.00     0.007 C 
HETATM   17  C25 UNL     1      29.193   0.075  -4.254  1.00  0.00     0.015 C 
HETATM   18  C26 UNL     1      29.976   0.919  -3.332  1.00  0.00    -0.013 C 
HETATM   19  C27 UNL     1      31.479   0.652  -3.581  1.00  0.00     0.021 C 
ENDROOT
BRANCH   1  20
HETATM   20  C7  UNL     1      29.926  -0.556  -1.146  1.00  0.00     0.013 C 
HETATM   21  C6  UNL     1      30.403  -1.712  -1.161  1.00  0.00     0.075 C 
BRANCH  21  22
HETATM   22  C5  UNL     1      31.073  -2.644  -1.970  1.00  0.00     0.243 C 
HETATM   23  N1  UNL     1      30.356  -3.830  -2.461  1.00  0.00    -0.349 N 
HETATM   24  O1  UNL     1      32.269  -2.581  -2.337  1.00  0.00    -0.268 OA
BRANCH  23  25
HETATM   25  C2  UNL     1      31.085  -4.781  -3.238  1.00  0.00     0.121 C 
HETATM   26  C1  UNL     1      30.835  -4.480  -4.717  1.00  0.00     0.026 C 
ENDBRANCH  23  25
BRANCH  23  27
HETATM   27  C3  UNL     1      28.967  -4.024  -2.211  1.00  0.00     0.121 C 
HETATM   28  C4  UNL     1      28.686  -5.290  -1.442  1.00  0.00     0.026 C 
ENDBRANCH  23  27
ENDBRANCH  21  22
ENDBRANCH   1  20
BRANCH   9  29
HETATM   29  N2  UNL     1      28.396   3.821  -9.557  1.00  0.00    -0.363 N 
ATOM     30  H2  UNL     1      28.682   4.779  -9.354  1.00  0.00     0.162 HD
BRANCH  29  31
HETATM   31  C17 UNL     1      28.919   3.190 -10.716  1.00  0.00     0.348 C 
HETATM   32  O2  UNL     1      30.152   2.870 -10.686  1.00  0.00    -0.284 OA
ENDBRANCH  29  31
ENDBRANCH   9  29
TORSDOF 6
ENDMDL
