MODEL 1
REMARK VINA RESULT: -7.886256912      0.000      0.000
REMARK  14 active torsions:
REMARK  status: ('A' for Active; 'I' for Inactive)
REMARK    1  A    between atoms: O1_2  and  C2_3 
REMARK    2  A    between atoms: C2_3  and  C3_4 
REMARK    3  A    between atoms: C6_8  and  C7_9 
REMARK    4  A    between atoms: C7_9  and  C9_11 
REMARK    5  A    between atoms: C9_11  and  O3_12 
REMARK    6  A    between atoms: C9_11  and  C10_14 
REMARK    7  A    between atoms: C10_14  and  C12_16 
REMARK    8  A    between atoms: C13_17  and  C14_18 
REMARK    9  A    between atoms: C18_22  and  O4_23 
REMARK   10  A    between atoms: O4_23  and  C19_24 
REMARK   11  A    between atoms: C23_29  and  O6_30 
REMARK   12  A    between atoms: C24_32  and  O7_33 
REMARK   13  A    between atoms: C25_35  and  O8_36 
REMARK   14  A    between atoms: C26_38  and  C27_39 
ROOT
HETATM    1  C3  UNL     1      -6.621   0.285   3.380  1.00  0.00     0.054 C 
HETATM    2  C4  UNL     1      -5.637  -0.855   3.273  1.00  0.00     0.027 C 
HETATM    3  C5  UNL     1      -6.290   1.270   4.444  1.00  0.00     0.145 C 
HETATM    4  O2  UNL     1      -5.251   1.919   4.393  1.00  0.00    -0.296 OA
HETATM    5  C6  UNL     1      -7.314   1.322   5.442  1.00  0.00     0.092 C 
HETATM    6  C18 UNL     1      -8.517   0.534   4.937  1.00  0.00     0.152 C 
HETATM    7  C26 UNL     1      -7.997  -0.135   3.708  1.00  0.00     0.134 C 
ENDROOT
BRANCH   6   8
HETATM    8  O4  UNL     1      -9.488   1.439   4.598  1.00  0.00    -0.351 OA
BRANCH   8   9
HETATM    9  C19 UNL     1     -10.217   1.200   3.468  1.00  0.00     0.292 C 
HETATM   10  O5  UNL     1     -11.480   0.713   3.676  1.00  0.00    -0.346 OA
HETATM   11  C20 UNL     1     -12.534   1.568   3.587  1.00  0.00     0.085 C 
HETATM   12  C21 UNL     1     -12.480   2.577   4.703  1.00  0.00     0.048 C 
HETATM   13  C22 UNL     1     -13.842   0.785   3.796  1.00  0.00     0.048 C 
HETATM   14  C23 UNL     1     -12.585   2.315   2.271  1.00  0.00     0.183 C 
HETATM   15  C24 UNL     1     -11.336   2.029   1.452  1.00  0.00     0.183 C 
HETATM   16  C25 UNL     1     -10.177   2.212   2.408  1.00  0.00     0.204 C 
BRANCH  14  17
HETATM   17  O6  UNL     1     -13.731   1.898   1.602  1.00  0.00    -0.390 OA
ATOM     18  H6  UNL     1     -13.456   1.549   0.762  1.00  0.00     0.210 HD
ENDBRANCH  14  17
BRANCH  15  19
HETATM   19  O7  UNL     1     -11.311   0.755   0.928  1.00  0.00    -0.390 OA
ATOM     20  H7  UNL     1     -11.350   0.740  -0.021  1.00  0.00     0.210 HD
ENDBRANCH  15  19
BRANCH  16  21
HETATM   21  O8  UNL     1     -10.224   3.539   2.826  1.00  0.00    -0.388 OA
ATOM     22  H8  UNL     1      -9.837   4.177   2.236  1.00  0.00     0.210 HD
ENDBRANCH  16  21
ENDBRANCH   8   9
ENDBRANCH   6   8
BRANCH   5  23
HETATM   23  C7  UNL     1      -6.906   0.937   6.830  1.00  0.00     0.025 C 
HETATM   24  C8  UNL     1      -8.065   0.521   7.669  1.00  0.00     0.013 C 
BRANCH  23  25
HETATM   25  C9  UNL     1      -5.583   0.356   7.041  1.00  0.00     0.130 C 
BRANCH  25  26
HETATM   26  O3  UNL     1      -4.599   1.315   7.395  1.00  0.00    -0.395 OA
ATOM     27  H3  UNL     1      -3.741   0.935   7.543  1.00  0.00     0.210 HD
ENDBRANCH  25  26
BRANCH  25  28
HETATM   28  C10 UNL     1      -5.388  -0.798   7.969  1.00  0.00     0.033 C 
HETATM   29  C11 UNL     1      -4.852  -2.039   7.404  1.00  0.00     0.017 C 
BRANCH  28  30
HETATM   30  C12 UNL     1      -4.692  -0.360   9.189  1.00  0.00    -0.020 C 
HETATM   31  C13 UNL     1      -4.990  -0.191  10.399  1.00  0.00    -0.003 C 
BRANCH  31  32
HETATM   32  C14 UNL     1      -6.199  -0.358  11.164  1.00  0.00     0.002 C 
HETATM   33  C15 UNL     1      -6.117  -0.449  12.488  1.00  0.00    -0.088 C 
HETATM   34  C16 UNL     1      -4.804  -0.379  13.146  1.00  0.00     0.043 C 
HETATM   35  C17 UNL     1      -7.336  -0.621  13.291  1.00  0.00     0.043 C 
ENDBRANCH  31  32
ENDBRANCH  28  30
ENDBRANCH  25  28
ENDBRANCH  23  25
ENDBRANCH   5  23
BRANCH   7  36
HETATM   36  C27 UNL     1      -8.078  -1.618   3.767  1.00  0.00     0.180 C 
HETATM   37  O9  UNL     1      -8.549  -2.317   2.836  1.00  0.00    -0.648 OA
HETATM   38  O10 UNL     1      -7.618  -2.287   4.889  1.00  0.00    -0.648 OA
ENDBRANCH   7  36
BRANCH   1  39
HETATM   39  C2  UNL     1      -6.565   0.959   2.002  1.00  0.00     0.184 C 
BRANCH  39  40
HETATM   40  O1  UNL     1      -7.438   0.376   1.111  1.00  0.00    -0.395 OA
HETATM   41  C1  UNL     1      -6.778   0.349  -0.127  1.00  0.00     0.201 C 
ENDBRANCH  39  40
ENDBRANCH   1  39
TORSDOF 14
ENDMDL
MODEL 2
REMARK VINA RESULT: -7.501728094      1.273      2.057
REMARK  14 active torsions:
REMARK  status: ('A' for Active; 'I' for Inactive)
REMARK    1  A    between atoms: O1_2  and  C2_3 
REMARK    2  A    between atoms: C2_3  and  C3_4 
REMARK    3  A    between atoms: C6_8  and  C7_9 
REMARK    4  A    between atoms: C7_9  and  C9_11 
REMARK    5  A    between atoms: C9_11  and  O3_12 
REMARK    6  A    between atoms: C9_11  and  C10_14 
REMARK    7  A    between atoms: C10_14  and  C12_16 
REMARK    8  A    between atoms: C13_17  and  C14_18 
REMARK    9  A    between atoms: C18_22  and  O4_23 
REMARK   10  A    between atoms: O4_23  and  C19_24 
REMARK   11  A    between atoms: C23_29  and  O6_30 
REMARK   12  A    between atoms: C24_32  and  O7_33 
REMARK   13  A    between atoms: C25_35  and  O8_36 
REMARK   14  A    between atoms: C26_38  and  C27_39 
ROOT
HETATM    1  C3  UNL     1      -5.615   0.120   3.626  1.00  0.00     0.054 C 
HETATM    2  C4  UNL     1      -4.608  -1.003   3.649  1.00  0.00     0.027 C 
HETATM    3  C5  UNL     1      -5.432   1.119   4.712  1.00  0.00     0.145 C 
HETATM    4  O2  UNL     1      -4.405   1.785   4.782  1.00  0.00    -0.296 OA
HETATM    5  C6  UNL     1      -6.570   1.160   5.578  1.00  0.00     0.092 C 
HETATM    6  C18 UNL     1      -7.691   0.348   4.938  1.00  0.00     0.152 C 
HETATM    7  C26 UNL     1      -7.014  -0.321   3.788  1.00  0.00     0.134 C 
ENDROOT
BRANCH   6   8
HETATM    8  O4  UNL     1      -8.627   1.234   4.475  1.00  0.00    -0.351 OA
BRANCH   8   9
HETATM    9  C19 UNL     1      -9.863   1.217   5.055  1.00  0.00     0.292 C 
HETATM   10  O5  UNL     1     -10.786   2.060   4.495  1.00  0.00    -0.346 OA
HETATM   11  C20 UNL     1     -11.715   1.544   3.647  1.00  0.00     0.085 C 
HETATM   12  C21 UNL     1     -11.051   1.047   2.390  1.00  0.00     0.048 C 
HETATM   13  C22 UNL     1     -12.672   2.661   3.199  1.00  0.00     0.048 C 
HETATM   14  C23 UNL     1     -12.503   0.401   4.252  1.00  0.00     0.183 C 
HETATM   15  C24 UNL     1     -11.930   0.022   5.608  1.00  0.00     0.183 C 
HETATM   16  C25 UNL     1     -10.436  -0.089   5.396  1.00  0.00     0.204 C 
BRANCH  14  17
HETATM   17  O6  UNL     1     -13.824   0.824   4.366  1.00  0.00    -0.390 OA
ATOM     18  H6  UNL     1     -14.216   0.336   5.081  1.00  0.00     0.210 HD
ENDBRANCH  14  17
BRANCH  15  19
HETATM   19  O7  UNL     1     -12.194   0.954   6.588  1.00  0.00    -0.390 OA
ATOM     20  H7  UNL     1     -12.879   1.566   6.349  1.00  0.00     0.210 HD
ENDBRANCH  15  19
BRANCH  16  21
HETATM   21  O8  UNL     1     -10.250  -1.102   4.459  1.00  0.00    -0.388 OA
ATOM     22  H8  UNL     1     -10.943  -1.750   4.401  1.00  0.00     0.210 HD
ENDBRANCH  16  21
ENDBRANCH   8   9
ENDBRANCH   6   8
BRANCH   5  23
HETATM   23  C7  UNL     1      -6.328   0.792   7.009  1.00  0.00     0.025 C 
HETATM   24  C8  UNL     1      -7.583   0.420   7.721  1.00  0.00     0.013 C 
BRANCH  23  25
HETATM   25  C9  UNL     1      -5.052   0.184   7.374  1.00  0.00     0.130 C 
BRANCH  25  26
HETATM   26  O3  UNL     1      -4.105   1.120   7.867  1.00  0.00    -0.395 OA
ATOM     27  H3  UNL     1      -3.527   0.757   8.528  1.00  0.00     0.210 HD
ENDBRANCH  25  26
BRANCH  25  28
HETATM   28  C10 UNL     1      -4.994  -0.987   8.299  1.00  0.00     0.033 C 
HETATM   29  C11 UNL     1      -4.467  -2.245   7.766  1.00  0.00     0.017 C 
BRANCH  28  30
HETATM   30  C12 UNL     1      -4.391  -0.595   9.583  1.00  0.00    -0.020 C 
HETATM   31  C13 UNL     1      -4.798  -0.364  10.749  1.00  0.00    -0.003 C 
BRANCH  31  32
HETATM   32  C14 UNL     1      -6.094  -0.380  11.378  1.00  0.00     0.002 C 
HETATM   33  C15 UNL     1      -6.169  -0.509  12.700  1.00  0.00    -0.088 C 
HETATM   34  C16 UNL     1      -4.937  -0.632  13.493  1.00  0.00     0.043 C 
HETATM   35  C17 UNL     1      -7.480  -0.530  13.364  1.00  0.00     0.043 C 
ENDBRANCH  31  32
ENDBRANCH  28  30
ENDBRANCH  25  28
ENDBRANCH  23  25
ENDBRANCH   5  23
BRANCH   7  36
HETATM   36  C27 UNL     1      -7.078  -1.805   3.851  1.00  0.00     0.180 C 
HETATM   37  O9  UNL     1      -7.108  -2.445   4.931  1.00  0.00    -0.648 OA
HETATM   38  O10 UNL     1      -7.108  -2.541   2.678  1.00  0.00    -0.648 OA
ENDBRANCH   7  36
BRANCH   1  39
HETATM   39  C2  UNL     1      -5.403   0.785   2.258  1.00  0.00     0.184 C 
BRANCH  39  40
HETATM   40  O1  UNL     1      -6.556   0.785   1.505  1.00  0.00    -0.395 OA
HETATM   41  C1  UNL     1      -6.166   0.493   0.188  1.00  0.00     0.201 C 
ENDBRANCH  39  40
ENDBRANCH   1  39
TORSDOF 14
ENDMDL
MODEL 3
REMARK VINA RESULT: -7.455320442      2.846      4.769
REMARK  14 active torsions:
REMARK  status: ('A' for Active; 'I' for Inactive)
REMARK    1  A    between atoms: O1_2  and  C2_3 
REMARK    2  A    between atoms: C2_3  and  C3_4 
REMARK    3  A    between atoms: C6_8  and  C7_9 
REMARK    4  A    between atoms: C7_9  and  C9_11 
REMARK    5  A    between atoms: C9_11  and  O3_12 
REMARK    6  A    between atoms: C9_11  and  C10_14 
REMARK    7  A    between atoms: C10_14  and  C12_16 
REMARK    8  A    between atoms: C13_17  and  C14_18 
REMARK    9  A    between atoms: C18_22  and  O4_23 
REMARK   10  A    between atoms: O4_23  and  C19_24 
REMARK   11  A    between atoms: C23_29  and  O6_30 
REMARK   12  A    between atoms: C24_32  and  O7_33 
REMARK   13  A    between atoms: C25_35  and  O8_36 
REMARK   14  A    between atoms: C26_38  and  C27_39 
ROOT
HETATM    1  C3  UNL     1      -3.909   2.945   4.982  1.00  0.00     0.054 C 
HETATM    2  C4  UNL     1      -3.052   3.845   5.839  1.00  0.00     0.027 C 
HETATM    3  C5  UNL     1      -5.193   2.548   5.619  1.00  0.00     0.145 C 
HETATM    4  O2  UNL     1      -6.034   3.392   5.909  1.00  0.00    -0.296 OA
HETATM    5  C6  UNL     1      -5.263   1.132   5.808  1.00  0.00     0.092 C 
HETATM    6  C18 UNL     1      -4.105   0.488   5.056  1.00  0.00     0.152 C 
HETATM    7  C26 UNL     1      -3.275   1.657   4.640  1.00  0.00     0.134 C 
ENDROOT
BRANCH   6   8
HETATM    8  O4  UNL     1      -4.626  -0.130   3.950  1.00  0.00    -0.351 OA
BRANCH   8   9
HETATM    9  C19 UNL     1      -5.814  -0.787   4.087  1.00  0.00     0.292 C 
HETATM   10  O5  UNL     1      -6.885  -0.202   3.464  1.00  0.00    -0.346 OA
HETATM   11  C20 UNL     1      -7.303  -0.704   2.271  1.00  0.00     0.085 C 
HETATM   12  C21 UNL     1      -6.256  -0.474   1.215  1.00  0.00     0.048 C 
HETATM   13  C22 UNL     1      -8.546   0.071   1.801  1.00  0.00     0.048 C 
HETATM   14  C23 UNL     1      -7.609  -2.186   2.324  1.00  0.00     0.183 C 
HETATM   15  C24 UNL     1      -7.206  -2.761   3.672  1.00  0.00     0.183 C 
HETATM   16  C25 UNL     1      -5.807  -2.245   3.929  1.00  0.00     0.204 C 
BRANCH  14  17
HETATM   17  O6  UNL     1      -8.974  -2.335   2.102  1.00  0.00    -0.390 OA
ATOM     18  H6  UNL     1      -9.085  -3.067   1.507  1.00  0.00     0.210 HD
ENDBRANCH  14  17
BRANCH  15  19
HETATM   19  O7  UNL     1      -8.041  -2.375   4.699  1.00  0.00    -0.390 OA
ATOM     20  H7  UNL     1      -7.647  -2.471   5.557  1.00  0.00     0.210 HD
ENDBRANCH  15  19
BRANCH  16  21
HETATM   21  O8  UNL     1      -5.013  -2.745   2.900  1.00  0.00    -0.388 OA
ATOM     22  H8  UNL     1      -4.698  -3.635   3.010  1.00  0.00     0.210 HD
ENDBRANCH  16  21
ENDBRANCH   8   9
ENDBRANCH   6   8
BRANCH   5  23
HETATM   23  C7  UNL     1      -5.374   0.658   7.224  1.00  0.00     0.025 C 
HETATM   24  C8  UNL     1      -6.736   0.145   7.548  1.00  0.00     0.013 C 
BRANCH  23  25
HETATM   25  C9  UNL     1      -4.192   0.104   7.877  1.00  0.00     0.130 C 
BRANCH  25  26
HETATM   26  O3  UNL     1      -3.375   1.090   8.489  1.00  0.00    -0.395 OA
ATOM     27  H3  UNL     1      -2.461   0.837   8.548  1.00  0.00     0.210 HD
ENDBRANCH  25  26
BRANCH  25  28
HETATM   28  C10 UNL     1      -4.308  -1.008   8.868  1.00  0.00     0.033 C 
HETATM   29  C11 UNL     1      -3.703  -2.294   8.516  1.00  0.00     0.017 C 
BRANCH  28  30
HETATM   30  C12 UNL     1      -3.943  -0.534  10.212  1.00  0.00    -0.020 C 
HETATM   31  C13 UNL     1      -4.551  -0.238  11.272  1.00  0.00    -0.003 C 
BRANCH  31  32
HETATM   32  C14 UNL     1      -5.938  -0.229  11.659  1.00  0.00     0.002 C 
HETATM   33  C15 UNL     1      -6.260  -0.527  12.915  1.00  0.00    -0.088 C 
HETATM   34  C16 UNL     1      -5.202  -0.859  13.881  1.00  0.00     0.043 C 
HETATM   35  C17 UNL     1      -7.668  -0.525  13.335  1.00  0.00     0.043 C 
ENDBRANCH  31  32
ENDBRANCH  28  30
ENDBRANCH  25  28
ENDBRANCH  23  25
ENDBRANCH   5  23
BRANCH   7  36
HETATM   36  C27 UNL     1      -1.888   1.613   5.172  1.00  0.00     0.180 C 
HETATM   37  O9  UNL     1      -1.596   1.110   6.285  1.00  0.00    -0.648 OA
HETATM   38  O10 UNL     1      -0.849   2.143   4.425  1.00  0.00    -0.648 OA
ENDBRANCH   7  36
BRANCH   1  39
HETATM   39  C2  UNL     1      -4.182   3.777   3.721  1.00  0.00     0.184 C 
BRANCH  39  40
HETATM   40  O1  UNL     1      -4.223   2.992   2.590  1.00  0.00    -0.395 OA
HETATM   41  C1  UNL     1      -5.520   3.121   2.068  1.00  0.00     0.201 C 
ENDBRANCH  39  40
ENDBRANCH   1  39
TORSDOF 14
ENDMDL
MODEL 4
REMARK VINA RESULT: -7.376152910      1.336      1.866
REMARK  14 active torsions:
REMARK  status: ('A' for Active; 'I' for Inactive)
REMARK    1  A    between atoms: O1_2  and  C2_3 
REMARK    2  A    between atoms: C2_3  and  C3_4 
REMARK    3  A    between atoms: C6_8  and  C7_9 
REMARK    4  A    between atoms: C7_9  and  C9_11 
REMARK    5  A    between atoms: C9_11  and  O3_12 
REMARK    6  A    between atoms: C9_11  and  C10_14 
REMARK    7  A    between atoms: C10_14  and  C12_16 
REMARK    8  A    between atoms: C13_17  and  C14_18 
REMARK    9  A    between atoms: C18_22  and  O4_23 
REMARK   10  A    between atoms: O4_23  and  C19_24 
REMARK   11  A    between atoms: C23_29  and  O6_30 
REMARK   12  A    between atoms: C24_32  and  O7_33 
REMARK   13  A    between atoms: C25_35  and  O8_36 
REMARK   14  A    between atoms: C26_38  and  C27_39 
ROOT
HETATM    1  C3  UNL     1      -6.538   0.761   2.404  1.00  0.00     0.054 C 
HETATM    2  C4  UNL     1      -5.716  -0.439   2.001  1.00  0.00     0.027 C 
HETATM    3  C5  UNL     1      -6.358   1.168   3.823  1.00  0.00     0.145 C 
HETATM    4  O2  UNL     1      -5.264   1.539   4.233  1.00  0.00    -0.296 OA
HETATM    5  C6  UNL     1      -7.584   1.061   4.553  1.00  0.00     0.092 C 
HETATM    6  C18 UNL     1      -8.715   0.813   3.561  1.00  0.00     0.152 C 
HETATM    7  C26 UNL     1      -7.995   0.564   2.277  1.00  0.00     0.134 C 
ENDROOT
BRANCH   6   8
HETATM    8  O4  UNL     1      -9.443   1.970   3.469  1.00  0.00    -0.351 OA
BRANCH   8   9
HETATM    9  C19 UNL     1     -10.647   1.916   2.829  1.00  0.00     0.292 C 
HETATM   10  O5  UNL     1     -11.513   0.958   3.285  1.00  0.00    -0.346 OA
HETATM   11  C20 UNL     1     -12.523   1.331   4.116  1.00  0.00     0.085 C 
HETATM   12  C21 UNL     1     -11.966   1.797   5.434  1.00  0.00     0.048 C 
HETATM   13  C22 UNL     1     -13.392   0.104   4.442  1.00  0.00     0.048 C 
HETATM   14  C23 UNL     1     -13.385   2.438   3.546  1.00  0.00     0.183 C 
HETATM   15  C24 UNL     1     -12.788   2.958   2.248  1.00  0.00     0.183 C 
HETATM   16  C25 UNL     1     -11.321   3.187   2.544  1.00  0.00     0.204 C 
BRANCH  14  17
HETATM   17  O6  UNL     1     -14.655   1.908   3.337  1.00  0.00    -0.390 OA
ATOM     18  H6  UNL     1     -15.283   2.546   3.653  1.00  0.00     0.210 HD
ENDBRANCH  14  17
BRANCH  15  19
HETATM   19  O7  UNL     1     -12.920   2.076   1.198  1.00  0.00    -0.390 OA
ATOM     20  H7  UNL     1     -12.189   1.474   1.120  1.00  0.00     0.210 HD
ENDBRANCH  15  19
BRANCH  16  21
HETATM   21  O8  UNL     1     -11.273   4.146   3.552  1.00  0.00    -0.388 OA
ATOM     22  H8  UNL     1     -11.881   4.026   4.272  1.00  0.00     0.210 HD
ENDBRANCH  16  21
ENDBRANCH   8   9
ENDBRANCH   6   8
BRANCH   5  23
HETATM   23  C7  UNL     1      -7.591   0.097   5.698  1.00  0.00     0.025 C 
HETATM   24  C8  UNL     1      -7.056  -1.241   5.319  1.00  0.00     0.013 C 
BRANCH  23  25
HETATM   25  C9  UNL     1      -7.427   0.612   7.054  1.00  0.00     0.130 C 
BRANCH  25  26
HETATM   26  O3  UNL     1      -8.652   0.984   7.666  1.00  0.00    -0.395 OA
ATOM     27  H3  UNL     1      -8.778   0.594   8.523  1.00  0.00     0.210 HD
ENDBRANCH  25  26
BRANCH  25  28
HETATM   28  C10 UNL     1      -6.670  -0.160   8.085  1.00  0.00     0.033 C 
HETATM   29  C11 UNL     1      -5.247   0.147   8.250  1.00  0.00     0.017 C 
BRANCH  28  30
HETATM   30  C12 UNL     1      -7.416  -0.189   9.352  1.00  0.00    -0.020 C 
HETATM   31  C13 UNL     1      -7.135  -0.256  10.575  1.00  0.00    -0.003 C 
BRANCH  31  32
HETATM   32  C14 UNL     1      -5.901  -0.339  11.314  1.00  0.00     0.002 C 
HETATM   33  C15 UNL     1      -5.949  -0.465  12.638  1.00  0.00    -0.088 C 
HETATM   34  C16 UNL     1      -7.250  -0.517  13.320  1.00  0.00     0.043 C 
HETATM   35  C17 UNL     1      -4.704  -0.550  13.415  1.00  0.00     0.043 C 
ENDBRANCH  31  32
ENDBRANCH  28  30
ENDBRANCH  25  28
ENDBRANCH  23  25
ENDBRANCH   5  23
BRANCH   7  36
HETATM   36  C27 UNL     1      -8.280  -0.772   1.692  1.00  0.00     0.180 C 
HETATM   37  O9  UNL     1      -8.080  -1.048   0.483  1.00  0.00    -0.648 OA
HETATM   38  O10 UNL     1      -8.791  -1.778   2.494  1.00  0.00    -0.648 OA
ENDBRANCH   7  36
BRANCH   1  39
HETATM   39  C2  UNL     1      -6.050   1.878   1.470  1.00  0.00     0.184 C 
BRANCH  39  40
HETATM   40  O1  UNL     1      -7.085   2.427   0.745  1.00  0.00    -0.395 OA
HETATM   41  C1  UNL     1      -6.641   2.494  -0.585  1.00  0.00     0.201 C 
ENDBRANCH  39  40
ENDBRANCH   1  39
TORSDOF 14
ENDMDL
MODEL 5
REMARK VINA RESULT: -7.312389729      2.904      6.689
REMARK  14 active torsions:
REMARK  status: ('A' for Active; 'I' for Inactive)
REMARK    1  A    between atoms: O1_2  and  C2_3 
REMARK    2  A    between atoms: C2_3  and  C3_4 
REMARK    3  A    between atoms: C6_8  and  C7_9 
REMARK    4  A    between atoms: C7_9  and  C9_11 
REMARK    5  A    between atoms: C9_11  and  O3_12 
REMARK    6  A    between atoms: C9_11  and  C10_14 
REMARK    7  A    between atoms: C10_14  and  C12_16 
REMARK    8  A    between atoms: C13_17  and  C14_18 
REMARK    9  A    between atoms: C18_22  and  O4_23 
REMARK   10  A    between atoms: O4_23  and  C19_24 
REMARK   11  A    between atoms: C23_29  and  O6_30 
REMARK   12  A    between atoms: C24_32  and  O7_33 
REMARK   13  A    between atoms: C25_35  and  O8_36 
REMARK   14  A    between atoms: C26_38  and  C27_39 
ROOT
HETATM    1  C3  UNL     1      -7.586  -1.538   2.569  1.00  0.00     0.054 C 
HETATM    2  C4  UNL     1      -7.645  -0.530   1.447  1.00  0.00     0.027 C 
HETATM    3  C5  UNL     1      -8.263  -1.093   3.816  1.00  0.00     0.145 C 
HETATM    4  O2  UNL     1      -9.468  -0.866   3.826  1.00  0.00    -0.296 OA
HETATM    5  C6  UNL     1      -7.338  -0.993   4.903  1.00  0.00     0.092 C 
HETATM    6  C18 UNL     1      -6.020  -1.626   4.472  1.00  0.00     0.152 C 
HETATM    7  C26 UNL     1      -6.218  -1.867   3.013  1.00  0.00     0.134 C 
ENDROOT
BRANCH   6   8
HETATM    8  O4  UNL     1      -5.904  -2.822   5.130  1.00  0.00    -0.351 OA
BRANCH   8   9
HETATM    9  C19 UNL     1      -4.651  -3.328   5.318  1.00  0.00     0.292 C 
HETATM   10  O5  UNL     1      -3.793  -2.527   6.024  1.00  0.00    -0.346 OA
HETATM   11  C20 UNL     1      -3.572  -2.802   7.338  1.00  0.00     0.085 C 
HETATM   12  C21 UNL     1      -4.827  -2.572   8.136  1.00  0.00     0.048 C 
HETATM   13  C22 UNL     1      -2.536  -1.812   7.897  1.00  0.00     0.048 C 
HETATM   14  C23 UNL     1      -3.109  -4.224   7.578  1.00  0.00     0.183 C 
HETATM   15  C24 UNL     1      -3.172  -5.025   6.287  1.00  0.00     0.183 C 
HETATM   16  C25 UNL     1      -4.538  -4.739   5.702  1.00  0.00     0.204 C 
BRANCH  14  17
HETATM   17  O6  UNL     1      -1.808  -4.159   8.065  1.00  0.00    -0.390 OA
ATOM     18  H6  UNL     1      -1.823  -4.490   8.956  1.00  0.00     0.210 HD
ENDBRANCH  14  17
BRANCH  15  19
HETATM   19  O7  UNL     1      -2.194  -4.674   5.382  1.00  0.00    -0.390 OA
ATOM     20  H7  UNL     1      -2.016  -5.353   4.742  1.00  0.00     0.210 HD
ENDBRANCH  15  19
BRANCH  16  21
HETATM   21  O8  UNL     1      -5.464  -5.196   6.635  1.00  0.00    -0.388 OA
ATOM     22  H8  UNL     1      -5.123  -5.398   7.498  1.00  0.00     0.210 HD
ENDBRANCH  16  21
ENDBRANCH   8   9
ENDBRANCH   6   8
BRANCH   5  23
HETATM   23  C7  UNL     1      -7.163   0.368   5.500  1.00  0.00     0.025 C 
HETATM   24  C8  UNL     1      -7.323   1.457   4.495  1.00  0.00     0.013 C 
BRANCH  23  25
HETATM   25  C9  UNL     1      -7.536   0.579   6.896  1.00  0.00     0.130 C 
BRANCH  25  26
HETATM   26  O3  UNL     1      -8.881   0.226   7.177  1.00  0.00    -0.395 OA
ATOM     27  H3  UNL     1      -8.968  -0.362   7.918  1.00  0.00     0.210 HD
ENDBRANCH  25  26
BRANCH  25  28
HETATM   28  C10 UNL     1      -6.718   0.005   8.007  1.00  0.00     0.033 C 
HETATM   29  C11 UNL     1      -5.360   0.524   8.186  1.00  0.00     0.017 C 
BRANCH  28  30
HETATM   30  C12 UNL     1      -7.502  -0.032   9.251  1.00  0.00    -0.020 C 
HETATM   31  C13 UNL     1      -7.258  -0.143  10.479  1.00  0.00    -0.003 C 
BRANCH  31  32
HETATM   32  C14 UNL     1      -6.051  -0.290  11.250  1.00  0.00     0.002 C 
HETATM   33  C15 UNL     1      -6.142  -0.478  12.564  1.00  0.00    -0.088 C 
HETATM   34  C16 UNL     1      -7.465  -0.532  13.204  1.00  0.00     0.043 C 
HETATM   35  C17 UNL     1      -4.924  -0.629  13.373  1.00  0.00     0.043 C 
ENDBRANCH  31  32
ENDBRANCH  28  30
ENDBRANCH  25  28
ENDBRANCH  23  25
ENDBRANCH   5  23
BRANCH   7  36
HETATM   36  C27 UNL     1      -5.222  -1.166   2.160  1.00  0.00     0.180 C 
HETATM   37  O9  UNL     1      -3.989  -1.176   2.398  1.00  0.00    -0.648 OA
HETATM   38  O10 UNL     1      -5.646  -0.462   1.046  1.00  0.00    -0.648 OA
ENDBRANCH   7  36
BRANCH   1  39
HETATM   39  C2  UNL     1      -8.293  -2.775   1.999  1.00  0.00     0.184 C 
BRANCH  39  40
HETATM   40  O1  UNL     1      -7.809  -3.941   2.551  1.00  0.00    -0.395 OA
HETATM   41  C1  UNL     1      -8.671  -4.964   2.126  1.00  0.00     0.201 C 
ENDBRANCH  39  40
ENDBRANCH   1  39
TORSDOF 14
ENDMDL
