MODEL 1
REMARK VINA RESULT: -7.106840300      0.000      0.000
REMARK  17 active torsions:
REMARK  status: ('A' for Active; 'I' for Inactive)
REMARK    1  A    between atoms: C2_2  and  O1_3 
REMARK    2  A    between atoms: O1_3  and  C3_4 
REMARK    3  A    between atoms: C4_5  and  O2_6 
REMARK    4  A    between atoms: C5_8  and  O3_9 
REMARK    5  A    between atoms: C6_11  and  O4_12 
REMARK    6  A    between atoms: C7_14  and  O5_15 
REMARK    7  A    between atoms: O5_15  and  C8_16 
REMARK    8  A    between atoms: C8_16  and  C9_17 
REMARK    9  A    between atoms: C9_17  and  O6_18 
REMARK   10  A    between atoms: C17_27  and  O8_28 
REMARK   11  A    between atoms: C18_30  and  O9_31 
REMARK   12  A    between atoms: O9_31  and  C19_32 
REMARK   13  A    between atoms: C20_33  and  C21_34 
REMARK   14  A    between atoms: C24_39  and  C25_40 
REMARK   15  A    between atoms: C25_40  and  O12_41 
REMARK   16  A    between atoms: C25_40  and  C26_43 
REMARK   17  A    between atoms: C26_43  and  O14_45 
ROOT
HETATM    1  C3  UNL     1      -4.277  -0.759   5.944  1.00  0.00     0.184 C 
HETATM    2  C4  UNL     1      -4.010  -2.219   6.152  1.00  0.00     0.181 C 
HETATM    3  C5  UNL     1      -3.800  -2.644   7.552  1.00  0.00     0.180 C 
HETATM    4  C6  UNL     1      -3.333  -1.669   8.543  1.00  0.00     0.181 C 
HETATM    5  C7  UNL     1      -4.267  -0.545   8.717  1.00  0.00     0.184 C 
HETATM    6  C17 UNL     1      -5.604  -0.666   8.032  1.00  0.00     0.181 C 
HETATM    7  C18 UNL     1      -5.537  -0.265   6.558  1.00  0.00     0.184 C 
ENDROOT
BRANCH   7   8
HETATM    8  O9  UNL     1      -6.600  -0.568   5.817  1.00  0.00    -0.374 OA
BRANCH   8   9
HETATM    9  C19 UNL     1      -7.183   0.164   4.883  1.00  0.00     0.143 C 
HETATM   10  C20 UNL     1      -8.130   1.245   5.608  1.00  0.00     0.116 C 
HETATM   11  C22 UNL     1      -9.104   0.347   6.257  1.00  0.00     0.018 C 
HETATM   12  C23 UNL     1      -9.436  -0.635   5.168  1.00  0.00     0.011 C 
HETATM   13  C24 UNL     1      -8.317  -0.545   4.201  1.00  0.00     0.054 C 
BRANCH  10  14
HETATM   14  C21 UNL     1      -8.821   2.015   4.531  1.00  0.00     0.179 C 
HETATM   15  O10 UNL     1      -8.131   2.535   3.603  1.00  0.00    -0.648 OA
HETATM   16  O11 UNL     1     -10.181   2.183   4.500  1.00  0.00    -0.648 OA
ENDBRANCH  10  14
BRANCH  13  17
HETATM   17  C25 UNL     1      -8.013  -1.871   3.570  1.00  0.00     0.224 C 
BRANCH  17  18
HETATM   18  O12 UNL     1      -7.588  -2.697   4.650  1.00  0.00    -0.385 OA
ATOM     19  H12 UNL     1      -6.653  -2.803   4.519  1.00  0.00     0.210 HD
ENDBRANCH  17  18
BRANCH  17  20
HETATM   20  C26 UNL     1      -6.863  -1.825   2.661  1.00  0.00     0.287 C 
HETATM   21  O13 UNL     1      -5.919  -2.647   2.863  1.00  0.00    -0.262 OA
BRANCH  20  22
HETATM   22  O14 UNL     1      -6.730  -0.956   1.598  1.00  0.00    -0.324 OA
HETATM   23  C27 UNL     1      -5.624  -0.133   1.356  1.00  0.00     0.213 C 
ENDBRANCH  20  22
ENDBRANCH  17  20
ENDBRANCH  13  17
ENDBRANCH   8   9
ENDBRANCH   7   8
BRANCH   1  24
HETATM   24  O1  UNL     1      -4.121  -0.528   4.606  1.00  0.00    -0.381 OA
BRANCH  24  25
HETATM   25  C2  UNL     1      -3.505   0.600   4.187  1.00  0.00     0.164 C 
HETATM   26  C1  UNL     1      -2.294   0.962   5.010  1.00  0.00     0.033 C 
ENDBRANCH  24  25
ENDBRANCH   1  24
BRANCH   6  27
HETATM   27  O8  UNL     1      -6.401   0.236   8.745  1.00  0.00    -0.390 OA
ATOM     28  H8  UNL     1      -6.876   0.688   8.057  1.00  0.00     0.210 HD
ENDBRANCH   6  27
BRANCH   2  29
HETATM   29  O2  UNL     1      -5.054  -2.941   5.559  1.00  0.00    -0.390 OA
ATOM     30  H2  UNL     1      -5.628  -3.251   6.249  1.00  0.00     0.210 HD
ENDBRANCH   2  29
BRANCH   5  31
HETATM   31  O5  UNL     1      -4.473  -0.179  10.048  1.00  0.00    -0.375 OA
BRANCH  31  32
HETATM   32  C8  UNL     1      -3.469  -0.573  10.885  1.00  0.00     0.236 C 
BRANCH  32  33
HETATM   33  C9  UNL     1      -2.773   0.584  11.572  1.00  0.00     0.185 C 
HETATM   34  C11 UNL     1      -2.855   1.823  10.687  1.00  0.00     0.071 C 
HETATM   35  C12 UNL     1      -1.792   1.748   9.646  1.00  0.00     0.012 C 
HETATM   36  C13 UNL     1      -0.424   1.641  10.219  1.00  0.00     0.010 C 
HETATM   37  C14 UNL     1       0.284   2.996  10.182  1.00  0.00     0.012 C 
HETATM   38  C15 UNL     1      -0.470   1.040  11.581  1.00  0.00     0.124 C 
HETATM   39  C16 UNL     1      -0.207   2.076  12.670  1.00  0.00     0.040 C 
HETATM   40  O7  UNL     1      -1.493   0.198  11.859  1.00  0.00    -0.348 OA
BRANCH  33  41
HETATM   41  O6  UNL     1      -3.441   0.936  12.746  1.00  0.00    -0.358 OA
HETATM   42  C10 UNL     1      -4.467   0.104  13.104  1.00  0.00     0.205 C 
ENDBRANCH  33  41
ENDBRANCH  32  33
ENDBRANCH  31  32
ENDBRANCH   5  31
BRANCH   3  43
HETATM   43  O3  UNL     1      -2.847  -3.710   7.557  1.00  0.00    -0.390 OA
ATOM     44  H3  UNL     1      -2.053  -3.397   7.973  1.00  0.00     0.210 HD
ENDBRANCH   3  43
BRANCH   4  45
HETATM   45  O4  UNL     1      -2.028  -1.216   8.345  1.00  0.00    -0.390 OA
ATOM     46  H4  UNL     1      -1.351  -1.839   8.583  1.00  0.00     0.210 HD
ENDBRANCH   4  45
TORSDOF 17
ENDMDL
MODEL 2
REMARK VINA RESULT: -7.039859034      2.634      8.842
REMARK  17 active torsions:
REMARK  status: ('A' for Active; 'I' for Inactive)
REMARK    1  A    between atoms: C2_2  and  O1_3 
REMARK    2  A    between atoms: O1_3  and  C3_4 
REMARK    3  A    between atoms: C4_5  and  O2_6 
REMARK    4  A    between atoms: C5_8  and  O3_9 
REMARK    5  A    between atoms: C6_11  and  O4_12 
REMARK    6  A    between atoms: C7_14  and  O5_15 
REMARK    7  A    between atoms: O5_15  and  C8_16 
REMARK    8  A    between atoms: C8_16  and  C9_17 
REMARK    9  A    between atoms: C9_17  and  O6_18 
REMARK   10  A    between atoms: C17_27  and  O8_28 
REMARK   11  A    between atoms: C18_30  and  O9_31 
REMARK   12  A    between atoms: O9_31  and  C19_32 
REMARK   13  A    between atoms: C20_33  and  C21_34 
REMARK   14  A    between atoms: C24_39  and  C25_40 
REMARK   15  A    between atoms: C25_40  and  O12_41 
REMARK   16  A    between atoms: C25_40  and  C26_43 
REMARK   17  A    between atoms: C26_43  and  O14_45 
ROOT
HETATM    1  C3  UNL     1      -6.456  -0.577   3.472  1.00  0.00     0.184 C 
HETATM    2  C4  UNL     1      -5.548   0.241   2.605  1.00  0.00     0.181 C 
HETATM    3  C5  UNL     1      -6.011   1.609   2.293  1.00  0.00     0.180 C 
HETATM    4  C6  UNL     1      -7.445   1.917   2.340  1.00  0.00     0.181 C 
HETATM    5  C7  UNL     1      -8.024   1.712   3.678  1.00  0.00     0.184 C 
HETATM    6  C17 UNL     1      -7.056   1.426   4.797  1.00  0.00     0.181 C 
HETATM    7  C18 UNL     1      -6.646  -0.046   4.846  1.00  0.00     0.184 C 
ENDROOT
BRANCH   7   8
HETATM    8  O9  UNL     1      -5.618  -0.344   5.638  1.00  0.00    -0.374 OA
BRANCH   8   9
HETATM    9  C19 UNL     1      -5.645  -0.826   6.868  1.00  0.00     0.143 C 
HETATM   10  C20 UNL     1      -5.405   0.393   7.893  1.00  0.00     0.116 C 
HETATM   11  C22 UNL     1      -4.036   0.790   7.512  1.00  0.00     0.018 C 
HETATM   12  C23 UNL     1      -3.318  -0.528   7.411  1.00  0.00     0.011 C 
HETATM   13  C24 UNL     1      -4.383  -1.546   7.247  1.00  0.00     0.054 C 
BRANCH  10  14
HETATM   14  C21 UNL     1      -5.378  -0.188   9.268  1.00  0.00     0.179 C 
HETATM   15  O10 UNL     1      -6.224  -1.080   9.578  1.00  0.00    -0.648 OA
HETATM   16  O11 UNL     1      -4.471   0.203  10.217  1.00  0.00    -0.648 OA
ENDBRANCH  10  14
BRANCH  13  17
HETATM   17  C25 UNL     1      -3.949  -2.674   6.361  1.00  0.00     0.224 C 
BRANCH  17  18
HETATM   18  O12 UNL     1      -5.123  -3.046   5.647  1.00  0.00    -0.385 OA
ATOM     19  H12 UNL     1      -4.859  -3.054   4.734  1.00  0.00     0.210 HD
ENDBRANCH  17  18
BRANCH  17  20
HETATM   20  C26 UNL     1      -3.569  -3.878   7.107  1.00  0.00     0.287 C 
HETATM   21  O13 UNL     1      -2.511  -4.481   6.755  1.00  0.00    -0.262 OA
BRANCH  20  22
HETATM   22  O14 UNL     1      -4.276  -4.407   8.168  1.00  0.00    -0.324 OA
HETATM   23  C27 UNL     1      -4.295  -5.756   8.539  1.00  0.00     0.213 C 
ENDBRANCH  20  22
ENDBRANCH  17  20
ENDBRANCH  13  17
ENDBRANCH   8   9
ENDBRANCH   7   8
BRANCH   1  24
HETATM   24  O1  UNL     1      -6.020  -1.869   3.374  1.00  0.00    -0.381 OA
BRANCH  24  25
HETATM   25  C2  UNL     1      -6.622  -2.716   2.510  1.00  0.00     0.164 C 
HETATM   26  C1  UNL     1      -8.076  -2.397   2.273  1.00  0.00     0.033 C 
ENDBRANCH  24  25
ENDBRANCH   1  24
BRANCH   6  27
HETATM   27  O8  UNL     1      -7.792   1.764   5.938  1.00  0.00    -0.390 OA
ATOM     28  H8  UNL     1      -7.356   1.273   6.624  1.00  0.00     0.210 HD
ENDBRANCH   6  27
BRANCH   2  29
HETATM   29  O2  UNL     1      -4.280   0.264   3.203  1.00  0.00    -0.390 OA
ATOM     30  H2  UNL     1      -3.825  -0.533   2.960  1.00  0.00     0.210 HD
ENDBRANCH   2  29
BRANCH   5  31
HETATM   31  O5  UNL     1      -8.895   2.724   4.081  1.00  0.00    -0.375 OA
BRANCH  31  32
HETATM   32  C8  UNL     1      -9.745   3.139   3.096  1.00  0.00     0.236 C 
BRANCH  32  33
HETATM   33  C9  UNL     1     -11.190   2.766   3.354  1.00  0.00     0.185 C 
HETATM   34  C11 UNL     1     -11.569   1.572   2.484  1.00  0.00     0.071 C 
HETATM   35  C12 UNL     1     -11.895   2.055   1.112  1.00  0.00     0.012 C 
HETATM   36  C13 UNL     1     -13.001   3.049   1.094  1.00  0.00     0.010 C 
HETATM   37  C14 UNL     1     -14.313   2.389   0.670  1.00  0.00     0.012 C 
HETATM   38  C15 UNL     1     -13.094   3.756   2.402  1.00  0.00     0.124 C 
HETATM   39  C16 UNL     1     -14.306   3.302   3.209  1.00  0.00     0.040 C 
HETATM   40  O7  UNL     1     -11.960   3.874   3.131  1.00  0.00    -0.348 OA
BRANCH  33  41
HETATM   41  O6  UNL     1     -11.359   2.322   4.667  1.00  0.00    -0.358 OA
HETATM   42  C10 UNL     1     -11.827   1.044   4.792  1.00  0.00     0.205 C 
ENDBRANCH  33  41
ENDBRANCH  32  33
ENDBRANCH  31  32
ENDBRANCH   5  31
BRANCH   3  43
HETATM   43  O3  UNL     1      -5.574   1.939   0.972  1.00  0.00    -0.390 OA
ATOM     44  H3  UNL     1      -6.299   2.342   0.510  1.00  0.00     0.210 HD
ENDBRANCH   3  43
BRANCH   4  45
HETATM   45  O4  UNL     1      -8.209   1.290   1.356  1.00  0.00    -0.390 OA
ATOM     46  H4  UNL     1      -7.831   0.489   1.010  1.00  0.00     0.210 HD
ENDBRANCH   4  45
TORSDOF 17
ENDMDL
MODEL 3
REMARK VINA RESULT: -6.960827063      2.476      7.551
REMARK  17 active torsions:
REMARK  status: ('A' for Active; 'I' for Inactive)
REMARK    1  A    between atoms: C2_2  and  O1_3 
REMARK    2  A    between atoms: O1_3  and  C3_4 
REMARK    3  A    between atoms: C4_5  and  O2_6 
REMARK    4  A    between atoms: C5_8  and  O3_9 
REMARK    5  A    between atoms: C6_11  and  O4_12 
REMARK    6  A    between atoms: C7_14  and  O5_15 
REMARK    7  A    between atoms: O5_15  and  C8_16 
REMARK    8  A    between atoms: C8_16  and  C9_17 
REMARK    9  A    between atoms: C9_17  and  O6_18 
REMARK   10  A    between atoms: C17_27  and  O8_28 
REMARK   11  A    between atoms: C18_30  and  O9_31 
REMARK   12  A    between atoms: O9_31  and  C19_32 
REMARK   13  A    between atoms: C20_33  and  C21_34 
REMARK   14  A    between atoms: C24_39  and  C25_40 
REMARK   15  A    between atoms: C25_40  and  O12_41 
REMARK   16  A    between atoms: C25_40  and  C26_43 
REMARK   17  A    between atoms: C26_43  and  O14_45 
ROOT
HETATM    1  C3  UNL     1      -3.277   0.903   3.839  1.00  0.00     0.184 C 
HETATM    2  C4  UNL     1      -3.722   2.237   4.358  1.00  0.00     0.181 C 
HETATM    3  C5  UNL     1      -5.087   2.656   3.977  1.00  0.00     0.180 C 
HETATM    4  C6  UNL     1      -5.704   2.103   2.767  1.00  0.00     0.181 C 
HETATM    5  C7  UNL     1      -5.855   0.640   2.826  1.00  0.00     0.184 C 
HETATM    6  C17 UNL     1      -5.554  -0.017   4.149  1.00  0.00     0.181 C 
HETATM    7  C18 UNL     1      -4.058  -0.252   4.352  1.00  0.00     0.184 C 
ENDROOT
BRANCH   7   8
HETATM    8  O9  UNL     1      -3.678  -0.600   5.579  1.00  0.00    -0.374 OA
BRANCH   8   9
HETATM    9  C19 UNL     1      -4.428  -1.036   6.576  1.00  0.00     0.143 C 
HETATM   10  C20 UNL     1      -4.049  -0.198   7.897  1.00  0.00     0.116 C 
HETATM   11  C22 UNL     1      -2.643  -0.613   8.075  1.00  0.00     0.018 C 
HETATM   12  C23 UNL     1      -2.702  -2.102   7.872  1.00  0.00     0.011 C 
HETATM   13  C24 UNL     1      -3.962  -2.351   7.133  1.00  0.00     0.054 C 
BRANCH  10  14
HETATM   14  C21 UNL     1      -4.865  -0.754   9.018  1.00  0.00     0.179 C 
HETATM   15  O10 UNL     1      -4.443  -0.631  10.208  1.00  0.00    -0.648 OA
HETATM   16  O11 UNL     1      -6.059  -1.394   8.816  1.00  0.00    -0.648 OA
ENDBRANCH  10  14
BRANCH  13  17
HETATM   17  C25 UNL     1      -3.832  -3.492   6.171  1.00  0.00     0.224 C 
BRANCH  17  18
HETATM   18  O12 UNL     1      -4.963  -3.373   5.313  1.00  0.00    -0.385 OA
ATOM     19  H12 UNL     1      -5.613  -3.956   5.687  1.00  0.00     0.210 HD
ENDBRANCH  17  18
BRANCH  17  20
HETATM   20  C26 UNL     1      -3.986  -4.804   6.809  1.00  0.00     0.287 C 
HETATM   21  O13 UNL     1      -3.694  -5.830   6.125  1.00  0.00    -0.262 OA
BRANCH  20  22
HETATM   22  O14 UNL     1      -4.423  -5.007   8.103  1.00  0.00    -0.324 OA
HETATM   23  C27 UNL     1      -4.477  -6.243   8.756  1.00  0.00     0.213 C 
ENDBRANCH  20  22
ENDBRANCH  17  20
ENDBRANCH  13  17
ENDBRANCH   8   9
ENDBRANCH   7   8
BRANCH   1  24
HETATM   24  O1  UNL     1      -1.924   0.853   4.022  1.00  0.00    -0.381 OA
BRANCH  24  25
HETATM   25  C2  UNL     1      -1.113   1.602   3.241  1.00  0.00     0.164 C 
HETATM   26  C1  UNL     1       0.351   1.289   3.424  1.00  0.00     0.033 C 
ENDBRANCH  24  25
ENDBRANCH   1  24
BRANCH   6  27
HETATM   27  O8  UNL     1      -6.229  -1.239   4.049  1.00  0.00    -0.390 OA
ATOM     28  H8  UNL     1      -6.212  -1.564   4.942  1.00  0.00     0.210 HD
ENDBRANCH   6  27
BRANCH   2  29
HETATM   29  O2  UNL     1      -3.567   2.236   5.751  1.00  0.00    -0.390 OA
ATOM     30  H2  UNL     1      -4.016   2.998   6.098  1.00  0.00     0.210 HD
ENDBRANCH   2  29
BRANCH   5  31
HETATM   31  O5  UNL     1      -7.086   0.176   2.360  1.00  0.00    -0.375 OA
BRANCH  31  32
HETATM   32  C8  UNL     1      -8.039   1.149   2.272  1.00  0.00     0.236 C 
BRANCH  32  33
HETATM   33  C9  UNL     1      -9.219   0.918   3.193  1.00  0.00     0.185 C 
HETATM   34  C11 UNL     1      -9.320   2.071   4.186  1.00  0.00     0.071 C 
HETATM   35  C12 UNL     1      -8.354   1.841   5.298  1.00  0.00     0.012 C 
HETATM   36  C13 UNL     1      -8.583   0.556   6.010  1.00  0.00     0.010 C 
HETATM   37  C14 UNL     1      -9.326   0.792   7.325  1.00  0.00     0.012 C 
HETATM   38  C15 UNL     1      -9.263  -0.425   5.119  1.00  0.00     0.124 C 
HETATM   39  C16 UNL     1     -10.724  -0.630   5.508  1.00  0.00     0.040 C 
HETATM   40  O7  UNL     1      -9.060  -0.304   3.786  1.00  0.00    -0.348 OA
BRANCH  33  41
HETATM   41  O6  UNL     1     -10.418   0.951   2.479  1.00  0.00    -0.358 OA
HETATM   42  C10 UNL     1     -11.280   1.950   2.838  1.00  0.00     0.205 C 
ENDBRANCH  33  41
ENDBRANCH  32  33
ENDBRANCH  31  32
ENDBRANCH   5  31
BRANCH   3  43
HETATM   43  O3  UNL     1      -5.090   4.077   3.815  1.00  0.00    -0.390 OA
ATOM     44  H3  UNL     1      -5.430   4.467   4.611  1.00  0.00     0.210 HD
ENDBRANCH   3  43
BRANCH   4  45
HETATM   45  O4  UNL     1      -5.105   2.502   1.572  1.00  0.00    -0.390 OA
ATOM     46  H4  UNL     1      -5.709   2.827   0.914  1.00  0.00     0.210 HD
ENDBRANCH   4  45
TORSDOF 17
ENDMDL
MODEL 4
REMARK VINA RESULT: -6.917011708      2.885      8.001
REMARK  17 active torsions:
REMARK  status: ('A' for Active; 'I' for Inactive)
REMARK    1  A    between atoms: C2_2  and  O1_3 
REMARK    2  A    between atoms: O1_3  and  C3_4 
REMARK    3  A    between atoms: C4_5  and  O2_6 
REMARK    4  A    between atoms: C5_8  and  O3_9 
REMARK    5  A    between atoms: C6_11  and  O4_12 
REMARK    6  A    between atoms: C7_14  and  O5_15 
REMARK    7  A    between atoms: O5_15  and  C8_16 
REMARK    8  A    between atoms: C8_16  and  C9_17 
REMARK    9  A    between atoms: C9_17  and  O6_18 
REMARK   10  A    between atoms: C17_27  and  O8_28 
REMARK   11  A    between atoms: C18_30  and  O9_31 
REMARK   12  A    between atoms: O9_31  and  C19_32 
REMARK   13  A    between atoms: C20_33  and  C21_34 
REMARK   14  A    between atoms: C24_39  and  C25_40 
REMARK   15  A    between atoms: C25_40  and  O12_41 
REMARK   16  A    between atoms: C25_40  and  C26_43 
REMARK   17  A    between atoms: C26_43  and  O14_45 
ROOT
HETATM    1  C3  UNL     1      -7.450  -1.275   4.190  1.00  0.00     0.184 C 
HETATM    2  C4  UNL     1      -7.772  -2.522   3.422  1.00  0.00     0.181 C 
HETATM    3  C5  UNL     1      -7.622  -2.435   1.955  1.00  0.00     0.180 C 
HETATM    4  C6  UNL     1      -7.712  -1.129   1.293  1.00  0.00     0.181 C 
HETATM    5  C7  UNL     1      -6.674  -0.190   1.749  1.00  0.00     0.184 C 
HETATM    6  C17 UNL     1      -5.594  -0.755   2.636  1.00  0.00     0.181 C 
HETATM    7  C18 UNL     1      -6.033  -0.840   4.098  1.00  0.00     0.184 C 
ENDROOT
BRANCH   7   8
HETATM    8  O9  UNL     1      -5.246  -1.545   4.908  1.00  0.00    -0.374 OA
BRANCH   8   9
HETATM    9  C19 UNL     1      -5.260  -1.588   6.229  1.00  0.00     0.143 C 
HETATM   10  C20 UNL     1      -4.962  -0.106   6.785  1.00  0.00     0.116 C 
HETATM   11  C22 UNL     1      -3.590   0.093   6.278  1.00  0.00     0.018 C 
HETATM   12  C23 UNL     1      -2.913  -1.207   6.615  1.00  0.00     0.011 C 
HETATM   13  C24 UNL     1      -4.010  -2.184   6.812  1.00  0.00     0.054 C 
BRANCH  10  14
HETATM   14  C21 UNL     1      -4.921  -0.196   8.275  1.00  0.00     0.179 C 
HETATM   15  O10 UNL     1      -4.097   0.524   8.915  1.00  0.00    -0.648 OA
HETATM   16  O11 UNL     1      -5.742  -1.030   8.988  1.00  0.00    -0.648 OA
ENDBRANCH  10  14
BRANCH  13  17
HETATM   17  C25 UNL     1      -3.629  -3.557   6.349  1.00  0.00     0.224 C 
BRANCH  17  18
HETATM   18  O12 UNL     1      -4.762  -4.021   5.620  1.00  0.00    -0.385 OA
ATOM     19  H12 UNL     1      -4.579  -3.789   4.717  1.00  0.00     0.210 HD
ENDBRANCH  17  18
BRANCH  17  20
HETATM   20  C26 UNL     1      -3.477  -4.515   7.449  1.00  0.00     0.287 C 
HETATM   21  O13 UNL     1      -3.222  -4.053   8.602  1.00  0.00    -0.262 OA
BRANCH  20  22
HETATM   22  O14 UNL     1      -3.593  -5.885   7.327  1.00  0.00    -0.324 OA
HETATM   23  C27 UNL     1      -3.948  -6.764   8.356  1.00  0.00     0.213 C 
ENDBRANCH  20  22
ENDBRANCH  17  20
ENDBRANCH  13  17
ENDBRANCH   8   9
ENDBRANCH   7   8
BRANCH   1  24
HETATM   24  O1  UNL     1      -7.950  -1.459   5.448  1.00  0.00    -0.381 OA
BRANCH  24  25
HETATM   25  C2  UNL     1      -9.000  -0.718   5.868  1.00  0.00     0.164 C 
HETATM   26  C1  UNL     1      -8.592   0.519   6.628  1.00  0.00     0.033 C 
ENDBRANCH  24  25
ENDBRANCH   1  24
BRANCH   6  27
HETATM   27  O8  UNL     1      -4.557   0.173   2.493  1.00  0.00    -0.390 OA
ATOM     28  H8  UNL     1      -4.007  -0.225   1.828  1.00  0.00     0.210 HD
ENDBRANCH   6  27
BRANCH   2  29
HETATM   29  O2  UNL     1      -6.998  -3.567   3.946  1.00  0.00    -0.390 OA
ATOM     30  H2  UNL     1      -7.538  -4.348   3.974  1.00  0.00     0.210 HD
ENDBRANCH   2  29
BRANCH   5  31
HETATM   31  O5  UNL     1      -6.077   0.540   0.720  1.00  0.00    -0.375 OA
BRANCH  31  32
HETATM   32  C8  UNL     1      -6.572   1.805   0.588  1.00  0.00     0.236 C 
BRANCH  32  33
HETATM   33  C9  UNL     1      -5.646   2.871   1.137  1.00  0.00     0.185 C 
HETATM   34  C11 UNL     1      -6.080   4.237   0.615  1.00  0.00     0.071 C 
HETATM   35  C12 UNL     1      -5.545   4.423  -0.764  1.00  0.00     0.012 C 
HETATM   36  C13 UNL     1      -4.064   4.318  -0.831  1.00  0.00     0.010 C 
HETATM   37  C14 UNL     1      -3.426   5.706  -0.897  1.00  0.00     0.012 C 
HETATM   38  C15 UNL     1      -3.544   3.485   0.290  1.00  0.00     0.124 C 
HETATM   39  C16 UNL     1      -2.845   4.331   1.351  1.00  0.00     0.040 C 
HETATM   40  O7  UNL     1      -4.365   2.536   0.796  1.00  0.00    -0.348 OA
BRANCH  33  41
HETATM   41  O6  UNL     1      -5.764   2.962   2.525  1.00  0.00    -0.358 OA
HETATM   42  C10 UNL     1      -6.991   3.360   2.979  1.00  0.00     0.205 C 
ENDBRANCH  33  41
ENDBRANCH  32  33
ENDBRANCH  31  32
ENDBRANCH   5  31
BRANCH   3  43
HETATM   43  O3  UNL     1      -8.623  -3.259   1.353  1.00  0.00    -0.390 OA
ATOM     44  H3  UNL     1      -8.294  -3.562   0.515  1.00  0.00     0.210 HD
ENDBRANCH   3  43
BRANCH   4  45
HETATM   45  O4  UNL     1      -8.977  -0.542   1.332  1.00  0.00    -0.390 OA
ATOM     46  H4  UNL     1      -8.993   0.344   1.677  1.00  0.00     0.210 HD
ENDBRANCH   4  45
TORSDOF 17
ENDMDL
MODEL 5
REMARK VINA RESULT: -6.875349461      2.895      8.422
REMARK  17 active torsions:
REMARK  status: ('A' for Active; 'I' for Inactive)
REMARK    1  A    between atoms: C2_2  and  O1_3 
REMARK    2  A    between atoms: O1_3  and  C3_4 
REMARK    3  A    between atoms: C4_5  and  O2_6 
REMARK    4  A    between atoms: C5_8  and  O3_9 
REMARK    5  A    between atoms: C6_11  and  O4_12 
REMARK    6  A    between atoms: C7_14  and  O5_15 
REMARK    7  A    between atoms: O5_15  and  C8_16 
REMARK    8  A    between atoms: C8_16  and  C9_17 
REMARK    9  A    between atoms: C9_17  and  O6_18 
REMARK   10  A    between atoms: C17_27  and  O8_28 
REMARK   11  A    between atoms: C18_30  and  O9_31 
REMARK   12  A    between atoms: O9_31  and  C19_32 
REMARK   13  A    between atoms: C20_33  and  C21_34 
REMARK   14  A    between atoms: C24_39  and  C25_40 
REMARK   15  A    between atoms: C25_40  and  O12_41 
REMARK   16  A    between atoms: C25_40  and  C26_43 
REMARK   17  A    between atoms: C26_43  and  O14_45 
ROOT
HETATM    1  C3  UNL     1      -7.511  -1.230   4.224  1.00  0.00     0.184 C 
HETATM    2  C4  UNL     1      -7.861  -2.464   3.449  1.00  0.00     0.181 C 
HETATM    3  C5  UNL     1      -7.699  -2.375   1.983  1.00  0.00     0.180 C 
HETATM    4  C6  UNL     1      -7.750  -1.064   1.326  1.00  0.00     0.181 C 
HETATM    5  C7  UNL     1      -6.690  -0.155   1.792  1.00  0.00     0.184 C 
HETATM    6  C17 UNL     1      -5.632  -0.752   2.684  1.00  0.00     0.181 C 
HETATM    7  C18 UNL     1      -6.082  -0.832   4.143  1.00  0.00     0.184 C 
ENDROOT
BRANCH   7   8
HETATM    8  O9  UNL     1      -5.319  -1.561   4.954  1.00  0.00    -0.374 OA
BRANCH   8   9
HETATM    9  C19 UNL     1      -5.333  -1.599   6.276  1.00  0.00     0.143 C 
HETATM   10  C20 UNL     1      -4.989  -0.125   6.826  1.00  0.00     0.116 C 
HETATM   11  C22 UNL     1      -3.612   0.030   6.318  1.00  0.00     0.018 C 
HETATM   12  C23 UNL     1      -2.976  -1.289   6.658  1.00  0.00     0.011 C 
HETATM   13  C24 UNL     1      -4.102  -2.231   6.860  1.00  0.00     0.054 C 
BRANCH  10  14
HETATM   14  C21 UNL     1      -4.949  -0.211   8.317  1.00  0.00     0.179 C 
HETATM   15  O10 UNL     1      -4.111   0.495   8.954  1.00  0.00    -0.648 OA
HETATM   16  O11 UNL     1      -5.787  -1.026   9.032  1.00  0.00    -0.648 OA
ENDBRANCH  10  14
BRANCH  13  17
HETATM   17  C25 UNL     1      -3.764  -3.617   6.401  1.00  0.00     0.224 C 
BRANCH  17  18
HETATM   18  O12 UNL     1      -4.949  -4.089   5.769  1.00  0.00    -0.385 OA
ATOM     19  H12 UNL     1      -4.713  -4.184   4.853  1.00  0.00     0.210 HD
ENDBRANCH  17  18
BRANCH  17  20
HETATM   20  C26 UNL     1      -3.536  -4.551   7.509  1.00  0.00     0.287 C 
HETATM   21  O13 UNL     1      -3.194  -4.065   8.629  1.00  0.00    -0.262 OA
BRANCH  20  22
HETATM   22  O14 UNL     1      -3.669  -5.922   7.427  1.00  0.00    -0.324 OA
HETATM   23  C27 UNL     1      -3.959  -6.775   8.498  1.00  0.00     0.213 C 
ENDBRANCH  20  22
ENDBRANCH  17  20
ENDBRANCH  13  17
ENDBRANCH   8   9
ENDBRANCH   7   8
BRANCH   1  24
HETATM   24  O1  UNL     1      -8.024  -1.406   5.478  1.00  0.00    -0.381 OA
BRANCH  24  25
HETATM   25  C2  UNL     1      -9.043  -0.626   5.902  1.00  0.00     0.164 C 
HETATM   26  C1  UNL     1      -8.587   0.603   6.646  1.00  0.00     0.033 C 
ENDBRANCH  24  25
ENDBRANCH   1  24
BRANCH   6  27
HETATM   27  O8  UNL     1      -4.569   0.149   2.552  1.00  0.00    -0.390 OA
ATOM     28  H8  UNL     1      -5.011   0.984   2.456  1.00  0.00     0.210 HD
ENDBRANCH   6  27
BRANCH   2  29
HETATM   29  O2  UNL     1      -7.118  -3.531   3.972  1.00  0.00    -0.390 OA
ATOM     30  H2  UNL     1      -7.436  -4.334   3.575  1.00  0.00     0.210 HD
ENDBRANCH   2  29
BRANCH   5  31
HETATM   31  O5  UNL     1      -6.068   0.563   0.771  1.00  0.00    -0.375 OA
BRANCH  31  32
HETATM   32  C8  UNL     1      -6.857   1.534   0.225  1.00  0.00     0.236 C 
BRANCH  32  33
HETATM   33  C9  UNL     1      -6.566   2.918   0.768  1.00  0.00     0.185 C 
HETATM   34  C11 UNL     1      -7.777   3.421   1.548  1.00  0.00     0.071 C 
HETATM   35  C12 UNL     1      -8.782   3.962   0.590  1.00  0.00     0.012 C 
HETATM   36  C13 UNL     1      -8.246   5.064  -0.252  1.00  0.00     0.010 C 
HETATM   37  C14 UNL     1      -8.707   6.422   0.277  1.00  0.00     0.012 C 
HETATM   38  C15 UNL     1      -6.766   4.955  -0.383  1.00  0.00     0.124 C 
HETATM   39  C16 UNL     1      -6.043   6.022   0.434  1.00  0.00     0.040 C 
HETATM   40  O7  UNL     1      -6.219   3.721  -0.283  1.00  0.00    -0.348 OA
BRANCH  33  41
HETATM   41  O6  UNL     1      -5.529   2.875   1.701  1.00  0.00    -0.358 OA
HETATM   42  C10 UNL     1      -5.841   3.365   2.939  1.00  0.00     0.205 C 
ENDBRANCH  33  41
ENDBRANCH  32  33
ENDBRANCH  31  32
ENDBRANCH   5  31
BRANCH   3  43
HETATM   43  O3  UNL     1      -8.717  -3.170   1.371  1.00  0.00    -0.390 OA
ATOM     44  H3  UNL     1      -8.312  -3.953   1.017  1.00  0.00     0.210 HD
ENDBRANCH   3  43
BRANCH   4  45
HETATM   45  O4  UNL     1      -8.999  -0.444   1.360  1.00  0.00    -0.390 OA
ATOM     46  H4  UNL     1      -8.991   0.478   1.127  1.00  0.00     0.210 HD
ENDBRANCH   4  45
TORSDOF 17
ENDMDL
