MODEL 1
REMARK VINA RESULT: -6.970791349      0.000      0.000
REMARK  18 active torsions:
REMARK  status: ('A' for Active; 'I' for Inactive)
REMARK    1  A    between atoms: C2_2  and  O2_4 
REMARK    2  A    between atoms: O2_4  and  C3_5 
REMARK    3  A    between atoms: C4_6  and  C5_7 
REMARK    4  A    between atoms: C5_7  and  O3_8 
REMARK    5  A    between atoms: C6_11  and  O5_12 
REMARK    6  A    between atoms: O5_12  and  C7_13 
REMARK    7  A    between atoms: C8_14  and  O6_15 
REMARK    8  A    between atoms: C9_17  and  O7_18 
REMARK    9  A    between atoms: C10_20  and  C11_21 
REMARK   10  A    between atoms: C11_21  and  N1_22 
REMARK   11  A    between atoms: C15_27  and  C16_28 
REMARK   12  A    between atoms: C17_29  and  C18_30 
REMARK   13  A    between atoms: C19_31  and  O8_32 
REMARK   14  A    between atoms: C20_34  and  O9_35 
REMARK   15  A    between atoms: C23_39  and  N2_40 
REMARK   16  A    between atoms: N2_40  and  N3_42 
REMARK   17  A    between atoms: N3_42  and  N4_43 
REMARK   18  A    between atoms: C24_46  and  O10_47 
ROOT
HETATM    1  C7  UNL     1      -6.276  -1.135   5.861  1.00  0.00     0.165 C 
HETATM    2  C8  UNL     1      -6.267  -2.077   4.675  1.00  0.00     0.177 C 
HETATM    3  C9  UNL     1      -5.931  -1.349   3.375  1.00  0.00     0.156 C 
HETATM    4  C10 UNL     1      -6.806  -0.118   3.349  1.00  0.00     0.064 C 
HETATM    5  C14 UNL     1      -6.230   0.852   4.374  1.00  0.00     0.101 C 
HETATM    6 CL1  UNL     1      -7.482   1.832   5.128  1.00  0.00    -0.124 Cl
HETATM    7  C15 UNL     1      -5.481   0.103   5.484  1.00  0.00     0.058 C 
ENDROOT
BRANCH   7   8
HETATM    8  C16 UNL     1      -5.400   1.063   6.615  1.00  0.00    -0.021 C 
HETATM    9  C17 UNL     1      -4.372   1.793   6.943  1.00  0.00    -0.021 C 
BRANCH   9  10
HETATM   10  C18 UNL     1      -3.055   1.841   6.278  1.00  0.00     0.065 C 
HETATM   11  C19 UNL     1      -2.360   3.176   6.486  1.00  0.00     0.157 C 
HETATM   12  C20 UNL     1      -0.899   2.874   6.292  1.00  0.00     0.153 C 
HETATM   13  C21 UNL     1      -0.760   1.381   6.239  1.00  0.00     0.039 C 
HETATM   14  C22 UNL     1       0.456   0.954   7.023  1.00  0.00     0.015 C 
HETATM   15  C23 UNL     1      -2.046   0.894   6.896  1.00  0.00     0.131 C 
BRANCH  11  16
HETATM   16  O8  UNL     1      -2.584   3.690   7.747  1.00  0.00    -0.392 OA
ATOM     17  H8  UNL     1      -2.064   3.251   8.410  1.00  0.00     0.210 HD
ENDBRANCH  11  16
BRANCH  12  18
HETATM   18  O9  UNL     1      -0.418   3.389   5.073  1.00  0.00    -0.393 OA
ATOM     19  H9  UNL     1       0.337   3.950   5.202  1.00  0.00     0.210 HD
ENDBRANCH  12  18
BRANCH  15  20
HETATM   20  N2  UNL     1      -1.953   1.203   8.296  1.00  0.00    -0.247 N 
ATOM     21  H2  UNL     1      -1.656   2.143   8.558  1.00  0.00     0.197 HD
BRANCH  20  22
HETATM   22  N3  UNL     1      -2.207   0.412   9.194  1.00  0.00    -0.248 NA
BRANCH  22  23
HETATM   23  N4  UNL     1      -2.209  -0.179  10.271  1.00  0.00    -0.261 N 
ATOM     24  H42 UNL     1      -1.694  -0.989   9.927  1.00  0.00     0.193 HD
ATOM     25  H41 UNL     1      -2.364  -0.418  11.250  1.00  0.00     0.193 HD
ENDBRANCH  22  23
ENDBRANCH  20  22
ENDBRANCH  15  20
ENDBRANCH   9  10
ENDBRANCH   7   8
BRANCH   1  26
HETATM   26  O5  UNL     1      -5.733  -1.784   6.933  1.00  0.00    -0.350 OA
BRANCH  26  27
HETATM   27  C6  UNL     1      -4.353  -1.883   6.897  1.00  0.00     0.292 C 
HETATM   28  O4  UNL     1      -4.010  -2.768   5.881  1.00  0.00    -0.348 OA
HETATM   29  C4  UNL     1      -4.234  -4.053   6.325  1.00  0.00     0.180 C 
HETATM   30  C3  UNL     1      -4.337  -4.007   7.822  1.00  0.00     0.196 C 
HETATM   31  C24 UNL     1      -3.798  -2.623   8.113  1.00  0.00     0.205 C 
BRANCH  29  32
HETATM   32  C5  UNL     1      -3.204  -5.044   5.833  1.00  0.00     0.198 C 
BRANCH  32  33
HETATM   33  O3  UNL     1      -1.921  -4.553   5.820  1.00  0.00    -0.398 OA
ATOM     34  H3  UNL     1      -1.251  -5.226   5.837  1.00  0.00     0.209 HD
ENDBRANCH  32  33
ENDBRANCH  29  32
BRANCH  30  35
HETATM   35  O2  UNL     1      -3.654  -5.026   8.475  1.00  0.00    -0.311 OA
BRANCH  35  36
HETATM   36  C2  UNL     1      -4.331  -6.164   8.881  1.00  0.00     0.255 C 
HETATM   37  C1  UNL     1      -3.788  -7.117   9.867  1.00  0.00     0.126 C 
HETATM   38  O1  UNL     1      -5.467  -6.403   8.387  1.00  0.00    -0.266 OA
ENDBRANCH  35  36
ENDBRANCH  30  35
BRANCH  31  39
HETATM   39  O10 UNL     1      -2.409  -2.563   8.043  1.00  0.00    -0.388 OA
ATOM     40  H10 UNL     1      -2.089  -1.686   7.865  1.00  0.00     0.210 HD
ENDBRANCH  31  39
ENDBRANCH  26  27
ENDBRANCH   1  26
BRANCH   2  41
HETATM   41  O6  UNL     1      -7.571  -2.551   4.531  1.00  0.00    -0.390 OA
ATOM     42  H6  UNL     1      -7.713  -2.679   3.601  1.00  0.00     0.210 HD
ENDBRANCH   2  41
BRANCH   4  43
HETATM   43  C11 UNL     1      -6.837   0.485   1.977  1.00  0.00     0.280 C 
BRANCH  43  44
HETATM   44  N1  UNL     1      -5.865   1.565   1.939  1.00  0.00     0.080 N 
HETATM   45  C12 UNL     1      -6.510   2.778   1.396  1.00  0.00     0.309 C 
HETATM   46  C13 UNL     1      -4.863   1.133   0.953  1.00  0.00     0.309 C 
ENDBRANCH  43  44
ENDBRANCH   4  43
BRANCH   3  47
HETATM   47  O7  UNL     1      -6.130  -2.219   2.332  1.00  0.00    -0.392 OA
ATOM     48  H7  UNL     1      -5.418  -2.108   1.712  1.00  0.00     0.210 HD
ENDBRANCH   3  47
TORSDOF 18
ENDMDL
MODEL 2
REMARK VINA RESULT: -6.914412865      2.992      6.015
REMARK  18 active torsions:
REMARK  status: ('A' for Active; 'I' for Inactive)
REMARK    1  A    between atoms: C2_2  and  O2_4 
REMARK    2  A    between atoms: O2_4  and  C3_5 
REMARK    3  A    between atoms: C4_6  and  C5_7 
REMARK    4  A    between atoms: C5_7  and  O3_8 
REMARK    5  A    between atoms: C6_11  and  O5_12 
REMARK    6  A    between atoms: O5_12  and  C7_13 
REMARK    7  A    between atoms: C8_14  and  O6_15 
REMARK    8  A    between atoms: C9_17  and  O7_18 
REMARK    9  A    between atoms: C10_20  and  C11_21 
REMARK   10  A    between atoms: C11_21  and  N1_22 
REMARK   11  A    between atoms: C15_27  and  C16_28 
REMARK   12  A    between atoms: C17_29  and  C18_30 
REMARK   13  A    between atoms: C19_31  and  O8_32 
REMARK   14  A    between atoms: C20_34  and  O9_35 
REMARK   15  A    between atoms: C23_39  and  N2_40 
REMARK   16  A    between atoms: N2_40  and  N3_42 
REMARK   17  A    between atoms: N3_42  and  N4_43 
REMARK   18  A    between atoms: C24_46  and  O10_47 
ROOT
HETATM    1  C7  UNL     1      -3.034  -0.570   8.516  1.00  0.00     0.165 C 
HETATM    2  C8  UNL     1      -3.647  -0.534   9.900  1.00  0.00     0.177 C 
HETATM    3  C9  UNL     1      -3.617   0.872  10.498  1.00  0.00     0.156 C 
HETATM    4  C10 UNL     1      -2.213   1.385  10.285  1.00  0.00     0.064 C 
HETATM    5  C14 UNL     1      -2.081   1.705   8.801  1.00  0.00     0.101 C 
HETATM    6 CL1  UNL     1      -0.446   1.431   8.212  1.00  0.00    -0.124 Cl
HETATM    7  C15 UNL     1      -3.037   0.845   7.964  1.00  0.00     0.058 C 
ENDROOT
BRANCH   7   8
HETATM    8  C16 UNL     1      -2.492   0.890   6.582  1.00  0.00    -0.021 C 
HETATM    9  C17 UNL     1      -3.012   1.511   5.561  1.00  0.00    -0.021 C 
BRANCH   9  10
HETATM   10  C18 UNL     1      -4.254   2.308   5.532  1.00  0.00     0.065 C 
HETATM   11  C19 UNL     1      -4.276   3.287   4.370  1.00  0.00     0.157 C 
HETATM   12  C20 UNL     1      -5.737   3.560   4.135  1.00  0.00     0.153 C 
HETATM   13  C21 UNL     1      -6.509   2.571   4.959  1.00  0.00     0.039 C 
HETATM   14  C22 UNL     1      -7.679   2.048   4.163  1.00  0.00     0.015 C 
HETATM   15  C23 UNL     1      -5.485   1.476   5.228  1.00  0.00     0.131 C 
BRANCH  11  16
HETATM   16  O8  UNL     1      -3.695   2.761   3.234  1.00  0.00    -0.392 OA
ATOM     17  H8  UNL     1      -4.015   3.176   2.442  1.00  0.00     0.210 HD
ENDBRANCH  11  16
BRANCH  12  18
HETATM   18  O9  UNL     1      -6.102   4.849   4.566  1.00  0.00    -0.393 OA
ATOM     19  H9  UNL     1      -6.862   4.826   5.136  1.00  0.00     0.210 HD
ENDBRANCH  12  18
BRANCH  15  20
HETATM   20  N2  UNL     1      -5.256   0.791   3.986  1.00  0.00    -0.247 N 
ATOM     21  H2  UNL     1      -4.965   1.347   3.182  1.00  0.00     0.197 HD
BRANCH  20  22
HETATM   22  N3  UNL     1      -5.387  -0.416   3.831  1.00  0.00    -0.248 NA
BRANCH  22  23
HETATM   23  N4  UNL     1      -5.874  -1.536   3.706  1.00  0.00    -0.261 N 
ATOM     24  H42 UNL     1      -6.833  -1.233   3.876  1.00  0.00     0.193 HD
ATOM     25  H41 UNL     1      -5.985  -2.538   3.554  1.00  0.00     0.193 HD
ENDBRANCH  22  23
ENDBRANCH  20  22
ENDBRANCH  15  20
ENDBRANCH   9  10
ENDBRANCH   7   8
BRANCH   1  26
HETATM   26  O5  UNL     1      -3.766  -1.423   7.741  1.00  0.00    -0.350 OA
BRANCH  26  27
HETATM   27  C6  UNL     1      -3.017  -2.142   6.826  1.00  0.00     0.292 C 
HETATM   28  O4  UNL     1      -3.879  -2.624   5.847  1.00  0.00    -0.348 OA
HETATM   29  C4  UNL     1      -4.561  -3.706   6.357  1.00  0.00     0.180 C 
HETATM   30  C3  UNL     1      -3.813  -4.188   7.566  1.00  0.00     0.196 C 
HETATM   31  C24 UNL     1      -2.498  -3.454   7.413  1.00  0.00     0.205 C 
BRANCH  29  32
HETATM   32  C5  UNL     1      -4.802  -4.796   5.337  1.00  0.00     0.198 C 
BRANCH  32  33
HETATM   33  O3  UNL     1      -6.001  -5.448   5.493  1.00  0.00    -0.398 OA
ATOM     34  H3  UNL     1      -6.213  -5.653   6.396  1.00  0.00     0.209 HD
ENDBRANCH  32  33
ENDBRANCH  29  32
BRANCH  30  35
HETATM   35  O2  UNL     1      -3.681  -5.569   7.646  1.00  0.00    -0.311 OA
BRANCH  35  36
HETATM   36  C2  UNL     1      -4.436  -6.286   8.558  1.00  0.00     0.255 C 
HETATM   37  C1  UNL     1      -3.858  -6.939   9.748  1.00  0.00     0.126 C 
HETATM   38  O1  UNL     1      -5.680  -6.389   8.369  1.00  0.00    -0.266 OA
ENDBRANCH  35  36
ENDBRANCH  30  35
BRANCH  31  39
HETATM   39  O10 UNL     1      -1.666  -4.038   6.462  1.00  0.00    -0.388 OA
ATOM     40  H10 UNL     1      -1.870  -4.954   6.310  1.00  0.00     0.210 HD
ENDBRANCH  31  39
ENDBRANCH  26  27
ENDBRANCH   1  26
BRANCH   2  41
HETATM   41  O6  UNL     1      -2.836  -1.322  10.717  1.00  0.00    -0.390 OA
ATOM     42  H6  UNL     1      -2.389  -0.730  11.311  1.00  0.00     0.210 HD
ENDBRANCH   2  41
BRANCH   4  43
HETATM   43  C11 UNL     1      -1.952   2.592  11.135  1.00  0.00     0.280 C 
BRANCH  43  44
HETATM   44  N1  UNL     1      -0.545   2.589  11.500  1.00  0.00     0.080 N 
HETATM   45  C12 UNL     1      -0.175   1.244  11.986  1.00  0.00     0.309 C 
HETATM   46  C13 UNL     1      -0.454   3.502  12.650  1.00  0.00     0.309 C 
ENDBRANCH  43  44
ENDBRANCH   4  43
BRANCH   3  47
HETATM   47  O7  UNL     1      -4.008   0.788  11.810  1.00  0.00    -0.392 OA
ATOM     48  H7  UNL     1      -4.501   1.573  12.024  1.00  0.00     0.210 HD
ENDBRANCH   3  47
TORSDOF 18
ENDMDL
MODEL 3
REMARK VINA RESULT: -6.728282738      2.987      6.863
REMARK  18 active torsions:
REMARK  status: ('A' for Active; 'I' for Inactive)
REMARK    1  A    between atoms: C2_2  and  O2_4 
REMARK    2  A    between atoms: O2_4  and  C3_5 
REMARK    3  A    between atoms: C4_6  and  C5_7 
REMARK    4  A    between atoms: C5_7  and  O3_8 
REMARK    5  A    between atoms: C6_11  and  O5_12 
REMARK    6  A    between atoms: O5_12  and  C7_13 
REMARK    7  A    between atoms: C8_14  and  O6_15 
REMARK    8  A    between atoms: C9_17  and  O7_18 
REMARK    9  A    between atoms: C10_20  and  C11_21 
REMARK   10  A    between atoms: C11_21  and  N1_22 
REMARK   11  A    between atoms: C15_27  and  C16_28 
REMARK   12  A    between atoms: C17_29  and  C18_30 
REMARK   13  A    between atoms: C19_31  and  O8_32 
REMARK   14  A    between atoms: C20_34  and  O9_35 
REMARK   15  A    between atoms: C23_39  and  N2_40 
REMARK   16  A    between atoms: N2_40  and  N3_42 
REMARK   17  A    between atoms: N3_42  and  N4_43 
REMARK   18  A    between atoms: C24_46  and  O10_47 
ROOT
HETATM    1  C7  UNL     1      -4.628  -1.102   6.222  1.00  0.00     0.165 C 
HETATM    2  C8  UNL     1      -5.594  -1.262   7.376  1.00  0.00     0.177 C 
HETATM    3  C9  UNL     1      -5.425  -0.155   8.416  1.00  0.00     0.156 C 
HETATM    4  C10 UNL     1      -3.942  -0.062   8.686  1.00  0.00     0.064 C 
HETATM    5  C14 UNL     1      -3.313   0.598   7.464  1.00  0.00     0.101 C 
HETATM    6 CL1  UNL     1      -1.683   0.007   7.165  1.00  0.00    -0.124 Cl
HETATM    7  C15 UNL     1      -4.150   0.339   6.205  1.00  0.00     0.058 C 
ENDROOT
BRANCH   7   8
HETATM    8  C16 UNL     1      -3.228   0.593   5.067  1.00  0.00    -0.021 C 
HETATM    9  C17 UNL     1      -3.392   1.465   4.113  1.00  0.00    -0.021 C 
BRANCH   9  10
HETATM   10  C18 UNL     1      -4.521   2.400   3.936  1.00  0.00     0.065 C 
HETATM   11  C19 UNL     1      -4.048   3.817   3.657  1.00  0.00     0.157 C 
HETATM   12  C20 UNL     1      -5.205   4.467   2.946  1.00  0.00     0.153 C 
HETATM   13  C21 UNL     1      -6.183   3.380   2.609  1.00  0.00     0.039 C 
HETATM   14  C22 UNL     1      -6.723   3.595   1.218  1.00  0.00     0.015 C 
HETATM   15  C23 UNL     1      -5.332   2.118   2.686  1.00  0.00     0.131 C 
BRANCH  11  16
HETATM   16  O8  UNL     1      -2.919   3.844   2.864  1.00  0.00    -0.392 OA
ATOM     17  H8  UNL     1      -2.363   3.086   3.005  1.00  0.00     0.210 HD
ENDBRANCH  11  16
BRANCH  12  18
HETATM   18  O9  UNL     1      -5.869   5.393   3.773  1.00  0.00    -0.393 OA
ATOM     19  H9  UNL     1      -5.671   6.289   3.526  1.00  0.00     0.210 HD
ENDBRANCH  12  18
BRANCH  15  20
HETATM   20  N2  UNL     1      -4.433   2.140   1.565  1.00  0.00    -0.247 N 
ATOM     21  H2  UNL     1      -3.921   3.002   1.381  1.00  0.00     0.197 HD
BRANCH  20  22
HETATM   22  N3  UNL     1      -4.243   1.190   0.817  1.00  0.00    -0.248 NA
BRANCH  22  23
HETATM   23  N4  UNL     1      -4.326   0.095   0.267  1.00  0.00    -0.261 N 
ATOM     24  H42 UNL     1      -3.319  -0.058   0.227  1.00  0.00     0.193 HD
ATOM     25  H41 UNL     1      -4.694  -0.751  -0.168  1.00  0.00     0.193 HD
ENDBRANCH  22  23
ENDBRANCH  20  22
ENDBRANCH  15  20
ENDBRANCH   9  10
ENDBRANCH   7   8
BRANCH   1  26
HETATM   26  O5  UNL     1      -5.273  -1.441   5.067  1.00  0.00    -0.350 OA
BRANCH  26  27
HETATM   27  C6  UNL     1      -6.560  -1.914   5.255  1.00  0.00     0.292 C 
HETATM   28  O4  UNL     1      -6.675  -3.127   4.584  1.00  0.00    -0.348 OA
HETATM   29  C4  UNL     1      -6.810  -2.873   3.238  1.00  0.00     0.180 C 
HETATM   30  C3  UNL     1      -7.208  -1.433   3.083  1.00  0.00     0.196 C 
HETATM   31  C24 UNL     1      -7.595  -1.079   4.502  1.00  0.00     0.205 C 
BRANCH  29  32
HETATM   32  C5  UNL     1      -7.755  -3.825   2.541  1.00  0.00     0.198 C 
BRANCH  32  33
HETATM   33  O3  UNL     1      -7.840  -5.060   3.137  1.00  0.00    -0.398 OA
ATOM     34  H3  UNL     1      -8.207  -5.734   2.577  1.00  0.00     0.209 HD
ENDBRANCH  32  33
ENDBRANCH  29  32
BRANCH  30  35
HETATM   35  O2  UNL     1      -8.216  -1.214   2.152  1.00  0.00    -0.311 OA
BRANCH  35  36
HETATM   36  C2  UNL     1      -8.273  -0.014   1.463  1.00  0.00     0.255 C 
HETATM   37  C1  UNL     1      -9.255   1.045   1.766  1.00  0.00     0.126 C 
HETATM   38  O1  UNL     1      -7.450   0.189   0.529  1.00  0.00    -0.266 OA
ENDBRANCH  35  36
ENDBRANCH  30  35
BRANCH  31  39
HETATM   39  O10 UNL     1      -8.855  -1.560   4.850  1.00  0.00    -0.388 OA
ATOM     40  H10 UNL     1      -9.059  -1.420   5.767  1.00  0.00     0.210 HD
ENDBRANCH  31  39
ENDBRANCH  26  27
ENDBRANCH   1  26
BRANCH   2  41
HETATM   41  O6  UNL     1      -5.259  -2.454   8.018  1.00  0.00    -0.390 OA
ATOM     42  H6  UNL     1      -4.375  -2.347   8.349  1.00  0.00     0.210 HD
ENDBRANCH   2  41
BRANCH   4  43
HETATM   43  C11 UNL     1      -3.677   0.724   9.935  1.00  0.00     0.280 C 
BRANCH  43  44
HETATM   44  N1  UNL     1      -3.071  -0.171  10.909  1.00  0.00     0.080 N 
HETATM   45  C12 UNL     1      -3.940  -0.246  12.101  1.00  0.00     0.309 C 
HETATM   46  C13 UNL     1      -1.833   0.506  11.320  1.00  0.00     0.309 C 
ENDBRANCH  43  44
ENDBRANCH   4  43
BRANCH   3  47
HETATM   47  O7  UNL     1      -6.192  -0.472   9.509  1.00  0.00    -0.392 OA
ATOM     48  H7  UNL     1      -5.949  -1.343   9.800  1.00  0.00     0.210 HD
ENDBRANCH   3  47
TORSDOF 18
ENDMDL
MODEL 4
REMARK VINA RESULT: -6.648325979      2.401      3.180
REMARK  18 active torsions:
REMARK  status: ('A' for Active; 'I' for Inactive)
REMARK    1  A    between atoms: C2_2  and  O2_4 
REMARK    2  A    between atoms: O2_4  and  C3_5 
REMARK    3  A    between atoms: C4_6  and  C5_7 
REMARK    4  A    between atoms: C5_7  and  O3_8 
REMARK    5  A    between atoms: C6_11  and  O5_12 
REMARK    6  A    between atoms: O5_12  and  C7_13 
REMARK    7  A    between atoms: C8_14  and  O6_15 
REMARK    8  A    between atoms: C9_17  and  O7_18 
REMARK    9  A    between atoms: C10_20  and  C11_21 
REMARK   10  A    between atoms: C11_21  and  N1_22 
REMARK   11  A    between atoms: C15_27  and  C16_28 
REMARK   12  A    between atoms: C17_29  and  C18_30 
REMARK   13  A    between atoms: C19_31  and  O8_32 
REMARK   14  A    between atoms: C20_34  and  O9_35 
REMARK   15  A    between atoms: C23_39  and  N2_40 
REMARK   16  A    between atoms: N2_40  and  N3_42 
REMARK   17  A    between atoms: N3_42  and  N4_43 
REMARK   18  A    between atoms: C24_46  and  O10_47 
ROOT
HETATM    1  C7  UNL     1      -7.199  -1.155   4.929  1.00  0.00     0.165 C 
HETATM    2  C8  UNL     1      -7.130  -1.911   3.619  1.00  0.00     0.177 C 
HETATM    3  C9  UNL     1      -7.242  -0.975   2.417  1.00  0.00     0.156 C 
HETATM    4  C10 UNL     1      -8.418  -0.071   2.701  1.00  0.00     0.064 C 
HETATM    5  C14 UNL     1      -7.971   0.907   3.782  1.00  0.00     0.101 C 
HETATM    6 CL1  UNL     1      -9.298   1.371   4.839  1.00  0.00    -0.124 Cl
HETATM    7  C15 UNL     1      -6.862   0.299   4.651  1.00  0.00     0.058 C 
ENDROOT
BRANCH   7   8
HETATM    8  C16 UNL     1      -6.860   1.106   5.899  1.00  0.00    -0.021 C 
HETATM    9  C17 UNL     1      -6.287   2.262   6.077  1.00  0.00    -0.021 C 
BRANCH   9  10
HETATM   10  C18 UNL     1      -5.508   3.039   5.093  1.00  0.00     0.065 C 
HETATM   11  C19 UNL     1      -5.561   4.531   5.375  1.00  0.00     0.157 C 
HETATM   12  C20 UNL     1      -4.325   5.083   4.717  1.00  0.00     0.153 C 
HETATM   13  C21 UNL     1      -3.480   3.911   4.311  1.00  0.00     0.039 C 
HETATM   14  C22 UNL     1      -2.031   4.200   4.610  1.00  0.00     0.015 C 
HETATM   15  C23 UNL     1      -4.016   2.784   5.185  1.00  0.00     0.131 C 
BRANCH  11  16
HETATM   16  O8  UNL     1      -5.552   4.808   6.727  1.00  0.00    -0.392 OA
ATOM     17  H8  UNL     1      -5.676   5.732   6.905  1.00  0.00     0.210 HD
ENDBRANCH  11  16
BRANCH  12  18
HETATM   18  O9  UNL     1      -4.636   5.807   3.550  1.00  0.00    -0.393 OA
ATOM     19  H9  UNL     1      -4.634   6.744   3.707  1.00  0.00     0.210 HD
ENDBRANCH  12  18
BRANCH  15  20
HETATM   20  N2  UNL     1      -3.606   3.059   6.534  1.00  0.00    -0.247 N 
ATOM     21  H2  UNL     1      -4.045   3.843   7.016  1.00  0.00     0.197 HD
BRANCH  20  22
HETATM   22  N3  UNL     1      -2.762   2.413   7.142  1.00  0.00    -0.248 NA
BRANCH  22  23
HETATM   23  N4  UNL     1      -1.725   1.829   7.444  1.00  0.00    -0.261 N 
ATOM     24  H42 UNL     1      -1.266   1.999   6.550  1.00  0.00     0.193 HD
ATOM     25  H41 UNL     1      -1.018   1.304   7.957  1.00  0.00     0.193 HD
ENDBRANCH  22  23
ENDBRANCH  20  22
ENDBRANCH  15  20
ENDBRANCH   9  10
ENDBRANCH   7   8
BRANCH   1  26
HETATM   26  O5  UNL     1      -6.319  -1.725   5.804  1.00  0.00    -0.350 OA
BRANCH  26  27
HETATM   27  C6  UNL     1      -4.990  -1.563   5.458  1.00  0.00     0.292 C 
HETATM   28  O4  UNL     1      -4.363  -2.800   5.556  1.00  0.00    -0.348 OA
HETATM   29  C4  UNL     1      -4.134  -3.071   6.887  1.00  0.00     0.180 C 
HETATM   30  C3  UNL     1      -4.246  -1.778   7.642  1.00  0.00     0.196 C 
HETATM   31  C24 UNL     1      -4.214  -0.772   6.512  1.00  0.00     0.205 C 
BRANCH  29  32
HETATM   32  C5  UNL     1      -2.826  -3.789   7.134  1.00  0.00     0.198 C 
BRANCH  32  33
HETATM   33  O3  UNL     1      -2.266  -4.331   6.003  1.00  0.00    -0.398 OA
ATOM     34  H3  UNL     1      -2.678  -4.046   5.195  1.00  0.00     0.209 HD
ENDBRANCH  32  33
ENDBRANCH  29  32
BRANCH  30  35
HETATM   35  O2  UNL     1      -3.255  -1.584   8.597  1.00  0.00    -0.311 OA
BRANCH  35  36
HETATM   36  C2  UNL     1      -3.387  -0.576   9.536  1.00  0.00     0.255 C 
HETATM   37  C1  UNL     1      -4.661  -0.263  10.211  1.00  0.00     0.126 C 
HETATM   38  O1  UNL     1      -2.372   0.112   9.835  1.00  0.00    -0.266 OA
ENDBRANCH  35  36
ENDBRANCH  30  35
BRANCH  31  39
HETATM   39  O10 UNL     1      -2.930  -0.562   6.017  1.00  0.00    -0.388 OA
ATOM     40  H10 UNL     1      -2.642   0.338   6.117  1.00  0.00     0.210 HD
ENDBRANCH  31  39
ENDBRANCH  26  27
ENDBRANCH   1  26
BRANCH   2  41
HETATM   41  O6  UNL     1      -8.253  -2.738   3.575  1.00  0.00    -0.390 OA
ATOM     42  H6  UNL     1      -8.156  -3.367   4.281  1.00  0.00     0.210 HD
ENDBRANCH   2  41
BRANCH   4  43
HETATM   43  C11 UNL     1      -8.854   0.643   1.458  1.00  0.00     0.280 C 
BRANCH  43  44
HETATM   44  N1  UNL     1      -8.468   2.040   1.584  1.00  0.00     0.080 N 
HETATM   45  C12 UNL     1      -9.632   2.894   1.268  1.00  0.00     0.309 C 
HETATM   46  C13 UNL     1      -7.477   2.252   0.518  1.00  0.00     0.309 C 
ENDBRANCH  43  44
ENDBRANCH   4  43
BRANCH   3  47
HETATM   47  O7  UNL     1      -7.365  -1.742   1.286  1.00  0.00    -0.392 OA
ATOM     48  H7  UNL     1      -7.578  -2.629   1.550  1.00  0.00     0.210 HD
ENDBRANCH   3  47
TORSDOF 18
ENDMDL
MODEL 5
REMARK VINA RESULT: -6.640156756      2.748      6.789
REMARK  18 active torsions:
REMARK  status: ('A' for Active; 'I' for Inactive)
REMARK    1  A    between atoms: C2_2  and  O2_4 
REMARK    2  A    between atoms: O2_4  and  C3_5 
REMARK    3  A    between atoms: C4_6  and  C5_7 
REMARK    4  A    between atoms: C5_7  and  O3_8 
REMARK    5  A    between atoms: C6_11  and  O5_12 
REMARK    6  A    between atoms: O5_12  and  C7_13 
REMARK    7  A    between atoms: C8_14  and  O6_15 
REMARK    8  A    between atoms: C9_17  and  O7_18 
REMARK    9  A    between atoms: C10_20  and  C11_21 
REMARK   10  A    between atoms: C11_21  and  N1_22 
REMARK   11  A    between atoms: C15_27  and  C16_28 
REMARK   12  A    between atoms: C17_29  and  C18_30 
REMARK   13  A    between atoms: C19_31  and  O8_32 
REMARK   14  A    between atoms: C20_34  and  O9_35 
REMARK   15  A    between atoms: C23_39  and  N2_40 
REMARK   16  A    between atoms: N2_40  and  N3_42 
REMARK   17  A    between atoms: N3_42  and  N4_43 
REMARK   18  A    between atoms: C24_46  and  O10_47 
ROOT
HETATM    1  C7  UNL     1      -4.219  -1.388   6.431  1.00  0.00     0.165 C 
HETATM    2  C8  UNL     1      -5.232  -1.673   7.519  1.00  0.00     0.177 C 
HETATM    3  C9  UNL     1      -5.296  -0.542   8.545  1.00  0.00     0.156 C 
HETATM    4  C10 UNL     1      -3.865  -0.233   8.914  1.00  0.00     0.064 C 
HETATM    5  C14 UNL     1      -3.253   0.498   7.724  1.00  0.00     0.101 C 
HETATM    6 CL1  UNL     1      -1.538   0.147   7.548  1.00  0.00    -0.124 Cl
HETATM    7  C15 UNL     1      -3.954   0.107   6.416  1.00  0.00     0.058 C 
ENDROOT
BRANCH   7   8
HETATM    8  C16 UNL     1      -3.000   0.480   5.338  1.00  0.00    -0.021 C 
HETATM    9  C17 UNL     1      -3.142   1.444   4.474  1.00  0.00    -0.021 C 
BRANCH   9  10
HETATM   10  C18 UNL     1      -4.272   2.389   4.359  1.00  0.00     0.065 C 
HETATM   11  C19 UNL     1      -3.933   3.754   4.932  1.00  0.00     0.157 C 
HETATM   12  C20 UNL     1      -4.879   4.698   4.240  1.00  0.00     0.153 C 
HETATM   13  C21 UNL     1      -5.539   3.929   3.133  1.00  0.00     0.039 C 
HETATM   14  C22 UNL     1      -5.630   4.791   1.899  1.00  0.00     0.015 C 
HETATM   15  C23 UNL     1      -4.593   2.753   2.923  1.00  0.00     0.131 C 
BRANCH  11  16
HETATM   16  O8  UNL     1      -2.624   4.115   4.683  1.00  0.00    -0.392 OA
ATOM     17  H8  UNL     1      -2.261   4.650   5.379  1.00  0.00     0.210 HD
ENDBRANCH  11  16
BRANCH  12  18
HETATM   18  O9  UNL     1      -5.893   5.148   5.108  1.00  0.00    -0.393 OA
ATOM     19  H9  UNL     1      -6.263   5.973   4.817  1.00  0.00     0.210 HD
ENDBRANCH  12  18
BRANCH  15  20
HETATM   20  N2  UNL     1      -3.395   3.271   2.322  1.00  0.00    -0.247 N 
ATOM     21  H2  UNL     1      -2.920   4.041   2.793  1.00  0.00     0.197 HD
BRANCH  20  22
HETATM   22  N3  UNL     1      -2.908   2.848   1.282  1.00  0.00    -0.248 NA
BRANCH  22  23
HETATM   23  N4  UNL     1      -2.753   2.270   0.210  1.00  0.00    -0.261 N 
ATOM     24  H42 UNL     1      -3.733   2.007   0.110  1.00  0.00     0.193 HD
ATOM     25  H41 UNL     1      -2.335   1.879  -0.634  1.00  0.00     0.193 HD
ENDBRANCH  22  23
ENDBRANCH  20  22
ENDBRANCH  15  20
ENDBRANCH   9  10
ENDBRANCH   7   8
BRANCH   1  26
HETATM   26  O5  UNL     1      -4.727  -1.828   5.242  1.00  0.00    -0.350 OA
BRANCH  26  27
HETATM   27  C6  UNL     1      -6.091  -1.641   5.104  1.00  0.00     0.292 C 
HETATM   28  O4  UNL     1      -6.619  -2.763   4.474  1.00  0.00    -0.348 OA
HETATM   29  C4  UNL     1      -6.326  -2.690   3.130  1.00  0.00     0.180 C 
HETATM   30  C3  UNL     1      -5.953  -1.269   2.821  1.00  0.00     0.196 C 
HETATM   31  C24 UNL     1      -6.421  -0.561   4.074  1.00  0.00     0.205 C 
BRANCH  29  32
HETATM   32  C5  UNL     1      -7.435  -3.216   2.247  1.00  0.00     0.198 C 
BRANCH  32  33
HETATM   33  O3  UNL     1      -8.676  -2.711   2.552  1.00  0.00    -0.398 OA
ATOM     34  H3  UNL     1      -9.357  -3.370   2.607  1.00  0.00     0.209 HD
ENDBRANCH  32  33
ENDBRANCH  29  32
BRANCH  30  35
HETATM   35  O2  UNL     1      -6.513  -0.771   1.650  1.00  0.00    -0.311 OA
BRANCH  35  36
HETATM   36  C2  UNL     1      -5.775   0.067   0.831  1.00  0.00     0.255 C 
HETATM   37  C1  UNL     1      -6.378   1.149   0.030  1.00  0.00     0.126 C 
HETATM   38  O1  UNL     1      -4.526  -0.098   0.762  1.00  0.00    -0.266 OA
ENDBRANCH  35  36
ENDBRANCH  30  35
BRANCH  31  39
HETATM   39  O10 UNL     1      -7.799  -0.366   4.097  1.00  0.00    -0.388 OA
ATOM     40  H10 UNL     1      -8.268  -1.116   4.446  1.00  0.00     0.210 HD
ENDBRANCH  31  39
ENDBRANCH  26  27
ENDBRANCH   1  26
BRANCH   2  41
HETATM   41  O6  UNL     1      -4.774  -2.798   8.207  1.00  0.00    -0.390 OA
ATOM     42  H6  UNL     1      -4.808  -2.584   9.132  1.00  0.00     0.210 HD
ENDBRANCH   2  41
BRANCH   4  43
HETATM   43  C11 UNL     1      -3.804   0.597  10.161  1.00  0.00     0.280 C 
BRANCH  43  44
HETATM   44  N1  UNL     1      -3.166  -0.198  11.198  1.00  0.00     0.080 N 
HETATM   45  C12 UNL     1      -4.009  -0.177  12.411  1.00  0.00     0.309 C 
HETATM   46  C13 UNL     1      -1.930   0.529  11.521  1.00  0.00     0.309 C 
ENDBRANCH  43  44
ENDBRANCH   4  43
BRANCH   3  47
HETATM   47  O7  UNL     1      -6.085  -0.955   9.590  1.00  0.00    -0.392 OA
ATOM     48  H7  UNL     1      -5.582  -0.872  10.392  1.00  0.00     0.210 HD
ENDBRANCH   3  47
TORSDOF 18
ENDMDL
