MODEL 1
REMARK VINA RESULT: -8.508647173      0.000      0.000
REMARK  18 active torsions:
REMARK  status: ('A' for Active; 'I' for Inactive)
REMARK    1  A    between atoms: C2_2  and  O1_5 
REMARK    2  A    between atoms: O1_5  and  C5_6 
REMARK    3  A    between atoms: C5_6  and  C6_8 
REMARK    4  A    between atoms: C6_8  and  N1_9 
REMARK    5  A    between atoms: N1_9  and  C7_10 
REMARK    6  A    between atoms: C7_10  and  O3_11 
REMARK    7  A    between atoms: C7_10  and  C16_22 
REMARK    8  A    between atoms: O3_11  and  C8_12 
REMARK    9  A    between atoms: C8_12  and  O4_13 
REMARK   10  A    between atoms: O4_13  and  C9_14 
REMARK   11  A    between atoms: C9_14  and  C10_16 
REMARK   12  A    between atoms: C17_26  and  C18_27 
REMARK       I    between atoms: C18_27  and  N3_29 
REMARK   13  A    between atoms: N3_29  and  C19_31 
REMARK   14  A    between atoms: C19_31  and  C20_32 
REMARK   15  A    between atoms: C19_31  and  C21_35 
REMARK   16  A    between atoms: C21_35  and  O9_36 
REMARK   17  A    between atoms: C21_35  and  O10_38 
REMARK   18  A    between atoms: C23_41  and  C24_42 
ROOT
HETATM    1  C16 UNL     1      -4.675  -1.042   7.014  1.00  0.00     0.307 C 
HETATM    2  N2  UNL     1      -5.770  -1.939   6.719  1.00  0.00    -0.042 N 
ATOM      3  H21 UNL     1      -6.285  -2.436   7.445  1.00  0.00     0.280 HD
ATOM      4  H22 UNL     1      -5.633  -2.846   6.274  1.00  0.00     0.280 HD
HETATM    5  C17 UNL     1      -6.334  -0.757   5.992  1.00  0.00     0.310 C 
HETATM    6  C22 UNL     1      -4.956  -0.474   5.635  1.00  0.00     0.005 C 
HETATM    7  C23 UNL     1      -4.134  -0.013   4.751  1.00  0.00     0.092 C 
ENDROOT
BRANCH   1   8
HETATM    8  C7  UNL     1      -3.345  -1.725   7.121  1.00  0.00     0.229 C 
BRANCH   8   9
HETATM    9  N1  UNL     1      -3.203  -2.837   6.689  1.00  0.00    -0.389 NA
BRANCH   9  10
HETATM   10  C6  UNL     1      -2.906  -4.047   6.213  1.00  0.00     0.267 C 
BRANCH  10  11
HETATM   11  C5  UNL     1      -4.011  -5.079   6.272  1.00  0.00     0.312 C 
HETATM   12  O2  UNL     1      -5.071  -4.822   5.671  1.00  0.00    -0.257 OA
BRANCH  11  13
HETATM   13  O1  UNL     1      -3.889  -6.268   6.952  1.00  0.00    -0.306 OA
BRANCH  13  14
HETATM   14  C2  UNL     1      -4.033  -6.398   8.349  1.00  0.00     0.060 C 
HETATM   15  C1  UNL     1      -5.463  -6.273   8.791  1.00  0.00     0.046 C 
HETATM   16  C3  UNL     1      -3.589  -7.824   8.685  1.00  0.00     0.046 C 
HETATM   17  C4  UNL     1      -3.178  -5.463   9.141  1.00  0.00     0.046 C 
ENDBRANCH  13  14
ENDBRANCH  11  13
ENDBRANCH  10  11
ENDBRANCH   9  10
ENDBRANCH   8   9
BRANCH   8  18
HETATM   18  O3  UNL     1      -2.340  -0.966   7.744  1.00  0.00    -0.300 OA
BRANCH  18  19
HETATM   19  C8  UNL     1      -2.628  -0.151   8.853  1.00  0.00     0.358 C 
BRANCH  19  20
HETATM   20  O4  UNL     1      -3.220  -0.795   9.932  1.00  0.00    -0.291 OA
BRANCH  20  21
HETATM   21  C9  UNL     1      -3.403  -0.292  11.204  1.00  0.00     0.295 C 
HETATM   22  O5  UNL     1      -2.431   0.209  11.781  1.00  0.00    -0.259 OA
BRANCH  21  23
HETATM   23  C10 UNL     1      -4.708  -0.337  11.876  1.00  0.00     0.039 A 
HETATM   24  C11 UNL     1      -4.832  -0.538  13.231  1.00  0.00     0.017 A 
HETATM   25  C12 UNL     1      -6.069  -0.577  13.848  1.00  0.00     0.001 A 
HETATM   26  C13 UNL     1      -7.227  -0.415  13.121  1.00  0.00     0.000 A 
HETATM   27  C14 UNL     1      -7.107  -0.212  11.759  1.00  0.00     0.001 A 
HETATM   28  C15 UNL     1      -5.868  -0.174  11.150  1.00  0.00     0.017 A 
ENDBRANCH  21  23
ENDBRANCH  20  21
ENDBRANCH  19  20
ENDBRANCH  18  19
ENDBRANCH   8  18
ENDBRANCH   1   8
BRANCH   5  29
HETATM   29  C18 UNL     1      -7.294  -1.243   5.012  1.00  0.00     0.253 C 
HETATM   30  O6  UNL     1      -8.362  -1.766   5.401  1.00  0.00    -0.271 OA
HETATM   31  N3  UNL     1      -7.056  -1.138   3.618  1.00  0.00    -0.340 N 
ATOM     32  H3  UNL     1      -6.192  -0.716   3.279  1.00  0.00     0.163 HD
BRANCH  31  33
HETATM   33  C19 UNL     1      -8.033  -1.626   2.685  1.00  0.00     0.240 C 
BRANCH  33  34
HETATM   34  C20 UNL     1      -7.635  -2.976   2.223  1.00  0.00     0.201 C 
HETATM   35  O7  UNL     1      -6.479  -3.372   2.433  1.00  0.00    -0.646 OA
HETATM   36  O8  UNL     1      -8.518  -3.824   1.556  1.00  0.00    -0.646 OA
ENDBRANCH  33  34
BRANCH  33  37
HETATM   37  C21 UNL     1      -8.086  -0.674   1.501  1.00  0.00     0.287 C 
BRANCH  37  38
HETATM   38  O9  UNL     1      -9.318  -0.056   1.403  1.00  0.00    -0.369 OA
ATOM     39  H9  UNL     1      -9.233   0.847   1.125  1.00  0.00     0.212 HD
ENDBRANCH  37  38
BRANCH  37  40
HETATM   40  O10 UNL     1      -7.839  -1.355   0.307  1.00  0.00    -0.369 OA
ATOM     41  H10 UNL     1      -8.146  -0.851  -0.437  1.00  0.00     0.212 HD
ENDBRANCH  37  40
ENDBRANCH  33  37
ENDBRANCH  31  33
ENDBRANCH   5  29
BRANCH   7  42
HETATM   42  C24 UNL     1      -4.489   0.515   3.448  1.00  0.00     0.198 C 
HETATM   43  O11 UNL     1      -4.589  -0.264   2.450  1.00  0.00    -0.644 OA
HETATM   44  O12 UNL     1      -4.740   1.845   3.181  1.00  0.00    -0.644 OA
ENDBRANCH   7  42
TORSDOF 18
ENDMDL
MODEL 2
REMARK VINA RESULT: -8.216323669      2.112      3.128
REMARK  18 active torsions:
REMARK  status: ('A' for Active; 'I' for Inactive)
REMARK    1  A    between atoms: C2_2  and  O1_5 
REMARK    2  A    between atoms: O1_5  and  C5_6 
REMARK    3  A    between atoms: C5_6  and  C6_8 
REMARK    4  A    between atoms: C6_8  and  N1_9 
REMARK    5  A    between atoms: N1_9  and  C7_10 
REMARK    6  A    between atoms: C7_10  and  O3_11 
REMARK    7  A    between atoms: C7_10  and  C16_22 
REMARK    8  A    between atoms: O3_11  and  C8_12 
REMARK    9  A    between atoms: C8_12  and  O4_13 
REMARK   10  A    between atoms: O4_13  and  C9_14 
REMARK   11  A    between atoms: C9_14  and  C10_16 
REMARK   12  A    between atoms: C17_26  and  C18_27 
REMARK       I    between atoms: C18_27  and  N3_29 
REMARK   13  A    between atoms: N3_29  and  C19_31 
REMARK   14  A    between atoms: C19_31  and  C20_32 
REMARK   15  A    between atoms: C19_31  and  C21_35 
REMARK   16  A    between atoms: C21_35  and  O9_36 
REMARK   17  A    between atoms: C21_35  and  O10_38 
REMARK   18  A    between atoms: C23_41  and  C24_42 
ROOT
HETATM    1  C16 UNL     1      -4.195  -0.967   5.621  1.00  0.00     0.307 C 
HETATM    2  N2  UNL     1      -4.854   0.204   6.154  1.00  0.00    -0.042 N 
ATOM      3  H21 UNL     1      -4.344   0.977   6.580  1.00  0.00     0.280 HD
ATOM      4  H22 UNL     1      -5.415   0.180   7.005  1.00  0.00     0.280 HD
HETATM    5  C17 UNL     1      -5.461   0.292   4.787  1.00  0.00     0.310 C 
HETATM    6  C22 UNL     1      -5.481  -1.159   4.838  1.00  0.00     0.005 C 
HETATM    7  C23 UNL     1      -6.090  -2.251   4.509  1.00  0.00     0.092 C 
ENDROOT
BRANCH   1   8
HETATM    8  C7  UNL     1      -3.946  -2.038   6.639  1.00  0.00     0.229 C 
BRANCH   8   9
HETATM    9  N1  UNL     1      -3.519  -3.107   6.294  1.00  0.00    -0.389 NA
BRANCH   9  10
HETATM   10  C6  UNL     1      -3.082  -4.342   6.041  1.00  0.00     0.267 C 
BRANCH  10  11
HETATM   11  C5  UNL     1      -4.065  -5.464   6.292  1.00  0.00     0.312 C 
HETATM   12  O2  UNL     1      -5.152  -5.425   5.685  1.00  0.00    -0.257 OA
BRANCH  11  13
HETATM   13  O1  UNL     1      -3.806  -6.507   7.150  1.00  0.00    -0.306 OA
BRANCH  13  14
HETATM   14  C2  UNL     1      -3.999  -6.448   8.547  1.00  0.00     0.060 C 
HETATM   15  C1  UNL     1      -5.440  -6.252   8.918  1.00  0.00     0.046 C 
HETATM   16  C3  UNL     1      -3.585  -7.820   9.085  1.00  0.00     0.046 C 
HETATM   17  C4  UNL     1      -3.158  -5.424   9.235  1.00  0.00     0.046 C 
ENDBRANCH  13  14
ENDBRANCH  11  13
ENDBRANCH  10  11
ENDBRANCH   9  10
ENDBRANCH   8   9
BRANCH   8  18
HETATM   18  O3  UNL     1      -4.247  -1.676   7.962  1.00  0.00    -0.300 OA
BRANCH  18  19
HETATM   19  C8  UNL     1      -5.577  -1.627   8.417  1.00  0.00     0.358 C 
BRANCH  19  20
HETATM   20  O4  UNL     1      -6.043  -0.367   8.770  1.00  0.00    -0.291 OA
BRANCH  20  21
HETATM   21  C9  UNL     1      -6.904  -0.057   9.803  1.00  0.00     0.295 C 
HETATM   22  O5  UNL     1      -8.024   0.383   9.518  1.00  0.00    -0.259 OA
BRANCH  21  23
HETATM   23  C10 UNL     1      -6.525  -0.235  11.210  1.00  0.00     0.039 A 
HETATM   24  C11 UNL     1      -7.454  -0.437  12.204  1.00  0.00     0.017 A 
HETATM   25  C12 UNL     1      -7.079  -0.604  13.524  1.00  0.00     0.001 A 
HETATM   26  C13 UNL     1      -5.754  -0.573  13.892  1.00  0.00     0.000 A 
HETATM   27  C14 UNL     1      -4.816  -0.371  12.897  1.00  0.00     0.001 A 
HETATM   28  C15 UNL     1      -5.197  -0.205  11.580  1.00  0.00     0.017 A 
ENDBRANCH  21  23
ENDBRANCH  20  21
ENDBRANCH  19  20
ENDBRANCH  18  19
ENDBRANCH   8  18
ENDBRANCH   1   8
BRANCH   5  29
HETATM   29  C18 UNL     1      -6.682   1.078   4.882  1.00  0.00     0.253 C 
HETATM   30  O6  UNL     1      -7.023   1.558   5.986  1.00  0.00    -0.271 OA
HETATM   31  N3  UNL     1      -7.501   1.323   3.751  1.00  0.00    -0.340 N 
ATOM     32  H3  UNL     1      -7.243   0.941   2.842  1.00  0.00     0.163 HD
BRANCH  31  33
HETATM   33  C19 UNL     1      -8.696   2.110   3.889  1.00  0.00     0.240 C 
BRANCH  33  34
HETATM   34  C20 UNL     1      -9.852   1.330   3.391  1.00  0.00     0.201 C 
HETATM   35  O7  UNL     1     -10.007   1.185   2.170  1.00  0.00    -0.646 OA
HETATM   36  O8  UNL     1     -10.782   0.747   4.252  1.00  0.00    -0.646 OA
ENDBRANCH  33  34
BRANCH  33  37
HETATM   37  C21 UNL     1      -8.536   3.375   3.062  1.00  0.00     0.287 C 
BRANCH  37  38
HETATM   38  O9  UNL     1      -9.756   3.978   2.820  1.00  0.00    -0.369 OA
ATOM     39  H9  UNL     1      -9.647   4.858   2.480  1.00  0.00     0.212 HD
ENDBRANCH  37  38
BRANCH  37  40
HETATM   40  O10 UNL     1      -7.935   3.090   1.834  1.00  0.00    -0.369 OA
ATOM     41  H10 UNL     1      -7.352   3.794   1.575  1.00  0.00     0.212 HD
ENDBRANCH  37  40
ENDBRANCH  33  37
ENDBRANCH  31  33
ENDBRANCH   5  29
BRANCH   7  42
HETATM   42  C24 UNL     1      -7.324  -2.346   3.754  1.00  0.00     0.198 C 
HETATM   43  O11 UNL     1      -8.350  -1.696   4.127  1.00  0.00    -0.644 OA
HETATM   44  O12 UNL     1      -7.494  -3.110   2.619  1.00  0.00    -0.644 OA
ENDBRANCH   7  42
TORSDOF 18
ENDMDL
MODEL 3
REMARK VINA RESULT: -8.189057969      1.574      2.597
REMARK  18 active torsions:
REMARK  status: ('A' for Active; 'I' for Inactive)
REMARK    1  A    between atoms: C2_2  and  O1_5 
REMARK    2  A    between atoms: O1_5  and  C5_6 
REMARK    3  A    between atoms: C5_6  and  C6_8 
REMARK    4  A    between atoms: C6_8  and  N1_9 
REMARK    5  A    between atoms: N1_9  and  C7_10 
REMARK    6  A    between atoms: C7_10  and  O3_11 
REMARK    7  A    between atoms: C7_10  and  C16_22 
REMARK    8  A    between atoms: O3_11  and  C8_12 
REMARK    9  A    between atoms: C8_12  and  O4_13 
REMARK   10  A    between atoms: O4_13  and  C9_14 
REMARK   11  A    between atoms: C9_14  and  C10_16 
REMARK   12  A    between atoms: C17_26  and  C18_27 
REMARK       I    between atoms: C18_27  and  N3_29 
REMARK   13  A    between atoms: N3_29  and  C19_31 
REMARK   14  A    between atoms: C19_31  and  C20_32 
REMARK   15  A    between atoms: C19_31  and  C21_35 
REMARK   16  A    between atoms: C21_35  and  O9_36 
REMARK   17  A    between atoms: C21_35  and  O10_38 
REMARK   18  A    between atoms: C23_41  and  C24_42 
ROOT
HETATM    1  C16 UNL     1      -4.193  -0.973   5.611  1.00  0.00     0.307 C 
HETATM    2  N2  UNL     1      -5.048   0.119   6.017  1.00  0.00    -0.042 N 
ATOM      3  H21 UNL     1      -4.708   0.914   6.556  1.00  0.00     0.280 HD
ATOM      4  H22 UNL     1      -5.770   0.017   6.730  1.00  0.00     0.280 HD
HETATM    5  C17 UNL     1      -5.362   0.209   4.555  1.00  0.00     0.310 C 
HETATM    6  C22 UNL     1      -5.266  -1.239   4.571  1.00  0.00     0.005 C 
HETATM    7  C23 UNL     1      -5.695  -2.364   4.099  1.00  0.00     0.092 C 
ENDROOT
BRANCH   1   8
HETATM    8  C7  UNL     1      -4.069  -2.059   6.636  1.00  0.00     0.229 C 
BRANCH   8   9
HETATM    9  N1  UNL     1      -3.579  -3.115   6.338  1.00  0.00    -0.389 NA
BRANCH   9  10
HETATM   10  C6  UNL     1      -3.168  -4.339   6.004  1.00  0.00     0.267 C 
BRANCH  10  11
HETATM   11  C5  UNL     1      -4.138  -5.468   6.276  1.00  0.00     0.312 C 
HETATM   12  O2  UNL     1      -5.248  -5.422   5.713  1.00  0.00    -0.257 OA
BRANCH  11  13
HETATM   13  O1  UNL     1      -3.843  -6.524   7.107  1.00  0.00    -0.306 OA
BRANCH  13  14
HETATM   14  C2  UNL     1      -3.988  -6.490   8.510  1.00  0.00     0.060 C 
HETATM   15  C1  UNL     1      -3.216  -5.366   9.138  1.00  0.00     0.046 C 
HETATM   16  C3  UNL     1      -5.470  -6.209   8.770  1.00  0.00     0.046 C 
HETATM   17  C4  UNL     1      -3.649  -7.776   9.189  1.00  0.00     0.046 C 
ENDBRANCH  13  14
ENDBRANCH  11  13
ENDBRANCH  10  11
ENDBRANCH   9  10
ENDBRANCH   8   9
BRANCH   8  18
HETATM   18  O3  UNL     1      -4.558  -1.726   7.911  1.00  0.00    -0.300 OA
BRANCH  18  19
HETATM   19  C8  UNL     1      -3.703  -1.681   9.027  1.00  0.00     0.358 C 
BRANCH  19  20
HETATM   20  O4  UNL     1      -3.635  -0.457   9.680  1.00  0.00    -0.291 OA
BRANCH  20  21
HETATM   21  C9  UNL     1      -3.660  -0.237  11.041  1.00  0.00     0.295 C 
HETATM   22  O5  UNL     1      -2.595   0.035  11.609  1.00  0.00    -0.259 OA
BRANCH  21  23
HETATM   23  C10 UNL     1      -4.902  -0.317  11.818  1.00  0.00     0.039 A 
HETATM   24  C11 UNL     1      -6.143  -0.159  11.243  1.00  0.00     0.017 A 
HETATM   25  C12 UNL     1      -7.303  -0.238  11.990  1.00  0.00     0.001 A 
HETATM   26  C13 UNL     1      -7.258  -0.479  13.344  1.00  0.00     0.000 A 
HETATM   27  C14 UNL     1      -6.014  -0.638  13.927  1.00  0.00     0.001 A 
HETATM   28  C15 UNL     1      -4.859  -0.558  13.175  1.00  0.00     0.017 A 
ENDBRANCH  21  23
ENDBRANCH  20  21
ENDBRANCH  19  20
ENDBRANCH  18  19
ENDBRANCH   8  18
ENDBRANCH   1   8
BRANCH   5  29
HETATM   29  C18 UNL     1      -6.640   0.889   4.406  1.00  0.00     0.253 C 
HETATM   30  O6  UNL     1      -6.924   1.843   5.165  1.00  0.00    -0.271 OA
HETATM   31  N3  UNL     1      -7.579   0.505   3.416  1.00  0.00    -0.340 N 
ATOM     32  H3  UNL     1      -7.369  -0.270   2.786  1.00  0.00     0.163 HD
BRANCH  31  33
HETATM   33  C19 UNL     1      -8.827   1.208   3.299  1.00  0.00     0.240 C 
BRANCH  33  34
HETATM   34  C20 UNL     1      -9.821   0.589   4.207  1.00  0.00     0.201 C 
HETATM   35  O7  UNL     1      -9.822  -0.641   4.358  1.00  0.00    -0.646 OA
HETATM   36  O8  UNL     1     -10.763   1.345   4.903  1.00  0.00    -0.646 OA
ENDBRANCH  33  34
BRANCH  33  37
HETATM   37  C21 UNL     1      -9.308   1.100   1.862  1.00  0.00     0.287 C 
BRANCH  37  38
HETATM   38  O9  UNL     1     -10.676   1.275   1.771  1.00  0.00    -0.369 OA
ATOM     39  H9  UNL     1     -10.897   1.980   1.176  1.00  0.00     0.212 HD
ENDBRANCH  37  38
BRANCH  37  40
HETATM   40  O10 UNL     1      -8.988  -0.150   1.326  1.00  0.00    -0.369 OA
ATOM     41  H10 UNL     1      -8.743  -0.071   0.413  1.00  0.00     0.212 HD
ENDBRANCH  37  40
ENDBRANCH  33  37
ENDBRANCH  31  33
ENDBRANCH   5  29
BRANCH   7  42
HETATM   42  C24 UNL     1      -6.731  -2.530   3.099  1.00  0.00     0.198 C 
HETATM   43  O11 UNL     1      -6.668  -1.892   2.003  1.00  0.00    -0.644 OA
HETATM   44  O12 UNL     1      -7.828  -3.355   3.234  1.00  0.00    -0.644 OA
ENDBRANCH   7  42
TORSDOF 18
ENDMDL
MODEL 4
REMARK VINA RESULT: -8.188103143      2.219      3.108
REMARK  18 active torsions:
REMARK  status: ('A' for Active; 'I' for Inactive)
REMARK    1  A    between atoms: C2_2  and  O1_5 
REMARK    2  A    between atoms: O1_5  and  C5_6 
REMARK    3  A    between atoms: C5_6  and  C6_8 
REMARK    4  A    between atoms: C6_8  and  N1_9 
REMARK    5  A    between atoms: N1_9  and  C7_10 
REMARK    6  A    between atoms: C7_10  and  O3_11 
REMARK    7  A    between atoms: C7_10  and  C16_22 
REMARK    8  A    between atoms: O3_11  and  C8_12 
REMARK    9  A    between atoms: C8_12  and  O4_13 
REMARK   10  A    between atoms: O4_13  and  C9_14 
REMARK   11  A    between atoms: C9_14  and  C10_16 
REMARK   12  A    between atoms: C17_26  and  C18_27 
REMARK       I    between atoms: C18_27  and  N3_29 
REMARK   13  A    between atoms: N3_29  and  C19_31 
REMARK   14  A    between atoms: C19_31  and  C20_32 
REMARK   15  A    between atoms: C19_31  and  C21_35 
REMARK   16  A    between atoms: C21_35  and  O9_36 
REMARK   17  A    between atoms: C21_35  and  O10_38 
REMARK   18  A    between atoms: C23_41  and  C24_42 
ROOT
HETATM    1  C16 UNL     1      -5.388  -0.600   6.098  1.00  0.00     0.307 C 
HETATM    2  N2  UNL     1      -6.735  -1.052   6.367  1.00  0.00    -0.042 N 
ATOM      3  H21 UNL     1      -7.108  -1.140   7.311  1.00  0.00     0.280 HD
ATOM      4  H22 UNL     1      -7.032  -2.016   6.220  1.00  0.00     0.280 HD
HETATM    5  C17 UNL     1      -7.125   0.063   5.445  1.00  0.00     0.310 C 
HETATM    6  C22 UNL     1      -5.922  -0.288   4.712  1.00  0.00     0.005 C 
HETATM    7  C23 UNL     1      -5.337  -0.384   3.563  1.00  0.00     0.092 C 
ENDROOT
BRANCH   1   8
HETATM    8  C7  UNL     1      -4.367  -1.696   6.115  1.00  0.00     0.229 C 
BRANCH   8   9
HETATM    9  N1  UNL     1      -4.695  -2.827   5.875  1.00  0.00    -0.389 NA
BRANCH   9  10
HETATM   10  C6  UNL     1      -4.925  -4.120   5.639  1.00  0.00     0.267 C 
BRANCH  10  11
HETATM   11  C5  UNL     1      -3.807  -5.074   6.000  1.00  0.00     0.312 C 
HETATM   12  O2  UNL     1      -2.659  -4.791   5.612  1.00  0.00    -0.257 OA
BRANCH  11  13
HETATM   13  O1  UNL     1      -4.012  -6.223   6.728  1.00  0.00    -0.306 OA
BRANCH  13  14
HETATM   14  C2  UNL     1      -4.081  -6.263   8.137  1.00  0.00     0.060 C 
HETATM   15  C1  UNL     1      -5.495  -6.218   8.642  1.00  0.00     0.046 C 
HETATM   16  C3  UNL     1      -3.509  -7.623   8.545  1.00  0.00     0.046 C 
HETATM   17  C4  UNL     1      -3.269  -5.212   8.818  1.00  0.00     0.046 C 
ENDBRANCH  13  14
ENDBRANCH  11  13
ENDBRANCH  10  11
ENDBRANCH   9  10
ENDBRANCH   8   9
BRANCH   8  18
HETATM   18  O3  UNL     1      -3.060  -1.282   6.422  1.00  0.00    -0.300 OA
BRANCH  18  19
HETATM   19  C8  UNL     1      -2.543  -1.414   7.723  1.00  0.00     0.358 C 
BRANCH  19  20
HETATM   20  O4  UNL     1      -3.476  -1.342   8.749  1.00  0.00    -0.291 OA
BRANCH  20  21
HETATM   21  C9  UNL     1      -3.819  -0.228   9.486  1.00  0.00     0.295 C 
HETATM   22  O5  UNL     1      -3.151   0.802   9.334  1.00  0.00    -0.259 OA
BRANCH  21  23
HETATM   23  C10 UNL     1      -4.943  -0.237  10.430  1.00  0.00     0.039 A 
HETATM   24  C11 UNL     1      -6.254  -0.287  10.016  1.00  0.00     0.017 A 
HETATM   25  C12 UNL     1      -7.300  -0.296  10.920  1.00  0.00     0.001 A 
HETATM   26  C13 UNL     1      -7.065  -0.255  12.275  1.00  0.00     0.000 A 
HETATM   27  C14 UNL     1      -5.749  -0.206  12.696  1.00  0.00     0.001 A 
HETATM   28  C15 UNL     1      -4.709  -0.197  11.788  1.00  0.00     0.017 A 
ENDBRANCH  21  23
ENDBRANCH  20  21
ENDBRANCH  19  20
ENDBRANCH  18  19
ENDBRANCH   8  18
ENDBRANCH   1   8
BRANCH   5  29
HETATM   29  C18 UNL     1      -8.452  -0.224   4.920  1.00  0.00     0.253 C 
HETATM   30  O6  UNL     1      -8.671  -1.323   4.365  1.00  0.00    -0.271 OA
HETATM   31  N3  UNL     1      -9.513   0.709   5.025  1.00  0.00    -0.340 N 
ATOM     32  H3  UNL     1      -9.358   1.612   5.474  1.00  0.00     0.163 HD
BRANCH  31  33
HETATM   33  C19 UNL     1     -10.810   0.382   4.499  1.00  0.00     0.240 C 
BRANCH  33  34
HETATM   34  C20 UNL     1     -11.326   1.535   3.725  1.00  0.00     0.201 C 
HETATM   35  O7  UNL     1     -11.901   2.457   4.320  1.00  0.00    -0.646 OA
HETATM   36  O8  UNL     1     -11.189   1.622   2.340  1.00  0.00    -0.646 OA
ENDBRANCH  33  34
BRANCH  33  37
HETATM   37  C21 UNL     1     -11.742   0.088   5.663  1.00  0.00     0.287 C 
BRANCH  37  38
HETATM   38  O9  UNL     1     -13.068   0.206   5.293  1.00  0.00    -0.369 OA
ATOM     39  H9  UNL     1     -13.583  -0.527   5.609  1.00  0.00     0.212 HD
ENDBRANCH  37  38
BRANCH  37  40
HETATM   40  O10 UNL     1     -11.501   0.965   6.723  1.00  0.00    -0.369 OA
ATOM     41  H10 UNL     1     -11.540   0.507   7.554  1.00  0.00     0.212 HD
ENDBRANCH  37  40
ENDBRANCH  33  37
ENDBRANCH  31  33
ENDBRANCH   5  29
BRANCH   7  42
HETATM   42  C24 UNL     1      -5.923  -0.063   2.277  1.00  0.00     0.198 C 
HETATM   43  O11 UNL     1      -6.662  -0.910   1.685  1.00  0.00    -0.644 OA
HETATM   44  O12 UNL     1      -5.746   1.130   1.608  1.00  0.00    -0.644 OA
ENDBRANCH   7  42
TORSDOF 18
ENDMDL
MODEL 5
REMARK VINA RESULT: -8.177595101      2.198      4.850
REMARK  18 active torsions:
REMARK  status: ('A' for Active; 'I' for Inactive)
REMARK    1  A    between atoms: C2_2  and  O1_5 
REMARK    2  A    between atoms: O1_5  and  C5_6 
REMARK    3  A    between atoms: C5_6  and  C6_8 
REMARK    4  A    between atoms: C6_8  and  N1_9 
REMARK    5  A    between atoms: N1_9  and  C7_10 
REMARK    6  A    between atoms: C7_10  and  O3_11 
REMARK    7  A    between atoms: C7_10  and  C16_22 
REMARK    8  A    between atoms: O3_11  and  C8_12 
REMARK    9  A    between atoms: C8_12  and  O4_13 
REMARK   10  A    between atoms: O4_13  and  C9_14 
REMARK   11  A    between atoms: C9_14  and  C10_16 
REMARK   12  A    between atoms: C17_26  and  C18_27 
REMARK       I    between atoms: C18_27  and  N3_29 
REMARK   13  A    between atoms: N3_29  and  C19_31 
REMARK   14  A    between atoms: C19_31  and  C20_32 
REMARK   15  A    between atoms: C19_31  and  C21_35 
REMARK   16  A    between atoms: C21_35  and  O9_36 
REMARK   17  A    between atoms: C21_35  and  O10_38 
REMARK   18  A    between atoms: C23_41  and  C24_42 
ROOT
HETATM    1  C16 UNL     1      -4.307   0.504   5.942  1.00  0.00     0.307 C 
HETATM    2  N2  UNL     1      -5.023   0.969   4.775  1.00  0.00    -0.042 N 
ATOM      3  H21 UNL     1      -4.954   1.927   4.432  1.00  0.00     0.280 HD
ATOM      4  H22 UNL     1      -6.035   1.099   4.765  1.00  0.00     0.280 HD
HETATM    5  C17 UNL     1      -4.349  -0.183   4.096  1.00  0.00     0.310 C 
HETATM    6  C22 UNL     1      -4.539  -0.877   5.356  1.00  0.00     0.005 C 
HETATM    7  C23 UNL     1      -4.775  -1.997   5.957  1.00  0.00     0.092 C 
ENDROOT
BRANCH   1   8
HETATM    8  C7  UNL     1      -5.034   0.739   7.232  1.00  0.00     0.229 C 
BRANCH   8   9
HETATM    9  N1  UNL     1      -6.226   0.885   7.232  1.00  0.00    -0.389 NA
BRANCH   9  10
HETATM   10  C6  UNL     1      -7.526   1.188   7.217  1.00  0.00     0.267 C 
BRANCH  10  11
HETATM   11  C5  UNL     1      -8.421   0.249   6.439  1.00  0.00     0.312 C 
HETATM   12  O2  UNL     1      -7.896  -0.442   5.546  1.00  0.00    -0.257 OA
BRANCH  11  13
HETATM   13  O1  UNL     1      -9.771   0.134   6.679  1.00  0.00    -0.306 OA
BRANCH  13  14
HETATM   14  C2  UNL     1     -10.765   0.271   5.687  1.00  0.00     0.060 C 
HETATM   15  C1  UNL     1     -10.261   0.985   4.467  1.00  0.00     0.046 C 
HETATM   16  C3  UNL     1     -11.121  -1.153   5.252  1.00  0.00     0.046 C 
HETATM   17  C4  UNL     1     -12.021   0.920   6.169  1.00  0.00     0.046 C 
ENDBRANCH  13  14
ENDBRANCH  11  13
ENDBRANCH  10  11
ENDBRANCH   9  10
ENDBRANCH   8   9
BRANCH   8  18
HETATM   18  O3  UNL     1      -4.216   0.764   8.374  1.00  0.00    -0.300 OA
BRANCH  18  19
HETATM   19  C8  UNL     1      -3.262  -0.243   8.606  1.00  0.00     0.358 C 
BRANCH  19  20
HETATM   20  O4  UNL     1      -3.402  -0.936   9.801  1.00  0.00    -0.291 OA
BRANCH  20  21
HETATM   21  C9  UNL     1      -3.513  -0.400  11.067  1.00  0.00     0.295 C 
HETATM   22  O5  UNL     1      -2.503   0.093  11.584  1.00  0.00    -0.259 OA
BRANCH  21  23
HETATM   23  C10 UNL     1      -4.784  -0.400  11.802  1.00  0.00     0.039 A 
HETATM   24  C11 UNL     1      -5.996  -0.211  11.178  1.00  0.00     0.017 A 
HETATM   25  C12 UNL     1      -7.184  -0.215  11.886  1.00  0.00     0.001 A 
HETATM   26  C13 UNL     1      -7.195  -0.410  13.248  1.00  0.00     0.000 A 
HETATM   27  C14 UNL     1      -5.979  -0.601  13.879  1.00  0.00     0.001 A 
HETATM   28  C15 UNL     1      -4.797  -0.596  13.166  1.00  0.00     0.017 A 
ENDBRANCH  21  23
ENDBRANCH  20  21
ENDBRANCH  19  20
ENDBRANCH  18  19
ENDBRANCH   8  18
ENDBRANCH   1   8
BRANCH   5  29
HETATM   29  C18 UNL     1      -5.121  -0.526   2.910  1.00  0.00     0.253 C 
HETATM   30  O6  UNL     1      -4.585  -0.448   1.782  1.00  0.00    -0.271 OA
HETATM   31  N3  UNL     1      -6.470  -0.953   2.996  1.00  0.00    -0.340 N 
ATOM     32  H3  UNL     1      -6.926  -1.023   3.904  1.00  0.00     0.163 HD
BRANCH  31  33
HETATM   33  C19 UNL     1      -7.193  -1.287   1.800  1.00  0.00     0.240 C 
BRANCH  33  34
HETATM   34  C20 UNL     1      -8.009  -0.124   1.383  1.00  0.00     0.201 C 
HETATM   35  O7  UNL     1      -9.240  -0.167   1.515  1.00  0.00    -0.646 OA
HETATM   36  O8  UNL     1      -7.439   1.029   0.843  1.00  0.00    -0.646 OA
ENDBRANCH  33  34
BRANCH  33  37
HETATM   37  C21 UNL     1      -8.100  -2.469   2.100  1.00  0.00     0.287 C 
BRANCH  37  38
HETATM   38  O9  UNL     1      -8.565  -2.431   3.401  1.00  0.00    -0.369 OA
ATOM     39  H9  UNL     1      -7.908  -2.740   4.014  1.00  0.00     0.212 HD
ENDBRANCH  37  38
BRANCH  37  40
HETATM   40  O10 UNL     1      -7.421  -3.674   1.911  1.00  0.00    -0.369 OA
ATOM     41  H10 UNL     1      -6.938  -3.914   2.692  1.00  0.00     0.212 HD
ENDBRANCH  37  40
ENDBRANCH  33  37
ENDBRANCH  31  33
ENDBRANCH   5  29
BRANCH   7  42
HETATM   42  C24 UNL     1      -4.987  -3.281   5.318  1.00  0.00     0.198 C 
HETATM   43  O11 UNL     1      -4.148  -4.220   5.483  1.00  0.00    -0.644 OA
HETATM   44  O12 UNL     1      -6.062  -3.590   4.512  1.00  0.00    -0.644 OA
ENDBRANCH   7  42
TORSDOF 18
ENDMDL
