MODEL 1
REMARK VINA RESULT: -8.333764254      0.000      0.000
REMARK  16 active torsions:
REMARK  status: ('A' for Active; 'I' for Inactive)
REMARK    1  A    between atoms: C3_5  and  N2_6 
REMARK    2  A    between atoms: N2_6  and  C4_8 
REMARK    3  A    between atoms: C7_11  and  O1_12 
REMARK    4  A    between atoms: O1_12  and  C8_13 
REMARK    5  A    between atoms: N3_16  and  O2_17 
REMARK    6  A    between atoms: C12_20  and  C13_21 
REMARK    7  A    between atoms: C13_21  and  O3_22 
REMARK    8  A    between atoms: N5_28  and  C16_29 
REMARK    9  A    between atoms: C16_29  and  C17_30 
REMARK   10  A    between atoms: C16_29  and  C18_33 
REMARK   11  A    between atoms: C17_30  and  O4_31 
REMARK   12  A    between atoms: C18_33  and  N6_34 
REMARK   13  A    between atoms: C19_36  and  C20_37 
REMARK   14  A    between atoms: C20_37  and  O5_38 
REMARK   15  A    between atoms: C20_37  and  N7_40 
REMARK   16  A    between atoms: N7_40  and  C21_42 
ROOT
HETATM    1  C21 UNL     1      -4.712  -4.448   5.447  1.00  0.00     0.684 A 
HETATM    2  N8  UNL     1      -4.720  -5.511   6.239  1.00  0.00    -0.166 N 
ATOM      3  H8  UNL     1      -5.203  -6.358   5.941  1.00  0.00     0.186 HD
HETATM    4  C22 UNL     1      -4.102  -5.485   7.427  1.00  0.00     0.205 A 
HETATM    5  C23 UNL     1      -4.130  -6.657   8.265  1.00  0.00     0.137 C 
HETATM    6  N9  UNL     1      -4.166  -7.613   8.927  1.00  0.00    -0.188 NA
HETATM    7  N10 UNL     1      -3.463  -4.350   7.810  1.00  0.00    -0.309 N 
ATOM      8  H10 UNL     1      -2.987  -4.314   8.711  1.00  0.00     0.170 HD
HETATM    9  C24 UNL     1      -3.453  -3.272   7.006  1.00  0.00     0.195 A 
HETATM   10 CL1  UNL     1      -2.626  -1.783   7.489  1.00  0.00    -0.044 Cl
HETATM   11  N11 UNL     1      -4.084  -3.331   5.820  1.00  0.00    -0.166 N 
ATOM     12  H11 UNL     1      -4.083  -2.519   5.204  1.00  0.00     0.186 HD
ENDROOT
BRANCH   1  13
HETATM   13  N7  UNL     1      -5.305  -4.483   4.316  1.00  0.00    -0.195 N 
ATOM     14  H7  UNL     1      -5.159  -5.267   3.679  1.00  0.00     0.180 HD
BRANCH  13  15
HETATM   15  C20 UNL     1      -6.185  -3.394   3.950  1.00  0.00     0.274 C 
BRANCH  15  16
HETATM   16  C19 UNL     1      -7.199  -3.839   2.974  1.00  0.00     0.109 C 
HETATM   17  N6  UNL     1      -7.552  -3.064   2.030  1.00  0.00    -0.396 N 
ATOM     18  H6  UNL     1      -8.252  -3.372   1.356  1.00  0.00     0.158 HD
BRANCH  17  19
HETATM   19  C18 UNL     1      -6.972  -1.766   1.909  1.00  0.00     0.148 C 
BRANCH  19  20
HETATM   20  C16 UNL     1      -7.942  -0.757   1.355  1.00  0.00     0.151 C 
BRANCH  20  21
HETATM   21  N5  UNL     1      -8.210   0.302   2.285  1.00  0.00    -0.257 N 
HETATM   22  C2  UNL     1      -9.214   1.172   2.274  1.00  0.00     0.111 A 
HETATM   23  C1  UNL     1     -10.348   1.356   1.364  1.00  0.00     0.091 C 
HETATM   24  N1  UNL     1      -9.035   1.980   3.360  1.00  0.00    -0.178 N 
HETATM   25  C3  UNL     1      -7.942   1.607   4.019  1.00  0.00     0.698 A 
ATOM     26  H1  UNL     1      -9.646   2.752   3.625  1.00  0.00     0.185 HD
HETATM   27  N4  UNL     1      -7.439   0.571   3.350  1.00  0.00    -0.128 N 
ATOM     28  H4  UNL     1      -6.595   0.060   3.607  1.00  0.00     0.206 HD
BRANCH  25  29
HETATM   29  N2  UNL     1      -7.528   2.196   5.091  1.00  0.00    -0.190 N 
ATOM     30  H2  UNL     1      -7.611   3.210   5.154  1.00  0.00     0.184 HD
BRANCH  29  31
HETATM   31  C4  UNL     1      -6.956   1.487   6.193  1.00  0.00     0.049 A 
HETATM   32  C5  UNL     1      -7.764   0.762   7.053  1.00  0.00     0.033 A 
HETATM   33  C6  UNL     1      -7.240   0.060   8.139  1.00  0.00     0.039 A 
HETATM   34  C7  UNL     1      -5.878   0.102   8.342  1.00  0.00     0.076 A 
HETATM   35  C14 UNL     1      -5.080   0.824   7.482  1.00  0.00     0.039 A 
HETATM   36  C15 UNL     1      -5.598   1.523   6.405  1.00  0.00     0.033 A 
BRANCH  34  37
HETATM   37  O1  UNL     1      -5.271  -0.565   9.394  1.00  0.00    -0.310 OA
BRANCH  37  38
HETATM   38  C8  UNL     1      -5.852  -0.532  10.651  1.00  0.00     0.087 A 
HETATM   39  C9  UNL     1      -7.213  -0.719  10.826  1.00  0.00     0.057 A 
HETATM   40  C10 UNL     1      -7.793  -0.687  12.079  1.00  0.00     0.125 A 
HETATM   41  N3  UNL     1      -7.016  -0.470  13.148  1.00  0.00    -0.246 N 
HETATM   42  C11 UNL     1      -5.675  -0.281  13.026  1.00  0.00     0.134 A 
HETATM   43  C12 UNL     1      -5.072  -0.310  11.765  1.00  0.00     0.017 A 
BRANCH  41  44
HETATM   44  O2  UNL     1      -7.525  -0.423  14.436  1.00  0.00    -0.284 OA
ATOM     45  H2  UNL     1      -7.385   0.320  15.011  1.00  0.00     0.245 HD
ENDBRANCH  41  44
BRANCH  43  46
HETATM   46  C13 UNL     1      -3.615  -0.111  11.579  1.00  0.00     0.207 C 
BRANCH  46  47
HETATM   47  O3  UNL     1      -3.357   1.015  10.806  1.00  0.00    -0.396 OA
ATOM     48  H3  UNL     1      -2.742   1.595  11.238  1.00  0.00     0.209 HD
ENDBRANCH  46  47
ENDBRANCH  43  46
ENDBRANCH  37  38
ENDBRANCH  34  37
ENDBRANCH  29  31
ENDBRANCH  25  29
ENDBRANCH  20  21
BRANCH  20  49
HETATM   49  C17 UNL     1      -7.562  -0.245  -0.009  1.00  0.00     0.193 C 
BRANCH  49  50
HETATM   50  O4  UNL     1      -6.511   0.701   0.125  1.00  0.00    -0.399 OA
ATOM     51  H4  UNL     1      -6.283   1.038  -0.734  1.00  0.00     0.209 HD
ENDBRANCH  49  50
ENDBRANCH  20  49
ENDBRANCH  19  20
ENDBRANCH  17  19
ENDBRANCH  15  16
BRANCH  15  52
HETATM   52  O5  UNL     1      -6.791  -2.985   5.162  1.00  0.00    -0.371 OA
ATOM     53  H5  UNL     1      -6.168  -3.002   5.879  1.00  0.00     0.212 HD
ENDBRANCH  15  52
ENDBRANCH  13  15
ENDBRANCH   1  13
TORSDOF 16
ENDMDL
MODEL 2
REMARK VINA RESULT: -8.256941844      5.037      8.190
REMARK  16 active torsions:
REMARK  status: ('A' for Active; 'I' for Inactive)
REMARK    1  A    between atoms: C3_5  and  N2_6 
REMARK    2  A    between atoms: N2_6  and  C4_8 
REMARK    3  A    between atoms: C7_11  and  O1_12 
REMARK    4  A    between atoms: O1_12  and  C8_13 
REMARK    5  A    between atoms: N3_16  and  O2_17 
REMARK    6  A    between atoms: C12_20  and  C13_21 
REMARK    7  A    between atoms: C13_21  and  O3_22 
REMARK    8  A    between atoms: N5_28  and  C16_29 
REMARK    9  A    between atoms: C16_29  and  C17_30 
REMARK   10  A    between atoms: C16_29  and  C18_33 
REMARK   11  A    between atoms: C17_30  and  O4_31 
REMARK   12  A    between atoms: C18_33  and  N6_34 
REMARK   13  A    between atoms: C19_36  and  C20_37 
REMARK   14  A    between atoms: C20_37  and  O5_38 
REMARK   15  A    between atoms: C20_37  and  N7_40 
REMARK   16  A    between atoms: N7_40  and  C21_42 
ROOT
HETATM    1  C21 UNL     1      -7.043  -1.477   3.941  1.00  0.00     0.684 A 
HETATM    2  N8  UNL     1      -7.535  -2.652   3.576  1.00  0.00    -0.166 N 
ATOM      3  H8  UNL     1      -7.605  -3.404   4.262  1.00  0.00     0.186 HD
HETATM    4  C22 UNL     1      -7.942  -2.864   2.317  1.00  0.00     0.205 A 
HETATM    5  C23 UNL     1      -8.471  -4.154   1.953  1.00  0.00     0.137 C 
HETATM    6  N9  UNL     1      -8.894  -5.201   1.678  1.00  0.00    -0.188 NA
HETATM    7  N10 UNL     1      -7.842  -1.853   1.417  1.00  0.00    -0.309 N 
ATOM      8  H10 UNL     1      -8.147  -1.998   0.454  1.00  0.00     0.170 HD
HETATM    9  C24 UNL     1      -7.344  -0.660   1.787  1.00  0.00     0.195 A 
HETATM   10 CL1  UNL     1      -7.206   0.669   0.626  1.00  0.00    -0.044 Cl
HETATM   11  N11 UNL     1      -6.945  -0.481   3.058  1.00  0.00    -0.166 N 
ATOM     12  H11 UNL     1      -6.565   0.420   3.349  1.00  0.00     0.186 HD
ENDROOT
BRANCH   1  13
HETATM   13  N7  UNL     1      -6.659  -1.285   5.144  1.00  0.00    -0.195 N 
ATOM     14  H7  UNL     1      -5.743  -1.612   5.453  1.00  0.00     0.180 HD
BRANCH  13  15
HETATM   15  C20 UNL     1      -7.540  -0.597   6.063  1.00  0.00     0.274 C 
BRANCH  15  16
HETATM   16  C19 UNL     1      -7.046   0.763   6.351  1.00  0.00     0.109 C 
HETATM   17  N6  UNL     1      -6.429   0.996   7.438  1.00  0.00    -0.396 N 
ATOM     18  H6  UNL     1      -6.088   1.936   7.637  1.00  0.00     0.158 HD
BRANCH  17  19
HETATM   19  C18 UNL     1      -6.211  -0.053   8.381  1.00  0.00     0.148 C 
BRANCH  19  20
HETATM   20  C16 UNL     1      -4.752  -0.397   8.524  1.00  0.00     0.151 C 
BRANCH  20  21
HETATM   21  N5  UNL     1      -4.123   0.344   9.580  1.00  0.00    -0.257 N 
HETATM   22  C2  UNL     1      -4.428   0.353  10.873  1.00  0.00     0.111 A 
HETATM   23  C1  UNL     1      -5.454  -0.350  11.649  1.00  0.00     0.091 C 
HETATM   24  N1  UNL     1      -3.550   1.211  11.469  1.00  0.00    -0.178 N 
HETATM   25  C3  UNL     1      -2.726   1.714  10.554  1.00  0.00     0.698 A 
ATOM     26  H1  UNL     1      -3.529   1.433  12.464  1.00  0.00     0.185 HD
HETATM   27  N4  UNL     1      -3.087   1.175   9.391  1.00  0.00    -0.128 N 
ATOM     28  H4  UNL     1      -2.642   1.364   8.493  1.00  0.00     0.206 HD
BRANCH  25  29
HETATM   29  N2  UNL     1      -1.789   2.558  10.834  1.00  0.00    -0.190 N 
ATOM     30  H2  UNL     1      -1.807   3.473  10.385  1.00  0.00     0.184 HD
BRANCH  29  31
HETATM   31  C4  UNL     1      -0.727   2.264  11.746  1.00  0.00     0.049 A 
HETATM   32  C5  UNL     1      -0.161   3.272  12.508  1.00  0.00     0.033 A 
HETATM   33  C6  UNL     1       0.876   3.021  13.406  1.00  0.00     0.039 A 
HETATM   34  C7  UNL     1       1.334   1.726  13.523  1.00  0.00     0.076 A 
HETATM   35  C14 UNL     1       0.765   0.728  12.762  1.00  0.00     0.039 A 
HETATM   36  C15 UNL     1      -0.264   0.976  11.869  1.00  0.00     0.033 A 
BRANCH  34  37
HETATM   37  O1  UNL     1       2.360   1.385  14.389  1.00  0.00    -0.310 OA
BRANCH  37  38
HETATM   38  C8  UNL     1       2.058   0.922  15.659  1.00  0.00     0.087 A 
HETATM   39  C9  UNL     1       1.345   1.693  16.561  1.00  0.00     0.057 A 
HETATM   40  C10 UNL     1       1.043   1.232  17.828  1.00  0.00     0.125 A 
HETATM   41  N3  UNL     1       1.452   0.009  18.188  1.00  0.00    -0.246 N 
HETATM   42  C11 UNL     1       2.155  -0.785  17.336  1.00  0.00     0.134 A 
HETATM   43  C12 UNL     1       2.468  -0.333  16.050  1.00  0.00     0.017 A 
BRANCH  41  44
HETATM   44  O2  UNL     1       1.188  -0.521  19.441  1.00  0.00    -0.284 OA
ATOM     45  H2  UNL     1       1.070  -1.453  19.583  1.00  0.00     0.245 HD
ENDBRANCH  41  44
BRANCH  43  46
HETATM   46  C13 UNL     1       3.231  -1.160  15.085  1.00  0.00     0.207 C 
BRANCH  46  47
HETATM   47  O3  UNL     1       2.377  -1.870  14.248  1.00  0.00    -0.396 OA
ATOM     48  H3  UNL     1       2.833  -2.176  13.474  1.00  0.00     0.209 HD
ENDBRANCH  46  47
ENDBRANCH  43  46
ENDBRANCH  37  38
ENDBRANCH  34  37
ENDBRANCH  29  31
ENDBRANCH  25  29
ENDBRANCH  20  21
BRANCH  20  49
HETATM   49  C17 UNL     1      -4.491  -1.876   8.624  1.00  0.00     0.193 C 
BRANCH  49  50
HETATM   50  O4  UNL     1      -4.911  -2.506   7.423  1.00  0.00    -0.399 OA
ATOM     51  H4  UNL     1      -4.700  -3.431   7.465  1.00  0.00     0.209 HD
ENDBRANCH  49  50
ENDBRANCH  20  49
ENDBRANCH  19  20
ENDBRANCH  17  19
ENDBRANCH  15  16
BRANCH  15  52
HETATM   52  O5  UNL     1      -8.796  -0.556   5.411  1.00  0.00    -0.371 OA
ATOM     53  H5  UNL     1      -9.149  -1.430   5.293  1.00  0.00     0.212 HD
ENDBRANCH  15  52
ENDBRANCH  13  15
ENDBRANCH   1  13
TORSDOF 16
ENDMDL
MODEL 3
REMARK VINA RESULT: -7.782568783      5.083      8.642
REMARK  16 active torsions:
REMARK  status: ('A' for Active; 'I' for Inactive)
REMARK    1  A    between atoms: C3_5  and  N2_6 
REMARK    2  A    between atoms: N2_6  and  C4_8 
REMARK    3  A    between atoms: C7_11  and  O1_12 
REMARK    4  A    between atoms: O1_12  and  C8_13 
REMARK    5  A    between atoms: N3_16  and  O2_17 
REMARK    6  A    between atoms: C12_20  and  C13_21 
REMARK    7  A    between atoms: C13_21  and  O3_22 
REMARK    8  A    between atoms: N5_28  and  C16_29 
REMARK    9  A    between atoms: C16_29  and  C17_30 
REMARK   10  A    between atoms: C16_29  and  C18_33 
REMARK   11  A    between atoms: C17_30  and  O4_31 
REMARK   12  A    between atoms: C18_33  and  N6_34 
REMARK   13  A    between atoms: C19_36  and  C20_37 
REMARK   14  A    between atoms: C20_37  and  O5_38 
REMARK   15  A    between atoms: C20_37  and  N7_40 
REMARK   16  A    between atoms: N7_40  and  C21_42 
ROOT
HETATM    1  C21 UNL     1      -8.297  -0.526   5.082  1.00  0.00     0.684 A 
HETATM    2  N8  UNL     1      -8.070   0.302   4.072  1.00  0.00    -0.166 N 
ATOM      3  H8  UNL     1      -7.174   0.270   3.585  1.00  0.00     0.186 HD
HETATM    4  C22 UNL     1      -9.003   1.180   3.682  1.00  0.00     0.205 A 
HETATM    5  C23 UNL     1      -8.725   2.067   2.581  1.00  0.00     0.137 C 
HETATM    6  N9  UNL     1      -8.480   2.775   1.692  1.00  0.00    -0.188 NA
HETATM    7  N10 UNL     1     -10.191   1.211   4.340  1.00  0.00    -0.309 N 
ATOM      8  H10 UNL     1     -10.912   1.874   4.056  1.00  0.00     0.170 HD
HETATM    9  C24 UNL     1     -10.422   0.371   5.364  1.00  0.00     0.195 A 
HETATM   10 CL1  UNL     1     -11.964   0.396   6.233  1.00  0.00    -0.044 Cl
HETATM   11  N11 UNL     1      -9.464  -0.499   5.729  1.00  0.00    -0.166 N 
ATOM     12  H11 UNL     1      -9.630  -1.140   6.505  1.00  0.00     0.186 HD
ENDROOT
BRANCH   1  13
HETATM   13  N7  UNL     1      -7.401  -1.360   5.446  1.00  0.00    -0.195 N 
ATOM     14  H7  UNL     1      -7.663  -2.266   5.834  1.00  0.00     0.180 HD
BRANCH  13  15
HETATM   15  C20 UNL     1      -6.006  -1.002   5.298  1.00  0.00     0.274 C 
BRANCH  15  16
HETATM   16  C19 UNL     1      -5.141  -1.914   6.070  1.00  0.00     0.109 C 
HETATM   17  N6  UNL     1      -4.732  -1.573   7.225  1.00  0.00    -0.396 N 
ATOM     18  H6  UNL     1      -4.134  -2.204   7.759  1.00  0.00     0.158 HD
BRANCH  17  19
HETATM   19  C18 UNL     1      -5.107  -0.312   7.778  1.00  0.00     0.148 C 
BRANCH  19  20
HETATM   20  C16 UNL     1      -5.491  -0.417   9.230  1.00  0.00     0.151 C 
BRANCH  20  21
HETATM   21  N5  UNL     1      -4.551   0.248  10.087  1.00  0.00    -0.257 N 
HETATM   22  C2  UNL     1      -4.511   0.254  11.415  1.00  0.00     0.111 A 
HETATM   23  C1  UNL     1      -5.357  -0.381  12.430  1.00  0.00     0.091 C 
HETATM   24  N1  UNL     1      -3.440   1.025  11.763  1.00  0.00    -0.178 N 
HETATM   25  C3  UNL     1      -2.840   1.480  10.666  1.00  0.00     0.698 A 
ATOM     26  H1  UNL     1      -3.144   1.223  12.719  1.00  0.00     0.185 HD
HETATM   27  N4  UNL     1      -3.532   0.996   9.637  1.00  0.00    -0.128 N 
ATOM     28  H4  UNL     1      -3.320   1.168   8.654  1.00  0.00     0.206 HD
BRANCH  25  29
HETATM   29  N2  UNL     1      -1.796   2.238  10.694  1.00  0.00    -0.190 N 
ATOM     30  H2  UNL     1      -1.722   2.991  10.010  1.00  0.00     0.184 HD
BRANCH  29  31
HETATM   31  C4  UNL     1      -0.739   2.068  11.642  1.00  0.00     0.049 A 
HETATM   32  C5  UNL     1      -0.309   3.138  12.409  1.00  0.00     0.033 A 
HETATM   33  C6  UNL     1       0.719   3.008  13.342  1.00  0.00     0.039 A 
HETATM   34  C7  UNL     1       1.310   1.772  13.488  1.00  0.00     0.076 A 
HETATM   35  C14 UNL     1       0.878   0.712  12.722  1.00  0.00     0.039 A 
HETATM   36  C15 UNL     1      -0.142   0.839  11.794  1.00  0.00     0.033 A 
BRANCH  34  37
HETATM   37  O1  UNL     1       2.339   1.551  14.390  1.00  0.00    -0.310 OA
BRANCH  37  38
HETATM   38  C8  UNL     1       2.048   1.064  15.654  1.00  0.00     0.087 A 
HETATM   39  C9  UNL     1       1.321   1.807  16.567  1.00  0.00     0.057 A 
HETATM   40  C10 UNL     1       1.031   1.322  17.828  1.00  0.00     0.125 A 
HETATM   41  N3  UNL     1       1.465   0.103  18.170  1.00  0.00    -0.246 N 
HETATM   42  C11 UNL     1       2.183  -0.665  17.306  1.00  0.00     0.134 A 
HETATM   43  C12 UNL     1       2.485  -0.188  16.026  1.00  0.00     0.017 A 
BRANCH  41  44
HETATM   44  O2  UNL     1       1.214  -0.451  19.415  1.00  0.00    -0.284 OA
ATOM     45  H2  UNL     1       0.335  -0.654  19.712  1.00  0.00     0.245 HD
ENDBRANCH  41  44
BRANCH  43  46
HETATM   46  C13 UNL     1       3.262  -0.986  15.048  1.00  0.00     0.207 C 
BRANCH  46  47
HETATM   47  O3  UNL     1       2.475  -1.971  14.464  1.00  0.00    -0.396 OA
ATOM     48  H3  UNL     1       3.007  -2.683  14.131  1.00  0.00     0.209 HD
ENDBRANCH  46  47
ENDBRANCH  43  46
ENDBRANCH  37  38
ENDBRANCH  34  37
ENDBRANCH  29  31
ENDBRANCH  25  29
ENDBRANCH  20  21
BRANCH  20  49
HETATM   49  C17 UNL     1      -6.913  -0.008   9.506  1.00  0.00     0.193 C 
BRANCH  49  50
HETATM   50  O4  UNL     1      -7.535   0.370   8.287  1.00  0.00    -0.399 OA
ATOM     51  H4  UNL     1      -7.035   1.073   7.886  1.00  0.00     0.209 HD
ENDBRANCH  49  50
ENDBRANCH  20  49
ENDBRANCH  19  20
ENDBRANCH  17  19
ENDBRANCH  15  16
BRANCH  15  52
HETATM   52  O5  UNL     1      -5.742  -1.102   3.911  1.00  0.00    -0.371 OA
ATOM     53  H5  UNL     1      -6.523  -0.919   3.401  1.00  0.00     0.212 HD
ENDBRANCH  15  52
ENDBRANCH  13  15
ENDBRANCH   1  13
TORSDOF 16
ENDMDL
MODEL 4
REMARK VINA RESULT: -7.763783267      4.852      7.911
REMARK  16 active torsions:
REMARK  status: ('A' for Active; 'I' for Inactive)
REMARK    1  A    between atoms: C3_5  and  N2_6 
REMARK    2  A    between atoms: N2_6  and  C4_8 
REMARK    3  A    between atoms: C7_11  and  O1_12 
REMARK    4  A    between atoms: O1_12  and  C8_13 
REMARK    5  A    between atoms: N3_16  and  O2_17 
REMARK    6  A    between atoms: C12_20  and  C13_21 
REMARK    7  A    between atoms: C13_21  and  O3_22 
REMARK    8  A    between atoms: N5_28  and  C16_29 
REMARK    9  A    between atoms: C16_29  and  C17_30 
REMARK   10  A    between atoms: C16_29  and  C18_33 
REMARK   11  A    between atoms: C17_30  and  O4_31 
REMARK   12  A    between atoms: C18_33  and  N6_34 
REMARK   13  A    between atoms: C19_36  and  C20_37 
REMARK   14  A    between atoms: C20_37  and  O5_38 
REMARK   15  A    between atoms: C20_37  and  N7_40 
REMARK   16  A    between atoms: N7_40  and  C21_42 
ROOT
HETATM    1  C21 UNL     1      -6.537  -1.889   4.512  1.00  0.00     0.684 A 
HETATM    2  N8  UNL     1      -7.325  -2.410   3.582  1.00  0.00    -0.166 N 
ATOM      3  H8  UNL     1      -8.048  -1.833   3.152  1.00  0.00     0.186 HD
HETATM    4  C22 UNL     1      -7.182  -3.686   3.199  1.00  0.00     0.205 A 
HETATM    5  C23 UNL     1      -8.055  -4.222   2.185  1.00  0.00     0.137 C 
HETATM    6  N9  UNL     1      -8.770  -4.636   1.367  1.00  0.00    -0.188 NA
HETATM    7  N10 UNL     1      -6.215  -4.441   3.780  1.00  0.00    -0.309 N 
ATOM      8  H10 UNL     1      -6.093  -5.414   3.500  1.00  0.00     0.170 HD
HETATM    9  C24 UNL     1      -5.416  -3.913   4.723  1.00  0.00     0.195 A 
HETATM   10 CL1  UNL     1      -4.150  -4.883   5.492  1.00  0.00    -0.044 Cl
HETATM   11  N11 UNL     1      -5.585  -2.629   5.084  1.00  0.00    -0.166 N 
ATOM     12  H11 UNL     1      -4.984  -2.220   5.799  1.00  0.00     0.186 HD
ENDROOT
BRANCH   1  13
HETATM   13  N7  UNL     1      -6.681  -0.672   4.870  1.00  0.00    -0.195 N 
ATOM     14  H7  UNL     1      -6.217   0.077   4.357  1.00  0.00     0.180 HD
BRANCH  13  15
HETATM   15  C20 UNL     1      -7.514  -0.370   6.015  1.00  0.00     0.274 C 
BRANCH  15  16
HETATM   16  C19 UNL     1      -6.981   0.783   6.767  1.00  0.00     0.109 C 
HETATM   17  N6  UNL     1      -6.283   0.590   7.812  1.00  0.00    -0.396 N 
ATOM     18  H6  UNL     1      -5.915   1.387   8.331  1.00  0.00     0.158 HD
BRANCH  17  19
HETATM   19  C18 UNL     1      -6.012  -0.737   8.261  1.00  0.00     0.148 C 
BRANCH  19  20
HETATM   20  C16 UNL     1      -5.302  -0.755   9.589  1.00  0.00     0.151 C 
BRANCH  20  21
HETATM   21  N5  UNL     1      -4.048  -0.059   9.540  1.00  0.00    -0.257 N 
HETATM   22  C2  UNL     1      -3.003  -0.300   8.756  1.00  0.00     0.111 A 
HETATM   23  C1  UNL     1      -2.764  -1.302   7.713  1.00  0.00     0.091 C 
HETATM   24  N1  UNL     1      -2.055   0.626   9.084  1.00  0.00    -0.178 N 
HETATM   25  C3  UNL     1      -2.516   1.415  10.049  1.00  0.00     0.698 A 
ATOM     26  H1  UNL     1      -1.133   0.701   8.653  1.00  0.00     0.185 HD
HETATM   27  N4  UNL     1      -3.746   0.986  10.326  1.00  0.00    -0.128 N 
ATOM     28  H4  UNL     1      -4.364   1.390  11.029  1.00  0.00     0.206 HD
BRANCH  25  29
HETATM   29  N2  UNL     1      -1.830   2.384  10.559  1.00  0.00    -0.190 N 
ATOM     30  H2  UNL     1      -2.050   3.339  10.276  1.00  0.00     0.184 HD
BRANCH  29  31
HETATM   31  C4  UNL     1      -0.776   2.175  11.502  1.00  0.00     0.049 A 
HETATM   32  C5  UNL     1      -0.316   0.896  11.765  1.00  0.00     0.033 A 
HETATM   33  C6  UNL     1       0.710   0.656  12.679  1.00  0.00     0.039 A 
HETATM   34  C7  UNL     1       1.267   1.737  13.327  1.00  0.00     0.076 A 
HETATM   35  C14 UNL     1       0.805   3.007  13.061  1.00  0.00     0.039 A 
HETATM   36  C15 UNL     1      -0.214   3.247  12.154  1.00  0.00     0.033 A 
BRANCH  34  37
HETATM   37  O1  UNL     1       2.289   1.593  14.251  1.00  0.00    -0.310 OA
BRANCH  37  38
HETATM   38  C8  UNL     1       2.003   1.120  15.521  1.00  0.00     0.087 A 
HETATM   39  C9  UNL     1       1.275   1.872  16.427  1.00  0.00     0.057 A 
HETATM   40  C10 UNL     1       0.989   1.401  17.694  1.00  0.00     0.125 A 
HETATM   41  N3  UNL     1       1.428   0.187  18.049  1.00  0.00    -0.246 N 
HETATM   42  C11 UNL     1       2.147  -0.588  17.194  1.00  0.00     0.134 A 
HETATM   43  C12 UNL     1       2.445  -0.126  15.908  1.00  0.00     0.017 A 
BRANCH  41  44
HETATM   44  O2  UNL     1       1.181  -0.353  19.302  1.00  0.00    -0.284 OA
ATOM     45  H2  UNL     1       1.736  -1.023  19.684  1.00  0.00     0.245 HD
ENDBRANCH  41  44
BRANCH  43  46
HETATM   46  C13 UNL     1       3.224  -0.932  14.938  1.00  0.00     0.207 C 
BRANCH  46  47
HETATM   47  O3  UNL     1       2.474  -1.997  14.453  1.00  0.00    -0.396 OA
ATOM     48  H3  UNL     1       2.623  -2.783  14.964  1.00  0.00     0.209 HD
ENDBRANCH  46  47
ENDBRANCH  43  46
ENDBRANCH  37  38
ENDBRANCH  34  37
ENDBRANCH  29  31
ENDBRANCH  25  29
ENDBRANCH  20  21
BRANCH  20  49
HETATM   49  C17 UNL     1      -6.165  -0.309  10.738  1.00  0.00     0.193 C 
BRANCH  49  50
HETATM   50  O4  UNL     1      -7.521  -0.281  10.319  1.00  0.00    -0.399 OA
ATOM     51  H4  UNL     1      -7.762   0.612  10.098  1.00  0.00     0.209 HD
ENDBRANCH  49  50
ENDBRANCH  20  49
ENDBRANCH  19  20
ENDBRANCH  17  19
ENDBRANCH  15  16
BRANCH  15  52
HETATM   52  O5  UNL     1      -8.792  -0.081   5.479  1.00  0.00    -0.371 OA
ATOM     53  H5  UNL     1      -9.058  -0.746   4.855  1.00  0.00     0.212 HD
ENDBRANCH  15  52
ENDBRANCH  13  15
ENDBRANCH   1  13
TORSDOF 16
ENDMDL
MODEL 5
REMARK VINA RESULT: -7.683732404      5.180      8.362
REMARK  16 active torsions:
REMARK  status: ('A' for Active; 'I' for Inactive)
REMARK    1  A    between atoms: C3_5  and  N2_6 
REMARK    2  A    between atoms: N2_6  and  C4_8 
REMARK    3  A    between atoms: C7_11  and  O1_12 
REMARK    4  A    between atoms: O1_12  and  C8_13 
REMARK    5  A    between atoms: N3_16  and  O2_17 
REMARK    6  A    between atoms: C12_20  and  C13_21 
REMARK    7  A    between atoms: C13_21  and  O3_22 
REMARK    8  A    between atoms: N5_28  and  C16_29 
REMARK    9  A    between atoms: C16_29  and  C17_30 
REMARK   10  A    between atoms: C16_29  and  C18_33 
REMARK   11  A    between atoms: C17_30  and  O4_31 
REMARK   12  A    between atoms: C18_33  and  N6_34 
REMARK   13  A    between atoms: C19_36  and  C20_37 
REMARK   14  A    between atoms: C20_37  and  O5_38 
REMARK   15  A    between atoms: C20_37  and  N7_40 
REMARK   16  A    between atoms: N7_40  and  C21_42 
ROOT
HETATM    1  C21 UNL     1      -7.801   0.935   4.804  1.00  0.00     0.684 A 
HETATM    2  N8  UNL     1      -7.089  -0.061   4.295  1.00  0.00    -0.166 N 
ATOM      3  H8  UNL     1      -6.141   0.116   3.963  1.00  0.00     0.186 HD
HETATM    4  C22 UNL     1      -7.599  -1.296   4.212  1.00  0.00     0.205 A 
HETATM    5  C23 UNL     1      -6.799  -2.356   3.653  1.00  0.00     0.137 C 
HETATM    6  N9  UNL     1      -6.138  -3.198   3.198  1.00  0.00    -0.188 NA
HETATM    7  N10 UNL     1      -8.863  -1.516   4.659  1.00  0.00    -0.309 N 
ATOM      8  H10 UNL     1      -9.266  -2.451   4.603  1.00  0.00     0.170 HD
HETATM    9  C24 UNL     1      -9.585  -0.507   5.176  1.00  0.00     0.195 A 
HETATM   10 CL1  UNL     1     -11.234  -0.774   5.763  1.00  0.00    -0.044 Cl
HETATM   11  N11 UNL     1      -9.043   0.721   5.244  1.00  0.00    -0.166 N 
ATOM     12  H11 UNL     1      -9.583   1.494   5.634  1.00  0.00     0.186 HD
ENDROOT
BRANCH   1  13
HETATM   13  N7  UNL     1      -7.305   2.109   4.878  1.00  0.00    -0.195 N 
ATOM     14  H7  UNL     1      -7.518   2.807   4.164  1.00  0.00     0.180 HD
BRANCH  13  15
HETATM   15  C20 UNL     1      -6.437   2.437   5.988  1.00  0.00     0.274 C 
BRANCH  15  16
HETATM   16  C19 UNL     1      -5.026   2.167   5.654  1.00  0.00     0.109 C 
HETATM   17  N6  UNL     1      -4.402   1.233   6.250  1.00  0.00    -0.396 N 
ATOM     18  H6  UNL     1      -3.426   1.046   6.019  1.00  0.00     0.158 HD
BRANCH  17  19
HETATM   19  C18 UNL     1      -5.060   0.445   7.241  1.00  0.00     0.148 C 
BRANCH  19  20
HETATM   20  C16 UNL     1      -4.087  -0.306   8.112  1.00  0.00     0.151 C 
BRANCH  20  21
HETATM   21  N5  UNL     1      -3.700   0.451   9.268  1.00  0.00    -0.257 N 
HETATM   22  C2  UNL     1      -4.249   0.444  10.477  1.00  0.00     0.111 A 
HETATM   23  C1  UNL     1      -5.380  -0.298  11.042  1.00  0.00     0.091 C 
HETATM   24  N1  UNL     1      -3.532   1.329  11.230  1.00  0.00    -0.178 N 
HETATM   25  C3  UNL     1      -2.565   1.864  10.491  1.00  0.00     0.698 A 
ATOM     26  H1  UNL     1      -3.711   1.546  12.210  1.00  0.00     0.185 HD
HETATM   27  N4  UNL     1      -2.675   1.317   9.281  1.00  0.00    -0.128 N 
ATOM     28  H4  UNL     1      -2.073   1.526   8.485  1.00  0.00     0.206 HD
BRANCH  25  29
HETATM   29  N2  UNL     1      -1.729   2.737  10.944  1.00  0.00    -0.190 N 
ATOM     30  H2  UNL     1      -1.820   3.705  10.637  1.00  0.00     0.184 HD
BRANCH  29  31
HETATM   31  C4  UNL     1      -0.681   2.406  11.858  1.00  0.00     0.049 A 
HETATM   32  C5  UNL     1      -0.170   1.119  11.900  1.00  0.00     0.033 A 
HETATM   33  C6  UNL     1       0.852   0.761  12.780  1.00  0.00     0.039 A 
HETATM   34  C7  UNL     1       1.352   1.730  13.622  1.00  0.00     0.076 A 
HETATM   35  C14 UNL     1       0.840   3.008  13.574  1.00  0.00     0.039 A 
HETATM   36  C15 UNL     1      -0.175   3.365  12.702  1.00  0.00     0.033 A 
BRANCH  34  37
HETATM   37  O1  UNL     1       2.366   1.464  14.527  1.00  0.00    -0.310 OA
BRANCH  37  38
HETATM   38  C8  UNL     1       2.050   0.985  15.788  1.00  0.00     0.087 A 
HETATM   39  C9  UNL     1       1.309   1.736  16.684  1.00  0.00     0.057 A 
HETATM   40  C10 UNL     1       0.993   1.259  17.941  1.00  0.00     0.125 A 
HETATM   41  N3  UNL     1       1.416   0.040  18.297  1.00  0.00    -0.246 N 
HETATM   42  C11 UNL     1       2.147  -0.735  17.452  1.00  0.00     0.134 A 
HETATM   43  C12 UNL     1       2.474  -0.267  16.175  1.00  0.00     0.017 A 
BRANCH  41  44
HETATM   44  O2  UNL     1       1.139  -0.506  19.541  1.00  0.00    -0.284 OA
ATOM     45  H2  UNL     1       1.666  -0.314  20.308  1.00  0.00     0.245 HD
ENDBRANCH  41  44
BRANCH  43  46
HETATM   46  C13 UNL     1       3.267  -1.072  15.216  1.00  0.00     0.207 C 
BRANCH  46  47
HETATM   47  O3  UNL     1       2.441  -1.821  14.386  1.00  0.00    -0.396 OA
ATOM     48  H3  UNL     1       2.848  -2.646  14.150  1.00  0.00     0.209 HD
ENDBRANCH  46  47
ENDBRANCH  43  46
ENDBRANCH  37  38
ENDBRANCH  34  37
ENDBRANCH  29  31
ENDBRANCH  25  29
ENDBRANCH  20  21
BRANCH  20  49
HETATM   49  C17 UNL     1      -4.545  -1.697   8.460  1.00  0.00     0.193 C 
BRANCH  49  50
HETATM   50  O4  UNL     1      -3.417  -2.484   8.814  1.00  0.00    -0.399 OA
ATOM     51  H4  UNL     1      -2.950  -2.059   9.523  1.00  0.00     0.209 HD
ENDBRANCH  49  50
ENDBRANCH  20  49
ENDBRANCH  19  20
ENDBRANCH  17  19
ENDBRANCH  15  16
BRANCH  15  52
HETATM   52  O5  UNL     1      -6.648   3.816   6.229  1.00  0.00    -0.371 OA
ATOM     53  H5  UNL     1      -7.141   4.215   5.522  1.00  0.00     0.212 HD
ENDBRANCH  15  52
ENDBRANCH  13  15
ENDBRANCH   1  13
TORSDOF 16
ENDMDL
