MODEL 1
REMARK VINA RESULT: -7.437098223      0.000      0.000
REMARK  14 active torsions:
REMARK  status: ('A' for Active; 'I' for Inactive)
REMARK    1  A    between atoms: O1_2  and  C2_3 
REMARK    2  A    between atoms: C3_4  and  O2_5 
REMARK    3  A    between atoms: C4_7  and  C5_8 
REMARK    4  A    between atoms: C5_8  and  O3_9 
REMARK    5  A    between atoms: C6_12  and  O5_13 
REMARK    6  A    between atoms: O5_13  and  C7_14 
REMARK    7  A    between atoms: C8_15  and  O6_16 
REMARK    8  A    between atoms: O6_16  and  C9_17 
REMARK    9  A    between atoms: C10_18  and  O7_19 
REMARK   10  A    between atoms: C18_30  and  O10_31 
REMARK   11  A    between atoms: C19_33  and  O11_34 
REMARK   12  A    between atoms: C20_36  and  O12_37 
REMARK   13  A    between atoms: O12_37  and  C21_38 
REMARK   14  A    between atoms: C21_38  and  C22_39 
ROOT
HETATM    1  C7  UNL     1      -6.691  -2.515   3.814  1.00  0.00     0.189 C 
HETATM    2  C8  UNL     1      -7.002  -2.096   2.421  1.00  0.00     0.177 C 
HETATM    3  C17 UNL     1      -8.441  -2.569   2.207  1.00  0.00     0.205 C 
HETATM    4  O9  UNL     1      -8.566  -3.879   2.511  1.00  0.00    -0.356 OA
HETATM    5  C18 UNL     1      -7.475  -4.639   2.772  1.00  0.00     0.288 C 
HETATM    6  C19 UNL     1      -6.492  -4.034   3.744  1.00  0.00     0.204 C 
ENDROOT
BRANCH   1   7
HETATM    7  O5  UNL     1      -5.655  -1.852   4.379  1.00  0.00    -0.348 OA
BRANCH   7   8
HETATM    8  C6  UNL     1      -5.410  -2.245   5.701  1.00  0.00     0.292 C 
HETATM    9  O4  UNL     1      -4.138  -2.813   5.658  1.00  0.00    -0.348 OA
HETATM   10  C4  UNL     1      -3.655  -3.139   6.922  1.00  0.00     0.179 C 
HETATM   11  C3  UNL     1      -3.431  -1.890   7.747  1.00  0.00     0.180 C 
HETATM   12  C2  UNL     1      -3.968  -0.675   7.004  1.00  0.00     0.185 C 
HETATM   13  C20 UNL     1      -5.378  -1.035   6.575  1.00  0.00     0.208 C 
BRANCH  10  14
HETATM   14  C5  UNL     1      -2.396  -3.931   6.858  1.00  0.00     0.198 C 
BRANCH  14  15
HETATM   15  O3  UNL     1      -2.320  -4.743   5.725  1.00  0.00    -0.398 OA
ATOM     16  H3  UNL     1      -2.015  -4.278   4.954  1.00  0.00     0.209 HD
ENDBRANCH  14  15
ENDBRANCH  10  14
BRANCH  11  17
HETATM   17  O2  UNL     1      -2.064  -1.775   7.975  1.00  0.00    -0.390 OA
ATOM     18  H2  UNL     1      -1.674  -2.622   8.154  1.00  0.00     0.210 HD
ENDBRANCH  11  17
BRANCH  12  19
HETATM   19  O1  UNL     1      -3.230  -0.369   5.892  1.00  0.00    -0.385 OA
HETATM   20  C1  UNL     1      -2.992   0.965   5.672  1.00  0.00     0.202 C 
ENDBRANCH  12  19
BRANCH  13  21
HETATM   21  O12 UNL     1      -6.227  -1.141   7.672  1.00  0.00    -0.378 OA
BRANCH  21  22
HETATM   22  C21 UNL     1      -6.333  -0.029   8.452  1.00  0.00     0.179 C 
BRANCH  22  23
HETATM   23  C22 UNL     1      -6.104  -0.319   9.910  1.00  0.00     0.111 C 
HETATM   24 BR1  UNL     1      -7.784  -0.336  10.890  1.00  0.00    -0.094 Br
ENDBRANCH  22  23
ENDBRANCH  21  22
ENDBRANCH  13  21
ENDBRANCH   7   8
ENDBRANCH   1   7
BRANCH   2  25
HETATM   25  O6  UNL     1      -6.794  -0.783   2.219  1.00  0.00    -0.370 OA
BRANCH  25  26
HETATM   26  C9  UNL     1      -7.819   0.076   2.486  1.00  0.00     0.187 C 
HETATM   27  C10 UNL     1      -8.509   0.785   1.412  1.00  0.00     0.183 C 
HETATM   28  C11 UNL     1      -8.973   2.104   2.046  1.00  0.00     0.083 C 
HETATM   29  C12 UNL     1     -10.422   1.973   2.516  1.00  0.00     0.048 C 
HETATM   30  C13 UNL     1      -8.949   3.233   1.038  1.00  0.00     0.048 C 
HETATM   31  O8  UNL     1      -8.111   2.333   3.076  1.00  0.00    -0.365 OA
HETATM   32  C14 UNL     1      -7.443   1.205   3.443  1.00  0.00     0.083 C 
HETATM   33  C15 UNL     1      -5.954   1.500   3.367  1.00  0.00     0.048 C 
HETATM   34  C16 UNL     1      -7.734   0.824   4.879  1.00  0.00     0.048 C 
BRANCH  27  35
HETATM   35  O7  UNL     1      -9.698   0.135   1.008  1.00  0.00    -0.390 OA
ATOM     36  H7  UNL     1      -9.758   0.036   0.065  1.00  0.00     0.210 HD
ENDBRANCH  27  35
ENDBRANCH  25  26
ENDBRANCH   2  25
BRANCH   6  37
HETATM   37  O11 UNL     1      -6.583  -4.621   4.991  1.00  0.00    -0.388 OA
ATOM     38  H11 UNL     1      -7.314  -4.276   5.491  1.00  0.00     0.210 HD
ENDBRANCH   6  37
BRANCH   5  39
HETATM   39  O10 UNL     1      -6.808  -5.089   1.614  1.00  0.00    -0.369 OA
ATOM     40  H10 UNL     1      -6.207  -5.807   1.774  1.00  0.00     0.212 HD
ENDBRANCH   5  39
TORSDOF 14
ENDMDL
MODEL 2
REMARK VINA RESULT: -7.093527517      2.713      5.277
REMARK  14 active torsions:
REMARK  status: ('A' for Active; 'I' for Inactive)
REMARK    1  A    between atoms: O1_2  and  C2_3 
REMARK    2  A    between atoms: C3_4  and  O2_5 
REMARK    3  A    between atoms: C4_7  and  C5_8 
REMARK    4  A    between atoms: C5_8  and  O3_9 
REMARK    5  A    between atoms: C6_12  and  O5_13 
REMARK    6  A    between atoms: O5_13  and  C7_14 
REMARK    7  A    between atoms: C8_15  and  O6_16 
REMARK    8  A    between atoms: O6_16  and  C9_17 
REMARK    9  A    between atoms: C10_18  and  O7_19 
REMARK   10  A    between atoms: C18_30  and  O10_31 
REMARK   11  A    between atoms: C19_33  and  O11_34 
REMARK   12  A    between atoms: C20_36  and  O12_37 
REMARK   13  A    between atoms: O12_37  and  C21_38 
REMARK   14  A    between atoms: C21_38  and  C22_39 
ROOT
HETATM    1  C7  UNL     1      -4.439   1.417   5.585  1.00  0.00     0.189 C 
HETATM    2  C8  UNL     1      -5.138   1.348   4.273  1.00  0.00     0.177 C 
HETATM    3  C17 UNL     1      -4.027   1.594   3.252  1.00  0.00     0.205 C 
HETATM    4  O9  UNL     1      -3.349   2.726   3.542  1.00  0.00    -0.356 OA
HETATM    5  C18 UNL     1      -3.784   3.568   4.509  1.00  0.00     0.288 C 
HETATM    6  C19 UNL     1      -4.156   2.906   5.814  1.00  0.00     0.204 C 
ENDROOT
BRANCH   1   7
HETATM    7  O5  UNL     1      -5.103   0.823   6.604  1.00  0.00    -0.348 OA
BRANCH   7   8
HETATM    8  C6  UNL     1      -4.299  -0.055   7.342  1.00  0.00     0.292 C 
HETATM    9  O4  UNL     1      -3.836   0.720   8.406  1.00  0.00    -0.348 OA
HETATM   10  C4  UNL     1      -3.125  -0.027   9.341  1.00  0.00     0.179 C 
HETATM   11  C3  UNL     1      -4.030  -1.025  10.028  1.00  0.00     0.180 C 
HETATM   12  C2  UNL     1      -5.400  -1.027   9.363  1.00  0.00     0.185 C 
HETATM   13  C20 UNL     1      -5.142  -1.164   7.874  1.00  0.00     0.208 C 
BRANCH  10  14
HETATM   14  C5  UNL     1      -2.459   0.832  10.358  1.00  0.00     0.198 C 
BRANCH  14  15
HETATM   15  O3  UNL     1      -3.205   1.964  10.689  1.00  0.00    -0.398 OA
ATOM     16  H3  UNL     1      -2.790   2.502  11.354  1.00  0.00     0.209 HD
ENDBRANCH  14  15
ENDBRANCH  10  14
BRANCH  11  17
HETATM   17  O2  UNL     1      -4.124  -0.658  11.366  1.00  0.00    -0.390 OA
ATOM     18  H2  UNL     1      -3.509  -1.147  11.899  1.00  0.00     0.210 HD
ENDBRANCH  11  17
BRANCH  12  19
HETATM   19  O1  UNL     1      -6.096   0.131   9.588  1.00  0.00    -0.385 OA
HETATM   20  C1  UNL     1      -7.394  -0.017  10.008  1.00  0.00     0.202 C 
ENDBRANCH  12  19
BRANCH  13  21
HETATM   21  O12 UNL     1      -4.634  -2.423   7.566  1.00  0.00    -0.378 OA
BRANCH  21  22
HETATM   22  C21 UNL     1      -3.669  -2.456   6.605  1.00  0.00     0.179 C 
BRANCH  22  23
HETATM   23  C22 UNL     1      -2.945  -3.774   6.556  1.00  0.00     0.111 C 
HETATM   24 BR1  UNL     1      -4.056  -5.149   5.744  1.00  0.00    -0.094 Br
ENDBRANCH  22  23
ENDBRANCH  21  22
ENDBRANCH  13  21
ENDBRANCH   7   8
ENDBRANCH   1   7
BRANCH   2  25
HETATM   25  O6  UNL     1      -5.822   0.202   4.113  1.00  0.00    -0.370 OA
BRANCH  25  26
HETATM   26  C9  UNL     1      -7.159   0.285   3.858  1.00  0.00     0.187 C 
HETATM   27  C10 UNL     1      -8.062   0.971   4.779  1.00  0.00     0.183 C 
HETATM   28  C11 UNL     1      -9.407   0.246   4.622  1.00  0.00     0.083 C 
HETATM   29  C12 UNL     1     -10.291   1.002   3.630  1.00  0.00     0.048 C 
HETATM   30  C13 UNL     1     -10.164   0.212   5.932  1.00  0.00     0.048 C 
HETATM   31  O8  UNL     1      -9.095  -1.007   4.191  1.00  0.00    -0.365 OA
HETATM   32  C14 UNL     1      -7.836  -1.071   3.674  1.00  0.00     0.083 C 
HETATM   33  C15 UNL     1      -7.080  -2.156   4.424  1.00  0.00     0.048 C 
HETATM   34  C16 UNL     1      -7.850  -1.483   2.217  1.00  0.00     0.048 C 
BRANCH  27  35
HETATM   35  O7  UNL     1      -8.318   2.307   4.393  1.00  0.00    -0.390 OA
ATOM     36  H7  UNL     1      -9.075   2.675   4.834  1.00  0.00     0.210 HD
ENDBRANCH  27  35
ENDBRANCH  25  26
ENDBRANCH   2  25
BRANCH   6  37
HETATM   37  O11 UNL     1      -3.185   3.101   6.777  1.00  0.00    -0.388 OA
ATOM     38  H11 UNL     1      -2.328   3.239   6.391  1.00  0.00     0.210 HD
ENDBRANCH   6  37
BRANCH   5  39
HETATM   39  O10 UNL     1      -4.816   4.433   4.085  1.00  0.00    -0.369 OA
ATOM     40  H10 UNL     1      -5.125   5.020   4.765  1.00  0.00     0.212 HD
ENDBRANCH   5  39
TORSDOF 14
ENDMDL
MODEL 3
REMARK VINA RESULT: -6.948908893      1.805      3.752
REMARK  14 active torsions:
REMARK  status: ('A' for Active; 'I' for Inactive)
REMARK    1  A    between atoms: O1_2  and  C2_3 
REMARK    2  A    between atoms: C3_4  and  O2_5 
REMARK    3  A    between atoms: C4_7  and  C5_8 
REMARK    4  A    between atoms: C5_8  and  O3_9 
REMARK    5  A    between atoms: C6_12  and  O5_13 
REMARK    6  A    between atoms: O5_13  and  C7_14 
REMARK    7  A    between atoms: C8_15  and  O6_16 
REMARK    8  A    between atoms: O6_16  and  C9_17 
REMARK    9  A    between atoms: C10_18  and  O7_19 
REMARK   10  A    between atoms: C18_30  and  O10_31 
REMARK   11  A    between atoms: C19_33  and  O11_34 
REMARK   12  A    between atoms: C20_36  and  O12_37 
REMARK   13  A    between atoms: O12_37  and  C21_38 
REMARK   14  A    between atoms: C21_38  and  C22_39 
ROOT
HETATM    1  C7  UNL     1      -6.436  -0.870   4.073  1.00  0.00     0.189 C 
HETATM    2  C8  UNL     1      -6.651   0.573   3.779  1.00  0.00     0.177 C 
HETATM    3  C17 UNL     1      -8.165   0.692   3.604  1.00  0.00     0.205 C 
HETATM    4  O9  UNL     1      -8.616  -0.206   2.700  1.00  0.00    -0.356 OA
HETATM    5  C18 UNL     1      -7.752  -0.938   1.957  1.00  0.00     0.288 C 
HETATM    6  C19 UNL     1      -6.632  -1.588   2.733  1.00  0.00     0.204 C 
ENDROOT
BRANCH   1   7
HETATM    7  O5  UNL     1      -5.257  -1.149   4.677  1.00  0.00    -0.348 OA
BRANCH   7   8
HETATM    8  C6  UNL     1      -5.399  -1.979   5.795  1.00  0.00     0.292 C 
HETATM    9  O4  UNL     1      -4.383  -2.924   5.649  1.00  0.00    -0.348 OA
HETATM   10  C4  UNL     1      -4.271  -3.763   6.754  1.00  0.00     0.179 C 
HETATM   11  C3  UNL     1      -3.826  -2.985   7.973  1.00  0.00     0.180 C 
HETATM   12  C2  UNL     1      -3.807  -1.496   7.659  1.00  0.00     0.185 C 
HETATM   13  C20 UNL     1      -5.153  -1.182   7.033  1.00  0.00     0.208 C 
BRANCH  10  14
HETATM   14  C5  UNL     1      -3.335  -4.894   6.510  1.00  0.00     0.198 C 
BRANCH  14  15
HETATM   15  O3  UNL     1      -2.236  -4.533   5.727  1.00  0.00    -0.398 OA
ATOM     16  H3  UNL     1      -1.428  -4.481   6.224  1.00  0.00     0.209 HD
ENDBRANCH  14  15
ENDBRANCH  10  14
BRANCH  11  17
HETATM   17  O2  UNL     1      -2.559  -3.439   8.323  1.00  0.00    -0.390 OA
ATOM     18  H2  UNL     1      -2.609  -4.261   8.798  1.00  0.00     0.210 HD
ENDBRANCH  11  17
BRANCH  12  19
HETATM   19  O1  UNL     1      -2.817  -1.156   6.777  1.00  0.00    -0.385 OA
HETATM   20  C1  UNL     1      -1.802  -0.378   7.276  1.00  0.00     0.202 C 
ENDBRANCH  12  19
BRANCH  13  21
HETATM   21  O12 UNL     1      -6.181  -1.301   7.963  1.00  0.00    -0.378 OA
BRANCH  21  22
HETATM   22  C21 UNL     1      -6.459  -0.182   8.689  1.00  0.00     0.179 C 
BRANCH  22  23
HETATM   23  C22 UNL     1      -6.202  -0.368  10.160  1.00  0.00     0.111 C 
HETATM   24 BR1  UNL     1      -7.872  -0.507  11.148  1.00  0.00    -0.094 Br
ENDBRANCH  22  23
ENDBRANCH  21  22
ENDBRANCH  13  21
ENDBRANCH   7   8
ENDBRANCH   1   7
BRANCH   2  25
HETATM   25  O6  UNL     1      -6.117   1.375   4.718  1.00  0.00    -0.370 OA
BRANCH  25  26
HETATM   26  C9  UNL     1      -4.981   2.060   4.402  1.00  0.00     0.187 C 
HETATM   27  C10 UNL     1      -3.705   1.739   5.036  1.00  0.00     0.183 C 
HETATM   28  C11 UNL     1      -2.933   3.067   5.061  1.00  0.00     0.083 C 
HETATM   29  C12 UNL     1      -1.998   3.147   3.854  1.00  0.00     0.048 C 
HETATM   30  C13 UNL     1      -2.056   3.165   6.291  1.00  0.00     0.048 C 
HETATM   31  O8  UNL     1      -3.887   4.040   5.046  1.00  0.00    -0.365 OA
HETATM   32  C14 UNL     1      -5.091   3.568   4.619  1.00  0.00     0.083 C 
HETATM   33  C15 UNL     1      -6.121   3.883   5.691  1.00  0.00     0.048 C 
HETATM   34  C16 UNL     1      -5.552   4.270   3.359  1.00  0.00     0.048 C 
BRANCH  27  35
HETATM   35  O7  UNL     1      -2.912   0.870   4.250  1.00  0.00    -0.390 OA
ATOM     36  H7  UNL     1      -2.790   0.021   4.657  1.00  0.00     0.210 HD
ENDBRANCH  27  35
ENDBRANCH  25  26
ENDBRANCH   2  25
BRANCH   6  37
HETATM   37  O11 UNL     1      -6.852  -2.941   2.903  1.00  0.00    -0.388 OA
ATOM     38  H11 UNL     1      -6.827  -3.410   2.077  1.00  0.00     0.210 HD
ENDBRANCH   6  37
BRANCH   5  39
HETATM   39  O10 UNL     1      -7.238  -0.244   0.840  1.00  0.00    -0.369 OA
ATOM     40  H10 UNL     1      -6.651  -0.765   0.305  1.00  0.00     0.212 HD
ENDBRANCH   5  39
TORSDOF 14
ENDMDL
MODEL 4
REMARK VINA RESULT: -6.926684325      1.661      2.591
REMARK  14 active torsions:
REMARK  status: ('A' for Active; 'I' for Inactive)
REMARK    1  A    between atoms: O1_2  and  C2_3 
REMARK    2  A    between atoms: C3_4  and  O2_5 
REMARK    3  A    between atoms: C4_7  and  C5_8 
REMARK    4  A    between atoms: C5_8  and  O3_9 
REMARK    5  A    between atoms: C6_12  and  O5_13 
REMARK    6  A    between atoms: O5_13  and  C7_14 
REMARK    7  A    between atoms: C8_15  and  O6_16 
REMARK    8  A    between atoms: O6_16  and  C9_17 
REMARK    9  A    between atoms: C10_18  and  O7_19 
REMARK   10  A    between atoms: C18_30  and  O10_31 
REMARK   11  A    between atoms: C19_33  and  O11_34 
REMARK   12  A    between atoms: C20_36  and  O12_37 
REMARK   13  A    between atoms: O12_37  and  C21_38 
REMARK   14  A    between atoms: C21_38  and  C22_39 
ROOT
HETATM    1  C7  UNL     1      -6.633  -1.735   4.066  1.00  0.00     0.189 C 
HETATM    2  C8  UNL     1      -6.955  -0.622   3.132  1.00  0.00     0.177 C 
HETATM    3  C17 UNL     1      -8.470  -0.460   3.261  1.00  0.00     0.205 C 
HETATM    4  O9  UNL     1      -9.097  -1.641   3.070  1.00  0.00    -0.356 OA
HETATM    5  C18 UNL     1      -8.416  -2.728   2.636  1.00  0.00     0.288 C 
HETATM    6  C19 UNL     1      -7.124  -3.006   3.365  1.00  0.00     0.204 C 
ENDROOT
BRANCH   1   7
HETATM    7  O5  UNL     1      -5.336  -1.786   4.449  1.00  0.00    -0.348 OA
BRANCH   7   8
HETATM    8  C6  UNL     1      -5.175  -2.174   5.785  1.00  0.00     0.292 C 
HETATM    9  O4  UNL     1      -3.873  -2.672   5.841  1.00  0.00    -0.348 OA
HETATM   10  C4  UNL     1      -3.473  -2.980   7.138  1.00  0.00     0.179 C 
HETATM   11  C3  UNL     1      -3.385  -1.727   7.982  1.00  0.00     0.180 C 
HETATM   12  C2  UNL     1      -3.928  -0.538   7.203  1.00  0.00     0.185 C 
HETATM   13  C20 UNL     1      -5.278  -0.972   6.662  1.00  0.00     0.208 C 
BRANCH  10  14
HETATM   14  C5  UNL     1      -2.171  -3.701   7.171  1.00  0.00     0.198 C 
BRANCH  14  15
HETATM   15  O3  UNL     1      -1.995  -4.557   6.082  1.00  0.00    -0.398 OA
ATOM     16  H3  UNL     1      -1.107  -4.550   5.744  1.00  0.00     0.209 HD
ENDBRANCH  14  15
ENDBRANCH  10  14
BRANCH  11  17
HETATM   17  O2  UNL     1      -2.048  -1.538   8.317  1.00  0.00    -0.390 OA
ATOM     18  H2  UNL     1      -1.853  -1.911   9.169  1.00  0.00     0.210 HD
ENDBRANCH  11  17
BRANCH  12  19
HETATM   19  O1  UNL     1      -3.123  -0.183   6.153  1.00  0.00    -0.385 OA
HETATM   20  C1  UNL     1      -3.406   1.018   5.553  1.00  0.00     0.202 C 
ENDBRANCH  12  19
BRANCH  13  21
HETATM   21  O12 UNL     1      -6.203  -1.132   7.689  1.00  0.00    -0.378 OA
BRANCH  21  22
HETATM   22  C21 UNL     1      -6.433  -0.033   8.461  1.00  0.00     0.179 C 
BRANCH  22  23
HETATM   23  C22 UNL     1      -6.189  -0.291   9.923  1.00  0.00     0.111 C 
HETATM   24 BR1  UNL     1      -7.863  -0.331  10.913  1.00  0.00    -0.094 Br
ENDBRANCH  22  23
ENDBRANCH  21  22
ENDBRANCH  13  21
ENDBRANCH   7   8
ENDBRANCH   1   7
BRANCH   2  25
HETATM   25  O6  UNL     1      -6.235   0.485   3.382  1.00  0.00    -0.370 OA
BRANCH  25  26
HETATM   26  C9  UNL     1      -5.769   1.199   2.318  1.00  0.00     0.187 C 
HETATM   27  C10 UNL     1      -4.344   1.235   1.999  1.00  0.00     0.183 C 
HETATM   28  C11 UNL     1      -4.122   2.607   1.346  1.00  0.00     0.083 C 
HETATM   29  C12 UNL     1      -4.176   2.472  -0.176  1.00  0.00     0.048 C 
HETATM   30  C13 UNL     1      -2.751   3.155   1.679  1.00  0.00     0.048 C 
HETATM   31  O8  UNL     1      -5.113   3.405   1.833  1.00  0.00    -0.365 OA
HETATM   32  C14 UNL     1      -6.139   2.680   2.360  1.00  0.00     0.083 C 
HETATM   33  C15 UNL     1      -6.346   3.142   3.793  1.00  0.00     0.048 C 
HETATM   34  C16 UNL     1      -7.439   2.940   1.631  1.00  0.00     0.048 C 
BRANCH  27  35
HETATM   35  O7  UNL     1      -3.986   0.294   1.006  1.00  0.00    -0.390 OA
ATOM     36  H7  UNL     1      -4.145   0.615   0.126  1.00  0.00     0.210 HD
ENDBRANCH  27  35
ENDBRANCH  25  26
ENDBRANCH   2  25
BRANCH   6  37
HETATM   37  O11 UNL     1      -7.256  -4.061   4.248  1.00  0.00    -0.388 OA
ATOM     38  H11 UNL     1      -6.755  -4.818   3.970  1.00  0.00     0.210 HD
ENDBRANCH   6  37
BRANCH   5  39
HETATM   39  O10 UNL     1      -8.206  -2.745   1.241  1.00  0.00    -0.369 OA
ATOM     40  H10 UNL     1      -7.557  -3.379   0.960  1.00  0.00     0.212 HD
ENDBRANCH   5  39
TORSDOF 14
ENDMDL
MODEL 5
REMARK VINA RESULT: -6.925554257      2.230      3.830
REMARK  14 active torsions:
REMARK  status: ('A' for Active; 'I' for Inactive)
REMARK    1  A    between atoms: O1_2  and  C2_3 
REMARK    2  A    between atoms: C3_4  and  O2_5 
REMARK    3  A    between atoms: C4_7  and  C5_8 
REMARK    4  A    between atoms: C5_8  and  O3_9 
REMARK    5  A    between atoms: C6_12  and  O5_13 
REMARK    6  A    between atoms: O5_13  and  C7_14 
REMARK    7  A    between atoms: C8_15  and  O6_16 
REMARK    8  A    between atoms: O6_16  and  C9_17 
REMARK    9  A    between atoms: C10_18  and  O7_19 
REMARK   10  A    between atoms: C18_30  and  O10_31 
REMARK   11  A    between atoms: C19_33  and  O11_34 
REMARK   12  A    between atoms: C20_36  and  O12_37 
REMARK   13  A    between atoms: O12_37  and  C21_38 
REMARK   14  A    between atoms: C21_38  and  C22_39 
ROOT
HETATM    1  C7  UNL     1      -4.778   0.894   5.573  1.00  0.00     0.189 C 
HETATM    2  C8  UNL     1      -5.665   1.650   4.648  1.00  0.00     0.177 C 
HETATM    3  C17 UNL     1      -5.319   1.091   3.267  1.00  0.00     0.205 C 
HETATM    4  O9  UNL     1      -3.988   1.147   3.046  1.00  0.00    -0.356 OA
HETATM    5  C18 UNL     1      -3.168   1.803   3.902  1.00  0.00     0.288 C 
HETATM    6  C19 UNL     1      -3.378   1.481   5.361  1.00  0.00     0.204 C 
ENDROOT
BRANCH   1   7
HETATM    7  O5  UNL     1      -5.184   0.895   6.864  1.00  0.00    -0.348 OA
BRANCH   7   8
HETATM    8  C6  UNL     1      -5.447  -0.388   7.357  1.00  0.00     0.292 C 
HETATM    9  O4  UNL     1      -4.560  -1.209   6.660  1.00  0.00    -0.348 OA
HETATM   10  C4  UNL     1      -4.572  -2.523   7.121  1.00  0.00     0.179 C 
HETATM   11  C3  UNL     1      -4.047  -2.596   8.538  1.00  0.00     0.180 C 
HETATM   12  C2  UNL     1      -3.831  -1.192   9.085  1.00  0.00     0.185 C 
HETATM   13  C20 UNL     1      -5.116  -0.434   8.811  1.00  0.00     0.208 C 
BRANCH  10  14
HETATM   14  C5  UNL     1      -3.787  -3.435   6.245  1.00  0.00     0.198 C 
BRANCH  14  15
HETATM   15  O3  UNL     1      -4.307  -4.729   6.199  1.00  0.00    -0.398 OA
ATOM     16  H3  UNL     1      -5.222  -4.752   5.942  1.00  0.00     0.209 HD
ENDBRANCH  14  15
ENDBRANCH  10  14
BRANCH  11  17
HETATM   17  O2  UNL     1      -2.854  -3.311   8.508  1.00  0.00    -0.390 OA
ATOM     18  H2  UNL     1      -2.546  -3.425   7.617  1.00  0.00     0.210 HD
ENDBRANCH  11  17
BRANCH  12  19
HETATM   19  O1  UNL     1      -2.793  -0.542   8.472  1.00  0.00    -0.385 OA
HETATM   20  C1  UNL     1      -2.192   0.456   9.198  1.00  0.00     0.202 C 
ENDBRANCH  12  19
BRANCH  13  21
HETATM   21  O12 UNL     1      -6.163  -0.923   9.586  1.00  0.00    -0.378 OA
BRANCH  21  22
HETATM   22  C21 UNL     1      -7.227  -0.086   9.747  1.00  0.00     0.179 C 
BRANCH  22  23
HETATM   23  C22 UNL     1      -7.981  -0.347  11.022  1.00  0.00     0.111 C 
HETATM   24 BR1  UNL     1      -6.801  -0.238  12.565  1.00  0.00    -0.094 Br
ENDBRANCH  22  23
ENDBRANCH  21  22
ENDBRANCH  13  21
ENDBRANCH   7   8
ENDBRANCH   1   7
BRANCH   2  25
HETATM   25  O6  UNL     1      -6.962   1.566   4.993  1.00  0.00    -0.370 OA
BRANCH  25  26
HETATM   26  C9  UNL     1      -7.867   1.278   4.014  1.00  0.00     0.187 C 
HETATM   27  C10 UNL     1      -8.762   2.305   3.488  1.00  0.00     0.183 C 
HETATM   28  C11 UNL     1     -10.027   1.544   3.065  1.00  0.00     0.083 C 
HETATM   29  C12 UNL     1      -9.965   1.225   1.571  1.00  0.00     0.048 C 
HETATM   30  C13 UNL     1     -11.266   2.388   3.272  1.00  0.00     0.048 C 
HETATM   31  O8  UNL     1     -10.050   0.422   3.836  1.00  0.00    -0.365 OA
HETATM   32  C14 UNL     1      -8.830   0.150   4.379  1.00  0.00     0.083 C 
HETATM   33  C15 UNL     1      -9.002   0.056   5.886  1.00  0.00     0.048 C 
HETATM   34  C16 UNL     1      -8.300  -1.192   3.921  1.00  0.00     0.048 C 
BRANCH  27  35
HETATM   35  O7  UNL     1      -8.273   2.893   2.299  1.00  0.00    -0.390 OA
ATOM     36  H7  UNL     1      -8.303   3.842   2.322  1.00  0.00     0.210 HD
ENDBRANCH  27  35
ENDBRANCH  25  26
ENDBRANCH   2  25
BRANCH   6  37
HETATM   37  O11 UNL     1      -2.392   0.644   5.844  1.00  0.00    -0.388 OA
ATOM     38  H11 UNL     1      -1.584   1.113   6.018  1.00  0.00     0.210 HD
ENDBRANCH   6  37
BRANCH   5  39
HETATM   39  O10 UNL     1      -3.143   3.200   3.704  1.00  0.00    -0.369 OA
ATOM     40  H10 UNL     1      -2.888   3.689   4.477  1.00  0.00     0.212 HD
ENDBRANCH   5  39
TORSDOF 14
ENDMDL
