MODEL 1
REMARK VINA RESULT: -6.853798831      0.000      0.000
REMARK  13 active torsions:
REMARK  status: ('A' for Active; 'I' for Inactive)
REMARK    1  A    between atoms: C2_2  and  C3_3 
REMARK    2  A    between atoms: C3_3  and  N1_4 
REMARK    3  A    between atoms: N1_4  and  C4_7 
REMARK    4  A    between atoms: C6_10  and  C7_11 
REMARK    5  A    between atoms: C7_11  and  O2_12 
REMARK    6  A    between atoms: C8_14  and  O3_15 
REMARK    7  A    between atoms: C9_17  and  O4_18 
REMARK    8  A    between atoms: O4_18  and  C10_19 
REMARK    9  A    between atoms: C11_20  and  N2_21 
REMARK   10  A    between atoms: C16_30  and  O6_31 
REMARK   11  A    between atoms: C18_34  and  O8_35 
REMARK   12  A    between atoms: C25_42  and  O9_43 
REMARK   13  A    between atoms: C26_45  and  O10_46 
ROOT
HETATM    1  C10 UNL     1      -6.637  -2.451   4.918  1.00  0.00     0.190 C 
HETATM    2  C11 UNL     1      -7.072  -3.042   3.601  1.00  0.00     0.218 C 
HETATM    3  C12 UNL     1      -7.125  -2.072   2.417  1.00  0.00     0.072 C 
HETATM    4  C13 UNL     1      -6.514  -0.873   3.014  1.00  0.00     0.180 C 
HETATM    5  O5  UNL     1      -7.477  -0.518   3.972  1.00  0.00    -0.363 OA
HETATM    6  C14 UNL     1      -6.904  -1.006   5.165  1.00  0.00     0.130 C 
HETATM    7  C15 UNL     1      -5.797  -0.082   5.418  1.00  0.00     0.088 C 
HETATM    8  C16 UNL     1      -5.139   0.693   4.344  1.00  0.00     0.269 C 
HETATM    9  O7  UNL     1      -5.821   1.221   3.306  1.00  0.00    -0.329 OA
HETATM   10  C18 UNL     1      -6.190   0.339   2.282  1.00  0.00     0.291 C 
HETATM   11  C20 UNL     1      -6.264   0.938   6.473  1.00  0.00     0.027 C 
HETATM   12  C21 UNL     1      -6.455   0.136   7.736  1.00  0.00     0.015 C 
HETATM   13  C22 UNL     1      -7.732  -0.641   7.550  1.00  0.00     0.025 C 
HETATM   14  C23 UNL     1      -8.829   0.401   7.631  1.00  0.00     0.018 C 
HETATM   15  C24 UNL     1      -8.637   0.537   6.126  1.00  0.00     0.053 C 
HETATM   16  C25 UNL     1      -7.514   1.563   5.973  1.00  0.00     0.130 C 
HETATM   17  C26 UNL     1      -8.094  -0.866   6.146  1.00  0.00     0.104 C 
ENDROOT
BRANCH   1  18
HETATM   18  O4  UNL     1      -5.375  -2.824   5.296  1.00  0.00    -0.370 OA
BRANCH  18  19
HETATM   19  C9  UNL     1      -5.241  -3.560   6.470  1.00  0.00     0.186 C 
HETATM   20  C4  UNL     1      -4.146  -3.105   7.348  1.00  0.00     0.241 C 
HETATM   21  C5  UNL     1      -3.169  -4.163   7.749  1.00  0.00     0.204 C 
HETATM   22  O1  UNL     1      -2.997  -5.188   6.843  1.00  0.00    -0.379 OA
HETATM   23  C6  UNL     1      -4.183  -5.886   6.668  1.00  0.00     0.176 C 
HETATM   24  C8  UNL     1      -5.160  -4.983   6.038  1.00  0.00     0.180 C 
BRANCH  20  25
HETATM   25  N1  UNL     1      -4.720  -2.652   8.651  1.00  0.00    -0.063 N 
ATOM     26  H12 UNL     1      -4.851  -3.425   9.302  1.00  0.00     0.278 HD
ATOM     27  H11 UNL     1      -5.695  -2.367   8.562  1.00  0.00     0.278 HD
BRANCH  25  28
HETATM   28  C3  UNL     1      -3.891  -1.599   9.211  1.00  0.00     0.259 C 
BRANCH  28  29
HETATM   29  C2  UNL     1      -4.274  -1.441  10.641  1.00  0.00    -0.010 C 
HETATM   30  C1  UNL     1      -5.491  -1.061  10.997  1.00  0.00     0.008 C 
ENDBRANCH  28  29
ENDBRANCH  25  28
ENDBRANCH  20  25
BRANCH  23  31
HETATM   31  C7  UNL     1      -4.693  -6.560   7.914  1.00  0.00     0.198 C 
BRANCH  31  32
HETATM   32  O2  UNL     1      -4.647  -7.946   7.785  1.00  0.00    -0.398 OA
ATOM     33  H2  UNL     1      -5.520  -8.307   7.691  1.00  0.00     0.209 HD
ENDBRANCH  31  32
ENDBRANCH  23  31
BRANCH  24  34
HETATM   34  O3  UNL     1      -6.461  -5.561   6.036  1.00  0.00    -0.390 OA
ATOM     35  H3  UNL     1      -6.710  -5.835   5.160  1.00  0.00     0.210 HD
ENDBRANCH  24  34
ENDBRANCH  18  19
ENDBRANCH   1  18
BRANCH   2  36
HETATM   36  N2  UNL     1      -8.282  -3.824   3.662  1.00  0.00    -0.072 N 
ATOM     37  H23 UNL     1      -8.084  -4.800   3.439  1.00  0.00     0.274 HD
ATOM     38  H22 UNL     1      -8.591  -3.924   4.629  1.00  0.00     0.274 HD
ATOM     39  H21 UNL     1      -9.045  -3.475   3.081  1.00  0.00     0.274 HD
ENDBRANCH   2  36
BRANCH  17  40
HETATM   40  O10 UNL     1      -8.953  -1.859   5.812  1.00  0.00    -0.381 OA
HETATM   41  C27 UNL     1     -10.240  -1.609   5.530  1.00  0.00     0.202 C 
ENDBRANCH  17  40
BRANCH   8  42
HETATM   42  O6  UNL     1      -4.504   1.818   4.943  1.00  0.00    -0.365 OA
HETATM   43  C17 UNL     1      -3.527   2.355   4.153  1.00  0.00     0.204 C 
ENDBRANCH   8  42
BRANCH  10  44
HETATM   44  O8  UNL     1      -5.110   0.084   1.408  1.00  0.00    -0.363 OA
HETATM   45  C19 UNL     1      -4.756   1.240   0.715  1.00  0.00     0.204 C 
ENDBRANCH  10  44
BRANCH  16  46
HETATM   46  O9  UNL     1      -7.843   2.715   6.733  1.00  0.00    -0.395 OA
ATOM     47  H9  UNL     1      -8.628   3.130   6.396  1.00  0.00     0.210 HD
ENDBRANCH  16  46
TORSDOF 13
ENDMDL
MODEL 2
REMARK VINA RESULT: -6.658326587      2.324      6.619
REMARK  13 active torsions:
REMARK  status: ('A' for Active; 'I' for Inactive)
REMARK    1  A    between atoms: C2_2  and  C3_3 
REMARK    2  A    between atoms: C3_3  and  N1_4 
REMARK    3  A    between atoms: N1_4  and  C4_7 
REMARK    4  A    between atoms: C6_10  and  C7_11 
REMARK    5  A    between atoms: C7_11  and  O2_12 
REMARK    6  A    between atoms: C8_14  and  O3_15 
REMARK    7  A    between atoms: C9_17  and  O4_18 
REMARK    8  A    between atoms: O4_18  and  C10_19 
REMARK    9  A    between atoms: C11_20  and  N2_21 
REMARK   10  A    between atoms: C16_30  and  O6_31 
REMARK   11  A    between atoms: C18_34  and  O8_35 
REMARK   12  A    between atoms: C25_42  and  O9_43 
REMARK   13  A    between atoms: C26_45  and  O10_46 
ROOT
HETATM    1  C10 UNL     1      -7.737  -2.337   4.125  1.00  0.00     0.190 C 
HETATM    2  C11 UNL     1      -8.009  -3.661   3.457  1.00  0.00     0.218 C 
HETATM    3  C12 UNL     1      -6.998  -4.775   3.741  1.00  0.00     0.072 C 
HETATM    4  C13 UNL     1      -6.172  -4.141   4.781  1.00  0.00     0.180 C 
HETATM    5  O5  UNL     1      -5.559  -3.106   4.058  1.00  0.00    -0.363 OA
HETATM    6  C14 UNL     1      -6.324  -1.983   4.438  1.00  0.00     0.130 C 
HETATM    7  C15 UNL     1      -5.911  -1.738   5.821  1.00  0.00     0.088 C 
HETATM    8  C16 UNL     1      -5.357  -2.798   6.692  1.00  0.00     0.269 C 
HETATM    9  O7  UNL     1      -4.527  -3.758   6.230  1.00  0.00    -0.329 OA
HETATM   10  C18 UNL     1      -5.117  -4.812   5.520  1.00  0.00     0.291 C 
HETATM   11  C20 UNL     1      -4.881  -0.594   5.812  1.00  0.00     0.027 C 
HETATM   12  C21 UNL     1      -5.652   0.624   5.369  1.00  0.00     0.015 C 
HETATM   13  C22 UNL     1      -5.870   0.466   3.887  1.00  0.00     0.025 C 
HETATM   14  C23 UNL     1      -4.501   0.679   3.274  1.00  0.00     0.018 C 
HETATM   15  C24 UNL     1      -4.325  -0.822   3.456  1.00  0.00     0.053 C 
HETATM   16  C25 UNL     1      -3.791  -0.977   4.880  1.00  0.00     0.130 C 
HETATM   17  C26 UNL     1      -5.826  -0.925   3.423  1.00  0.00     0.104 C 
ENDROOT
BRANCH   1  18
HETATM   18  O4  UNL     1      -8.590  -2.061   5.161  1.00  0.00    -0.370 OA
BRANCH  18  19
HETATM   19  C9  UNL     1      -9.736  -1.325   4.877  1.00  0.00     0.186 C 
HETATM   20  C4  UNL     1      -9.473   0.044   4.394  1.00  0.00     0.241 C 
HETATM   21  C5  UNL     1     -10.164   1.132   5.151  1.00  0.00     0.204 C 
HETATM   22  O1  UNL     1     -10.416   0.865   6.480  1.00  0.00    -0.379 OA
HETATM   23  C6  UNL     1     -11.272  -0.218   6.605  1.00  0.00     0.176 C 
HETATM   24  C8  UNL     1     -10.578  -1.415   6.102  1.00  0.00     0.180 C 
BRANCH  20  25
HETATM   25  N1  UNL     1     -10.014   0.187   3.009  1.00  0.00    -0.063 N 
ATOM     26  H12 UNL     1     -10.474  -0.664   2.687  1.00  0.00     0.278 HD
ATOM     27  H11 UNL     1      -9.273   0.228   2.309  1.00  0.00     0.278 HD
BRANCH  25  28
HETATM   28  C3  UNL     1     -10.892   1.342   2.943  1.00  0.00     0.259 C 
BRANCH  28  29
HETATM   29  C2  UNL     1     -11.754   1.181   1.740  1.00  0.00    -0.010 C 
HETATM   30  C1  UNL     1     -13.070   1.307   1.805  1.00  0.00     0.008 C 
ENDBRANCH  28  29
ENDBRANCH  25  28
ENDBRANCH  20  25
BRANCH  23  31
HETATM   31  C7  UNL     1     -12.632  -0.004   5.996  1.00  0.00     0.198 C 
BRANCH  31  32
HETATM   32  O2  UNL     1     -13.639  -0.262   6.923  1.00  0.00    -0.398 OA
ATOM     33  H2  UNL     1     -14.096   0.536   7.159  1.00  0.00     0.209 HD
ENDBRANCH  31  32
ENDBRANCH  23  31
BRANCH  24  34
HETATM   34  O3  UNL     1     -11.474  -2.516   5.991  1.00  0.00    -0.390 OA
ATOM     35  H3  UNL     1     -11.226  -3.218   6.582  1.00  0.00     0.210 HD
ENDBRANCH  24  34
ENDBRANCH  18  19
ENDBRANCH   1  18
BRANCH   2  36
HETATM   36  N2  UNL     1      -8.278  -3.577   2.042  1.00  0.00    -0.072 N 
ATOM     37  H23 UNL     1      -8.899  -2.792   1.846  1.00  0.00     0.274 HD
ATOM     38  H22 UNL     1      -7.444  -3.273   1.541  1.00  0.00     0.274 HD
ATOM     39  H21 UNL     1      -8.648  -4.433   1.628  1.00  0.00     0.274 HD
ENDBRANCH   2  36
BRANCH  17  40
HETATM   40  O10 UNL     1      -6.390  -1.270   2.240  1.00  0.00    -0.381 OA
HETATM   41  C27 UNL     1      -6.928  -0.350   1.425  1.00  0.00     0.202 C 
ENDBRANCH  17  40
BRANCH   8  42
HETATM   42  O6  UNL     1      -4.609  -2.168   7.726  1.00  0.00    -0.365 OA
HETATM   43  C17 UNL     1      -4.633  -2.870   8.897  1.00  0.00     0.204 C 
ENDBRANCH   8  42
BRANCH  10  44
HETATM   44  O8  UNL     1      -5.689  -5.764   6.393  1.00  0.00    -0.363 OA
HETATM   45  C19 UNL     1      -4.707  -6.351   7.190  1.00  0.00     0.204 C 
ENDBRANCH  10  44
BRANCH  16  46
HETATM   46  O9  UNL     1      -2.667  -0.126   5.040  1.00  0.00    -0.395 OA
ATOM     47  H9  UNL     1      -2.918   0.787   4.954  1.00  0.00     0.210 HD
ENDBRANCH  16  46
TORSDOF 13
ENDMDL
MODEL 3
REMARK VINA RESULT: -6.656561924      2.118      6.473
REMARK  13 active torsions:
REMARK  status: ('A' for Active; 'I' for Inactive)
REMARK    1  A    between atoms: C2_2  and  C3_3 
REMARK    2  A    between atoms: C3_3  and  N1_4 
REMARK    3  A    between atoms: N1_4  and  C4_7 
REMARK    4  A    between atoms: C6_10  and  C7_11 
REMARK    5  A    between atoms: C7_11  and  O2_12 
REMARK    6  A    between atoms: C8_14  and  O3_15 
REMARK    7  A    between atoms: C9_17  and  O4_18 
REMARK    8  A    between atoms: O4_18  and  C10_19 
REMARK    9  A    between atoms: C11_20  and  N2_21 
REMARK   10  A    between atoms: C16_30  and  O6_31 
REMARK   11  A    between atoms: C18_34  and  O8_35 
REMARK   12  A    between atoms: C25_42  and  O9_43 
REMARK   13  A    between atoms: C26_45  and  O10_46 
ROOT
HETATM    1  C10 UNL     1      -7.244  -2.224   5.055  1.00  0.00     0.190 C 
HETATM    2  C11 UNL     1      -6.800  -3.579   4.565  1.00  0.00     0.218 C 
HETATM    3  C12 UNL     1      -5.699  -4.260   5.383  1.00  0.00     0.072 C 
HETATM    4  C13 UNL     1      -5.602  -3.345   6.533  1.00  0.00     0.180 C 
HETATM    5  O5  UNL     1      -5.103  -2.184   5.923  1.00  0.00    -0.363 OA
HETATM    6  C14 UNL     1      -6.261  -1.388   5.801  1.00  0.00     0.130 C 
HETATM    7  C15 UNL     1      -6.539  -0.972   7.178  1.00  0.00     0.088 C 
HETATM    8  C16 UNL     1      -6.085  -1.744   8.355  1.00  0.00     0.269 C 
HETATM    9  O7  UNL     1      -4.887  -2.366   8.398  1.00  0.00    -0.329 OA
HETATM   10  C18 UNL     1      -4.784  -3.581   7.709  1.00  0.00     0.291 C 
HETATM   11  C20 UNL     1      -6.001   0.459   7.357  1.00  0.00     0.027 C 
HETATM   12  C21 UNL     1      -6.863   1.316   6.465  1.00  0.00     0.015 C 
HETATM   13  C22 UNL     1      -6.405   1.047   5.055  1.00  0.00     0.025 C 
HETATM   14  C23 UNL     1      -5.044   1.706   4.962  1.00  0.00     0.018 C 
HETATM   15  C24 UNL     1      -4.502   0.368   5.444  1.00  0.00     0.053 C 
HETATM   16  C25 UNL     1      -4.568   0.454   6.969  1.00  0.00     0.130 C 
HETATM   17  C26 UNL     1      -5.750  -0.254   4.879  1.00  0.00     0.104 C 
ENDROOT
BRANCH   1  18
HETATM   18  O4  UNL     1      -8.481  -2.232   5.643  1.00  0.00    -0.370 OA
BRANCH  18  19
HETATM   19  C9  UNL     1      -9.541  -1.681   4.929  1.00  0.00     0.186 C 
HETATM   20  C4  UNL     1      -9.150  -0.606   3.997  1.00  0.00     0.241 C 
HETATM   21  C5  UNL     1      -9.892   0.681   4.161  1.00  0.00     0.204 C 
HETATM   22  O1  UNL     1     -10.342   0.950   5.436  1.00  0.00    -0.379 OA
HETATM   23  C6  UNL     1     -11.256  -0.010   5.843  1.00  0.00     0.176 C 
HETATM   24  C8  UNL     1     -10.551  -1.298   5.953  1.00  0.00     0.180 C 
BRANCH  20  25
HETATM   25  N1  UNL     1      -9.481  -1.023   2.601  1.00  0.00    -0.063 N 
ATOM     26  H12 UNL     1     -10.451  -1.325   2.511  1.00  0.00     0.278 HD
ATOM     27  H11 UNL     1      -9.029  -1.900   2.345  1.00  0.00     0.278 HD
BRANCH  25  28
HETATM   28  C3  UNL     1      -9.155   0.051   1.679  1.00  0.00     0.259 C 
BRANCH  28  29
HETATM   29  C2  UNL     1      -7.924  -0.349   0.944  1.00  0.00    -0.010 C 
HETATM   30  C1  UNL     1      -7.086   0.549   0.450  1.00  0.00     0.008 C 
ENDBRANCH  28  29
ENDBRANCH  25  28
ENDBRANCH  20  25
BRANCH  23  31
HETATM   31  C7  UNL     1     -12.504  -0.069   5.004  1.00  0.00     0.198 C 
BRANCH  31  32
HETATM   32  O2  UNL     1     -13.630  -0.269   5.799  1.00  0.00    -0.398 OA
ATOM     33  H2  UNL     1     -14.409   0.070   5.375  1.00  0.00     0.209 HD
ENDBRANCH  31  32
ENDBRANCH  23  31
BRANCH  24  34
HETATM   34  O3  UNL     1     -11.471  -2.367   6.146  1.00  0.00    -0.390 OA
ATOM     35  H3  UNL     1     -11.529  -2.911   5.369  1.00  0.00     0.210 HD
ENDBRANCH  24  34
ENDBRANCH  18  19
ENDBRANCH   1  18
BRANCH   2  36
HETATM   36  N2  UNL     1      -6.488  -3.638   3.158  1.00  0.00    -0.072 N 
ATOM     37  H23 UNL     1      -7.308  -3.394   2.604  1.00  0.00     0.274 HD
ATOM     38  H22 UNL     1      -5.867  -2.871   2.901  1.00  0.00     0.274 HD
ATOM     39  H21 UNL     1      -6.100  -4.528   2.845  1.00  0.00     0.274 HD
ENDBRANCH   2  36
BRANCH  17  40
HETATM   40  O10 UNL     1      -5.653  -0.811   3.648  1.00  0.00    -0.381 OA
HETATM   41  C27 UNL     1      -4.504  -0.789   2.956  1.00  0.00     0.202 C 
ENDBRANCH  17  40
BRANCH   8  42
HETATM   42  O6  UNL     1      -6.051  -0.861   9.470  1.00  0.00    -0.365 OA
HETATM   43  C17 UNL     1      -6.994  -1.163  10.412  1.00  0.00     0.204 C 
ENDBRANCH   8  42
BRANCH  10  44
HETATM   44  O8  UNL     1      -5.334  -4.646   8.456  1.00  0.00    -0.363 OA
HETATM   45  C19 UNL     1      -4.469  -5.739   8.463  1.00  0.00     0.204 C 
ENDBRANCH  10  44
BRANCH  16  46
HETATM   46  O9  UNL     1      -3.926   1.649   7.386  1.00  0.00    -0.395 OA
ATOM     47  H9  UNL     1      -2.988   1.520   7.464  1.00  0.00     0.210 HD
ENDBRANCH  16  46
TORSDOF 13
ENDMDL
MODEL 4
REMARK VINA RESULT: -6.615070249      1.635      2.253
REMARK  13 active torsions:
REMARK  status: ('A' for Active; 'I' for Inactive)
REMARK    1  A    between atoms: C2_2  and  C3_3 
REMARK    2  A    between atoms: C3_3  and  N1_4 
REMARK    3  A    between atoms: N1_4  and  C4_7 
REMARK    4  A    between atoms: C6_10  and  C7_11 
REMARK    5  A    between atoms: C7_11  and  O2_12 
REMARK    6  A    between atoms: C8_14  and  O3_15 
REMARK    7  A    between atoms: C9_17  and  O4_18 
REMARK    8  A    between atoms: O4_18  and  C10_19 
REMARK    9  A    between atoms: C11_20  and  N2_21 
REMARK   10  A    between atoms: C16_30  and  O6_31 
REMARK   11  A    between atoms: C18_34  and  O8_35 
REMARK   12  A    between atoms: C25_42  and  O9_43 
REMARK   13  A    between atoms: C26_45  and  O10_46 
ROOT
HETATM    1  C10 UNL     1      -6.224  -1.682   4.903  1.00  0.00     0.190 C 
HETATM    2  C11 UNL     1      -5.425  -1.933   3.650  1.00  0.00     0.218 C 
HETATM    3  C12 UNL     1      -5.317  -0.755   2.677  1.00  0.00     0.072 C 
HETATM    4  C13 UNL     1      -5.932   0.319   3.473  1.00  0.00     0.180 C 
HETATM    5  O5  UNL     1      -7.263  -0.120   3.553  1.00  0.00    -0.363 OA
HETATM    6  C14 UNL     1      -7.318  -0.671   4.851  1.00  0.00     0.130 C 
HETATM    7  C15 UNL     1      -7.281   0.504   5.724  1.00  0.00     0.088 C 
HETATM    8  C16 UNL     1      -6.690   1.794   5.307  1.00  0.00     0.269 C 
HETATM    9  O7  UNL     1      -6.812   2.279   4.053  1.00  0.00    -0.329 OA
HETATM   10  C18 UNL     1      -5.979   1.716   3.078  1.00  0.00     0.291 C 
HETATM   11  C20 UNL     1      -8.724   0.806   6.171  1.00  0.00     0.027 C 
HETATM   12  C21 UNL     1      -9.118  -0.364   7.037  1.00  0.00     0.015 C 
HETATM   13  C22 UNL     1      -9.379  -1.512   6.097  1.00  0.00     0.025 C 
HETATM   14  C23 UNL     1     -10.670  -1.147   5.395  1.00  0.00     0.018 C 
HETATM   15  C24 UNL     1      -9.775  -0.455   4.377  1.00  0.00     0.053 C 
HETATM   16  C25 UNL     1      -9.554   0.946   4.949  1.00  0.00     0.130 C 
HETATM   17  C26 UNL     1      -8.685  -1.398   4.809  1.00  0.00     0.104 C 
ENDROOT
BRANCH   1  18
HETATM   18  O4  UNL     1      -5.454  -1.565   6.029  1.00  0.00    -0.370 OA
BRANCH  18  19
HETATM   19  C9  UNL     1      -5.564  -2.562   6.995  1.00  0.00     0.186 C 
HETATM   20  C4  UNL     1      -5.139  -2.147   8.345  1.00  0.00     0.241 C 
HETATM   21  C5  UNL     1      -4.111  -3.022   8.987  1.00  0.00     0.204 C 
HETATM   22  O1  UNL     1      -3.255  -3.668   8.121  1.00  0.00    -0.379 OA
HETATM   23  C6  UNL     1      -3.957  -4.536   7.300  1.00  0.00     0.176 C 
HETATM   24  C8  UNL     1      -4.841  -3.737   6.434  1.00  0.00     0.180 C 
BRANCH  20  25
HETATM   25  N1  UNL     1      -6.304  -2.240   9.276  1.00  0.00    -0.063 N 
ATOM     26  H12 UNL     1      -6.178  -2.971   9.976  1.00  0.00     0.278 HD
ATOM     27  H11 UNL     1      -7.133  -2.618   8.816  1.00  0.00     0.278 HD
BRANCH  25  28
HETATM   28  C3  UNL     1      -6.556  -0.943   9.877  1.00  0.00     0.259 C 
BRANCH  28  29
HETATM   29  C2  UNL     1      -7.913  -0.988  10.488  1.00  0.00    -0.010 C 
HETATM   30  C1  UNL     1      -8.084  -1.130  11.793  1.00  0.00     0.008 C 
ENDBRANCH  28  29
ENDBRANCH  25  28
ENDBRANCH  20  25
BRANCH  23  31
HETATM   31  C7  UNL     1      -4.665  -5.644   8.032  1.00  0.00     0.198 C 
BRANCH  31  32
HETATM   32  O2  UNL     1      -4.645  -6.823   7.292  1.00  0.00    -0.398 OA
ATOM     33  H2  UNL     1      -3.950  -7.399   7.589  1.00  0.00     0.209 HD
ENDBRANCH  31  32
ENDBRANCH  23  31
BRANCH  24  34
HETATM   34  O3  UNL     1      -5.752  -4.571   5.727  1.00  0.00    -0.390 OA
ATOM     35  H3  UNL     1      -6.642  -4.250   5.810  1.00  0.00     0.210 HD
ENDBRANCH  24  34
ENDBRANCH  18  19
ENDBRANCH   1  18
BRANCH   2  36
HETATM   36  N2  UNL     1      -5.780  -3.138   2.940  1.00  0.00    -0.072 N 
ATOM     37  H23 UNL     1      -6.138  -3.838   3.590  1.00  0.00     0.274 HD
ATOM     38  H22 UNL     1      -6.613  -2.981   2.373  1.00  0.00     0.274 HD
ATOM     39  H21 UNL     1      -5.032  -3.532   2.371  1.00  0.00     0.274 HD
ENDBRANCH   2  36
BRANCH  17  40
HETATM   40  O10 UNL     1      -8.484  -2.495   4.040  1.00  0.00    -0.381 OA
HETATM   41  C27 UNL     1      -9.059  -2.622   2.835  1.00  0.00     0.202 C 
ENDBRANCH  17  40
BRANCH   8  42
HETATM   42  O6  UNL     1      -7.251   2.816   6.124  1.00  0.00    -0.365 OA
HETATM   43  C17 UNL     1      -6.558   3.991   6.050  1.00  0.00     0.204 C 
ENDBRANCH   8  42
BRANCH  10  44
HETATM   44  O8  UNL     1      -4.678   2.263   3.133  1.00  0.00    -0.363 OA
HETATM   45  C19 UNL     1      -4.664   3.550   2.600  1.00  0.00     0.204 C 
ENDBRANCH  10  44
BRANCH  16  46
HETATM   46  O9  UNL     1     -10.817   1.515   5.258  1.00  0.00    -0.395 OA
ATOM     47  H9  UNL     1     -11.128   1.212   6.102  1.00  0.00     0.210 HD
ENDBRANCH  16  46
TORSDOF 13
ENDMDL
MODEL 5
REMARK VINA RESULT: -6.537953325      2.202      6.575
REMARK  13 active torsions:
REMARK  status: ('A' for Active; 'I' for Inactive)
REMARK    1  A    between atoms: C2_2  and  C3_3 
REMARK    2  A    between atoms: C3_3  and  N1_4 
REMARK    3  A    between atoms: N1_4  and  C4_7 
REMARK    4  A    between atoms: C6_10  and  C7_11 
REMARK    5  A    between atoms: C7_11  and  O2_12 
REMARK    6  A    between atoms: C8_14  and  O3_15 
REMARK    7  A    between atoms: C9_17  and  O4_18 
REMARK    8  A    between atoms: O4_18  and  C10_19 
REMARK    9  A    between atoms: C11_20  and  N2_21 
REMARK   10  A    between atoms: C16_30  and  O6_31 
REMARK   11  A    between atoms: C18_34  and  O8_35 
REMARK   12  A    between atoms: C25_42  and  O9_43 
REMARK   13  A    between atoms: C26_45  and  O10_46 
ROOT
HETATM    1  C10 UNL     1      -6.273  -2.666   5.363  1.00  0.00     0.190 C 
HETATM    2  C11 UNL     1      -6.145  -4.091   4.885  1.00  0.00     0.218 C 
HETATM    3  C12 UNL     1      -5.325  -5.026   5.779  1.00  0.00     0.072 C 
HETATM    4  C13 UNL     1      -5.100  -4.163   6.950  1.00  0.00     0.180 C 
HETATM    5  O5  UNL     1      -4.274  -3.167   6.408  1.00  0.00    -0.363 OA
HETATM    6  C14 UNL     1      -5.179  -2.104   6.205  1.00  0.00     0.130 C 
HETATM    7  C15 UNL     1      -5.461  -1.629   7.562  1.00  0.00     0.088 C 
HETATM    8  C16 UNL     1      -5.318  -2.488   8.757  1.00  0.00     0.269 C 
HETATM    9  O7  UNL     1      -4.325  -3.393   8.888  1.00  0.00    -0.329 OA
HETATM   10  C18 UNL     1      -4.472  -4.596   8.186  1.00  0.00     0.291 C 
HETATM   11  C20 UNL     1      -4.596  -0.380   7.813  1.00  0.00     0.027 C 
HETATM   12  C21 UNL     1      -5.135   0.665   6.869  1.00  0.00     0.015 C 
HETATM   13  C22 UNL     1      -4.640   0.286   5.497  1.00  0.00     0.025 C 
HETATM   14  C23 UNL     1      -3.155   0.580   5.532  1.00  0.00     0.018 C 
HETATM   15  C24 UNL     1      -3.011  -0.851   6.031  1.00  0.00     0.053 C 
HETATM   16  C25 UNL     1      -3.184  -0.748   7.546  1.00  0.00     0.130 C 
HETATM   17  C26 UNL     1      -4.322  -1.138   5.351  1.00  0.00     0.104 C 
ENDROOT
BRANCH   1  18
HETATM   18  O4  UNL     1      -7.518  -2.361   5.845  1.00  0.00    -0.370 OA
BRANCH  18  19
HETATM   19  C9  UNL     1      -8.403  -1.713   4.988  1.00  0.00     0.186 C 
HETATM   20  C4  UNL     1      -7.775  -1.162   3.772  1.00  0.00     0.241 C 
HETATM   21  C5  UNL     1      -8.032   0.290   3.524  1.00  0.00     0.204 C 
HETATM   22  O1  UNL     1      -8.238   1.058   4.649  1.00  0.00    -0.379 OA
HETATM   23  C6  UNL     1      -9.371   0.636   5.327  1.00  0.00     0.176 C 
HETATM   24  C8  UNL     1      -9.123  -0.724   5.836  1.00  0.00     0.180 C 
BRANCH  20  25
HETATM   25  N1  UNL     1      -8.363  -1.829   2.571  1.00  0.00    -0.063 N 
ATOM     26  H12 UNL     1      -7.648  -2.126   1.908  1.00  0.00     0.278 HD
ATOM     27  H11 UNL     1      -8.857  -1.170   1.970  1.00  0.00     0.278 HD
BRANCH  25  28
HETATM   28  C3  UNL     1      -9.213  -2.930   2.989  1.00  0.00     0.259 C 
BRANCH  28  29
HETATM   29  C2  UNL     1      -8.857  -4.111   2.156  1.00  0.00    -0.010 C 
HETATM   30  C1  UNL     1      -9.578  -5.221   2.179  1.00  0.00     0.008 C 
ENDBRANCH  28  29
ENDBRANCH  25  28
ENDBRANCH  20  25
BRANCH  23  31
HETATM   31  C7  UNL     1     -10.647   0.766   4.539  1.00  0.00     0.198 C 
BRANCH  31  32
HETATM   32  O2  UNL     1     -11.748   0.858   5.385  1.00  0.00    -0.398 OA
ATOM     33  H2  UNL     1     -12.133   1.725   5.349  1.00  0.00     0.209 HD
ENDBRANCH  31  32
ENDBRANCH  23  31
BRANCH  24  34
HETATM   34  O3  UNL     1     -10.320  -1.304   6.344  1.00  0.00    -0.390 OA
ATOM     35  H3  UNL     1     -10.128  -2.060   6.887  1.00  0.00     0.210 HD
ENDBRANCH  24  34
ENDBRANCH  18  19
ENDBRANCH   1  18
BRANCH   2  36
HETATM   36  N2  UNL     1      -5.738  -4.230   3.508  1.00  0.00    -0.072 N 
ATOM     37  H23 UNL     1      -4.987  -4.916   3.429  1.00  0.00     0.274 HD
ATOM     38  H22 UNL     1      -6.465  -4.701   2.970  1.00  0.00     0.274 HD
ATOM     39  H21 UNL     1      -5.470  -3.357   3.054  1.00  0.00     0.274 HD
ENDBRANCH   2  36
BRANCH  17  40
HETATM   40  O10 UNL     1      -4.263  -1.704   4.122  1.00  0.00    -0.381 OA
HETATM   41  C27 UNL     1      -4.402  -0.973   3.005  1.00  0.00     0.202 C 
ENDBRANCH  17  40
BRANCH   8  42
HETATM   42  O6  UNL     1      -5.160  -1.640   9.889  1.00  0.00    -0.365 OA
HETATM   43  C17 UNL     1      -6.351  -1.288  10.456  1.00  0.00     0.204 C 
ENDBRANCH   8  42
BRANCH  10  44
HETATM   44  O8  UNL     1      -5.335  -5.485   8.864  1.00  0.00    -0.363 OA
HETATM   45  C19 UNL     1      -4.811  -6.777   8.858  1.00  0.00     0.204 C 
ENDBRANCH  10  44
BRANCH  16  46
HETATM   46  O9  UNL     1      -2.300   0.247   8.039  1.00  0.00    -0.395 OA
ATOM     47  H9  UNL     1      -1.591   0.403   7.426  1.00  0.00     0.210 HD
ENDBRANCH  16  46
TORSDOF 13
ENDMDL
