MODEL 1
REMARK VINA RESULT: -7.211299394      0.000      0.000
REMARK  4 active torsions:
REMARK  status: ('A' for Active; 'I' for Inactive)
REMARK    1  A    between atoms: C2_2  and  O1_4 
REMARK    2  A    between atoms: C2_2  and  C4_6 
REMARK    3  A    between atoms: C7_9  and  N1_10 
REMARK    4  A    between atoms: C8_11  and  O2_12 
ROOT
HETATM    1  N1  UNL     1      18.114  26.101 -18.026  1.00  0.00    -0.273 N 
HETATM    2  C8  UNL     1      18.761  27.027 -17.336  1.00  0.00     0.176 A 
HETATM    3  C9  UNL     1      18.778  28.210 -18.067  1.00  0.00     0.112 A 
HETATM    4  N2  UNL     1      18.131  27.990 -19.208  1.00  0.00    -0.290 N 
HETATM    5  C10 UNL     1      17.723  26.681 -19.175  1.00  0.00     0.332 A 
HETATM    6  O3  UNL     1      17.073  26.180 -20.143  1.00  0.00    -0.246 OA
HETATM    7  C11 UNL     1      18.128  29.198 -19.990  1.00  0.00     0.163 A 
HETATM    8  C12 UNL     1      18.858  30.175 -19.172  1.00  0.00     0.020 A 
HETATM    9  C13 UNL     1      19.233  29.591 -18.052  1.00  0.00     0.063 A 
HETATM   10 CL1  UNL     1      20.131  30.345 -16.754  1.00  0.00    -0.082 Cl
ENDROOT
BRANCH   1  11
HETATM   11  C7  UNL     1      17.834  24.726 -17.693  1.00  0.00     0.097 C 
HETATM   12  C6  UNL     1      16.735  24.151 -18.524  1.00  0.00     0.026 C 
HETATM   13  C5  UNL     1      16.537  22.691 -18.299  1.00  0.00     0.009 C 
HETATM   14  C4  UNL     1      17.684  22.059 -17.557  1.00  0.00     0.019 C 
HETATM   15  C15 UNL     1      18.952  22.547 -18.224  1.00  0.00     0.009 C 
HETATM   16  C14 UNL     1      19.137  23.973 -17.789  1.00  0.00     0.026 C 
BRANCH  14  17
HETATM   17  C2  UNL     1      17.661  20.580 -17.527  1.00  0.00     0.054 C 
HETATM   18  C1  UNL     1      18.324  20.127 -16.242  1.00  0.00     0.045 C 
HETATM   19  C3  UNL     1      16.290  19.974 -17.564  1.00  0.00     0.045 C 
BRANCH  17  20
HETATM   20  O1  UNL     1      18.451  20.070 -18.571  1.00  0.00    -0.390 OA
ATOM     21  H1  UNL     1      18.053  20.380 -19.376  1.00  0.00     0.210 HD
ENDBRANCH  17  20
ENDBRANCH  14  17
ENDBRANCH   1  11
BRANCH   2  22
HETATM   22  O2  UNL     1      19.338  26.894 -16.105  1.00  0.00    -0.344 OA
ATOM     23  H2  UNL     1      19.632  27.588 -15.526  1.00  0.00     0.219 HD
ENDBRANCH   2  22
TORSDOF 4
ENDMDL
MODEL 2
REMARK VINA RESULT: -7.171688429      1.224      2.119
REMARK  4 active torsions:
REMARK  status: ('A' for Active; 'I' for Inactive)
REMARK    1  A    between atoms: C2_2  and  O1_4 
REMARK    2  A    between atoms: C2_2  and  C4_6 
REMARK    3  A    between atoms: C7_9  and  N1_10 
REMARK    4  A    between atoms: C8_11  and  O2_12 
ROOT
HETATM    1  N1  UNL     1      18.159  26.379 -17.987  1.00  0.00    -0.273 N 
HETATM    2  C8  UNL     1      17.899  27.069 -19.087  1.00  0.00     0.176 A 
HETATM    3  C9  UNL     1      18.351  28.374 -18.922  1.00  0.00     0.112 A 
HETATM    4  N2  UNL     1      18.889  28.466 -17.709  1.00  0.00    -0.290 N 
HETATM    5  C10 UNL     1      18.766  27.226 -17.137  1.00  0.00     0.332 A 
HETATM    6  O3  UNL     1      19.197  27.009 -15.962  1.00  0.00    -0.246 OA
HETATM    7  C11 UNL     1      19.369  29.808 -17.505  1.00  0.00     0.163 A 
HETATM    8  C12 UNL     1      19.050  30.512 -18.754  1.00  0.00     0.020 A 
HETATM    9  C13 UNL     1      18.457  29.669 -19.574  1.00  0.00     0.063 A 
HETATM   10 CL1  UNL     1      17.886  30.039 -21.186  1.00  0.00    -0.082 Cl
ENDROOT
BRANCH   1  11
HETATM   11  C7  UNL     1      17.886  24.998 -17.676  1.00  0.00     0.097 C 
HETATM   12  C6  UNL     1      16.763  24.442 -18.488  1.00  0.00     0.026 C 
HETATM   13  C5  UNL     1      16.568  22.978 -18.289  1.00  0.00     0.009 C 
HETATM   14  C4  UNL     1      17.733  22.329 -17.591  1.00  0.00     0.019 C 
HETATM   15  C15 UNL     1      18.984  22.829 -18.282  1.00  0.00     0.009 C 
HETATM   16  C14 UNL     1      19.183  24.246 -17.823  1.00  0.00     0.026 C 
BRANCH  14  17
HETATM   17  C2  UNL     1      17.709  20.850 -17.592  1.00  0.00     0.054 C 
HETATM   18  C1  UNL     1      18.472  20.368 -16.375  1.00  0.00     0.045 C 
HETATM   19  C3  UNL     1      16.337  20.247 -17.530  1.00  0.00     0.045 C 
BRANCH  17  20
HETATM   20  O1  UNL     1      18.410  20.361 -18.708  1.00  0.00    -0.390 OA
ATOM     21  H1  UNL     1      17.797  19.810 -19.180  1.00  0.00     0.210 HD
ENDBRANCH  17  20
ENDBRANCH  14  17
ENDBRANCH   1  11
BRANCH   2  22
HETATM   22  O2  UNL     1      17.288  26.622 -20.223  1.00  0.00    -0.344 OA
ATOM     23  H2  UNL     1      16.390  26.770 -20.493  1.00  0.00     0.219 HD
ENDBRANCH   2  22
TORSDOF 4
ENDMDL
MODEL 3
REMARK VINA RESULT: -7.057798727      2.938      6.924
REMARK  4 active torsions:
REMARK  status: ('A' for Active; 'I' for Inactive)
REMARK    1  A    between atoms: C2_2  and  O1_4 
REMARK    2  A    between atoms: C2_2  and  C4_6 
REMARK    3  A    between atoms: C7_9  and  N1_10 
REMARK    4  A    between atoms: C8_11  and  O2_12 
ROOT
HETATM    1  N1  UNL     1      17.696  25.003 -18.477  1.00  0.00    -0.273 N 
HETATM    2  C8  UNL     1      17.914  23.867 -17.833  1.00  0.00     0.176 A 
HETATM    3  C9  UNL     1      16.972  22.927 -18.239  1.00  0.00     0.112 A 
HETATM    4  N2  UNL     1      16.182  23.509 -19.138  1.00  0.00    -0.290 N 
HETATM    5  C10 UNL     1      16.638  24.794 -19.279  1.00  0.00     0.332 A 
HETATM    6  O3  UNL     1      16.070  25.598 -20.081  1.00  0.00    -0.246 OA
HETATM    7  C11 UNL     1      15.193  22.561 -19.581  1.00  0.00     0.163 A 
HETATM    8  C12 UNL     1      15.490  21.333 -18.832  1.00  0.00     0.020 A 
HETATM    9  C13 UNL     1      16.528  21.555 -18.052  1.00  0.00     0.063 A 
HETATM   10 CL1  UNL     1      17.261  20.396 -16.966  1.00  0.00    -0.082 Cl
ENDROOT
BRANCH   1  11
HETATM   11  C7  UNL     1      18.401  26.259 -18.399  1.00  0.00     0.097 C 
HETATM   12  C6  UNL     1      17.878  27.266 -19.369  1.00  0.00     0.026 C 
HETATM   13  C5  UNL     1      18.491  28.614 -19.198  1.00  0.00     0.009 C 
HETATM   14  C4  UNL     1      19.233  28.750 -17.896  1.00  0.00     0.019 C 
HETATM   15  C15 UNL     1      18.322  28.202 -16.819  1.00  0.00     0.009 C 
HETATM   16  C14 UNL     1      18.351  26.707 -16.961  1.00  0.00     0.026 C 
BRANCH  14  17
HETATM   17  C2  UNL     1      19.644  30.131 -17.560  1.00  0.00     0.054 C 
HETATM   18  C1  UNL     1      18.507  30.788 -16.804  1.00  0.00     0.045 C 
HETATM   19  C3  UNL     1      20.870  30.227 -16.701  1.00  0.00     0.045 C 
BRANCH  17  20
HETATM   20  O1  UNL     1      19.810  30.880 -18.737  1.00  0.00    -0.390 OA
ATOM     21  H1  UNL     1      19.966  30.248 -19.429  1.00  0.00     0.210 HD
ENDBRANCH  17  20
ENDBRANCH  14  17
ENDBRANCH   1  11
BRANCH   2  22
HETATM   22  O2  UNL     1      18.887  23.607 -16.911  1.00  0.00    -0.344 OA
ATOM     23  H2  UNL     1      19.733  23.201 -17.062  1.00  0.00     0.219 HD
ENDBRANCH   2  22
TORSDOF 4
ENDMDL
MODEL 4
REMARK VINA RESULT: -6.706746637      5.608      7.082
REMARK  4 active torsions:
REMARK  status: ('A' for Active; 'I' for Inactive)
REMARK    1  A    between atoms: C2_2  and  O1_4 
REMARK    2  A    between atoms: C2_2  and  C4_6 
REMARK    3  A    between atoms: C7_9  and  N1_10 
REMARK    4  A    between atoms: C8_11  and  O2_12 
ROOT
HETATM    1  N1  UNL     1      14.901  23.959 -20.942  1.00  0.00    -0.273 N 
HETATM    2  C8  UNL     1      15.606  23.250 -20.075  1.00  0.00     0.176 A 
HETATM    3  C9  UNL     1      16.564  24.072 -19.490  1.00  0.00     0.112 A 
HETATM    4  N2  UNL     1      16.429  25.287 -20.013  1.00  0.00    -0.290 N 
HETATM    5  C10 UNL     1      15.396  25.209 -20.912  1.00  0.00     0.332 A 
HETATM    6  O3  UNL     1      15.035  26.230 -21.574  1.00  0.00    -0.246 OA
HETATM    7  C11 UNL     1      17.408  26.165 -19.427  1.00  0.00     0.163 A 
HETATM    8  C12 UNL     1      18.150  25.320 -18.483  1.00  0.00     0.020 A 
HETATM    9  C13 UNL     1      17.652  24.102 -18.526  1.00  0.00     0.063 A 
HETATM   10 CL1  UNL     1      18.202  22.735 -17.581  1.00  0.00    -0.082 Cl
ENDROOT
BRANCH   1  11
HETATM   11  C7  UNL     1      13.805  23.558 -21.790  1.00  0.00     0.097 C 
HETATM   12  C6  UNL     1      12.669  24.527 -21.749  1.00  0.00     0.026 C 
HETATM   13  C5  UNL     1      11.594  24.208 -22.731  1.00  0.00     0.009 C 
HETATM   14  C4  UNL     1      12.033  23.204 -23.762  1.00  0.00     0.019 C 
HETATM   15  C15 UNL     1      13.390  23.657 -24.258  1.00  0.00     0.009 C 
HETATM   16  C14 UNL     1      14.370  23.332 -23.168  1.00  0.00     0.026 C 
BRANCH  14  17
HETATM   17  C2  UNL     1      11.104  23.039 -24.901  1.00  0.00     0.054 C 
HETATM   18  C1  UNL     1       9.965  22.147 -24.452  1.00  0.00     0.045 C 
HETATM   19  C3  UNL     1      10.502  24.317 -25.407  1.00  0.00     0.045 C 
BRANCH  17  20
HETATM   20  O1  UNL     1      11.746  22.353 -25.946  1.00  0.00    -0.390 OA
ATOM     21  H1  UNL     1      12.668  22.569 -25.873  1.00  0.00     0.210 HD
ENDBRANCH  17  20
ENDBRANCH  14  17
ENDBRANCH   1  11
BRANCH   2  22
HETATM   22  O2  UNL     1      15.460  21.928 -19.769  1.00  0.00    -0.344 OA
ATOM     23  H2  UNL     1      16.058  21.218 -19.971  1.00  0.00     0.219 HD
ENDBRANCH   2  22
TORSDOF 4
ENDMDL
MODEL 5
REMARK VINA RESULT: -6.703487920      2.935      7.195
REMARK  4 active torsions:
REMARK  status: ('A' for Active; 'I' for Inactive)
REMARK    1  A    between atoms: C2_2  and  O1_4 
REMARK    2  A    between atoms: C2_2  and  C4_6 
REMARK    3  A    between atoms: C7_9  and  N1_10 
REMARK    4  A    between atoms: C8_11  and  O2_12 
ROOT
HETATM    1  N1  UNL     1      17.677  25.793 -18.875  1.00  0.00    -0.273 N 
HETATM    2  C8  UNL     1      16.729  25.560 -19.769  1.00  0.00     0.176 A 
HETATM    3  C9  UNL     1      16.269  24.256 -19.615  1.00  0.00     0.112 A 
HETATM    4  N2  UNL     1      16.950  23.703 -18.615  1.00  0.00    -0.290 N 
HETATM    5  C10 UNL     1      17.820  24.662 -18.162  1.00  0.00     0.332 A 
HETATM    6  O3  UNL     1      18.610  24.417 -17.200  1.00  0.00    -0.246 OA
HETATM    7  C11 UNL     1      16.498  22.349 -18.427  1.00  0.00     0.163 A 
HETATM    8  C12 UNL     1      15.455  22.159 -19.444  1.00  0.00     0.020 A 
HETATM    9  C13 UNL     1      15.329  23.275 -20.132  1.00  0.00     0.063 A 
HETATM   10 CL1  UNL     1      14.213  23.543 -21.453  1.00  0.00    -0.082 Cl
ENDROOT
BRANCH   1  11
HETATM   11  C7  UNL     1      18.451  26.986 -18.639  1.00  0.00     0.097 C 
HETATM   12  C6  UNL     1      18.055  28.111 -19.538  1.00  0.00     0.026 C 
HETATM   13  C5  UNL     1      18.738  29.393 -19.205  1.00  0.00     0.009 C 
HETATM   14  C4  UNL     1      19.402  29.360 -17.856  1.00  0.00     0.019 C 
HETATM   15  C15 UNL     1      18.392  28.779 -16.890  1.00  0.00     0.009 C 
HETATM   16  C14 UNL     1      18.338  27.304 -17.170  1.00  0.00     0.026 C 
BRANCH  14  17
HETATM   17  C2  UNL     1      19.876  30.674 -17.367  1.00  0.00     0.054 C 
HETATM   18  C1  UNL     1      18.758  31.307 -16.565  1.00  0.00     0.045 C 
HETATM   19  C3  UNL     1      21.086  30.613 -16.482  1.00  0.00     0.045 C 
BRANCH  17  20
HETATM   20  O1  UNL     1      20.107  31.533 -18.455  1.00  0.00    -0.390 OA
ATOM     21  H1  UNL     1      19.368  31.417 -19.041  1.00  0.00     0.210 HD
ENDBRANCH  17  20
ENDBRANCH  14  17
ENDBRANCH   1  11
BRANCH   2  22
HETATM   22  O2  UNL     1      16.245  26.422 -20.712  1.00  0.00    -0.344 OA
ATOM     23  H2  UNL     1      16.587  26.576 -21.584  1.00  0.00     0.219 HD
ENDBRANCH   2  22
TORSDOF 4
ENDMDL
