MODEL 1
REMARK VINA RESULT: -5.334345152      0.000      0.000
REMARK  4 active torsions:
REMARK  status: ('A' for Active; 'I' for Inactive)
REMARK    1  A    between atoms: N1_2  and  C2_4 
REMARK    2  A    between atoms: C3_7  and  N3_8 
REMARK    3  A    between atoms: C4_13  and  N5_14 
REMARK    4  A    between atoms: N5_14  and  C5_16 
ROOT
HETATM    1  C2  UNL     1       1.174  14.729  14.374  1.00  0.00     0.706 A 
HETATM    2  N2  UNL     1       0.542  13.557  14.545  1.00  0.00    -0.022 N 
ATOM      3  H2  UNL     1       0.479  12.910  13.759  1.00  0.00     0.203 HD
HETATM    4  C3  UNL     1      -0.010  13.210  15.722  1.00  0.00     0.705 A 
HETATM    5  N4  UNL     1       0.065  14.046  16.759  1.00  0.00    -0.022 N 
ATOM      6  H4  UNL     1      -0.352  13.786  17.653  1.00  0.00     0.203 HD
HETATM    7  C4  UNL     1       0.695  15.241  16.628  1.00  0.00     0.707 A 
HETATM    8  N6  UNL     1       1.235  15.552  15.435  1.00  0.00    -0.022 N 
ATOM      9  H6  UNL     1       1.709  16.448  15.332  1.00  0.00     0.203 HD
ENDROOT
BRANCH   7  10
HETATM   10  N5  UNL     1       0.801  16.087  17.584  1.00  0.00    -0.221 N 
ATOM     11  H5  UNL     1       0.239  16.936  17.522  1.00  0.00     0.178 HD
BRANCH  10  12
HETATM   12  C5  UNL     1       1.642  15.942  18.734  1.00  0.00     0.091 C 
HETATM   13  C6  UNL     1       0.954  16.666  19.887  1.00  0.00     0.032 C 
HETATM   14  C7  UNL     1       2.975  16.604  18.433  1.00  0.00     0.032 C 
ENDBRANCH  10  12
ENDBRANCH   7  10
BRANCH   4  15
HETATM   15  N3  UNL     1      -0.616  12.066  15.857  1.00  0.00    -0.234 N 
ATOM     16  H32 UNL     1      -0.675  11.429  15.064  1.00  0.00     0.174 HD
ATOM     17  H31 UNL     1      -1.033  11.802  16.750  1.00  0.00     0.174 HD
ENDBRANCH   4  15
BRANCH   1  18
HETATM   18  N1  UNL     1       1.685  15.016  13.235  1.00  0.00    -0.229 N 
HETATM   19  C1  UNL     1       2.120  14.060  12.266  1.00  0.00     0.165 C 
ATOM     20  H1  UNL     1       1.789  16.003  13.001  1.00  0.00     0.177 HD
ENDBRANCH   1  18
TORSDOF 4
ENDMDL
MODEL 2
REMARK VINA RESULT: -5.145748374      1.006      4.664
REMARK  4 active torsions:
REMARK  status: ('A' for Active; 'I' for Inactive)
REMARK    1  A    between atoms: N1_2  and  C2_4 
REMARK    2  A    between atoms: C3_7  and  N3_8 
REMARK    3  A    between atoms: C4_13  and  N5_14 
REMARK    4  A    between atoms: N5_14  and  C5_16 
ROOT
HETATM    1  C2  UNL     1       0.619  15.521  17.040  1.00  0.00     0.706 A 
HETATM    2  N2  UNL     1       0.167  14.258  17.109  1.00  0.00    -0.022 N 
ATOM      3  H2  UNL     1      -0.201  13.912  17.994  1.00  0.00     0.203 HD
HETATM    4  C3  UNL     1       0.186  13.437  16.043  1.00  0.00     0.705 A 
HETATM    5  N4  UNL     1       0.664  13.876  14.878  1.00  0.00    -0.022 N 
ATOM      6  H4  UNL     1       0.679  13.256  14.068  1.00  0.00     0.203 HD
HETATM    7  C4  UNL     1       1.129  15.146  14.767  1.00  0.00     0.707 A 
HETATM    8  N6  UNL     1       1.094  15.937  15.855  1.00  0.00    -0.022 N 
ATOM      9  H6  UNL     1       1.443  16.892  15.776  1.00  0.00     0.203 HD
ENDROOT
BRANCH   7  10
HETATM   10  N5  UNL     1       1.601  15.628  13.677  1.00  0.00    -0.221 N 
ATOM     11  H5  UNL     1       2.353  16.313  13.756  1.00  0.00     0.178 HD
BRANCH  10  12
HETATM   12  C5  UNL     1       1.162  15.286  12.358  1.00  0.00     0.091 C 
HETATM   13  C6  UNL     1       2.139  14.248  11.815  1.00  0.00     0.032 C 
HETATM   14  C7  UNL     1       1.213  16.538  11.501  1.00  0.00     0.032 C 
ENDBRANCH  10  12
ENDBRANCH   7  10
BRANCH   4  15
HETATM   15  N3  UNL     1      -0.258  12.217  16.140  1.00  0.00    -0.234 N 
ATOM     16  H32 UNL     1      -0.954  11.878  15.476  1.00  0.00     0.174 HD
ATOM     17  H31 UNL     1       0.084  11.597  16.875  1.00  0.00     0.174 HD
ENDBRANCH   4  15
BRANCH   1  18
HETATM   18  N1  UNL     1       0.580  16.267  18.081  1.00  0.00    -0.229 N 
HETATM   19  C1  UNL     1       1.602  16.339  19.077  1.00  0.00     0.165 C 
ATOM     20  H1  UNL     1      -0.243  16.854  18.209  1.00  0.00     0.177 HD
ENDBRANCH   1  18
TORSDOF 4
ENDMDL
MODEL 3
REMARK VINA RESULT: -4.982337191      5.774      6.834
REMARK  4 active torsions:
REMARK  status: ('A' for Active; 'I' for Inactive)
REMARK    1  A    between atoms: N1_2  and  C2_4 
REMARK    2  A    between atoms: C3_7  and  N3_8 
REMARK    3  A    between atoms: C4_13  and  N5_14 
REMARK    4  A    between atoms: N5_14  and  C5_16 
ROOT
HETATM    1  C2  UNL     1       4.430  10.805  19.754  1.00  0.00     0.706 A 
HETATM    2  N2  UNL     1       5.725  10.464  19.667  1.00  0.00    -0.022 N 
ATOM      3  H2  UNL     1       5.971   9.482  19.543  1.00  0.00     0.203 HD
HETATM    4  C3  UNL     1       6.710  11.379  19.736  1.00  0.00     0.705 A 
HETATM    5  N4  UNL     1       6.404  12.668  19.896  1.00  0.00    -0.022 N 
ATOM      6  H4  UNL     1       7.147  13.364  19.949  1.00  0.00     0.203 HD
HETATM    7  C4  UNL     1       5.107  13.054  19.989  1.00  0.00     0.707 A 
HETATM    8  N6  UNL     1       4.151  12.110  19.915  1.00  0.00    -0.022 N 
ATOM      9  H6  UNL     1       3.175  12.396  19.985  1.00  0.00     0.203 HD
ENDROOT
BRANCH   7  10
HETATM   10  N5  UNL     1       4.748  14.275  20.144  1.00  0.00    -0.221 N 
ATOM     11  H5  UNL     1       5.220  14.812  20.870  1.00  0.00     0.178 HD
BRANCH  10  12
HETATM   12  C5  UNL     1       3.738  14.947  19.382  1.00  0.00     0.091 C 
HETATM   13  C6  UNL     1       4.350  16.252  18.882  1.00  0.00     0.032 C 
HETATM   14  C7  UNL     1       2.570  15.247  20.305  1.00  0.00     0.032 C 
ENDBRANCH  10  12
ENDBRANCH   7  10
BRANCH   4  15
HETATM   15  N3  UNL     1       7.956  11.017  19.648  1.00  0.00    -0.234 N 
ATOM     16  H32 UNL     1       8.192  10.103  19.263  1.00  0.00     0.174 HD
ATOM     17  H31 UNL     1       8.701  11.640  19.961  1.00  0.00     0.174 HD
ENDBRANCH   4  15
BRANCH   1  18
HETATM   18  N1  UNL     1       3.527   9.899  19.682  1.00  0.00    -0.229 N 
HETATM   19  C1  UNL     1       3.778   8.495  19.604  1.00  0.00     0.165 C 
ATOM     20  H1  UNL     1       2.554  10.203  19.681  1.00  0.00     0.177 HD
ENDBRANCH   1  18
TORSDOF 4
ENDMDL
MODEL 4
REMARK VINA RESULT: -4.774144826      6.716      7.711
REMARK  4 active torsions:
REMARK  status: ('A' for Active; 'I' for Inactive)
REMARK    1  A    between atoms: N1_2  and  C2_4 
REMARK    2  A    between atoms: C3_7  and  N3_8 
REMARK    3  A    between atoms: C4_13  and  N5_14 
REMARK    4  A    between atoms: N5_14  and  C5_16 
ROOT
HETATM    1  C2  UNL     1       5.173  12.825  19.678  1.00  0.00     0.706 A 
HETATM    2  N2  UNL     1       4.363  12.579  18.636  1.00  0.00    -0.022 N 
ATOM      3  H2  UNL     1       3.659  13.272  18.382  1.00  0.00     0.203 HD
HETATM    4  C3  UNL     1       4.450  11.445  17.917  1.00  0.00     0.705 A 
HETATM    5  N4  UNL     1       5.366  10.528  18.237  1.00  0.00    -0.022 N 
ATOM      6  H4  UNL     1       5.435   9.668  17.694  1.00  0.00     0.203 HD
HETATM    7  C4  UNL     1       6.205  10.739  19.283  1.00  0.00     0.707 A 
HETATM    8  N6  UNL     1       6.086  11.885  19.978  1.00  0.00    -0.022 N 
ATOM      9  H6  UNL     1       6.714  12.047  20.764  1.00  0.00     0.203 HD
ENDROOT
BRANCH   7  10
HETATM   10  N5  UNL     1       7.104   9.899  19.641  1.00  0.00    -0.221 N 
ATOM     11  H5  UNL     1       8.074  10.213  19.613  1.00  0.00     0.178 HD
BRANCH  10  12
HETATM   12  C5  UNL     1       6.862   8.556  20.076  1.00  0.00     0.091 C 
HETATM   13  C6  UNL     1       6.645   7.712  18.824  1.00  0.00     0.032 C 
HETATM   14  C7  UNL     1       5.602   8.553  20.924  1.00  0.00     0.032 C 
ENDBRANCH  10  12
ENDBRANCH   7  10
BRANCH   4  15
HETATM   15  N3  UNL     1       3.650  11.234  16.913  1.00  0.00    -0.234 N 
ATOM     16  H32 UNL     1       3.049  11.988  16.579  1.00  0.00     0.174 HD
ATOM     17  H31 UNL     1       3.618  10.322  16.457  1.00  0.00     0.174 HD
ENDBRANCH   4  15
BRANCH   1  18
HETATM   18  N1  UNL     1       5.053  13.919  20.333  1.00  0.00    -0.229 N 
HETATM   19  C1  UNL     1       3.975  14.846  20.191  1.00  0.00     0.165 C 
ATOM     20  H1  UNL     1       5.783  14.146  21.007  1.00  0.00     0.177 HD
ENDBRANCH   1  18
TORSDOF 4
ENDMDL
MODEL 5
REMARK VINA RESULT: -4.762274901      1.974      5.132
REMARK  4 active torsions:
REMARK  status: ('A' for Active; 'I' for Inactive)
REMARK    1  A    between atoms: N1_2  and  C2_4 
REMARK    2  A    between atoms: C3_7  and  N3_8 
REMARK    3  A    between atoms: C4_13  and  N5_14 
REMARK    4  A    between atoms: N5_14  and  C5_16 
ROOT
HETATM    1  C2  UNL     1       2.692  15.593  19.073  1.00  0.00     0.706 A 
HETATM    2  N2  UNL     1       1.924  16.291  19.924  1.00  0.00    -0.022 N 
ATOM      3  H2  UNL     1       2.324  16.605  20.808  1.00  0.00     0.203 HD
HETATM    4  C3  UNL     1       0.642  16.590  19.645  1.00  0.00     0.705 A 
HETATM    5  N4  UNL     1       0.105  16.187  18.492  1.00  0.00    -0.022 N 
ATOM      6  H4  UNL     1      -0.866  16.412  18.278  1.00  0.00     0.203 HD
HETATM    7  C4  UNL     1       0.848  15.479  17.605  1.00  0.00     0.707 A 
HETATM    8  N6  UNL     1       2.126  15.200  17.920  1.00  0.00    -0.022 N 
ATOM      9  H6  UNL     1       2.688  14.668  17.256  1.00  0.00     0.203 HD
ENDROOT
BRANCH   7  10
HETATM   10  N5  UNL     1       0.392  15.063  16.482  1.00  0.00    -0.221 N 
ATOM     11  H5  UNL     1      -0.440  15.526  16.115  1.00  0.00     0.178 HD
BRANCH  10  12
HETATM   12  C5  UNL     1       0.950  14.002  15.699  1.00  0.00     0.091 C 
HETATM   13  C6  UNL     1       1.205  14.563  14.303  1.00  0.00     0.032 C 
HETATM   14  C7  UNL     1      -0.070  12.880  15.625  1.00  0.00     0.032 C 
ENDBRANCH  10  12
ENDBRANCH   7  10
BRANCH   4  15
HETATM   15  N3  UNL     1      -0.078  17.269  20.490  1.00  0.00    -0.234 N 
ATOM     16  H32 UNL     1      -0.351  16.845  21.377  1.00  0.00     0.174 HD
ATOM     17  H31 UNL     1      -0.372  18.222  20.274  1.00  0.00     0.174 HD
ENDBRANCH   4  15
BRANCH   1  18
HETATM   18  N1  UNL     1       3.909  15.332  19.382  1.00  0.00    -0.229 N 
HETATM   19  C1  UNL     1       4.396  14.052  19.787  1.00  0.00     0.165 C 
ATOM     20  H1  UNL     1       4.580  16.098  19.334  1.00  0.00     0.177 HD
ENDBRANCH   1  18
TORSDOF 4
ENDMDL
