MODEL 1
REMARK VINA RESULT: -6.587268288      0.000      0.000
REMARK  12 active torsions:
REMARK  status: ('A' for Active; 'I' for Inactive)
REMARK    1  A    between atoms: O1_2  and  C2_3 
REMARK    2  A    between atoms: C2_3  and  C3_5 
REMARK    3  A    between atoms: C5_12  and  O4_13 
REMARK    4  A    between atoms: C5_12  and  C6_15 
REMARK    5  A    between atoms: C8_21  and  N4_22 
REMARK    6  A    between atoms: N4_22  and  C9_24 
REMARK    7  A    between atoms: C11_26  and  S2_27 
REMARK    8  A    between atoms: S2_27  and  O8_30 
REMARK    9  A    between atoms: C14_35  and  S3_36 
REMARK   10  A    between atoms: S3_36  and  C15_37 
REMARK   11  A    between atoms: C15_37  and  C16_38 
REMARK       I    between atoms: C16_38  and  N6_40 
REMARK   12  A    between atoms: N6_40  and  N7_42 
ROOT
HETATM    1  N4  UNL     1      22.282  -8.560 -19.566  1.00  0.00    -0.341 N 
ATOM      2  H4  UNL     1      21.300  -8.350 -19.744  1.00  0.00     0.167 HD
ENDROOT
BRANCH   1   3
HETATM    3  C8  UNL     1      22.961  -9.299 -20.571  1.00  0.00     0.127 A 
HETATM    4  C6  UNL     1      22.594 -10.630 -20.796  1.00  0.00     0.093 A 
HETATM    5  S1  UNL     1      23.618 -11.048 -22.100  1.00  0.00    -0.025 SA
HETATM    6  C7  UNL     1      24.444  -9.568 -22.303  1.00  0.00     0.290 A 
HETATM    7  O5  UNL     1      25.361  -9.252 -23.146  1.00  0.00    -0.260 OA
HETATM    8  N3  UNL     1      23.889  -8.818 -21.354  1.00  0.00    -0.302 N 
ATOM      9  H3  UNL     1      24.194  -7.851 -21.237  1.00  0.00     0.171 HD
BRANCH   4  10
HETATM   10  C5  UNL     1      21.633 -11.531 -20.158  1.00  0.00     0.244 C 
HETATM   11  N2  UNL     1      20.243 -11.114 -20.285  1.00  0.00    -0.301 N 
HETATM   12  C4  UNL     1      19.312 -12.167 -19.934  1.00  0.00     0.319 C 
ATOM     13  H2  UNL     1      19.957 -10.183 -20.587  1.00  0.00     0.167 HD
HETATM   14  N1  UNL     1      19.916 -13.357 -19.451  1.00  0.00    -0.324 N 
HETATM   15  O3  UNL     1      18.087 -12.015 -20.055  1.00  0.00    -0.247 OA
HETATM   16  C3  UNL     1      21.139 -13.373 -18.654  1.00  0.00     0.264 C 
ATOM     17  H1  UNL     1      19.472 -14.248 -19.672  1.00  0.00     0.165 HD
HETATM   18  C19 UNL     1      21.895 -12.031 -18.800  1.00  0.00     0.327 C 
HETATM   19  F1  UNL     1      21.390 -11.284 -17.752  1.00  0.00    -0.198 F 
HETATM   20  F2  UNL     1      23.230 -12.357 -18.587  1.00  0.00    -0.198 F 
BRANCH  16  21
HETATM   21  C2  UNL     1      20.662 -13.518 -17.241  1.00  0.00     0.287 C 
HETATM   22  O2  UNL     1      19.756 -12.828 -16.723  1.00  0.00    -0.263 OA
BRANCH  21  23
HETATM   23  O1  UNL     1      21.265 -14.486 -16.440  1.00  0.00    -0.325 OA
HETATM   24  C1  UNL     1      22.326 -15.313 -16.865  1.00  0.00     0.213 C 
ENDBRANCH  21  23
ENDBRANCH  16  21
BRANCH  10  25
HETATM   25  O4  UNL     1      21.655 -12.734 -20.969  1.00  0.00    -0.361 OA
ATOM     26  H4  UNL     1      22.153 -12.448 -21.725  1.00  0.00     0.213 HD
ENDBRANCH  10  25
ENDBRANCH   4  10
ENDBRANCH   1   3
BRANCH   1  27
HETATM   27  C9  UNL     1      22.810  -8.086 -18.354  1.00  0.00     0.036 A 
HETATM   28  C10 UNL     1      22.511  -6.916 -17.709  1.00  0.00     0.057 A 
HETATM   29  C11 UNL     1      23.044  -6.495 -16.516  1.00  0.00     0.116 A 
HETATM   30  C13 UNL     1      23.988  -7.294 -15.858  1.00  0.00     0.075 A 
HETATM   31  N5  UNL     1      24.584  -7.015 -14.728  1.00  0.00    -0.343 N 
HETATM   32  C17 UNL     1      24.318  -8.469 -16.470  1.00  0.00     0.038 A 
HETATM   33  C14 UNL     1      25.472  -7.858 -14.220  1.00  0.00     0.113 A 
ATOM     34  H5  UNL     1      24.365  -6.148 -14.237  1.00  0.00     0.167 HD
HETATM   35  S4  UNL     1      25.477  -9.107 -15.381  1.00  0.00    -0.063 SA
HETATM   36  C18 UNL     1      23.768  -8.869 -17.666  1.00  0.00     0.051 A 
BRANCH  29  37
HETATM   37  S2  UNL     1      22.535  -4.944 -15.898  1.00  0.00     0.300 S 
HETATM   38  O6  UNL     1      23.707  -4.141 -15.419  1.00  0.00    -0.193 OA
HETATM   39  O7  UNL     1      21.653  -5.173 -14.688  1.00  0.00    -0.193 OA
BRANCH  37  40
HETATM   40  O8  UNL     1      21.643  -4.115 -17.034  1.00  0.00    -0.277 OA
HETATM   41  C12 UNL     1      22.184  -2.841 -17.184  1.00  0.00     0.225 C 
ENDBRANCH  37  40
ENDBRANCH  29  37
BRANCH  33  42
HETATM   42  S3  UNL     1      26.375  -7.718 -12.670  1.00  0.00    -0.095 SA
BRANCH  42  43
HETATM   43  C15 UNL     1      25.310  -7.108 -11.346  1.00  0.00     0.185 C 
BRANCH  43  44
HETATM   44  C16 UNL     1      24.781  -5.753 -11.569  1.00  0.00     0.245 C 
HETATM   45  O9  UNL     1      25.510  -4.750 -11.429  1.00  0.00    -0.271 OA
HETATM   46  N6  UNL     1      23.427  -5.589 -11.947  1.00  0.00    -0.276 N 
ATOM     47  H6  UNL     1      22.836  -6.413 -12.058  1.00  0.00     0.189 HD
BRANCH  46  48
HETATM   48  N7  UNL     1      22.877  -4.305 -12.174  1.00  0.00    -0.343 N 
ATOM     49  H72 UNL     1      21.972  -4.241 -12.641  1.00  0.00     0.176 HD
ATOM     50  H71 UNL     1      23.366  -3.460 -11.881  1.00  0.00     0.176 HD
ENDBRANCH  46  48
ENDBRANCH  43  44
ENDBRANCH  42  43
ENDBRANCH  33  42
ENDBRANCH   1  27
TORSDOF 12
ENDMDL
MODEL 2
REMARK VINA RESULT: -6.583145039      3.500      6.513
REMARK  12 active torsions:
REMARK  status: ('A' for Active; 'I' for Inactive)
REMARK    1  A    between atoms: O1_2  and  C2_3 
REMARK    2  A    between atoms: C2_3  and  C3_5 
REMARK    3  A    between atoms: C5_12  and  O4_13 
REMARK    4  A    between atoms: C5_12  and  C6_15 
REMARK    5  A    between atoms: C8_21  and  N4_22 
REMARK    6  A    between atoms: N4_22  and  C9_24 
REMARK    7  A    between atoms: C11_26  and  S2_27 
REMARK    8  A    between atoms: S2_27  and  O8_30 
REMARK    9  A    between atoms: C14_35  and  S3_36 
REMARK   10  A    between atoms: S3_36  and  C15_37 
REMARK   11  A    between atoms: C15_37  and  C16_38 
REMARK       I    between atoms: C16_38  and  N6_40 
REMARK   12  A    between atoms: N6_40  and  N7_42 
ROOT
HETATM    1  N4  UNL     1      22.480  -8.898 -16.002  1.00  0.00    -0.341 N 
ATOM      2  H4  UNL     1      21.479  -8.748 -15.876  1.00  0.00     0.167 HD
ENDROOT
BRANCH   1   3
HETATM    3  C8  UNL     1      22.931  -9.050 -17.340  1.00  0.00     0.127 A 
HETATM    4  C6  UNL     1      23.554  -7.968 -17.971  1.00  0.00     0.093 A 
HETATM    5  S1  UNL     1      23.959  -8.647 -19.487  1.00  0.00    -0.025 SA
HETATM    6  C7  UNL     1      23.343 -10.224 -19.270  1.00  0.00     0.290 A 
HETATM    7  O5  UNL     1      23.346 -11.222 -20.079  1.00  0.00    -0.260 OA
HETATM    8  N3  UNL     1      22.854 -10.154 -18.034  1.00  0.00    -0.302 N 
ATOM      9  H3  UNL     1      22.412 -10.976 -17.623  1.00  0.00     0.171 HD
BRANCH   4  10
HETATM   10  C5  UNL     1      23.830  -6.589 -17.565  1.00  0.00     0.244 C 
HETATM   11  N2  UNL     1      24.925  -6.451 -16.615  1.00  0.00    -0.301 N 
HETATM   12  C4  UNL     1      25.379  -5.081 -16.483  1.00  0.00     0.319 C 
ATOM     13  H2  UNL     1      25.329  -7.233 -16.098  1.00  0.00     0.167 HD
HETATM   14  N1  UNL     1      24.623  -4.132 -17.221  1.00  0.00    -0.324 N 
HETATM   15  O3  UNL     1      26.353  -4.786 -15.774  1.00  0.00    -0.247 OA
HETATM   16  C3  UNL     1      23.186  -4.250 -17.450  1.00  0.00     0.264 C 
ATOM     17  H1  UNL     1      25.111  -3.326 -17.611  1.00  0.00     0.165 HD
HETATM   18  C19 UNL     1      22.717  -5.702 -17.196  1.00  0.00     0.327 C 
HETATM   19  F1  UNL     1      22.359  -5.674 -15.861  1.00  0.00    -0.198 F 
HETATM   20  F2  UNL     1      21.602  -5.857 -18.011  1.00  0.00    -0.198 F 
BRANCH  16  21
HETATM   21  C2  UNL     1      22.570  -3.346 -16.425  1.00  0.00     0.287 C 
HETATM   22  O2  UNL     1      23.154  -2.936 -15.397  1.00  0.00    -0.263 OA
BRANCH  21  23
HETATM   23  O1  UNL     1      21.255  -2.931 -16.622  1.00  0.00    -0.325 OA
HETATM   24  C1  UNL     1      20.778  -2.360 -17.820  1.00  0.00     0.213 C 
ENDBRANCH  21  23
ENDBRANCH  16  21
BRANCH  10  25
HETATM   25  O4  UNL     1      24.385  -5.956 -18.747  1.00  0.00    -0.361 OA
ATOM     26  H4  UNL     1      24.427  -6.686 -19.354  1.00  0.00     0.213 HD
ENDBRANCH  10  25
ENDBRANCH   4  10
ENDBRANCH   1   3
BRANCH   1  27
HETATM   27  C9  UNL     1      23.256  -8.932 -14.833  1.00  0.00     0.036 A 
HETATM   28  C10 UNL     1      23.188  -8.090 -13.755  1.00  0.00     0.057 A 
HETATM   29  C11 UNL     1      23.961  -8.166 -12.623  1.00  0.00     0.116 A 
HETATM   30  C13 UNL     1      24.926  -9.176 -12.509  1.00  0.00     0.075 A 
HETATM   31  N5  UNL     1      25.735  -9.360 -11.498  1.00  0.00    -0.343 N 
HETATM   32  C17 UNL     1      25.030 -10.035 -13.564  1.00  0.00     0.038 A 
HETATM   33  C14 UNL     1      26.615 -10.352 -11.526  1.00  0.00     0.113 A 
ATOM     34  H5  UNL     1      25.690  -8.741 -10.689  1.00  0.00     0.167 HD
HETATM   35  S4  UNL     1      26.297 -11.064 -13.042  1.00  0.00    -0.063 SA
HETATM   36  C18 UNL     1      24.242  -9.939 -14.687  1.00  0.00     0.051 A 
BRANCH  29  37
HETATM   37  S2  UNL     1      23.718  -6.957 -11.388  1.00  0.00     0.300 S 
HETATM   38  O6  UNL     1      24.998  -6.244 -11.069  1.00  0.00    -0.193 OA
HETATM   39  O7  UNL     1      23.289  -7.651 -10.111  1.00  0.00    -0.193 OA
BRANCH  37  40
HETATM   40  O8  UNL     1      22.513  -5.894 -11.825  1.00  0.00    -0.277 OA
HETATM   41  C12 UNL     1      23.091  -4.807 -12.475  1.00  0.00     0.225 C 
ENDBRANCH  37  40
ENDBRANCH  29  37
BRANCH  33  42
HETATM   42  S3  UNL     1      27.787 -10.832 -10.247  1.00  0.00    -0.095 SA
BRANCH  42  43
HETATM   43  C15 UNL     1      27.279 -10.211  -8.629  1.00  0.00     0.185 C 
BRANCH  43  44
HETATM   44  C16 UNL     1      26.837  -8.807  -8.630  1.00  0.00     0.245 C 
HETATM   45  O9  UNL     1      27.521  -7.921  -9.184  1.00  0.00    -0.271 OA
HETATM   46  N6  UNL     1      25.622  -8.461  -7.993  1.00  0.00    -0.276 N 
ATOM     47  H6  UNL     1      25.069  -9.189  -7.541  1.00  0.00     0.189 HD
BRANCH  46  48
HETATM   48  N7  UNL     1      25.158  -7.124  -7.971  1.00  0.00    -0.343 N 
ATOM     49  H72 UNL     1      25.028  -6.641  -8.860  1.00  0.00     0.176 HD
ATOM     50  H71 UNL     1      24.957  -6.647  -7.092  1.00  0.00     0.176 HD
ENDBRANCH  46  48
ENDBRANCH  43  44
ENDBRANCH  42  43
ENDBRANCH  33  42
ENDBRANCH   1  27
TORSDOF 12
ENDMDL
MODEL 3
REMARK VINA RESULT: -6.542208341      4.510      8.341
REMARK  12 active torsions:
REMARK  status: ('A' for Active; 'I' for Inactive)
REMARK    1  A    between atoms: O1_2  and  C2_3 
REMARK    2  A    between atoms: C2_3  and  C3_5 
REMARK    3  A    between atoms: C5_12  and  O4_13 
REMARK    4  A    between atoms: C5_12  and  C6_15 
REMARK    5  A    between atoms: C8_21  and  N4_22 
REMARK    6  A    between atoms: N4_22  and  C9_24 
REMARK    7  A    between atoms: C11_26  and  S2_27 
REMARK    8  A    between atoms: S2_27  and  O8_30 
REMARK    9  A    between atoms: C14_35  and  S3_36 
REMARK   10  A    between atoms: S3_36  and  C15_37 
REMARK   11  A    between atoms: C15_37  and  C16_38 
REMARK       I    between atoms: C16_38  and  N6_40 
REMARK   12  A    between atoms: N6_40  and  N7_42 
ROOT
HETATM    1  N4  UNL     1      24.260  -5.591 -17.254  1.00  0.00    -0.341 N 
ATOM      2  H4  UNL     1      25.227  -5.902 -17.348  1.00  0.00     0.167 HD
ENDROOT
BRANCH   1   3
HETATM    3  C8  UNL     1      23.297  -6.600 -16.989  1.00  0.00     0.127 A 
HETATM    4  C6  UNL     1      23.017  -6.936 -15.660  1.00  0.00     0.093 A 
HETATM    5  S1  UNL     1      21.789  -8.109 -15.858  1.00  0.00    -0.025 SA
HETATM    6  C7  UNL     1      21.682  -8.129 -17.561  1.00  0.00     0.290 A 
HETATM    7  O5  UNL     1      20.921  -8.827 -18.325  1.00  0.00    -0.260 OA
HETATM    8  N3  UNL     1      22.599  -7.226 -17.899  1.00  0.00    -0.302 N 
ATOM      9  H3  UNL     1      22.759  -7.019 -18.885  1.00  0.00     0.171 HD
BRANCH   4  10
HETATM   10  C5  UNL     1      23.559  -6.492 -14.375  1.00  0.00     0.244 C 
HETATM   11  N2  UNL     1      22.982  -5.252 -13.875  1.00  0.00    -0.301 N 
HETATM   12  C4  UNL     1      23.296  -5.015 -12.480  1.00  0.00     0.319 C 
ATOM     13  H2  UNL     1      22.420  -4.619 -14.444  1.00  0.00     0.167 HD
HETATM   14  N1  UNL     1      24.168  -5.970 -11.896  1.00  0.00    -0.324 N 
HETATM   15  O3  UNL     1      22.826  -4.045 -11.867  1.00  0.00    -0.247 OA
HETATM   16  C3  UNL     1      25.243  -6.632 -12.630  1.00  0.00     0.264 C 
ATOM     17  H1  UNL     1      24.037  -6.207 -10.913  1.00  0.00     0.165 HD
HETATM   18  C19 UNL     1      25.013  -6.506 -14.154  1.00  0.00     0.327 C 
HETATM   19  F1  UNL     1      25.702  -5.350 -14.469  1.00  0.00    -0.198 F 
HETATM   20  F2  UNL     1      25.636  -7.625 -14.696  1.00  0.00    -0.198 F 
BRANCH  16  21
HETATM   21  C2  UNL     1      26.477  -5.870 -12.252  1.00  0.00     0.287 C 
HETATM   22  O2  UNL     1      27.646  -6.259 -12.468  1.00  0.00    -0.263 OA
BRANCH  21  23
HETATM   23  O1  UNL     1      26.320  -4.642 -11.613  1.00  0.00    -0.325 OA
HETATM   24  C1  UNL     1      27.012  -4.267 -10.442  1.00  0.00     0.213 C 
ENDBRANCH  21  23
ENDBRANCH  16  21
BRANCH  10  25
HETATM   25  O4  UNL     1      23.065  -7.457 -13.409  1.00  0.00    -0.361 OA
ATOM     26  H4  UNL     1      23.748  -8.115 -13.428  1.00  0.00     0.213 HD
ENDBRANCH  10  25
ENDBRANCH   4  10
ENDBRANCH   1   3
BRANCH   1  27
HETATM   27  C9  UNL     1      24.032  -4.213 -17.402  1.00  0.00     0.036 A 
HETATM   28  C10 UNL     1      22.857  -3.585 -17.716  1.00  0.00     0.057 A 
HETATM   29  C11 UNL     1      22.675  -2.230 -17.840  1.00  0.00     0.116 A 
HETATM   30  C13 UNL     1      23.758  -1.365 -17.641  1.00  0.00     0.075 A 
HETATM   31  N5  UNL     1      23.733  -0.061 -17.738  1.00  0.00    -0.343 N 
HETATM   32  C17 UNL     1      24.952  -1.950 -17.330  1.00  0.00     0.038 A 
HETATM   33  C14 UNL     1      24.841   0.640 -17.537  1.00  0.00     0.113 A 
ATOM     34  H5  UNL     1      22.862   0.417 -17.967  1.00  0.00     0.167 HD
HETATM   35  S4  UNL     1      25.978  -0.584 -17.197  1.00  0.00    -0.063 SA
HETATM   36  C18 UNL     1      25.107  -3.312 -17.210  1.00  0.00     0.051 A 
BRANCH  29  37
HETATM   37  S2  UNL     1      21.087  -1.659 -18.282  1.00  0.00     0.300 S 
HETATM   38  O6  UNL     1      20.631  -0.563 -17.366  1.00  0.00    -0.193 OA
HETATM   39  O7  UNL     1      20.099  -2.795 -18.110  1.00  0.00    -0.193 OA
BRANCH  37  40
HETATM   40  O8  UNL     1      21.048  -1.183 -19.878  1.00  0.00    -0.277 OA
HETATM   41  C12 UNL     1      20.922   0.202 -19.928  1.00  0.00     0.225 C 
ENDBRANCH  37  40
ENDBRANCH  29  37
BRANCH  33  42
HETATM   42  S3  UNL     1      25.042   2.429 -17.563  1.00  0.00    -0.095 SA
BRANCH  42  43
HETATM   43  C15 UNL     1      25.563   3.051 -15.951  1.00  0.00     0.185 C 
BRANCH  43  44
HETATM   44  C16 UNL     1      24.539   3.839 -15.245  1.00  0.00     0.245 C 
HETATM   45  O9  UNL     1      23.336   3.511 -15.289  1.00  0.00    -0.271 OA
HETATM   46  N6  UNL     1      24.929   4.984 -14.509  1.00  0.00    -0.276 N 
ATOM     47  H6  UNL     1      25.913   5.248 -14.479  1.00  0.00     0.189 HD
BRANCH  46  48
HETATM   48  N7  UNL     1      23.979   5.769 -13.815  1.00  0.00    -0.343 N 
ATOM     49  H72 UNL     1      24.163   6.002 -12.839  1.00  0.00     0.176 HD
ATOM     50  H71 UNL     1      23.129   6.099 -14.271  1.00  0.00     0.176 HD
ENDBRANCH  46  48
ENDBRANCH  43  44
ENDBRANCH  42  43
ENDBRANCH  33  42
ENDBRANCH   1  27
TORSDOF 12
ENDMDL
MODEL 4
REMARK VINA RESULT: -6.500629324      2.689      3.796
REMARK  12 active torsions:
REMARK  status: ('A' for Active; 'I' for Inactive)
REMARK    1  A    between atoms: O1_2  and  C2_3 
REMARK    2  A    between atoms: C2_3  and  C3_5 
REMARK    3  A    between atoms: C5_12  and  O4_13 
REMARK    4  A    between atoms: C5_12  and  C6_15 
REMARK    5  A    between atoms: C8_21  and  N4_22 
REMARK    6  A    between atoms: N4_22  and  C9_24 
REMARK    7  A    between atoms: C11_26  and  S2_27 
REMARK    8  A    between atoms: S2_27  and  O8_30 
REMARK    9  A    between atoms: C14_35  and  S3_36 
REMARK   10  A    between atoms: S3_36  and  C15_37 
REMARK   11  A    between atoms: C15_37  and  C16_38 
REMARK       I    between atoms: C16_38  and  N6_40 
REMARK   12  A    between atoms: N6_40  and  N7_42 
ROOT
HETATM    1  N4  UNL     1      22.520  -7.950 -16.661  1.00  0.00    -0.341 N 
ATOM      2  H4  UNL     1      21.552  -8.267 -16.704  1.00  0.00     0.167 HD
ENDROOT
BRANCH   1   3
HETATM    3  C8  UNL     1      23.039  -7.347 -17.837  1.00  0.00     0.127 A 
HETATM    4  C6  UNL     1      22.930  -8.030 -19.053  1.00  0.00     0.093 A 
HETATM    5  S1  UNL     1      23.616  -6.904 -20.139  1.00  0.00    -0.025 SA
HETATM    6  C7  UNL     1      24.004  -5.650 -19.047  1.00  0.00     0.290 A 
HETATM    7  O5  UNL     1      24.555  -4.512 -19.270  1.00  0.00    -0.260 OA
HETATM    8  N3  UNL     1      23.582  -6.160 -17.892  1.00  0.00    -0.302 N 
ATOM      9  H3  UNL     1      23.684  -5.615 -17.036  1.00  0.00     0.171 HD
BRANCH   4  10
HETATM   10  C5  UNL     1      22.409  -9.348 -19.423  1.00  0.00     0.244 C 
HETATM   11  N2  UNL     1      20.956  -9.435 -19.445  1.00  0.00    -0.301 N 
HETATM   12  C4  UNL     1      20.479 -10.628 -20.115  1.00  0.00     0.319 C 
ATOM     13  H2  UNL     1      20.340  -8.733 -19.035  1.00  0.00     0.167 HD
HETATM   14  N1  UNL     1      21.500 -11.521 -20.535  1.00  0.00    -0.324 N 
HETATM   15  O3  UNL     1      19.269 -10.831 -20.295  1.00  0.00    -0.247 OA
HETATM   16  C3  UNL     1      22.745 -11.724 -19.798  1.00  0.00     0.264 C 
ATOM     17  H1  UNL     1      21.356 -12.048 -21.396  1.00  0.00     0.165 HD
HETATM   18  C19 UNL     1      22.985 -10.556 -18.813  1.00  0.00     0.327 C 
HETATM   19  F1  UNL     1      22.389 -11.013 -17.652  1.00  0.00    -0.198 F 
HETATM   20  F2  UNL     1      24.367 -10.492 -18.677  1.00  0.00    -0.198 F 
BRANCH  16  21
HETATM   21  C2  UNL     1      22.517 -12.985 -19.022  1.00  0.00     0.287 C 
HETATM   22  O2  UNL     1      23.408 -13.610 -18.405  1.00  0.00    -0.263 OA
BRANCH  21  23
HETATM   23  O1  UNL     1      21.226 -13.507 -18.982  1.00  0.00    -0.325 OA
HETATM   24  C1  UNL     1      20.510 -13.752 -17.792  1.00  0.00     0.213 C 
ENDBRANCH  21  23
ENDBRANCH  16  21
BRANCH  10  25
HETATM   25  O4  UNL     1      22.734  -9.495 -20.830  1.00  0.00    -0.361 OA
ATOM     26  H4  UNL     1      23.059 -10.387 -20.860  1.00  0.00     0.213 HD
ENDBRANCH  10  25
ENDBRANCH   4  10
ENDBRANCH   1   3
BRANCH   1  27
HETATM   27  C9  UNL     1      23.189  -8.159 -15.444  1.00  0.00     0.036 A 
HETATM   28  C10 UNL     1      23.152  -7.378 -14.321  1.00  0.00     0.057 A 
HETATM   29  C11 UNL     1      23.815  -7.626 -13.144  1.00  0.00     0.116 A 
HETATM   30  C13 UNL     1      24.621  -8.766 -13.030  1.00  0.00     0.075 A 
HETATM   31  N5  UNL     1      25.315  -9.120 -11.980  1.00  0.00    -0.343 N 
HETATM   32  C17 UNL     1      24.690  -9.572 -14.130  1.00  0.00     0.038 A 
HETATM   33  C14 UNL     1      26.051 -10.223 -12.012  1.00  0.00     0.113 A 
ATOM     34  H5  UNL     1      25.291  -8.548 -11.136  1.00  0.00     0.167 HD
HETATM   35  S4  UNL     1      25.759 -10.797 -13.591  1.00  0.00    -0.063 SA
HETATM   36  C18 UNL     1      24.013  -9.301 -15.298  1.00  0.00     0.051 A 
BRANCH  29  37
HETATM   37  S2  UNL     1      23.643  -6.466 -11.852  1.00  0.00     0.300 S 
HETATM   38  O6  UNL     1      23.785  -7.124 -10.512  1.00  0.00    -0.193 OA
HETATM   39  O7  UNL     1      22.240  -5.897 -11.899  1.00  0.00    -0.193 OA
BRANCH  37  40
HETATM   40  O8  UNL     1      24.716  -5.206 -12.036  1.00  0.00    -0.277 OA
HETATM   41  C12 UNL     1      25.898  -5.526 -11.376  1.00  0.00     0.225 C 
ENDBRANCH  37  40
ENDBRANCH  29  37
BRANCH  33  42
HETATM   42  S3  UNL     1      27.041 -10.935 -10.688  1.00  0.00    -0.095 SA
BRANCH  42  43
HETATM   43  C15 UNL     1      26.419 -10.438  -9.067  1.00  0.00     0.185 C 
BRANCH  43  44
HETATM   44  C16 UNL     1      26.332  -8.981  -8.872  1.00  0.00     0.245 C 
HETATM   45  O9  UNL     1      27.170  -8.215  -9.390  1.00  0.00    -0.271 OA
HETATM   46  N6  UNL     1      25.282  -8.448  -8.086  1.00  0.00    -0.276 N 
ATOM     47  H6  UNL     1      24.602  -9.080  -7.665  1.00  0.00     0.189 HD
BRANCH  46  48
HETATM   48  N7  UNL     1      25.158  -7.055  -7.874  1.00  0.00    -0.343 N 
ATOM     49  H72 UNL     1      25.876  -6.583  -7.323  1.00  0.00     0.176 HD
ATOM     50  H71 UNL     1      24.374  -6.528  -8.257  1.00  0.00     0.176 HD
ENDBRANCH  46  48
ENDBRANCH  43  44
ENDBRANCH  42  43
ENDBRANCH  33  42
ENDBRANCH   1  27
TORSDOF 12
ENDMDL
MODEL 5
REMARK VINA RESULT: -6.487247129      4.421      7.467
REMARK  12 active torsions:
REMARK  status: ('A' for Active; 'I' for Inactive)
REMARK    1  A    between atoms: O1_2  and  C2_3 
REMARK    2  A    between atoms: C2_3  and  C3_5 
REMARK    3  A    between atoms: C5_12  and  O4_13 
REMARK    4  A    between atoms: C5_12  and  C6_15 
REMARK    5  A    between atoms: C8_21  and  N4_22 
REMARK    6  A    between atoms: N4_22  and  C9_24 
REMARK    7  A    between atoms: C11_26  and  S2_27 
REMARK    8  A    between atoms: S2_27  and  O8_30 
REMARK    9  A    between atoms: C14_35  and  S3_36 
REMARK   10  A    between atoms: S3_36  and  C15_37 
REMARK   11  A    between atoms: C15_37  and  C16_38 
REMARK       I    between atoms: C16_38  and  N6_40 
REMARK   12  A    between atoms: N6_40  and  N7_42 
ROOT
HETATM    1  N4  UNL     1      22.130  -5.713 -16.549  1.00  0.00    -0.341 N 
ATOM      2  H4  UNL     1      21.602  -6.478 -16.969  1.00  0.00     0.167 HD
ENDROOT
BRANCH   1   3
HETATM    3  C8  UNL     1      22.513  -5.882 -15.192  1.00  0.00     0.127 A 
HETATM    4  C6  UNL     1      23.041  -7.111 -14.786  1.00  0.00     0.093 A 
HETATM    5  S1  UNL     1      23.396  -6.803 -13.143  1.00  0.00    -0.025 SA
HETATM    6  C7  UNL     1      22.876  -5.180 -13.036  1.00  0.00     0.290 A 
HETATM    7  O5  UNL     1      22.886  -4.382 -12.030  1.00  0.00    -0.260 OA
HETATM    8  N3  UNL     1      22.455  -4.951 -14.278  1.00  0.00    -0.302 N 
ATOM      9  H3  UNL     1      22.081  -4.033 -14.518  1.00  0.00     0.171 HD
BRANCH   4  10
HETATM   10  C5  UNL     1      23.267  -8.385 -15.472  1.00  0.00     0.244 C 
HETATM   11  N2  UNL     1      24.630  -8.576 -15.950  1.00  0.00    -0.301 N 
HETATM   12  C4  UNL     1      24.900  -9.950 -16.327  1.00  0.00     0.319 C 
ATOM     13  H2  UNL     1      25.319  -7.827 -16.012  1.00  0.00     0.167 HD
HETATM   14  N1  UNL     1      23.780 -10.818 -16.249  1.00  0.00    -0.324 N 
HETATM   15  O3  UNL     1      26.030 -10.312 -16.685  1.00  0.00    -0.247 OA
HETATM   16  C3  UNL     1      22.412 -10.394 -16.536  1.00  0.00     0.264 C 
ATOM     17  H1  UNL     1      23.939 -11.789 -15.980  1.00  0.00     0.165 HD
HETATM   18  C19 UNL     1      22.302  -8.852 -16.477  1.00  0.00     0.327 C 
HETATM   19  F1  UNL     1      22.539  -8.483 -17.788  1.00  0.00    -0.198 F 
HETATM   20  F2  UNL     1      20.981  -8.609 -16.119  1.00  0.00    -0.198 F 
BRANCH  16  21
HETATM   21  C2  UNL     1      22.165 -10.854 -17.940  1.00  0.00     0.287 C 
HETATM   22  O2  UNL     1      23.027 -11.386 -18.675  1.00  0.00    -0.263 OA
BRANCH  21  23
HETATM   23  O1  UNL     1      20.891 -10.677 -18.475  1.00  0.00    -0.325 OA
HETATM   24  C1  UNL     1      20.637 -10.385 -19.831  1.00  0.00     0.213 C 
ENDBRANCH  21  23
ENDBRANCH  16  21
BRANCH  10  25
HETATM   25  O4  UNL     1      23.178  -9.390 -14.428  1.00  0.00    -0.361 OA
ATOM     26  H4  UNL     1      22.463  -9.930 -14.742  1.00  0.00     0.213 HD
ENDBRANCH  10  25
ENDBRANCH   4  10
ENDBRANCH   1   3
BRANCH   1  27
HETATM   27  C9  UNL     1      22.397  -4.612 -17.379  1.00  0.00     0.036 A 
HETATM   28  C10 UNL     1      21.698  -3.438 -17.466  1.00  0.00     0.057 A 
HETATM   29  C11 UNL     1      22.000  -2.379 -18.286  1.00  0.00     0.116 A 
HETATM   30  C13 UNL     1      23.113  -2.454 -19.133  1.00  0.00     0.075 A 
HETATM   31  N5  UNL     1      23.511  -1.532 -19.970  1.00  0.00    -0.343 N 
HETATM   32  C17 UNL     1      23.837  -3.610 -19.081  1.00  0.00     0.038 A 
HETATM   33  C14 UNL     1      24.579  -1.740 -20.728  1.00  0.00     0.113 A 
ATOM     34  H5  UNL     1      23.000  -0.652 -20.040  1.00  0.00     0.167 HD
HETATM   35  S4  UNL     1      25.053  -3.306 -20.248  1.00  0.00    -0.063 SA
HETATM   36  C18 UNL     1      23.513  -4.658 -18.249  1.00  0.00     0.051 A 
BRANCH  29  37
HETATM   37  S2  UNL     1      20.941  -0.993 -18.250  1.00  0.00     0.300 S 
HETATM   38  O6  UNL     1      20.335  -0.739 -19.599  1.00  0.00    -0.193 OA
HETATM   39  O7  UNL     1      21.764   0.235 -17.916  1.00  0.00    -0.193 OA
BRANCH  37  40
HETATM   40  O8  UNL     1      19.774  -1.165 -17.074  1.00  0.00    -0.277 OA
HETATM   41  C12 UNL     1      18.561  -0.708 -17.579  1.00  0.00     0.225 C 
ENDBRANCH  37  40
ENDBRANCH  29  37
BRANCH  33  42
HETATM   42  S3  UNL     1      25.342  -0.611 -21.905  1.00  0.00    -0.095 SA
BRANCH  42  43
HETATM   43  C15 UNL     1      24.719   1.071 -21.695  1.00  0.00     0.185 C 
BRANCH  43  44
HETATM   44  C16 UNL     1      23.262   1.158 -21.501  1.00  0.00     0.245 C 
HETATM   45  O9  UNL     1      22.479   0.543 -22.253  1.00  0.00    -0.271 OA
HETATM   46  N6  UNL     1      22.748   1.952 -20.448  1.00  0.00    -0.276 N 
ATOM     47  H6  UNL     1      23.394   2.453 -19.839  1.00  0.00     0.189 HD
BRANCH  46  48
HETATM   48  N7  UNL     1      21.355   2.063 -20.225  1.00  0.00    -0.343 N 
ATOM     49  H72 UNL     1      20.804   1.207 -20.165  1.00  0.00     0.176 HD
ATOM     50  H71 UNL     1      20.906   2.973 -20.125  1.00  0.00     0.176 HD
ENDBRANCH  46  48
ENDBRANCH  43  44
ENDBRANCH  42  43
ENDBRANCH  33  42
ENDBRANCH   1  27
TORSDOF 12
ENDMDL
