MODEL 1
REMARK VINA RESULT: -6.491277718      0.000      0.000
REMARK  1 active torsions:
REMARK  status: ('A' for Active; 'I' for Inactive)
REMARK    1  A    between atoms: C2_2  and  C3_5 
ROOT
HETATM    1  C3  UNL     1     -17.432 -11.030  68.871  1.00  0.00     0.221 C 
HETATM    2  N1  UNL     1     -16.234 -10.731  68.105  1.00  0.00    -0.300 N 
ATOM      3  H1  UNL     1     -15.355 -11.217  67.932  1.00  0.00     0.173 HD
HETATM    4  S1  UNL     1     -16.896  -9.230  67.612  1.00  0.00     0.298 S 
HETATM    5  O1  UNL     1     -16.935  -8.153  68.616  1.00  0.00    -0.200 OA
HETATM    6  O2  UNL     1     -16.735  -8.862  66.195  1.00  0.00    -0.200 OA
HETATM    7  C4  UNL     1     -18.244 -10.392  67.804  1.00  0.00     0.384 C 
HETATM    8  F1  UNL     1     -18.439 -11.211  66.736  1.00  0.00    -0.184 F 
HETATM    9  F2  UNL     1     -19.365  -9.704  68.221  1.00  0.00    -0.184 F 
ENDROOT
BRANCH   1  10
HETATM   10  C2  UNL     1     -17.684 -12.481  69.111  1.00  0.00     0.137 C 
HETATM   11  C1  UNL     1     -17.177 -12.957  70.445  1.00  0.00     0.053 C 
HETATM   12 CL1  UNL     1     -16.758 -13.441  67.896  1.00  0.00    -0.100 Cl
HETATM   13 CL2  UNL     1     -19.374 -12.976  68.914  1.00  0.00    -0.100 Cl
ENDBRANCH   1  10
TORSDOF 1
ENDMDL
MODEL 2
REMARK VINA RESULT: -6.385386863      1.941      2.565
REMARK  1 active torsions:
REMARK  status: ('A' for Active; 'I' for Inactive)
REMARK    1  A    between atoms: C2_2  and  C3_5 
ROOT
HETATM    1  C3  UNL     1     -17.422 -11.220  68.212  1.00  0.00     0.221 C 
HETATM    2  N1  UNL     1     -18.263 -10.065  68.474  1.00  0.00    -0.300 N 
ATOM      3  H1  UNL     1     -19.191  -9.931  68.874  1.00  0.00     0.173 HD
HETATM    4  S1  UNL     1     -17.064  -9.019  67.838  1.00  0.00     0.298 S 
HETATM    5  O1  UNL     1     -16.903  -8.997  66.375  1.00  0.00    -0.200 OA
HETATM    6  O2  UNL     1     -16.784  -7.786  68.593  1.00  0.00    -0.200 OA
HETATM    7  C4  UNL     1     -16.236 -10.415  68.595  1.00  0.00     0.384 C 
HETATM    8  F1  UNL     1     -16.085 -10.317  69.943  1.00  0.00    -0.184 F 
HETATM    9  F2  UNL     1     -15.074 -10.670  67.897  1.00  0.00    -0.184 F 
ENDROOT
BRANCH   1  10
HETATM   10  C2  UNL     1     -17.707 -12.416  69.057  1.00  0.00     0.137 C 
HETATM   11  C1  UNL     1     -16.957 -13.644  68.617  1.00  0.00     0.053 C 
HETATM   12 CL1  UNL     1     -19.449 -12.851  68.880  1.00  0.00    -0.100 Cl
HETATM   13 CL2  UNL     1     -17.458 -12.166  70.793  1.00  0.00    -0.100 Cl
ENDBRANCH   1  10
TORSDOF 1
ENDMDL
MODEL 3
REMARK VINA RESULT: -6.157240312      1.926      2.624
REMARK  1 active torsions:
REMARK  status: ('A' for Active; 'I' for Inactive)
REMARK    1  A    between atoms: C2_2  and  C3_5 
ROOT
HETATM    1  C3  UNL     1     -17.527 -11.258  68.193  1.00  0.00     0.221 C 
HETATM    2  N1  UNL     1     -18.324 -10.080  68.493  1.00  0.00    -0.300 N 
ATOM      3  H1  UNL     1     -19.243  -9.923  68.905  1.00  0.00     0.173 HD
HETATM    4  S1  UNL     1     -17.093  -9.062  67.873  1.00  0.00     0.298 S 
HETATM    5  O1  UNL     1     -16.943  -9.008  66.409  1.00  0.00    -0.200 OA
HETATM    6  O2  UNL     1     -16.761  -7.860  68.657  1.00  0.00    -0.200 OA
HETATM    7  C4  UNL     1     -16.309 -10.506  68.586  1.00  0.00     0.384 C 
HETATM    8  F1  UNL     1     -16.144 -10.448  69.934  1.00  0.00    -0.184 F 
HETATM    9  F2  UNL     1     -15.163 -10.785  67.871  1.00  0.00    -0.184 F 
ENDROOT
BRANCH   1  10
HETATM   10  C2  UNL     1     -17.848 -12.464  69.011  1.00  0.00     0.137 C 
HETATM   11  C1  UNL     1     -19.293 -12.873  68.921  1.00  0.00     0.053 C 
HETATM   12 CL1  UNL     1     -17.587 -12.072  70.753  1.00  0.00    -0.100 Cl
HETATM   13 CL2  UNL     1     -16.818 -13.869  68.685  1.00  0.00    -0.100 Cl
ENDBRANCH   1  10
TORSDOF 1
ENDMDL
MODEL 4
REMARK VINA RESULT: -6.076224371      7.455      8.039
REMARK  1 active torsions:
REMARK  status: ('A' for Active; 'I' for Inactive)
REMARK    1  A    between atoms: C2_2  and  C3_5 
ROOT
HETATM    1  C3  UNL     1     -16.026  -8.382  74.129  1.00  0.00     0.221 C 
HETATM    2  N1  UNL     1     -16.427  -9.263  75.213  1.00  0.00    -0.300 N 
ATOM      3  H1  UNL     1     -16.446 -10.274  75.343  1.00  0.00     0.173 HD
HETATM    4  S1  UNL     1     -16.851  -7.917  76.182  1.00  0.00     0.298 S 
HETATM    5  O1  UNL     1     -18.098  -7.212  75.840  1.00  0.00    -0.200 OA
HETATM    6  O2  UNL     1     -16.429  -7.948  77.593  1.00  0.00    -0.200 OA
HETATM    7  C4  UNL     1     -15.484  -7.432  75.133  1.00  0.00     0.384 C 
HETATM    8  F1  UNL     1     -14.260  -7.805  75.596  1.00  0.00    -0.184 F 
HETATM    9  F2  UNL     1     -15.608  -6.092  74.835  1.00  0.00    -0.184 F 
ENDROOT
BRANCH   1  10
HETATM   10  C2  UNL     1     -15.040  -8.962  73.172  1.00  0.00     0.137 C 
HETATM   11  C1  UNL     1     -15.659  -9.382  71.866  1.00  0.00     0.053 C 
HETATM   12 CL1  UNL     1     -14.372 -10.483  73.876  1.00  0.00    -0.100 Cl
HETATM   13 CL2  UNL     1     -13.633  -7.934  72.851  1.00  0.00    -0.100 Cl
ENDBRANCH   1  10
TORSDOF 1
ENDMDL
MODEL 5
REMARK VINA RESULT: -6.028494381      7.217      7.744
REMARK  1 active torsions:
REMARK  status: ('A' for Active; 'I' for Inactive)
REMARK    1  A    between atoms: C2_2  and  C3_5 
ROOT
HETATM    1  C3  UNL     1     -15.194  -9.143  75.175  1.00  0.00     0.221 C 
HETATM    2  N1  UNL     1     -15.492  -7.726  75.060  1.00  0.00    -0.300 N 
ATOM      3  H1  UNL     1     -15.094  -6.951  74.529  1.00  0.00     0.173 HD
HETATM    4  S1  UNL     1     -16.782  -7.883  76.176  1.00  0.00     0.298 S 
HETATM    5  O1  UNL     1     -16.423  -8.040  77.596  1.00  0.00    -0.200 OA
HETATM    6  O2  UNL     1     -18.041  -7.196  75.844  1.00  0.00    -0.200 OA
HETATM    7  C4  UNL     1     -16.649  -9.419  75.265  1.00  0.00     0.384 C 
HETATM    8  F1  UNL     1     -17.259  -9.406  74.050  1.00  0.00    -0.184 F 
HETATM    9  F2  UNL     1     -17.024 -10.457  76.092  1.00  0.00    -0.184 F 
ENDROOT
BRANCH   1  10
HETATM   10  C2  UNL     1     -14.483  -9.738  74.006  1.00  0.00     0.137 C 
HETATM   11  C1  UNL     1     -12.989  -9.784  74.183  1.00  0.00     0.053 C 
HETATM   12 CL1  UNL     1     -14.744  -8.682  72.567  1.00  0.00    -0.100 Cl
HETATM   13 CL2  UNL     1     -15.067 -11.341  73.527  1.00  0.00    -0.100 Cl
ENDBRANCH   1  10
TORSDOF 1
ENDMDL
