MODEL 1
REMARK VINA RESULT: -5.117987945      0.000      0.000
REMARK  4 active torsions:
REMARK  status: ('A' for Active; 'I' for Inactive)
REMARK    1  A    between atoms: N1_1  and  S1_4 
REMARK    2  A    between atoms: S1_4  and  N2_7 
REMARK    3  A    between atoms: N2_7  and  C1_9 
REMARK    4  A    between atoms: C3_11  and  C4_12 
ROOT
HETATM    1  N2  UNL     1       0.063   3.808  10.432  1.00  0.00    -0.297 N 
ATOM      2  H2  UNL     1       0.678   3.469  11.171  1.00  0.00     0.174 HD
ENDROOT
BRANCH   1   3
HETATM    3  S1  UNL     1       0.472   5.172   9.545  1.00  0.00     0.313 S 
HETATM    4  O1  UNL     1      -0.133   5.323   8.219  1.00  0.00    -0.183 OA
HETATM    5  O2  UNL     1       0.089   6.393  10.367  1.00  0.00    -0.183 OA
BRANCH   3   6
HETATM    6  N1  UNL     1       2.202   5.238   9.358  1.00  0.00    -0.312 N 
ATOM      7  H12 UNL     1       2.781   4.495   8.966  1.00  0.00     0.170 HD
ATOM      8  H11 UNL     1       2.523   6.141   9.708  1.00  0.00     0.170 HD
ENDBRANCH   3   6
ENDBRANCH   1   3
BRANCH   1   9
HETATM    9  C1  UNL     1      -1.145   3.135  10.141  1.00  0.00     0.106 A 
HETATM   10  C2  UNL     1      -2.469   3.468  10.628  1.00  0.00     0.040 A 
HETATM   11  C3  UNL     1      -1.710   2.344  11.342  1.00  0.00     0.072 A 
BRANCH  11  12
HETATM   12  C4  UNL     1      -2.206   0.987  11.114  1.00  0.00     0.237 C 
HETATM   13  O3  UNL     1      -3.399   0.741  11.081  1.00  0.00    -0.306 OA
ENDBRANCH  11  12
ENDBRANCH   1   9
TORSDOF 4
ENDMDL
MODEL 2
REMARK VINA RESULT: -5.059203850      1.120      1.235
REMARK  4 active torsions:
REMARK  status: ('A' for Active; 'I' for Inactive)
REMARK    1  A    between atoms: N1_1  and  S1_4 
REMARK    2  A    between atoms: S1_4  and  N2_7 
REMARK    3  A    between atoms: N2_7  and  C1_9 
REMARK    4  A    between atoms: C3_11  and  C4_12 
ROOT
HETATM    1  N2  UNL     1       0.118   3.425  10.033  1.00  0.00    -0.297 N 
ATOM      2  H2  UNL     1       0.859   2.742  10.193  1.00  0.00     0.174 HD
ENDROOT
BRANCH   1   3
HETATM    3  S1  UNL     1       0.481   4.941   9.414  1.00  0.00     0.313 S 
HETATM    4  O1  UNL     1      -0.101   5.300   8.118  1.00  0.00    -0.183 OA
HETATM    5  O2  UNL     1       0.020   5.979  10.427  1.00  0.00    -0.183 OA
BRANCH   3   6
HETATM    6  N1  UNL     1       2.209   5.116   9.296  1.00  0.00    -0.312 N 
ATOM      7  H12 UNL     1       2.836   4.462   8.826  1.00  0.00     0.170 HD
ATOM      8  H11 UNL     1       2.473   5.976   9.776  1.00  0.00     0.170 HD
ENDBRANCH   3   6
ENDBRANCH   1   3
BRANCH   1   9
HETATM    9  C1  UNL     1      -1.226   3.107  10.330  1.00  0.00     0.106 A 
HETATM   10  C2  UNL     1      -1.717   2.379  11.483  1.00  0.00     0.040 A 
HETATM   11  C3  UNL     1      -1.549   1.604  10.171  1.00  0.00     0.072 A 
BRANCH  11  12
HETATM   12  C4  UNL     1      -2.784   1.223   9.486  1.00  0.00     0.237 C 
HETATM   13  O3  UNL     1      -2.770   0.520   8.491  1.00  0.00    -0.306 OA
ENDBRANCH  11  12
ENDBRANCH   1   9
TORSDOF 4
ENDMDL
MODEL 3
REMARK VINA RESULT: -4.853742771      2.460      2.598
REMARK  4 active torsions:
REMARK  status: ('A' for Active; 'I' for Inactive)
REMARK    1  A    between atoms: N1_1  and  S1_4 
REMARK    2  A    between atoms: S1_4  and  N2_7 
REMARK    3  A    between atoms: N2_7  and  C1_9 
REMARK    4  A    between atoms: C3_11  and  C4_12 
ROOT
HETATM    1  N2  UNL     1      -2.542   4.485  10.339  1.00  0.00    -0.297 N 
ATOM      2  H2  UNL     1      -2.593   5.099  11.152  1.00  0.00     0.174 HD
ENDROOT
BRANCH   1   3
HETATM    3  S1  UNL     1      -2.349   5.125   8.801  1.00  0.00     0.313 S 
HETATM    4  O1  UNL     1      -3.220   4.612   7.741  1.00  0.00    -0.183 OA
HETATM    5  O2  UNL     1      -2.570   6.627   8.892  1.00  0.00    -0.183 OA
BRANCH   3   6
HETATM    6  N1  UNL     1      -0.698   4.910   8.293  1.00  0.00    -0.312 N 
ATOM      7  H12 UNL     1      -0.303   4.044   7.925  1.00  0.00     0.170 HD
ATOM      8  H11 UNL     1      -0.208   5.793   8.430  1.00  0.00     0.170 HD
ENDBRANCH   3   6
ENDBRANCH   1   3
BRANCH   1   9
HETATM    9  C1  UNL     1      -2.635   3.083  10.495  1.00  0.00     0.106 A 
HETATM   10  C2  UNL     1      -2.548   2.334  11.732  1.00  0.00     0.040 A 
HETATM   11  C3  UNL     1      -1.290   2.418  10.862  1.00  0.00     0.072 A 
BRANCH  11  12
HETATM   12  C4  UNL     1      -0.905   1.189  10.167  1.00  0.00     0.237 C 
HETATM   13  O3  UNL     1       0.265   0.889  10.002  1.00  0.00    -0.306 OA
ENDBRANCH  11  12
ENDBRANCH   1   9
TORSDOF 4
ENDMDL
MODEL 4
REMARK VINA RESULT: -4.786967052      4.139      6.111
REMARK  4 active torsions:
REMARK  status: ('A' for Active; 'I' for Inactive)
REMARK    1  A    between atoms: N1_1  and  S1_4 
REMARK    2  A    between atoms: S1_4  and  N2_7 
REMARK    3  A    between atoms: N2_7  and  C1_9 
REMARK    4  A    between atoms: C3_11  and  C4_12 
ROOT
HETATM    1  N2  UNL     1      -4.728   1.972  11.407  1.00  0.00    -0.297 N 
ATOM      2  H2  UNL     1      -5.070   2.761  11.956  1.00  0.00     0.174 HD
ENDROOT
BRANCH   1   3
HETATM    3  S1  UNL     1      -5.769   0.739  10.952  1.00  0.00     0.313 S 
HETATM    4  O1  UNL     1      -5.182  -0.575  10.676  1.00  0.00    -0.183 OA
HETATM    5  O2  UNL     1      -6.792   0.561  12.064  1.00  0.00    -0.183 OA
BRANCH   3   6
HETATM    6  N1  UNL     1      -6.667   1.234   9.545  1.00  0.00    -0.312 N 
ATOM      7  H12 UNL     1      -6.270   1.694   8.725  1.00  0.00     0.170 HD
ATOM      8  H11 UNL     1      -7.645   0.984   9.690  1.00  0.00     0.170 HD
ENDBRANCH   3   6
ENDBRANCH   1   3
BRANCH   1   9
HETATM    9  C1  UNL     1      -3.371   1.905  11.019  1.00  0.00     0.106 A 
HETATM   10  C2  UNL     1      -2.210   2.048  11.875  1.00  0.00     0.040 A 
HETATM   11  C3  UNL     1      -2.652   3.271  11.065  1.00  0.00     0.072 A 
BRANCH  11  12
HETATM   12  C4  UNL     1      -1.790   3.646   9.943  1.00  0.00     0.237 C 
HETATM   13  O3  UNL     1      -0.624   3.957  10.111  1.00  0.00    -0.306 OA
ENDBRANCH  11  12
ENDBRANCH   1   9
TORSDOF 4
ENDMDL
MODEL 5
REMARK VINA RESULT: -4.753823977      1.824      2.077
REMARK  4 active torsions:
REMARK  status: ('A' for Active; 'I' for Inactive)
REMARK    1  A    between atoms: N1_1  and  S1_4 
REMARK    2  A    between atoms: S1_4  and  N2_7 
REMARK    3  A    between atoms: N2_7  and  C1_9 
REMARK    4  A    between atoms: C3_11  and  C4_12 
ROOT
HETATM    1  N2  UNL     1      -1.011   4.124   9.665  1.00  0.00    -0.297 N 
ATOM      2  H2  UNL     1      -0.057   4.004  10.005  1.00  0.00     0.174 HD
ENDROOT
BRANCH   1   3
HETATM    3  S1  UNL     1      -1.431   5.477   8.769  1.00  0.00     0.313 S 
HETATM    4  O1  UNL     1      -2.386   6.414   9.365  1.00  0.00    -0.183 OA
HETATM    5  O2  UNL     1      -0.155   6.250   8.469  1.00  0.00    -0.183 OA
BRANCH   3   6
HETATM    6  N1  UNL     1      -2.063   4.972   7.227  1.00  0.00    -0.312 N 
ATOM      7  H12 UNL     1      -2.923   4.440   7.089  1.00  0.00     0.170 HD
ATOM      8  H11 UNL     1      -1.425   5.299   6.502  1.00  0.00     0.170 HD
ENDBRANCH   3   6
ENDBRANCH   1   3
BRANCH   1   9
HETATM    9  C1  UNL     1      -1.997   3.151   9.945  1.00  0.00     0.106 A 
HETATM   10  C2  UNL     1      -2.769   3.014  11.164  1.00  0.00     0.040 A 
HETATM   11  C3  UNL     1      -1.548   2.106  10.990  1.00  0.00     0.072 A 
BRANCH  11  12
HETATM   12  C4  UNL     1      -1.828   0.693  10.731  1.00  0.00     0.237 C 
HETATM   13  O3  UNL     1      -2.696   0.093  11.342  1.00  0.00    -0.306 OA
ENDBRANCH  11  12
ENDBRANCH   1   9
TORSDOF 4
ENDMDL
