MODEL 1
REMARK VINA RESULT: -4.447210192      0.000      0.000
REMARK  2 active torsions:
REMARK  status: ('A' for Active; 'I' for Inactive)
REMARK    1  A    between atoms: C2_2  and  C3_3 
REMARK    2  A    between atoms: C2_2  and  C4_6 
ROOT
HETATM    1  C1  UNL     1      -0.319   4.021  10.278  1.00  0.00     0.024 C 
HETATM    2  C2  UNL     1      -1.561   3.689  10.075  1.00  0.00     0.002 C 
ENDROOT
BRANCH   2   3
HETATM    3  C3  UNL     1      -2.373   4.627   9.270  1.00  0.00     0.260 C 
HETATM    4  N1  UNL     1      -2.323   5.994   9.642  1.00  0.00    -0.058 NA
HETATM    5  O1  UNL     1      -3.072   4.233   8.306  1.00  0.00    -0.271 OA
ENDBRANCH   2   3
BRANCH   2   6
HETATM    6  C4  UNL     1      -2.192   2.467  10.584  1.00  0.00     0.023 A 
HETATM    7  C5  UNL     1      -1.966   2.044  12.004  1.00  0.00     0.010 A 
HETATM    8  C6  UNL     1      -3.291   2.624  11.636  1.00  0.00     0.010 A 
ENDBRANCH   2   6
TORSDOF 2
ENDMDL
MODEL 2
REMARK VINA RESULT: -4.432352958      1.233      1.233
REMARK  2 active torsions:
REMARK  status: ('A' for Active; 'I' for Inactive)
REMARK    1  A    between atoms: C2_2  and  C3_3 
REMARK    2  A    between atoms: C2_2  and  C4_6 
ROOT
HETATM    1  C1  UNL     1      -0.016   4.076  10.273  1.00  0.00     0.024 C 
HETATM    2  C2  UNL     1      -1.272   4.025   9.937  1.00  0.00     0.002 C 
ENDROOT
BRANCH   2   3
HETATM    3  C3  UNL     1      -1.810   5.196   9.211  1.00  0.00     0.260 C 
HETATM    4  N1  UNL     1      -1.495   5.292   7.832  1.00  0.00    -0.058 NA
HETATM    5  O1  UNL     1      -2.511   6.063   9.788  1.00  0.00    -0.271 OA
ENDBRANCH   2   3
BRANCH   2   6
HETATM    6  C4  UNL     1      -2.169   2.903  10.229  1.00  0.00     0.023 A 
HETATM    7  C5  UNL     1      -1.900   2.016  11.407  1.00  0.00     0.010 A 
HETATM    8  C6  UNL     1      -3.027   2.992  11.492  1.00  0.00     0.010 A 
ENDBRANCH   2   6
TORSDOF 2
ENDMDL
MODEL 3
REMARK VINA RESULT: -4.360841162      1.511      1.898
REMARK  2 active torsions:
REMARK  status: ('A' for Active; 'I' for Inactive)
REMARK    1  A    between atoms: C2_2  and  C3_3 
REMARK    2  A    between atoms: C2_2  and  C4_6 
ROOT
HETATM    1  C1  UNL     1      -3.015   3.228   8.823  1.00  0.00     0.024 C 
HETATM    2  C2  UNL     1      -2.638   3.735   9.961  1.00  0.00     0.002 C 
ENDROOT
BRANCH   2   3
HETATM    3  C3  UNL     1      -1.844   4.981   9.899  1.00  0.00     0.260 C 
HETATM    4  N1  UNL     1      -0.449   4.860  10.118  1.00  0.00    -0.058 NA
HETATM    5  O1  UNL     1      -2.379   6.091   9.663  1.00  0.00    -0.271 OA
ENDBRANCH   2   3
BRANCH   2   6
HETATM    6  C4  UNL     1      -2.945   3.159  11.274  1.00  0.00     0.023 A 
HETATM    7  C5  UNL     1      -3.388   1.731  11.379  1.00  0.00     0.010 A 
HETATM    8  C6  UNL     1      -2.002   2.081  11.812  1.00  0.00     0.010 A 
ENDBRANCH   2   6
TORSDOF 2
ENDMDL
MODEL 4
REMARK VINA RESULT: -4.332211441      1.913      2.331
REMARK  2 active torsions:
REMARK  status: ('A' for Active; 'I' for Inactive)
REMARK    1  A    between atoms: C2_2  and  C3_3 
REMARK    2  A    between atoms: C2_2  and  C4_6 
ROOT
HETATM    1  C1  UNL     1      -2.286   4.574   9.911  1.00  0.00     0.024 C 
HETATM    2  C2  UNL     1      -1.106   4.162  10.274  1.00  0.00     0.002 C 
ENDROOT
BRANCH   2   3
HETATM    3  C3  UNL     1       0.039   5.013   9.885  1.00  0.00     0.260 C 
HETATM    4  N1  UNL     1       0.069   6.325  10.421  1.00  0.00    -0.058 NA
HETATM    5  O1  UNL     1       0.940   4.595   9.118  1.00  0.00    -0.271 OA
ENDBRANCH   2   3
BRANCH   2   6
HETATM    6  C4  UNL     1      -0.847   2.931  11.027  1.00  0.00     0.023 A 
HETATM    7  C5  UNL     1      -1.991   2.144  11.590  1.00  0.00     0.010 A 
HETATM    8  C6  UNL     1      -1.278   1.608  10.392  1.00  0.00     0.010 A 
ENDBRANCH   2   6
TORSDOF 2
ENDMDL
MODEL 5
REMARK VINA RESULT: -4.326300971      1.589      1.985
REMARK  2 active torsions:
REMARK  status: ('A' for Active; 'I' for Inactive)
REMARK    1  A    between atoms: C2_2  and  C3_3 
REMARK    2  A    between atoms: C2_2  and  C4_6 
ROOT
HETATM    1  C1  UNL     1      -3.278   2.972   8.603  1.00  0.00     0.024 C 
HETATM    2  C2  UNL     1      -2.763   3.763   9.499  1.00  0.00     0.002 C 
ENDROOT
BRANCH   2   3
HETATM    3  C3  UNL     1      -2.308   5.088   9.026  1.00  0.00     0.260 C 
HETATM    4  N1  UNL     1      -1.806   5.155   7.702  1.00  0.00    -0.058 NA
HETATM    5  O1  UNL     1      -2.363   6.103   9.762  1.00  0.00    -0.271 OA
ENDBRANCH   2   3
BRANCH   2   6
HETATM    6  C4  UNL     1      -2.609   3.428  10.918  1.00  0.00     0.023 A 
HETATM    7  C5  UNL     1      -2.802   2.016  11.379  1.00  0.00     0.010 A 
HETATM    8  C6  UNL     1      -1.413   2.562  11.315  1.00  0.00     0.010 A 
ENDBRANCH   2   6
TORSDOF 2
ENDMDL
