MODEL 1
REMARK VINA RESULT: -5.789158650      0.000      0.000
REMARK  2 active torsions:
REMARK  status: ('A' for Active; 'I' for Inactive)
REMARK       I    between atoms: N1_2  and  C2_4 
REMARK       I    between atoms: C2_4  and  N2_6 
REMARK    1  A    between atoms: N2_6  and  C3_8 
REMARK    2  A    between atoms: C7_15  and  N4_16 
ROOT
HETATM    1  C3  UNL     1      -1.462   2.795  10.059  1.00  0.00     0.318 C 
HETATM    2  N3  UNL     1      -2.016   3.393  11.247  1.00  0.00    -0.052 N 
ATOM      3  H31 UNL     1      -2.006   4.410  11.170  1.00  0.00     0.279 HD
ATOM      4  H32 UNL     1      -1.382   3.269  12.036  1.00  0.00     0.279 HD
HETATM    5  C4  UNL     1      -3.322   2.936  11.585  1.00  0.00     0.235 C 
HETATM    6  C5  UNL     1      -3.678   1.615  10.949  1.00  0.00     0.030 C 
HETATM    7  C6  UNL     1      -2.473   0.719  11.051  1.00  0.00     0.038 C 
HETATM    8  C7  UNL     1      -1.381   1.268  10.177  1.00  0.00     0.233 C 
ENDROOT
BRANCH   1   9
HETATM    9  N2  UNL     1      -0.067   3.241   9.985  1.00  0.00    -0.313 N 
HETATM   10  C2  UNL     1       0.279   4.611   9.953  1.00  0.00     0.317 C 
HETATM   11  N1  UNL     1       1.638   4.975   9.882  1.00  0.00    -0.347 N 
HETATM   12  O1  UNL     1      -0.591   5.510   9.987  1.00  0.00    -0.247 OA
HETATM   13  C1  UNL     1       2.086   6.353   9.845  1.00  0.00     0.151 C 
ATOM     14  H1  UNL     1       2.339   4.235   9.855  1.00  0.00     0.163 HD
ATOM     15  H2  UNL     1       0.676   2.542   9.955  1.00  0.00     0.166 HD
ENDBRANCH   1   9
BRANCH   8  16
HETATM   16  N4  UNL     1      -1.469   0.653   8.868  1.00  0.00    -0.071 N 
ATOM     17  H43 UNL     1      -2.430   0.408   8.629  1.00  0.00     0.274 HD
ATOM     18  H42 UNL     1      -1.292   1.323   8.121  1.00  0.00     0.274 HD
ATOM     19  H41 UNL     1      -0.847  -0.153   8.810  1.00  0.00     0.274 HD
ENDBRANCH   8  16
TORSDOF 2
ENDMDL
MODEL 2
REMARK VINA RESULT: -5.564058828      1.843      2.910
REMARK  2 active torsions:
REMARK  status: ('A' for Active; 'I' for Inactive)
REMARK       I    between atoms: N1_2  and  C2_4 
REMARK       I    between atoms: C2_4  and  N2_6 
REMARK    1  A    between atoms: N2_6  and  C3_8 
REMARK    2  A    between atoms: C7_15  and  N4_16 
ROOT
HETATM    1  C3  UNL     1      -0.289   4.747  10.485  1.00  0.00     0.318 C 
HETATM    2  N3  UNL     1      -0.098   3.358  10.818  1.00  0.00    -0.052 N 
ATOM      3  H31 UNL     1       0.652   3.257  11.502  1.00  0.00     0.279 HD
ATOM      4  H32 UNL     1       0.314   2.857  10.030  1.00  0.00     0.279 HD
HETATM    5  C4  UNL     1      -1.272   2.691  11.268  1.00  0.00     0.235 C 
HETATM    6  C5  UNL     1      -2.549   3.391  10.872  1.00  0.00     0.030 C 
HETATM    7  C6  UNL     1      -2.395   3.850   9.447  1.00  0.00     0.038 C 
HETATM    8  C7  UNL     1      -1.348   4.928   9.391  1.00  0.00     0.233 C 
ENDROOT
BRANCH   1   9
HETATM    9  N2  UNL     1       0.965   5.200   9.872  1.00  0.00    -0.313 N 
HETATM   10  C2  UNL     1       1.393   6.545   9.955  1.00  0.00     0.317 C 
HETATM   11  N1  UNL     1       2.607   6.918   9.345  1.00  0.00    -0.347 N 
HETATM   12  O1  UNL     1       0.722   7.413  10.557  1.00  0.00    -0.247 OA
HETATM   13  C1  UNL     1       3.124   8.272   9.379  1.00  0.00     0.151 C 
ATOM     14  H1  UNL     1       3.146   6.203   8.858  1.00  0.00     0.163 HD
ATOM     15  H2  UNL     1       1.544   4.527   9.371  1.00  0.00     0.166 HD
ENDBRANCH   1   9
BRANCH   8  16
HETATM   16  N4  UNL     1      -1.994   6.219   9.518  1.00  0.00    -0.071 N 
ATOM     17  H43 UNL     1      -2.623   6.251  10.320  1.00  0.00     0.274 HD
ATOM     18  H42 UNL     1      -1.338   6.944   9.810  1.00  0.00     0.274 HD
ATOM     19  H41 UNL     1      -2.471   6.466   8.651  1.00  0.00     0.274 HD
ENDBRANCH   8  16
TORSDOF 2
ENDMDL
MODEL 3
REMARK VINA RESULT: -5.538637460      3.084      5.644
REMARK  2 active torsions:
REMARK  status: ('A' for Active; 'I' for Inactive)
REMARK       I    between atoms: N1_2  and  C2_4 
REMARK       I    between atoms: C2_4  and  N2_6 
REMARK    1  A    between atoms: N2_6  and  C3_8 
REMARK    2  A    between atoms: C7_15  and  N4_16 
ROOT
HETATM    1  C3  UNL     1      -2.521   1.272   9.602  1.00  0.00     0.318 C 
HETATM    2  N3  UNL     1      -1.105   1.033   9.700  1.00  0.00    -0.052 N 
ATOM      3  H31 UNL     1      -0.731   0.738   8.798  1.00  0.00     0.279 HD
ATOM      4  H32 UNL     1      -0.924   0.192  10.249  1.00  0.00     0.279 HD
HETATM    5  C4  UNL     1      -0.353   2.128  10.213  1.00  0.00     0.235 C 
HETATM    6  C5  UNL     1      -1.190   3.121  10.982  1.00  0.00     0.030 C 
HETATM    7  C6  UNL     1      -2.145   2.341  11.845  1.00  0.00     0.038 C 
HETATM    8  C7  UNL     1      -3.132   1.630  10.962  1.00  0.00     0.233 C 
ENDROOT
BRANCH   1   9
HETATM    9  N2  UNL     1      -3.133  -0.012   9.242  1.00  0.00    -0.313 N 
HETATM   10  C2  UNL     1      -4.289  -0.087   8.431  1.00  0.00     0.317 C 
HETATM   11  N1  UNL     1      -4.829  -1.351   8.121  1.00  0.00    -0.347 N 
HETATM   12  O1  UNL     1      -4.845   0.940   7.982  1.00  0.00    -0.247 OA
HETATM   13  C1  UNL     1      -6.010  -1.524   7.298  1.00  0.00     0.151 C 
ATOM     14  H1  UNL     1      -4.368  -2.181   8.492  1.00  0.00     0.163 HD
ATOM     15  H2  UNL     1      -2.713  -0.875   9.586  1.00  0.00     0.166 HD
ENDBRANCH   1   9
BRANCH   8  16
HETATM   16  N4  UNL     1      -4.300   2.470  10.788  1.00  0.00    -0.071 N 
ATOM     17  H43 UNL     1      -4.561   2.559   9.806  1.00  0.00     0.274 HD
ATOM     18  H42 UNL     1      -5.148   2.017  11.130  1.00  0.00     0.274 HD
ATOM     19  H41 UNL     1      -4.154   3.380  11.225  1.00  0.00     0.274 HD
ENDBRANCH   8  16
TORSDOF 2
ENDMDL
MODEL 4
REMARK VINA RESULT: -5.464472500      3.481      4.814
REMARK  2 active torsions:
REMARK  status: ('A' for Active; 'I' for Inactive)
REMARK       I    between atoms: N1_2  and  C2_4 
REMARK       I    between atoms: C2_4  and  N2_6 
REMARK    1  A    between atoms: N2_6  and  C3_8 
REMARK    2  A    between atoms: C7_15  and  N4_16 
ROOT
HETATM    1  C3  UNL     1      -1.916   4.784   8.806  1.00  0.00     0.318 C 
HETATM    2  N3  UNL     1      -0.619   4.987   8.215  1.00  0.00    -0.052 N 
ATOM      3  H31 UNL     1      -0.669   5.696   7.483  1.00  0.00     0.279 HD
ATOM      4  H32 UNL     1      -0.352   4.175   7.656  1.00  0.00     0.279 HD
HETATM    5  C4  UNL     1       0.412   5.307   9.144  1.00  0.00     0.235 C 
HETATM    6  C5  UNL     1       0.081   4.916  10.563  1.00  0.00     0.030 C 
HETATM    7  C6  UNL     1      -0.558   3.554  10.525  1.00  0.00     0.038 C 
HETATM    8  C7  UNL     1      -1.896   3.660   9.849  1.00  0.00     0.233 C 
ENDROOT
BRANCH   1   9
HETATM    9  N2  UNL     1      -2.785   4.286   7.734  1.00  0.00    -0.313 N 
HETATM   10  C2  UNL     1      -3.023   5.032   6.557  1.00  0.00     0.317 C 
HETATM   11  N1  UNL     1      -3.868   4.498   5.564  1.00  0.00    -0.347 N 
HETATM   12  O1  UNL     1      -2.502   6.155   6.374  1.00  0.00    -0.247 OA
HETATM   13  C1  UNL     1      -4.169   5.191   4.327  1.00  0.00     0.151 C 
ATOM     14  H1  UNL     1      -4.287   3.582   5.724  1.00  0.00     0.163 HD
ATOM     15  H2  UNL     1      -3.231   3.375   7.841  1.00  0.00     0.166 HD
ENDBRANCH   1   9
BRANCH   8  16
HETATM   16  N4  UNL     1      -2.916   3.882  10.854  1.00  0.00    -0.071 N 
ATOM     17  H43 UNL     1      -2.611   3.576  11.778  1.00  0.00     0.274 HD
ATOM     18  H42 UNL     1      -3.041   4.874  11.055  1.00  0.00     0.274 HD
ATOM     19  H41 UNL     1      -3.792   3.438  10.577  1.00  0.00     0.274 HD
ENDBRANCH   8  16
TORSDOF 2
ENDMDL
MODEL 5
REMARK VINA RESULT: -5.460167474      1.792      5.798
REMARK  2 active torsions:
REMARK  status: ('A' for Active; 'I' for Inactive)
REMARK       I    between atoms: N1_2  and  C2_4 
REMARK       I    between atoms: C2_4  and  N2_6 
REMARK    1  A    between atoms: N2_6  and  C3_8 
REMARK    2  A    between atoms: C7_15  and  N4_16 
ROOT
HETATM    1  C3  UNL     1       0.766   6.283   9.922  1.00  0.00     0.318 C 
HETATM    2  N3  UNL     1       0.351   6.658   8.595  1.00  0.00    -0.052 N 
ATOM      3  H31 UNL     1      -0.561   6.255   8.381  1.00  0.00     0.279 HD
ATOM      4  H32 UNL     1       0.922   6.181   7.896  1.00  0.00     0.279 HD
HETATM    5  C4  UNL     1       0.342   8.061   8.352  1.00  0.00     0.235 C 
HETATM    6  C5  UNL     1       1.193   8.843   9.322  1.00  0.00     0.030 C 
HETATM    7  C6  UNL     1       2.476   8.081   9.521  1.00  0.00     0.038 C 
HETATM    8  C7  UNL     1       2.175   6.797  10.243  1.00  0.00     0.233 C 
ENDROOT
BRANCH   1   9
HETATM    9  N2  UNL     1       0.892   4.821   9.918  1.00  0.00    -0.313 N 
HETATM   10  C2  UNL     1      -0.226   3.974  10.095  1.00  0.00     0.317 C 
HETATM   11  N1  UNL     1      -0.039   2.578  10.081  1.00  0.00    -0.347 N 
HETATM   12  O1  UNL     1      -1.378   4.433  10.263  1.00  0.00    -0.247 OA
HETATM   13  C1  UNL     1      -1.126   1.635  10.254  1.00  0.00     0.151 C 
ATOM     14  H1  UNL     1       0.904   2.215   9.942  1.00  0.00     0.163 HD
ATOM     15  H2  UNL     1       1.813   4.404   9.784  1.00  0.00     0.166 HD
ENDBRANCH   1   9
BRANCH   8  16
HETATM   16  N4  UNL     1       2.324   7.012  11.669  1.00  0.00    -0.071 N 
ATOM     17  H43 UNL     1       1.549   6.609  12.196  1.00  0.00     0.274 HD
ATOM     18  H42 UNL     1       3.082   6.452  12.060  1.00  0.00     0.274 HD
ATOM     19  H41 UNL     1       2.443   8.005  11.869  1.00  0.00     0.274 HD
ENDBRANCH   8  16
TORSDOF 2
ENDMDL
