MODEL 1
REMARK VINA RESULT: -6.331896316      0.000      0.000
REMARK  2 active torsions:
REMARK  status: ('A' for Active; 'I' for Inactive)
REMARK    1  A    between atoms: C4_5  and  N1_6 
REMARK       I    between atoms: N1_6  and  C5_8 
REMARK    2  A    between atoms: C5_8  and  C6_10 
ROOT
HETATM    1  N1  UNL     1      11.260  -8.008  -3.715  1.00  0.00    -0.322 N 
ATOM      2  H1  UNL     1      11.327  -8.944  -3.317  1.00  0.00     0.169 HD
HETATM    3  C5  UNL     1      10.573  -7.876  -4.900  1.00  0.00     0.277 C 
HETATM    4  O1  UNL     1      10.413  -6.813  -5.497  1.00  0.00    -0.268 OA
ENDROOT
BRANCH   1   5
HETATM    5  C4  UNL     1      11.902  -6.918  -2.978  1.00  0.00     0.048 A 
HETATM    6  C3  UNL     1      12.237  -5.744  -3.582  1.00  0.00     0.080 A 
HETATM    7  S1  UNL     1      12.948  -4.830  -2.320  1.00  0.00    -0.104 SA
HETATM    8  C2  UNL     1      12.803  -5.953  -1.067  1.00  0.00    -0.013 A 
HETATM    9  C1  UNL     1      13.230  -5.837   0.387  1.00  0.00     0.057 C 
HETATM   10  C7  UNL     1      12.200  -7.031  -1.650  1.00  0.00    -0.022 A 
HETATM   11  C8  UNL     1      11.888  -8.282  -0.822  1.00  0.00     0.052 C 
ENDBRANCH   1   5
BRANCH   3  12
HETATM   12  C6  UNL     1       9.970  -9.081  -5.538  1.00  0.00     0.269 C 
HETATM   13 CL1  UNL     1      11.212 -10.090  -6.301  1.00  0.00    -0.073 Cl
HETATM   14 CL2  UNL     1       9.052 -10.061  -4.412  1.00  0.00    -0.073 Cl
HETATM   15 CL3  UNL     1       8.876  -8.513  -6.828  1.00  0.00    -0.073 Cl
ENDBRANCH   3  12
TORSDOF 2
ENDMDL
MODEL 2
REMARK VINA RESULT: -6.275536074      0.057      1.330
REMARK  2 active torsions:
REMARK  status: ('A' for Active; 'I' for Inactive)
REMARK    1  A    between atoms: C4_5  and  N1_6 
REMARK       I    between atoms: N1_6  and  C5_8 
REMARK    2  A    between atoms: C5_8  and  C6_10 
ROOT
HETATM    1  N1  UNL     1      11.266  -7.995  -3.752  1.00  0.00    -0.322 N 
ATOM      2  H1  UNL     1      11.337  -8.935  -3.362  1.00  0.00     0.169 HD
HETATM    3  C5  UNL     1      10.591  -7.857  -4.943  1.00  0.00     0.277 C 
HETATM    4  O1  UNL     1      10.428  -6.789  -5.531  1.00  0.00    -0.268 OA
ENDROOT
BRANCH   1   5
HETATM    5  C4  UNL     1      11.893  -6.908  -2.998  1.00  0.00     0.048 A 
HETATM    6  C3  UNL     1      12.209  -5.719  -3.583  1.00  0.00     0.080 A 
HETATM    7  S1  UNL     1      12.908  -4.815  -2.307  1.00  0.00    -0.104 SA
HETATM    8  C2  UNL     1      12.781  -5.961  -1.073  1.00  0.00    -0.013 A 
HETATM    9  C1  UNL     1      13.208  -5.861   0.383  1.00  0.00     0.057 C 
HETATM   10  C7  UNL     1      12.194  -7.038  -1.672  1.00  0.00    -0.022 A 
HETATM   11  C8  UNL     1      11.902  -8.307  -0.865  1.00  0.00     0.052 C 
ENDBRANCH   1   5
BRANCH   3  12
HETATM   12  C6  UNL     1      10.002  -9.060  -5.598  1.00  0.00     0.269 C 
HETATM   13 CL1  UNL     1       8.836  -8.599  -6.850  1.00  0.00    -0.073 Cl
HETATM   14 CL2  UNL     1      11.213 -10.112  -6.305  1.00  0.00    -0.073 Cl
HETATM   15 CL3  UNL     1       9.112  -9.969  -4.347  1.00  0.00    -0.073 Cl
ENDBRANCH   3  12
TORSDOF 2
ENDMDL
MODEL 3
REMARK VINA RESULT: -5.919573993      3.590      5.430
REMARK  2 active torsions:
REMARK  status: ('A' for Active; 'I' for Inactive)
REMARK    1  A    between atoms: C4_5  and  N1_6 
REMARK       I    between atoms: N1_6  and  C5_8 
REMARK    2  A    between atoms: C5_8  and  C6_10 
ROOT
HETATM    1  N1  UNL     1      11.709  -7.721  -3.376  1.00  0.00    -0.322 N 
ATOM      2  H1  UNL     1      11.822  -8.584  -2.845  1.00  0.00     0.169 HD
HETATM    3  C5  UNL     1      12.290  -6.585  -2.863  1.00  0.00     0.277 C 
HETATM    4  O1  UNL     1      12.236  -5.476  -3.392  1.00  0.00    -0.268 OA
ENDROOT
BRANCH   1   5
HETATM    5  C4  UNL     1      10.942  -7.798  -4.621  1.00  0.00     0.048 A 
HETATM    6  C3  UNL     1      10.660  -6.687  -5.358  1.00  0.00     0.080 A 
HETATM    7  S1  UNL     1       9.759  -7.298  -6.680  1.00  0.00    -0.104 SA
HETATM    8  C2  UNL     1       9.764  -8.936  -6.267  1.00  0.00    -0.013 A 
HETATM    9  C1  UNL     1       9.140 -10.116  -6.994  1.00  0.00     0.057 C 
HETATM   10  C7  UNL     1      10.470  -8.987  -5.099  1.00  0.00    -0.022 A 
HETATM   11  C8  UNL     1      10.702 -10.327  -4.394  1.00  0.00     0.052 C 
ENDBRANCH   1   5
BRANCH   3  12
HETATM   12  C6  UNL     1      13.044  -6.661  -1.579  1.00  0.00     0.269 C 
HETATM   13 CL1  UNL     1      14.793  -6.690  -1.866  1.00  0.00    -0.073 Cl
HETATM   14 CL2  UNL     1      12.667  -5.343  -0.487  1.00  0.00    -0.073 Cl
HETATM   15 CL3  UNL     1      12.606  -8.202  -0.792  1.00  0.00    -0.073 Cl
ENDBRANCH   3  12
TORSDOF 2
ENDMDL
MODEL 4
REMARK VINA RESULT: -5.887563341      3.588      5.480
REMARK  2 active torsions:
REMARK  status: ('A' for Active; 'I' for Inactive)
REMARK    1  A    between atoms: C4_5  and  N1_6 
REMARK       I    between atoms: N1_6  and  C5_8 
REMARK    2  A    between atoms: C5_8  and  C6_10 
ROOT
HETATM    1  N1  UNL     1      11.671  -7.764  -3.406  1.00  0.00    -0.322 N 
ATOM      2  H1  UNL     1      11.744  -8.612  -2.845  1.00  0.00     0.169 HD
HETATM    3  C5  UNL     1      12.299  -6.637  -2.929  1.00  0.00     0.277 C 
HETATM    4  O1  UNL     1      12.296  -5.545  -3.494  1.00  0.00    -0.268 OA
ENDROOT
BRANCH   1   5
HETATM    5  C4  UNL     1      10.906  -7.849  -4.651  1.00  0.00     0.048 A 
HETATM    6  C3  UNL     1      10.611  -6.741  -5.388  1.00  0.00     0.080 A 
HETATM    7  S1  UNL     1       9.717  -7.362  -6.711  1.00  0.00    -0.104 SA
HETATM    8  C2  UNL     1       9.741  -9.000  -6.298  1.00  0.00    -0.013 A 
HETATM    9  C1  UNL     1       9.132 -10.187  -7.026  1.00  0.00     0.057 C 
HETATM   10  C7  UNL     1      10.448  -9.043  -5.130  1.00  0.00    -0.022 A 
HETATM   11  C8  UNL     1      10.695 -10.381  -4.425  1.00  0.00     0.052 C 
ENDBRANCH   1   5
BRANCH   3  12
HETATM   12  C6  UNL     1      13.045  -6.703  -1.639  1.00  0.00     0.269 C 
HETATM   13 CL1  UNL     1      12.562  -8.123  -0.694  1.00  0.00    -0.073 Cl
HETATM   14 CL2  UNL     1      14.783  -6.726  -1.856  1.00  0.00    -0.073 Cl
HETATM   15 CL3  UNL     1      12.604  -5.256  -0.692  1.00  0.00    -0.073 Cl
ENDBRANCH   3  12
TORSDOF 2
ENDMDL
MODEL 5
REMARK VINA RESULT: -5.709960652      3.965      5.733
REMARK  2 active torsions:
REMARK  status: ('A' for Active; 'I' for Inactive)
REMARK    1  A    between atoms: C4_5  and  N1_6 
REMARK       I    between atoms: N1_6  and  C5_8 
REMARK    2  A    between atoms: C5_8  and  C6_10 
ROOT
HETATM    1  N1  UNL     1      12.078  -7.377  -3.519  1.00  0.00    -0.322 N 
ATOM      2  H1  UNL     1      12.900  -7.053  -4.027  1.00  0.00     0.169 HD
HETATM    3  C5  UNL     1      11.951  -6.981  -2.208  1.00  0.00     0.277 C 
HETATM    4  O1  UNL     1      11.016  -7.294  -1.473  1.00  0.00    -0.268 OA
ENDROOT
BRANCH   1   5
HETATM    5  C4  UNL     1      11.132  -8.225  -4.248  1.00  0.00     0.048 A 
HETATM    6  C3  UNL     1      10.950  -9.536  -3.924  1.00  0.00     0.080 A 
HETATM    7  S1  UNL     1       9.775 -10.070  -5.051  1.00  0.00    -0.104 SA
HETATM    8  C2  UNL     1       9.548  -8.626  -5.898  1.00  0.00    -0.013 A 
HETATM    9  C1  UNL     1       8.627  -8.330  -7.071  1.00  0.00     0.057 C 
HETATM   10  C7  UNL     1      10.393  -7.742  -5.289  1.00  0.00    -0.022 A 
HETATM   11  C8  UNL     1      10.478  -6.293  -5.778  1.00  0.00     0.052 C 
ENDBRANCH   1   5
BRANCH   3  12
HETATM   12  C6  UNL     1      12.998  -6.112  -1.598  1.00  0.00     0.269 C 
HETATM   13 CL1  UNL     1      12.872  -6.105   0.170  1.00  0.00    -0.073 Cl
HETATM   14 CL2  UNL     1      14.624  -6.584  -2.052  1.00  0.00    -0.073 Cl
HETATM   15 CL3  UNL     1      12.705  -4.444  -2.162  1.00  0.00    -0.073 Cl
ENDBRANCH   3  12
TORSDOF 2
ENDMDL
