MODEL 1
REMARK VINA RESULT: -5.778596033      0.000      0.000
REMARK  5 active torsions:
REMARK  status: ('A' for Active; 'I' for Inactive)
REMARK    1  A    between atoms: N1_2  and  C2_4 
REMARK    2  A    between atoms: C2_4  and  C3_6 
REMARK    3  A    between atoms: C7_10  and  N2_11 
REMARK    4  A    between atoms: N2_11  and  N3_13 
REMARK    5  A    between atoms: N3_13  and  N4_14 
ROOT
HETATM    1  C3  UNL     1       4.375 -14.994  -4.701  1.00  0.00     0.249 C 
HETATM    2  C4  UNL     1       5.257 -13.926  -5.240  1.00  0.00     0.040 C 
HETATM    3  C5  UNL     1       4.577 -12.593  -5.007  1.00  0.00     0.006 C 
HETATM    4  C6  UNL     1       3.211 -12.623  -5.600  1.00  0.00     0.057 C 
HETATM    5  C7  UNL     1       2.795 -13.939  -6.176  1.00  0.00     0.313 C 
HETATM    6  N5  UNL     1       3.091 -15.072  -5.342  1.00  0.00    -0.042 N 
ATOM      7  H51 UNL     1       2.352 -15.215  -4.653  1.00  0.00     0.280 HD
ATOM      8  H52 UNL     1       3.003 -15.940  -5.869  1.00  0.00     0.280 HD
ENDROOT
BRANCH   5   9
HETATM    9  N2  UNL     1       1.342 -13.877  -6.376  1.00  0.00    -0.221 N 
ATOM     10  H2  UNL     1       0.828 -13.037  -6.108  1.00  0.00     0.199 HD
BRANCH   9  11
HETATM   11  N3  UNL     1       0.747 -14.819  -6.857  1.00  0.00    -0.247 NA
BRANCH  11  12
HETATM   12  N4  UNL     1       0.315 -15.761  -7.495  1.00  0.00    -0.261 N 
ATOM     13  H42 UNL     1       1.272 -16.016  -7.742  1.00  0.00     0.193 HD
ATOM     14  H41 UNL     1      -0.217 -16.487  -7.974  1.00  0.00     0.193 HD
ENDBRANCH  11  12
ENDBRANCH   9  11
ENDBRANCH   5   9
BRANCH   1  15
HETATM   15  C2  UNL     1       5.098 -16.282  -4.703  1.00  0.00     0.104 C 
HETATM   16  S1  UNL     1       4.240 -17.655  -4.540  1.00  0.00    -0.063 SA
BRANCH  15  17
HETATM   17  N1  UNL     1       6.500 -16.347  -4.841  1.00  0.00    -0.387 N 
HETATM   18  C1  UNL     1       7.216 -17.546  -4.503  1.00  0.00     0.147 C 
ATOM     19  H1  UNL     1       7.011 -15.535  -5.184  1.00  0.00     0.159 HD
ENDBRANCH  15  17
ENDBRANCH   1  15
TORSDOF 5
ENDMDL
MODEL 2
REMARK VINA RESULT: -5.732112345      2.632      3.792
REMARK  5 active torsions:
REMARK  status: ('A' for Active; 'I' for Inactive)
REMARK    1  A    between atoms: N1_2  and  C2_4 
REMARK    2  A    between atoms: C2_4  and  C3_6 
REMARK    3  A    between atoms: C7_10  and  N2_11 
REMARK    4  A    between atoms: N2_11  and  N3_13 
REMARK    5  A    between atoms: N3_13  and  N4_14 
ROOT
HETATM    1  C3  UNL     1       3.251 -16.249  -5.107  1.00  0.00     0.249 C 
HETATM    2  C4  UNL     1       4.517 -17.018  -4.978  1.00  0.00     0.040 C 
HETATM    3  C5  UNL     1       5.360 -16.358  -3.907  1.00  0.00     0.006 C 
HETATM    4  C6  UNL     1       5.545 -14.918  -4.239  1.00  0.00     0.057 C 
HETATM    5  C7  UNL     1       4.802 -14.442  -5.447  1.00  0.00     0.313 C 
HETATM    6  N5  UNL     1       3.436 -14.883  -5.516  1.00  0.00    -0.042 N 
ATOM      7  H51 UNL     1       2.829 -14.262  -4.980  1.00  0.00     0.280 HD
ATOM      8  H52 UNL     1       3.054 -14.730  -6.449  1.00  0.00     0.280 HD
ENDROOT
BRANCH   5   9
HETATM    9  N2  UNL     1       4.815 -12.975  -5.405  1.00  0.00    -0.221 N 
ATOM     10  H2  UNL     1       5.658 -12.483  -5.112  1.00  0.00     0.199 HD
BRANCH   9  11
HETATM   11  N3  UNL     1       3.826 -12.343  -5.716  1.00  0.00    -0.247 NA
BRANCH  11  12
HETATM   12  N4  UNL     1       2.912 -11.557  -5.880  1.00  0.00    -0.261 N 
ATOM     13  H42 UNL     1       2.294 -12.190  -5.372  1.00  0.00     0.193 HD
ATOM     14  H41 UNL     1       2.275 -10.795  -6.110  1.00  0.00     0.193 HD
ENDBRANCH  11  12
ENDBRANCH   9  11
ENDBRANCH   5   9
BRANCH   1  15
HETATM   15  C2  UNL     1       2.309 -16.986  -5.974  1.00  0.00     0.104 C 
HETATM   16  S1  UNL     1       0.989 -16.210  -6.523  1.00  0.00    -0.063 SA
BRANCH  15  17
HETATM   17  N1  UNL     1       2.526 -18.332  -6.331  1.00  0.00    -0.387 N 
HETATM   18  C1  UNL     1       1.811 -19.391  -5.675  1.00  0.00     0.147 C 
ATOM     19  H1  UNL     1       3.199 -18.557  -7.064  1.00  0.00     0.159 HD
ENDBRANCH  15  17
ENDBRANCH   1  15
TORSDOF 5
ENDMDL
MODEL 3
REMARK VINA RESULT: -5.698913859      2.172      3.981
REMARK  5 active torsions:
REMARK  status: ('A' for Active; 'I' for Inactive)
REMARK    1  A    between atoms: N1_2  and  C2_4 
REMARK    2  A    between atoms: C2_4  and  C3_6 
REMARK    3  A    between atoms: C7_10  and  N2_11 
REMARK    4  A    between atoms: N2_11  and  N3_13 
REMARK    5  A    between atoms: N3_13  and  N4_14 
ROOT
HETATM    1  C3  UNL     1       3.355 -16.455  -4.941  1.00  0.00     0.249 C 
HETATM    2  C4  UNL     1       4.643 -17.194  -4.865  1.00  0.00     0.040 C 
HETATM    3  C5  UNL     1       5.507 -16.527  -3.816  1.00  0.00     0.006 C 
HETATM    4  C6  UNL     1       5.645 -15.079  -4.136  1.00  0.00     0.057 C 
HETATM    5  C7  UNL     1       4.850 -14.607  -5.312  1.00  0.00     0.313 C 
HETATM    6  N5  UNL     1       3.493 -15.080  -5.338  1.00  0.00    -0.042 N 
ATOM      7  H51 UNL     1       2.891 -14.480  -4.774  1.00  0.00     0.280 HD
ATOM      8  H52 UNL     1       3.076 -14.926  -6.255  1.00  0.00     0.280 HD
ENDROOT
BRANCH   5   9
HETATM    9  N2  UNL     1       4.829 -13.140  -5.251  1.00  0.00    -0.221 N 
ATOM     10  H2  UNL     1       5.645 -12.635  -4.906  1.00  0.00     0.199 HD
BRANCH   9  11
HETATM   11  N3  UNL     1       3.846 -12.525  -5.609  1.00  0.00    -0.247 NA
BRANCH  11  12
HETATM   12  N4  UNL     1       2.941 -11.744  -5.836  1.00  0.00    -0.261 N 
ATOM     13  H42 UNL     1       3.629 -10.999  -5.945  1.00  0.00     0.193 HD
ATOM     14  H41 UNL     1       2.070 -11.240  -6.002  1.00  0.00     0.193 HD
ENDBRANCH  11  12
ENDBRANCH   9  11
ENDBRANCH   5   9
BRANCH   1  15
HETATM   15  C2  UNL     1       2.402 -17.204  -5.784  1.00  0.00     0.104 C 
HETATM   16  S1  UNL     1       2.217 -18.798  -5.520  1.00  0.00    -0.063 SA
BRANCH  15  17
HETATM   17  N1  UNL     1       1.656 -16.575  -6.802  1.00  0.00    -0.387 N 
HETATM   18  C1  UNL     1       0.223 -16.502  -6.725  1.00  0.00     0.147 C 
ATOM     19  H1  UNL     1       2.139 -16.166  -7.602  1.00  0.00     0.159 HD
ENDBRANCH  15  17
ENDBRANCH   1  15
TORSDOF 5
ENDMDL
MODEL 4
REMARK VINA RESULT: -5.693205019      2.565      4.525
REMARK  5 active torsions:
REMARK  status: ('A' for Active; 'I' for Inactive)
REMARK    1  A    between atoms: N1_2  and  C2_4 
REMARK    2  A    between atoms: C2_4  and  C3_6 
REMARK    3  A    between atoms: C7_10  and  N2_11 
REMARK    4  A    between atoms: N2_11  and  N3_13 
REMARK    5  A    between atoms: N3_13  and  N4_14 
ROOT
HETATM    1  C3  UNL     1       3.175 -16.157  -6.083  1.00  0.00     0.249 C 
HETATM    2  C4  UNL     1       2.634 -14.849  -5.629  1.00  0.00     0.040 C 
HETATM    3  C5  UNL     1       3.764 -13.841  -5.650  1.00  0.00     0.006 C 
HETATM    4  C6  UNL     1       4.902 -14.354  -4.837  1.00  0.00     0.057 C 
HETATM    5  C7  UNL     1       4.723 -15.735  -4.291  1.00  0.00     0.313 C 
HETATM    6  N5  UNL     1       4.212 -16.686  -5.240  1.00  0.00    -0.042 N 
ATOM      7  H51 UNL     1       4.969 -17.077  -5.802  1.00  0.00     0.280 HD
ATOM      8  H52 UNL     1       3.896 -17.533  -4.768  1.00  0.00     0.280 HD
ENDROOT
BRANCH   5   9
HETATM    9  N2  UNL     1       6.046 -16.191  -3.844  1.00  0.00    -0.221 N 
ATOM     10  H2  UNL     1       6.383 -15.937  -2.916  1.00  0.00     0.199 HD
BRANCH   9  11
HETATM   11  N3  UNL     1       6.740 -16.868  -4.573  1.00  0.00    -0.247 NA
BRANCH  11  12
HETATM   12  N4  UNL     1       7.537 -17.613  -5.112  1.00  0.00    -0.261 N 
ATOM     13  H42 UNL     1       8.038 -16.798  -5.468  1.00  0.00     0.193 HD
ATOM     14  H41 UNL     1       8.100 -18.375  -5.490  1.00  0.00     0.193 HD
ENDBRANCH  11  12
ENDBRANCH   9  11
ENDBRANCH   5   9
BRANCH   1  15
HETATM   15  C2  UNL     1       2.064 -17.107  -6.294  1.00  0.00     0.104 C 
HETATM   16  S1  UNL     1       0.549 -16.523  -6.386  1.00  0.00    -0.063 SA
BRANCH  15  17
HETATM   17  N1  UNL     1       2.286 -18.495  -6.414  1.00  0.00    -0.387 N 
HETATM   18  C1  UNL     1       1.766 -19.409  -5.436  1.00  0.00     0.147 C 
ATOM     19  H1  UNL     1       2.821 -18.853  -7.205  1.00  0.00     0.159 HD
ENDBRANCH  15  17
ENDBRANCH   1  15
TORSDOF 5
ENDMDL
MODEL 5
REMARK VINA RESULT: -5.687660338      2.093      4.934
REMARK  5 active torsions:
REMARK  status: ('A' for Active; 'I' for Inactive)
REMARK    1  A    between atoms: N1_2  and  C2_4 
REMARK    2  A    between atoms: C2_4  and  C3_6 
REMARK    3  A    between atoms: C7_10  and  N2_11 
REMARK    4  A    between atoms: N2_11  and  N3_13 
REMARK    5  A    between atoms: N3_13  and  N4_14 
ROOT
HETATM    1  C3  UNL     1       3.549 -16.465  -5.728  1.00  0.00     0.249 C 
HETATM    2  C4  UNL     1       3.273 -15.057  -5.339  1.00  0.00     0.040 C 
HETATM    3  C5  UNL     1       4.587 -14.304  -5.337  1.00  0.00     0.006 C 
HETATM    4  C6  UNL     1       5.560 -15.008  -4.455  1.00  0.00     0.057 C 
HETATM    5  C7  UNL     1       5.077 -16.300  -3.878  1.00  0.00     0.313 C 
HETATM    6  N5  UNL     1       4.419 -17.163  -4.821  1.00  0.00    -0.042 N 
ATOM      7  H51 UNL     1       5.100 -17.723  -5.334  1.00  0.00     0.280 HD
ATOM      8  H52 UNL     1       3.915 -17.907  -4.339  1.00  0.00     0.280 HD
ENDROOT
BRANCH   5   9
HETATM    9  N2  UNL     1       6.257 -17.000  -3.355  1.00  0.00    -0.221 N 
ATOM     10  H2  UNL     1       6.412 -17.052  -2.348  1.00  0.00     0.199 HD
BRANCH   9  11
HETATM   11  N3  UNL     1       7.050 -17.519  -4.114  1.00  0.00    -0.247 NA
BRANCH  11  12
HETATM   12  N4  UNL     1       7.728 -17.931  -5.036  1.00  0.00    -0.261 N 
ATOM     13  H42 UNL     1       8.558 -17.553  -4.578  1.00  0.00     0.193 HD
ATOM     14  H41 UNL     1       8.132 -18.340  -5.878  1.00  0.00     0.193 HD
ENDBRANCH  11  12
ENDBRANCH   9  11
ENDBRANCH   5   9
BRANCH   1  15
HETATM   15  C2  UNL     1       2.275 -17.173  -5.963  1.00  0.00     0.104 C 
HETATM   16  S1  UNL     1       2.035 -18.606  -5.230  1.00  0.00    -0.063 SA
BRANCH  15  17
HETATM   17  N1  UNL     1       1.271 -16.642  -6.799  1.00  0.00    -0.387 N 
HETATM   18  C1  UNL     1      -0.115 -16.741  -6.438  1.00  0.00     0.147 C 
ATOM     19  H1  UNL     1       1.533 -16.181  -7.671  1.00  0.00     0.159 HD
ENDBRANCH  15  17
ENDBRANCH   1  15
TORSDOF 5
ENDMDL
