MODEL 1
REMARK VINA RESULT: -5.960354124      0.000      0.000
REMARK  5 active torsions:
REMARK  status: ('A' for Active; 'I' for Inactive)
REMARK    1  A    between atoms: N1_2  and  O1_3 
REMARK    2  A    between atoms: N1_2  and  C2_5 
REMARK    3  A    between atoms: C2_5  and  C3_6 
REMARK    4  A    between atoms: C3_6  and  O2_7 
REMARK    5  A    between atoms: C6_11  and  O3_12 
ROOT
HETATM    1  C2  UNL     1     -10.115 -40.521 -77.725  1.00  0.00     0.160 C 
HETATM    2  C4  UNL     1     -11.028 -41.735 -77.990  1.00  0.00     0.069 C 
HETATM    3  C5  UNL     1     -10.045 -42.779 -77.705  1.00  0.00     0.053 C 
HETATM    4  C6  UNL     1     -10.097 -44.130 -78.175  1.00  0.00     0.125 C 
HETATM    5  C7  UNL     1      -8.612 -44.517 -78.235  1.00  0.00     0.035 C 
HETATM    6  C8  UNL     1      -7.835 -43.199 -78.071  1.00  0.00     0.041 C 
HETATM    7  C9  UNL     1      -8.859 -42.218 -78.515  1.00  0.00     0.066 C 
HETATM    8  C10 UNL     1      -9.056 -42.367 -79.992  1.00  0.00     0.046 C 
HETATM    9  O4  UNL     1      -8.817 -40.957 -78.058  1.00  0.00    -0.350 OA
ENDROOT
BRANCH   1  10
HETATM   10  N1  UNL     1     -10.104 -40.374 -76.287  1.00  0.00    -0.167 NA
HETATM   11  C1  UNL     1     -11.388 -40.078 -75.736  1.00  0.00     0.147 C 
BRANCH  10  12
HETATM   12  O1  UNL     1      -9.142 -39.528 -75.862  1.00  0.00    -0.310 OA
ATOM     13  H1  UNL     1      -8.310 -39.960 -75.712  1.00  0.00     0.237 HD
ENDBRANCH  10  12
ENDBRANCH   1  10
BRANCH   1  14
HETATM   14  C3  UNL     1     -10.541 -39.314 -78.469  1.00  0.00     0.221 C 
BRANCH  14  15
HETATM   15  O2  UNL     1      -9.871 -38.161 -78.105  1.00  0.00    -0.396 OA
ATOM     16  H2  UNL     1      -9.848 -38.004 -77.169  1.00  0.00     0.209 HD
ENDBRANCH  14  15
ENDBRANCH   1  14
BRANCH   4  17
HETATM   17  O3  UNL     1     -10.765 -44.414 -79.334  1.00  0.00    -0.395 OA
ATOM     18  H3  UNL     1     -10.916 -45.320 -79.577  1.00  0.00     0.210 HD
ENDBRANCH   4  17
TORSDOF 5
ENDMDL
MODEL 2
REMARK VINA RESULT: -5.673499035      2.193      4.098
REMARK  5 active torsions:
REMARK  status: ('A' for Active; 'I' for Inactive)
REMARK    1  A    between atoms: N1_2  and  O1_3 
REMARK    2  A    between atoms: N1_2  and  C2_5 
REMARK    3  A    between atoms: C2_5  and  C3_6 
REMARK    4  A    between atoms: C3_6  and  O2_7 
REMARK    5  A    between atoms: C6_11  and  O3_12 
ROOT
HETATM    1  C2  UNL     1      -7.998 -42.023 -78.465  1.00  0.00     0.160 C 
HETATM    2  C4  UNL     1      -7.898 -41.891 -79.998  1.00  0.00     0.069 C 
HETATM    3  C5  UNL     1      -8.824 -40.771 -80.154  1.00  0.00     0.053 C 
HETATM    4  C6  UNL     1      -9.525 -40.425 -81.353  1.00  0.00     0.125 C 
HETATM    5  C7  UNL     1     -10.794 -39.750 -80.811  1.00  0.00     0.035 C 
HETATM    6  C8  UNL     1     -10.817 -40.062 -79.305  1.00  0.00     0.041 C 
HETATM    7  C9  UNL     1      -9.973 -41.285 -79.264  1.00  0.00     0.066 C 
HETATM    8  C10 UNL     1     -10.729 -42.410 -79.902  1.00  0.00     0.046 C 
HETATM    9  O4  UNL     1      -9.303 -41.596 -78.143  1.00  0.00    -0.350 OA
ENDROOT
BRANCH   1  10
HETATM   10  N1  UNL     1      -7.128 -40.991 -77.946  1.00  0.00    -0.167 NA
HETATM   11  C1  UNL     1      -5.767 -41.404 -77.827  1.00  0.00     0.147 C 
BRANCH  10  12
HETATM   12  O1  UNL     1      -7.608 -40.431 -76.817  1.00  0.00    -0.310 OA
ATOM     13  H1  UNL     1      -7.140 -39.643 -76.567  1.00  0.00     0.237 HD
ENDBRANCH  10  12
ENDBRANCH   1  10
BRANCH   1  14
HETATM   14  C3  UNL     1      -7.691 -43.390 -77.989  1.00  0.00     0.221 C 
BRANCH  14  15
HETATM   15  O2  UNL     1      -8.808 -44.142 -77.672  1.00  0.00    -0.396 OA
ATOM     16  H2  UNL     1      -9.098 -44.046 -76.772  1.00  0.00     0.209 HD
ENDBRANCH  14  15
ENDBRANCH   1  14
BRANCH   4  17
HETATM   17  O3  UNL     1      -9.797 -41.396 -82.278  1.00  0.00    -0.395 OA
ATOM     18  H3  UNL     1      -9.382 -42.247 -82.199  1.00  0.00     0.210 HD
ENDBRANCH   4  17
TORSDOF 5
ENDMDL
MODEL 3
REMARK VINA RESULT: -5.644330982      1.521      4.433
REMARK  5 active torsions:
REMARK  status: ('A' for Active; 'I' for Inactive)
REMARK    1  A    between atoms: N1_2  and  O1_3 
REMARK    2  A    between atoms: N1_2  and  C2_5 
REMARK    3  A    between atoms: C2_5  and  C3_6 
REMARK    4  A    between atoms: C3_6  and  O2_7 
REMARK    5  A    between atoms: C6_11  and  O3_12 
ROOT
HETATM    1  C2  UNL     1      -9.384 -42.285 -78.629  1.00  0.00     0.160 C 
HETATM    2  C4  UNL     1      -8.540 -41.038 -78.296  1.00  0.00     0.069 C 
HETATM    3  C5  UNL     1      -9.281 -40.618 -77.108  1.00  0.00     0.053 C 
HETATM    4  C6  UNL     1      -9.301 -39.297 -76.558  1.00  0.00     0.125 C 
HETATM    5  C7  UNL     1     -10.680 -39.242 -75.882  1.00  0.00     0.035 C 
HETATM    6  C8  UNL     1     -11.441 -40.477 -76.395  1.00  0.00     0.041 C 
HETATM    7  C9  UNL     1     -10.714 -40.742 -77.663  1.00  0.00     0.066 C 
HETATM    8  C10 UNL     1     -11.043 -39.655 -78.639  1.00  0.00     0.046 C 
HETATM    9  O4  UNL     1     -10.681 -41.986 -78.166  1.00  0.00    -0.350 OA
ENDROOT
BRANCH   1  10
HETATM   10  N1  UNL     1      -8.896 -43.312 -77.736  1.00  0.00    -0.167 NA
HETATM   11  C1  UNL     1      -7.644 -43.868 -78.142  1.00  0.00     0.147 C 
BRANCH  10  12
HETATM   12  O1  UNL     1      -9.827 -44.251 -77.471  1.00  0.00    -0.310 OA
ATOM     13  H1  UNL     1     -10.601 -43.896 -77.050  1.00  0.00     0.237 HD
ENDBRANCH  10  12
ENDBRANCH   1  10
BRANCH   1  14
HETATM   14  C3  UNL     1      -9.337 -42.638 -80.066  1.00  0.00     0.221 C 
BRANCH  14  15
HETATM   15  O2  UNL     1     -10.308 -43.541 -80.458  1.00  0.00    -0.396 OA
ATOM     16  H2  UNL     1     -10.523 -43.503 -81.382  1.00  0.00     0.209 HD
ENDBRANCH  14  15
ENDBRANCH   1  14
BRANCH   4  17
HETATM   17  O3  UNL     1      -9.070 -38.224 -77.373  1.00  0.00    -0.395 OA
ATOM     18  H3  UNL     1      -8.310 -37.675 -77.220  1.00  0.00     0.210 HD
ENDBRANCH   4  17
TORSDOF 5
ENDMDL
MODEL 4
REMARK VINA RESULT: -5.643452852      2.395      3.448
REMARK  5 active torsions:
REMARK  status: ('A' for Active; 'I' for Inactive)
REMARK    1  A    between atoms: N1_2  and  O1_3 
REMARK    2  A    between atoms: N1_2  and  C2_5 
REMARK    3  A    between atoms: C2_5  and  C3_6 
REMARK    4  A    between atoms: C3_6  and  O2_7 
REMARK    5  A    between atoms: C6_11  and  O3_12 
ROOT
HETATM    1  C2  UNL     1      -7.400 -41.459 -78.570  1.00  0.00     0.160 C 
HETATM    2  C4  UNL     1      -7.924 -42.827 -78.087  1.00  0.00     0.069 C 
HETATM    3  C5  UNL     1      -7.957 -43.489 -79.390  1.00  0.00     0.053 C 
HETATM    4  C6  UNL     1      -8.752 -44.630 -79.729  1.00  0.00     0.125 C 
HETATM    5  C7  UNL     1      -8.976 -44.441 -81.237  1.00  0.00     0.035 C 
HETATM    6  C8  UNL     1      -8.518 -43.005 -81.546  1.00  0.00     0.041 C 
HETATM    7  C9  UNL     1      -8.650 -42.379 -80.205  1.00  0.00     0.066 C 
HETATM    8  C10 UNL     1     -10.107 -42.255 -79.877  1.00  0.00     0.046 C 
HETATM    9  O4  UNL     1      -7.890 -41.320 -79.884  1.00  0.00    -0.350 OA
ENDROOT
BRANCH   1  10
HETATM   10  N1  UNL     1      -5.973 -41.641 -78.721  1.00  0.00    -0.167 NA
HETATM   11  C1  UNL     1      -5.236 -41.351 -77.533  1.00  0.00     0.147 C 
BRANCH  10  12
HETATM   12  O1  UNL     1      -5.485 -41.013 -79.810  1.00  0.00    -0.310 OA
ATOM     13  H1  UNL     1      -5.621 -41.502 -80.612  1.00  0.00     0.237 HD
ENDBRANCH  10  12
ENDBRANCH   1  10
BRANCH   1  14
HETATM   14  C3  UNL     1      -7.792 -40.349 -77.673  1.00  0.00     0.221 C 
BRANCH  14  15
HETATM   15  O2  UNL     1      -9.010 -40.533 -77.046  1.00  0.00    -0.396 OA
ATOM     16  H2  UNL     1      -9.205 -41.439 -76.834  1.00  0.00     0.209 HD
ENDBRANCH  14  15
ENDBRANCH   1  14
BRANCH   4  17
HETATM   17  O3  UNL     1      -9.915 -44.867 -79.049  1.00  0.00    -0.395 OA
ATOM     18  H3  UNL     1     -10.432 -45.635 -79.261  1.00  0.00     0.210 HD
ENDBRANCH   4  17
TORSDOF 5
ENDMDL
MODEL 5
REMARK VINA RESULT: -5.533173769      1.814      2.153
REMARK  5 active torsions:
REMARK  status: ('A' for Active; 'I' for Inactive)
REMARK    1  A    between atoms: N1_2  and  O1_3 
REMARK    2  A    between atoms: N1_2  and  C2_5 
REMARK    3  A    between atoms: C2_5  and  C3_6 
REMARK    4  A    between atoms: C3_6  and  O2_7 
REMARK    5  A    between atoms: C6_11  and  O3_12 
ROOT
HETATM    1  C2  UNL     1      -9.203 -40.775 -77.949  1.00  0.00     0.160 C 
HETATM    2  C4  UNL     1      -9.301 -41.010 -79.470  1.00  0.00     0.069 C 
HETATM    3  C5  UNL     1      -9.243 -42.471 -79.441  1.00  0.00     0.053 C 
HETATM    4  C6  UNL     1      -8.849 -43.314 -80.528  1.00  0.00     0.125 C 
HETATM    5  C7  UNL     1      -8.276 -44.542 -79.804  1.00  0.00     0.035 C 
HETATM    6  C8  UNL     1      -8.129 -44.121 -78.331  1.00  0.00     0.041 C 
HETATM    7  C9  UNL     1      -8.055 -42.644 -78.473  1.00  0.00     0.066 C 
HETATM    8  C10 UNL     1      -6.746 -42.288 -79.108  1.00  0.00     0.046 C 
HETATM    9  O4  UNL     1      -8.442 -41.855 -77.458  1.00  0.00    -0.350 OA
ENDROOT
BRANCH   1  10
HETATM   10  N1  UNL     1     -10.541 -41.003 -77.452  1.00  0.00    -0.167 NA
HETATM   11  C1  UNL     1     -11.560 -40.481 -78.306  1.00  0.00     0.147 C 
BRANCH  10  12
HETATM   12  O1  UNL     1     -10.686 -40.621 -76.166  1.00  0.00    -0.310 OA
ATOM     13  H1  UNL     1     -10.947 -41.334 -75.595  1.00  0.00     0.237 HD
ENDBRANCH  10  12
ENDBRANCH   1  10
BRANCH   1  14
HETATM   14  C3  UNL     1      -8.633 -39.451 -77.613  1.00  0.00     0.221 C 
BRANCH  14  15
HETATM   15  O2  UNL     1      -8.026 -39.396 -76.371  1.00  0.00    -0.396 OA
ATOM     16  H2  UNL     1      -7.174 -38.975 -76.374  1.00  0.00     0.209 HD
ENDBRANCH  14  15
ENDBRANCH   1  14
BRANCH   4  17
HETATM   17  O3  UNL     1      -8.005 -42.827 -81.488  1.00  0.00    -0.395 OA
ATOM     18  H3  UNL     1      -7.560 -43.431 -82.070  1.00  0.00     0.210 HD
ENDBRANCH   4  17
TORSDOF 5
ENDMDL
