MODEL 1
REMARK VINA RESULT: -6.159951845      0.000      0.000
REMARK  9 active torsions:
REMARK  status: ('A' for Active; 'I' for Inactive)
REMARK    1  A    between atoms: N1_2  and  C2_4 
REMARK    2  A    between atoms: C2_4  and  C3_5 
REMARK    3  A    between atoms: C2_4  and  C22_35 
REMARK       I    between atoms: C3_5  and  N2_7 
REMARK    4  A    between atoms: N2_7  and  C4_9 
REMARK    5  A    between atoms: C9_14  and  N3_15 
REMARK       I    between atoms: N3_15  and  C10_17 
REMARK    6  A    between atoms: C10_17  and  C11_19 
REMARK    7  A    between atoms: C11_19  and  N4_20 
REMARK    8  A    between atoms: C11_19  and  C19_32 
REMARK       I    between atoms: N4_20  and  C12_22 
REMARK    9  A    between atoms: C12_22  and  C13_24 
ROOT
HETATM    1  N3  UNL     1      -2.311  23.860  11.116  1.00  0.00    -0.353 N 
ATOM      2  H3  UNL     1      -2.498  24.092  10.141  1.00  0.00     0.163 HD
HETATM    3  C10 UNL     1      -3.241  24.210  12.104  1.00  0.00     0.241 C 
HETATM    4  O2  UNL     1      -2.994  23.916  13.308  1.00  0.00    -0.271 OA
ENDROOT
BRANCH   1   5
HETATM    5  C9  UNL     1      -1.097  23.177  11.465  1.00  0.00     0.107 C 
HETATM    6  C4  UNL     1      -0.743  22.022  10.590  1.00  0.00     0.107 C 
HETATM    7  C5  UNL     1       0.369  21.252  11.257  1.00  0.00     0.027 C 
HETATM    8  C6  UNL     1       1.314  22.141  12.022  1.00  0.00     0.002 C 
HETATM    9  C7  UNL     1       1.368  23.541  11.495  1.00  0.00     0.002 C 
HETATM   10  C8  UNL     1       0.029  24.191  11.304  1.00  0.00     0.027 C 
BRANCH   6  11
HETATM   11  N2  UNL     1      -1.833  21.093  10.344  1.00  0.00    -0.353 N 
HETATM   12  C3  UNL     1      -1.836  20.160   9.306  1.00  0.00     0.240 C 
HETATM   13  O1  UNL     1      -0.792  20.166   8.559  1.00  0.00    -0.271 OA
ATOM     14  H2  UNL     1      -2.642  21.125  10.965  1.00  0.00     0.163 HD
BRANCH  12  15
HETATM   15  C2  UNL     1      -2.854  19.178   8.952  1.00  0.00     0.172 C 
BRANCH  15  16
HETATM   16  N1  UNL     1      -2.386  18.247   7.933  1.00  0.00    -0.413 N 
HETATM   17  C1  UNL     1      -1.659  17.131   8.433  1.00  0.00     0.140 C 
ATOM     18  H1  UNL     1      -2.565  18.385   6.938  1.00  0.00     0.153 HD
ENDBRANCH  15  16
BRANCH  15  19
HETATM   19  C22 UNL     1      -4.148  19.743   8.419  1.00  0.00     0.009 C 
HETATM   20  C23 UNL     1      -5.171  20.033   9.459  1.00  0.00     0.012 C 
HETATM   21  C24 UNL     1      -4.714  18.652   7.498  1.00  0.00     0.012 C 
ENDBRANCH  15  19
ENDBRANCH  12  15
ENDBRANCH   6  11
ENDBRANCH   1   5
BRANCH   3  22
HETATM   22  C11 UNL     1      -4.518  24.915  11.834  1.00  0.00     0.180 C 
BRANCH  22  23
HETATM   23  N4  UNL     1      -5.347  24.136  10.926  1.00  0.00    -0.343 N 
HETATM   24  C12 UNL     1      -5.592  24.580   9.608  1.00  0.00     0.273 C 
HETATM   25  O3  UNL     1      -5.084  25.657   9.228  1.00  0.00    -0.268 OA
ATOM     26  H4  UNL     1      -5.758  23.259  11.246  1.00  0.00     0.163 HD
BRANCH  24  27
HETATM   27  C13 UNL     1      -6.431  23.780   8.705  1.00  0.00     0.353 C 
HETATM   28  O4  UNL     1      -7.493  23.238   9.418  1.00  0.00    -0.352 OA
HETATM   29  C14 UNL     1      -8.009  22.182   8.687  1.00  0.00     0.182 C 
HETATM   30  C15 UNL     1      -8.232  22.602   7.261  1.00  0.00    -0.004 C 
HETATM   31  C16 UNL     1      -7.282  21.903   6.311  1.00  0.00     0.019 C 
HETATM   32  C17 UNL     1      -9.635  22.181   6.861  1.00  0.00     0.019 C 
HETATM   33  C18 UNL     1      -8.049  24.081   7.068  1.00  0.00     0.182 C 
HETATM   34  O5  UNL     1      -6.845  24.500   7.588  1.00  0.00    -0.352 OA
ENDBRANCH  24  27
ENDBRANCH  22  23
BRANCH  22  35
HETATM   35  C19 UNL     1      -5.269  25.258  13.084  1.00  0.00     0.009 C 
HETATM   36  C20 UNL     1      -6.717  24.789  13.020  1.00  0.00     0.012 C 
HETATM   37  C21 UNL     1      -5.321  26.782  13.175  1.00  0.00     0.012 C 
ENDBRANCH  22  35
ENDBRANCH   3  22
TORSDOF 9
ENDMDL
MODEL 2
REMARK VINA RESULT: -6.132271941      3.273      5.671
REMARK  9 active torsions:
REMARK  status: ('A' for Active; 'I' for Inactive)
REMARK    1  A    between atoms: N1_2  and  C2_4 
REMARK    2  A    between atoms: C2_4  and  C3_5 
REMARK    3  A    between atoms: C2_4  and  C22_35 
REMARK       I    between atoms: C3_5  and  N2_7 
REMARK    4  A    between atoms: N2_7  and  C4_9 
REMARK    5  A    between atoms: C9_14  and  N3_15 
REMARK       I    between atoms: N3_15  and  C10_17 
REMARK    6  A    between atoms: C10_17  and  C11_19 
REMARK    7  A    between atoms: C11_19  and  N4_20 
REMARK    8  A    between atoms: C11_19  and  C19_32 
REMARK       I    between atoms: N4_20  and  C12_22 
REMARK    9  A    between atoms: C12_22  and  C13_24 
ROOT
HETATM    1  N3  UNL     1      -5.742  22.732  10.290  1.00  0.00    -0.353 N 
ATOM      2  H3  UNL     1      -5.279  23.562   9.920  1.00  0.00     0.163 HD
HETATM    3  C10 UNL     1      -6.840  22.874  11.150  1.00  0.00     0.241 C 
HETATM    4  O2  UNL     1      -7.402  21.836  11.599  1.00  0.00    -0.271 OA
ENDROOT
BRANCH   1   5
HETATM    5  C9  UNL     1      -5.265  21.428   9.924  1.00  0.00     0.107 C 
HETATM    6  C4  UNL     1      -5.835  20.873   8.663  1.00  0.00     0.107 C 
HETATM    7  C5  UNL     1      -5.467  19.413   8.585  1.00  0.00     0.027 C 
HETATM    8  C6  UNL     1      -4.115  19.121   9.182  1.00  0.00     0.002 C 
HETATM    9  C7  UNL     1      -3.186  20.295   9.146  1.00  0.00     0.002 C 
HETATM   10  C8  UNL     1      -3.766  21.570   9.686  1.00  0.00     0.027 C 
BRANCH   6  11
HETATM   11  N2  UNL     1      -7.281  20.966   8.560  1.00  0.00    -0.353 N 
HETATM   12  C3  UNL     1      -7.946  22.000   7.900  1.00  0.00     0.240 C 
HETATM   13  O1  UNL     1      -7.188  22.892   7.371  1.00  0.00    -0.271 OA
ATOM     14  H2  UNL     1      -7.842  20.234   8.995  1.00  0.00     0.163 HD
BRANCH  12  15
HETATM   15  C2  UNL     1      -9.378  22.212   7.722  1.00  0.00     0.172 C 
BRANCH  15  16
HETATM   16  N1  UNL     1      -9.697  22.707   6.390  1.00  0.00    -0.413 N 
HETATM   17  C1  UNL     1     -10.055  21.702   5.450  1.00  0.00     0.140 C 
ATOM     18  H1  UNL     1      -9.667  23.698   6.149  1.00  0.00     0.153 HD
ENDBRANCH  15  16
BRANCH  15  19
HETATM   19  C22 UNL     1     -10.016  23.188   8.680  1.00  0.00     0.009 C 
HETATM   20  C23 UNL     1     -11.276  22.706   9.307  1.00  0.00     0.012 C 
HETATM   21  C24 UNL     1     -10.360  24.420   7.829  1.00  0.00     0.012 C 
ENDBRANCH  15  19
ENDBRANCH  12  15
ENDBRANCH   6  11
ENDBRANCH   1   5
BRANCH   3  22
HETATM   22  C11 UNL     1      -7.398  24.180  11.579  1.00  0.00     0.180 C 
BRANCH  22  23
HETATM   23  N4  UNL     1      -7.542  25.072  10.438  1.00  0.00    -0.343 N 
HETATM   24  C12 UNL     1      -6.493  25.938  10.060  1.00  0.00     0.273 C 
HETATM   25  O3  UNL     1      -5.433  25.929  10.721  1.00  0.00    -0.268 OA
ATOM     26  H4  UNL     1      -8.411  25.072   9.905  1.00  0.00     0.163 HD
BRANCH  24  27
HETATM   27  C13 UNL     1      -6.656  26.832   8.904  1.00  0.00     0.353 C 
HETATM   28  O4  UNL     1      -5.412  27.305   8.506  1.00  0.00    -0.352 OA
HETATM   29  C14 UNL     1      -5.609  28.433   7.728  1.00  0.00     0.182 C 
HETATM   30  C15 UNL     1      -6.651  28.162   6.680  1.00  0.00    -0.004 C 
HETATM   31  C16 UNL     1      -7.922  28.947   6.930  1.00  0.00     0.019 C 
HETATM   32  C17 UNL     1      -6.106  28.631   5.343  1.00  0.00     0.019 C 
HETATM   33  C18 UNL     1      -7.030  26.709   6.617  1.00  0.00     0.182 C 
HETATM   34  O5  UNL     1      -7.361  26.231   7.865  1.00  0.00    -0.352 OA
ENDBRANCH  24  27
ENDBRANCH  22  23
BRANCH  22  35
HETATM   35  C19 UNL     1      -8.694  24.043  12.318  1.00  0.00     0.009 C 
HETATM   36  C20 UNL     1      -9.724  25.061  11.846  1.00  0.00     0.012 C 
HETATM   37  C21 UNL     1      -8.415  24.372  13.783  1.00  0.00     0.012 C 
ENDBRANCH  22  35
ENDBRANCH   3  22
TORSDOF 9
ENDMDL
MODEL 3
REMARK VINA RESULT: -6.126663487      4.761      8.024
REMARK  9 active torsions:
REMARK  status: ('A' for Active; 'I' for Inactive)
REMARK    1  A    between atoms: N1_2  and  C2_4 
REMARK    2  A    between atoms: C2_4  and  C3_5 
REMARK    3  A    between atoms: C2_4  and  C22_35 
REMARK       I    between atoms: C3_5  and  N2_7 
REMARK    4  A    between atoms: N2_7  and  C4_9 
REMARK    5  A    between atoms: C9_14  and  N3_15 
REMARK       I    between atoms: N3_15  and  C10_17 
REMARK    6  A    between atoms: C10_17  and  C11_19 
REMARK    7  A    between atoms: C11_19  and  N4_20 
REMARK    8  A    between atoms: C11_19  and  C19_32 
REMARK       I    between atoms: N4_20  and  C12_22 
REMARK    9  A    between atoms: C12_22  and  C13_24 
ROOT
HETATM    1  N3  UNL     1       3.243  21.006  10.469  1.00  0.00    -0.353 N 
ATOM      2  H3  UNL     1       3.131  21.077  11.480  1.00  0.00     0.163 HD
HETATM    3  C10 UNL     1       2.157  20.613   9.676  1.00  0.00     0.241 C 
HETATM    4  O2  UNL     1       2.312  20.530   8.425  1.00  0.00    -0.271 OA
ENDROOT
BRANCH   1   5
HETATM    5  C9  UNL     1       4.512  21.311   9.871  1.00  0.00     0.107 C 
HETATM    6  C4  UNL     1       4.779  22.761   9.650  1.00  0.00     0.107 C 
HETATM    7  C5  UNL     1       5.992  22.885   8.763  1.00  0.00     0.027 C 
HETATM    8  C6  UNL     1       7.005  21.797   9.008  1.00  0.00     0.002 C 
HETATM    9  C7  UNL     1       6.947  21.236  10.394  1.00  0.00     0.002 C 
HETATM   10  C8  UNL     1       5.576  20.829  10.849  1.00  0.00     0.027 C 
BRANCH   6  11
HETATM   11  N2  UNL     1       3.694  23.486   9.011  1.00  0.00    -0.353 N 
HETATM   12  C3  UNL     1       2.612  24.030   9.705  1.00  0.00     0.240 C 
HETATM   13  O1  UNL     1       2.628  23.851  10.976  1.00  0.00    -0.271 OA
ATOM     14  H2  UNL     1       3.724  23.603   7.998  1.00  0.00     0.163 HD
BRANCH  12  15
HETATM   15  C2  UNL     1       1.467  24.774   9.192  1.00  0.00     0.172 C 
BRANCH  15  16
HETATM   16  N1  UNL     1       0.808  25.551  10.233  1.00  0.00    -0.413 N 
HETATM   17  C1  UNL     1       1.282  26.884  10.374  1.00  0.00     0.140 C 
ATOM     18  H1  UNL     1       0.063  25.168  10.817  1.00  0.00     0.153 HD
ENDBRANCH  15  16
BRANCH  15  19
HETATM   19  C22 UNL     1       0.379  23.943   8.558  1.00  0.00     0.009 C 
HETATM   20  C23 UNL     1       0.165  24.204   7.109  1.00  0.00     0.012 C 
HETATM   21  C24 UNL     1      -0.909  24.332   9.298  1.00  0.00     0.012 C 
ENDBRANCH  15  19
ENDBRANCH  12  15
ENDBRANCH   6  11
ENDBRANCH   1   5
BRANCH   3  22
HETATM   22  C11 UNL     1       0.813  20.280  10.209  1.00  0.00     0.180 C 
BRANCH  22  23
HETATM   23  N4  UNL     1       0.310  21.367  11.037  1.00  0.00    -0.343 N 
HETATM   24  C12 UNL     1       0.199  21.219  12.437  1.00  0.00     0.273 C 
HETATM   25  O3  UNL     1       0.540  20.137  12.960  1.00  0.00    -0.268 OA
ATOM     26  H4  UNL     1       0.033  22.246  10.600  1.00  0.00     0.163 HD
BRANCH  24  27
HETATM   27  C13 UNL     1      -0.311  22.329  13.256  1.00  0.00     0.353 C 
HETATM   28  O4  UNL     1       0.206  22.230  14.542  1.00  0.00    -0.352 OA
HETATM   29  C14 UNL     1      -0.585  22.993  15.383  1.00  0.00     0.182 C 
HETATM   30  C15 UNL     1      -0.801  24.357  14.792  1.00  0.00    -0.004 C 
HETATM   31  C16 UNL     1      -2.240  24.568  14.368  1.00  0.00     0.019 C 
HETATM   32  C17 UNL     1      -0.509  25.388  15.868  1.00  0.00     0.019 C 
HETATM   33  C18 UNL     1       0.059  24.596  13.583  1.00  0.00     0.182 C 
HETATM   34  O5  UNL     1      -0.072  23.571  12.674  1.00  0.00    -0.352 OA
ENDBRANCH  24  27
ENDBRANCH  22  23
BRANCH  22  35
HETATM   35  C19 UNL     1      -0.168  19.927   9.134  1.00  0.00     0.009 C 
HETATM   36  C20 UNL     1      -1.482  20.681   9.298  1.00  0.00     0.012 C 
HETATM   37  C21 UNL     1      -0.506  18.447   9.299  1.00  0.00     0.012 C 
ENDBRANCH  22  35
ENDBRANCH   3  22
TORSDOF 9
ENDMDL
MODEL 4
REMARK VINA RESULT: -6.108659087      2.572      6.405
REMARK  9 active torsions:
REMARK  status: ('A' for Active; 'I' for Inactive)
REMARK    1  A    between atoms: N1_2  and  C2_4 
REMARK    2  A    between atoms: C2_4  and  C3_5 
REMARK    3  A    between atoms: C2_4  and  C22_35 
REMARK       I    between atoms: C3_5  and  N2_7 
REMARK    4  A    between atoms: N2_7  and  C4_9 
REMARK    5  A    between atoms: C9_14  and  N3_15 
REMARK       I    between atoms: N3_15  and  C10_17 
REMARK    6  A    between atoms: C10_17  and  C11_19 
REMARK    7  A    between atoms: C11_19  and  N4_20 
REMARK    8  A    between atoms: C11_19  and  C19_32 
REMARK       I    between atoms: N4_20  and  C12_22 
REMARK    9  A    between atoms: C12_22  and  C13_24 
ROOT
HETATM    1  N3  UNL     1      -1.570  21.583  10.431  1.00  0.00    -0.353 N 
ATOM      2  H3  UNL     1      -1.728  21.171  11.350  1.00  0.00     0.163 HD
HETATM    3  C10 UNL     1      -1.538  20.759   9.297  1.00  0.00     0.241 C 
HETATM    4  O2  UNL     1      -1.341  21.285   8.166  1.00  0.00    -0.271 OA
ENDROOT
BRANCH   1   5
HETATM    5  C9  UNL     1      -1.382  23.001  10.309  1.00  0.00     0.107 C 
HETATM    6  C4  UNL     1      -2.569  23.832  10.662  1.00  0.00     0.107 C 
HETATM    7  C5  UNL     1      -2.306  25.244  10.203  1.00  0.00     0.027 C 
HETATM    8  C6  UNL     1      -0.855  25.631  10.315  1.00  0.00     0.002 C 
HETATM    9  C7  UNL     1      -0.118  24.867  11.371  1.00  0.00     0.002 C 
HETATM   10  C8  UNL     1      -0.290  23.378  11.302  1.00  0.00     0.027 C 
BRANCH   6  11
HETATM   11  N2  UNL     1      -3.815  23.398  10.053  1.00  0.00    -0.353 N 
HETATM   12  C3  UNL     1      -5.043  23.400  10.716  1.00  0.00     0.240 C 
HETATM   13  O1  UNL     1      -5.013  23.819  11.929  1.00  0.00    -0.271 OA
ATOM     14  H2  UNL     1      -3.790  23.074   9.086  1.00  0.00     0.163 HD
BRANCH  12  15
HETATM   15  C2  UNL     1      -6.356  22.997  10.226  1.00  0.00     0.172 C 
BRANCH  15  16
HETATM   16  N1  UNL     1      -6.941  21.937  11.037  1.00  0.00    -0.413 N 
HETATM   17  C1  UNL     1      -8.121  22.306  11.741  1.00  0.00     0.140 C 
ATOM     18  H1  UNL     1      -6.536  21.002  11.096  1.00  0.00     0.153 HD
ENDBRANCH  15  16
BRANCH  15  19
HETATM   19  C22 UNL     1      -6.395  22.488   8.806  1.00  0.00     0.009 C 
HETATM   20  C23 UNL     1      -7.685  22.715   8.102  1.00  0.00     0.012 C 
HETATM   21  C24 UNL     1      -6.184  20.970   8.917  1.00  0.00     0.012 C 
ENDBRANCH  15  19
ENDBRANCH  12  15
ENDBRANCH   6  11
ENDBRANCH   1   5
BRANCH   3  22
HETATM   22  C11 UNL     1      -1.722  19.288   9.331  1.00  0.00     0.180 C 
BRANCH  22  23
HETATM   23  N4  UNL     1      -2.257  18.811   8.064  1.00  0.00    -0.343 N 
HETATM   24  C12 UNL     1      -3.549  18.247   7.991  1.00  0.00     0.273 C 
HETATM   25  O3  UNL     1      -4.232  18.160   9.033  1.00  0.00    -0.268 OA
ATOM     26  H4  UNL     1      -1.691  18.886   7.219  1.00  0.00     0.163 HD
BRANCH  24  27
HETATM   27  C13 UNL     1      -4.073  17.772   6.702  1.00  0.00     0.353 C 
HETATM   28  O4  UNL     1      -3.246  16.772   6.206  1.00  0.00    -0.352 OA
HETATM   29  C14 UNL     1      -3.493  16.642   4.850  1.00  0.00     0.182 C 
HETATM   30  C15 UNL     1      -4.973  16.549   4.602  1.00  0.00    -0.004 C 
HETATM   31  C16 UNL     1      -5.504  17.773   3.886  1.00  0.00     0.019 C 
HETATM   32  C17 UNL     1      -5.222  15.366   3.683  1.00  0.00     0.019 C 
HETATM   33  C18 UNL     1      -5.755  16.403   5.876  1.00  0.00     0.182 C 
HETATM   34  O5  UNL     1      -5.405  17.377   6.784  1.00  0.00    -0.352 OA
ENDBRANCH  24  27
ENDBRANCH  22  23
BRANCH  22  35
HETATM   35  C19 UNL     1      -0.466  18.553   9.693  1.00  0.00     0.009 C 
HETATM   36  C20 UNL     1       0.759  19.166   9.024  1.00  0.00     0.012 C 
HETATM   37  C21 UNL     1      -0.593  17.139   9.129  1.00  0.00     0.012 C 
ENDBRANCH  22  35
ENDBRANCH   3  22
TORSDOF 9
ENDMDL
MODEL 5
REMARK VINA RESULT: -6.058840375      4.020      7.190
REMARK  9 active torsions:
REMARK  status: ('A' for Active; 'I' for Inactive)
REMARK    1  A    between atoms: N1_2  and  C2_4 
REMARK    2  A    between atoms: C2_4  and  C3_5 
REMARK    3  A    between atoms: C2_4  and  C22_35 
REMARK       I    between atoms: C3_5  and  N2_7 
REMARK    4  A    between atoms: N2_7  and  C4_9 
REMARK    5  A    between atoms: C9_14  and  N3_15 
REMARK       I    between atoms: N3_15  and  C10_17 
REMARK    6  A    between atoms: C10_17  and  C11_19 
REMARK    7  A    between atoms: C11_19  and  N4_20 
REMARK    8  A    between atoms: C11_19  and  C19_32 
REMARK       I    between atoms: N4_20  and  C12_22 
REMARK    9  A    between atoms: C12_22  and  C13_24 
ROOT
HETATM    1  N3  UNL     1      -6.274  22.878  10.698  1.00  0.00    -0.353 N 
ATOM      2  H3  UNL     1      -5.928  23.790  10.402  1.00  0.00     0.163 HD
HETATM    3  C10 UNL     1      -7.355  22.800  11.587  1.00  0.00     0.241 C 
HETATM    4  O2  UNL     1      -7.772  21.662  11.944  1.00  0.00    -0.271 OA
ENDROOT
BRANCH   1   5
HETATM    5  C9  UNL     1      -5.649  21.685  10.201  1.00  0.00     0.107 C 
HETATM    6  C4  UNL     1      -6.110  21.239   8.855  1.00  0.00     0.107 C 
HETATM    7  C5  UNL     1      -5.589  19.844   8.618  1.00  0.00     0.027 C 
HETATM    8  C6  UNL     1      -4.238  19.615   9.242  1.00  0.00     0.002 C 
HETATM    9  C7  UNL     1      -3.436  20.870   9.397  1.00  0.00     0.002 C 
HETATM   10  C8  UNL     1      -4.166  22.003  10.058  1.00  0.00     0.027 C 
BRANCH   6  11
HETATM   11  N2  UNL     1      -7.554  21.201   8.691  1.00  0.00    -0.353 N 
HETATM   12  C3  UNL     1      -8.253  22.007   7.792  1.00  0.00     0.240 C 
HETATM   13  O1  UNL     1      -7.531  22.808   7.095  1.00  0.00    -0.271 OA
ATOM     14  H2  UNL     1      -8.086  20.547   9.266  1.00  0.00     0.163 HD
BRANCH  12  15
HETATM   15  C2  UNL     1      -9.686  22.068   7.529  1.00  0.00     0.172 C 
BRANCH  15  16
HETATM   16  N1  UNL     1      -9.980  22.650   6.225  1.00  0.00    -0.413 N 
HETATM   17  C1  UNL     1     -10.394  21.717   5.236  1.00  0.00     0.140 C 
ATOM     18  H1  UNL     1      -9.895  23.649   6.037  1.00  0.00     0.153 HD
ENDBRANCH  15  16
BRANCH  15  19
HETATM   19  C22 UNL     1     -10.498  22.866   8.520  1.00  0.00     0.009 C 
HETATM   20  C23 UNL     1      -9.818  24.083   9.040  1.00  0.00     0.012 C 
HETATM   21  C24 UNL     1     -10.731  21.917   9.706  1.00  0.00     0.012 C 
ENDBRANCH  15  19
ENDBRANCH  12  15
ENDBRANCH   6  11
ENDBRANCH   1   5
BRANCH   3  22
HETATM   22  C11 UNL     1      -8.059  23.979  12.149  1.00  0.00     0.180 C 
BRANCH  22  23
HETATM   23  N4  UNL     1      -8.481  23.717  13.517  1.00  0.00    -0.343 N 
HETATM   24  C12 UNL     1      -9.845  23.531  13.831  1.00  0.00     0.273 C 
HETATM   25  O3  UNL     1     -10.691  23.595  12.914  1.00  0.00    -0.268 OA
ATOM     26  H4  UNL     1      -7.782  23.666  14.259  1.00  0.00     0.163 HD
BRANCH  24  27
HETATM   27  C13 UNL     1     -10.252  23.266  15.218  1.00  0.00     0.353 C 
HETATM   28  O4  UNL     1     -11.246  22.296  15.232  1.00  0.00    -0.352 OA
HETATM   29  C14 UNL     1     -11.898  22.365  16.452  1.00  0.00     0.182 C 
HETATM   30  C15 UNL     1     -10.896  22.391  17.571  1.00  0.00    -0.004 C 
HETATM   31  C16 UNL     1     -10.876  23.730  18.279  1.00  0.00     0.019 C 
HETATM   32  C17 UNL     1     -11.316  21.360  18.603  1.00  0.00     0.019 C 
HETATM   33  C18 UNL     1      -9.498  22.120  17.091  1.00  0.00     0.182 C 
HETATM   34  O5  UNL     1      -9.172  22.941  16.035  1.00  0.00    -0.352 OA
ENDBRANCH  24  27
ENDBRANCH  22  23
BRANCH  22  35
HETATM   35  C19 UNL     1      -7.243  25.234  12.071  1.00  0.00     0.009 C 
HETATM   36  C20 UNL     1      -6.513  25.515  13.379  1.00  0.00     0.012 C 
HETATM   37  C21 UNL     1      -8.218  26.393  11.873  1.00  0.00     0.012 C 
ENDBRANCH  22  35
ENDBRANCH   3  22
TORSDOF 9
ENDMDL
