MODEL 1
REMARK VINA RESULT: -7.109313018      0.000      0.000
REMARK  10 active torsions:
REMARK  status: ('A' for Active; 'I' for Inactive)
REMARK    1  A    between atoms: N1_2  and  C2_4 
REMARK    2  A    between atoms: C2_4  and  C4_6 
REMARK       I    between atoms: C4_6  and  N2_8 
REMARK    3  A    between atoms: N2_8  and  C5_10 
REMARK    4  A    between atoms: C6_11  and  N3_12 
REMARK       I    between atoms: N3_12  and  C7_14 
REMARK    5  A    between atoms: C7_14  and  C8_16 
REMARK    6  A    between atoms: C8_16  and  N4_17 
REMARK    7  A    between atoms: C8_16  and  C9_21 
REMARK    8  A    between atoms: C9_21  and  C10_22 
REMARK    9  A    between atoms: C19_31  and  C20_32 
REMARK   10  A    between atoms: C20_32  and  N5_33 
ROOT
HETATM    1  C5  UNL     1       7.380 -22.200  11.523  1.00  0.00     0.137 C 
HETATM    2  C6  UNL     1       5.899 -22.220  11.316  1.00  0.00     0.119 C 
HETATM    3  C19 UNL     1       5.357 -22.859  12.622  1.00  0.00     0.055 C 
HETATM    4  C23 UNL     1       6.419 -23.811  12.952  1.00  0.00     0.030 C 
HETATM    5  C24 UNL     1       6.689 -24.930  11.978  1.00  0.00     0.034 C 
HETATM    6  C25 UNL     1       8.159 -25.200  12.330  1.00  0.00     0.168 C 
HETATM    7  O3  UNL     1       8.687 -23.959  12.512  1.00  0.00    -0.383 OA
HETATM    8  C26 UNL     1       7.728 -23.005  12.709  1.00  0.00     0.151 C 
ENDROOT
BRANCH   2   9
HETATM    9  N3  UNL     1       5.334 -20.860  11.329  1.00  0.00    -0.352 N 
HETATM   10  C7  UNL     1       5.397 -20.003  10.234  1.00  0.00     0.248 C 
HETATM   11  O2  UNL     1       5.960 -20.381   9.184  1.00  0.00    -0.271 OA
ATOM     12  H3  UNL     1       4.877 -20.531  12.180  1.00  0.00     0.163 HD
BRANCH  10  13
HETATM   13  C8  UNL     1       4.780 -18.628  10.326  1.00  0.00     0.275 C 
BRANCH  13  14
HETATM   14  N4  UNL     1       5.448 -17.733   9.425  1.00  0.00    -0.066 N 
ATOM     15  H43 UNL     1       5.933 -18.231   8.680  1.00  0.00     0.275 HD
ATOM     16  H42 UNL     1       4.791 -17.208   8.849  1.00  0.00     0.275 HD
ATOM     17  H41 UNL     1       6.074 -17.119   9.947  1.00  0.00     0.275 HD
ENDBRANCH  13  14
BRANCH  13  18
HETATM   18  C9  UNL     1       3.329 -18.776  10.023  1.00  0.00     0.047 C 
BRANCH  18  19
HETATM   19  C10 UNL     1       2.432 -19.168  11.156  1.00  0.00    -0.012 C 
HETATM   20  C11 UNL     1       1.913 -20.562  10.815  1.00  0.00     0.005 C 
HETATM   21  C12 UNL     1       0.976 -21.116  11.823  1.00  0.00     0.005 C 
HETATM   22  C13 UNL     1       0.247 -20.105  12.630  1.00  0.00    -0.010 C 
HETATM   23  C14 UNL     1      -1.212 -20.482  12.856  1.00  0.00     0.005 C 
HETATM   24  C17 UNL     1       0.107 -18.768  12.013  1.00  0.00    -0.010 C 
HETATM   25  C15 UNL     1      -1.957 -19.879  11.679  1.00  0.00     0.001 C 
HETATM   26  C16 UNL     1      -1.087 -18.832  11.076  1.00  0.00     0.005 C 
HETATM   27  C18 UNL     1       1.340 -18.197  11.369  1.00  0.00     0.010 C 
ENDBRANCH  18  19
ENDBRANCH  13  18
ENDBRANCH  10  13
ENDBRANCH   2   9
BRANCH   1  28
HETATM   28  N2  UNL     1       8.107 -22.562  10.329  1.00  0.00    -0.350 N 
HETATM   29  C4  UNL     1       9.084 -21.866   9.634  1.00  0.00     0.240 C 
HETATM   30  O1  UNL     1       9.468 -20.744  10.012  1.00  0.00    -0.271 OA
ATOM     31  H2  UNL     1       7.863 -23.470   9.934  1.00  0.00     0.163 HD
BRANCH  29  32
HETATM   32  C2  UNL     1       9.660 -22.498   8.415  1.00  0.00     0.165 C 
HETATM   33  C3  UNL     1      10.119 -21.466   7.401  1.00  0.00     0.042 C 
BRANCH  32  34
HETATM   34  N1  UNL     1      10.607 -23.525   8.637  1.00  0.00    -0.414 N 
HETATM   35  C1  UNL     1      10.469 -24.711   7.871  1.00  0.00     0.140 C 
ATOM     36  H1  UNL     1      11.357 -23.416   9.319  1.00  0.00     0.153 HD
ENDBRANCH  32  34
ENDBRANCH  29  32
ENDBRANCH   1  28
BRANCH   3  37
HETATM   37  C20 UNL     1       3.963 -23.312  12.426  1.00  0.00     0.064 C 
BRANCH  37  38
HETATM   38  N5  UNL     1       3.487 -24.251  13.325  1.00  0.00    -0.401 N 
HETATM   39  C21 UNL     1       3.095 -25.538  12.903  1.00  0.00     0.148 C 
HETATM   40  C22 UNL     1       2.907 -23.781  14.547  1.00  0.00     0.148 C 
ENDBRANCH  37  38
ENDBRANCH   3  37
TORSDOF 10
ENDMDL
MODEL 2
REMARK VINA RESULT: -6.785779686      1.751      4.919
REMARK  10 active torsions:
REMARK  status: ('A' for Active; 'I' for Inactive)
REMARK    1  A    between atoms: N1_2  and  C2_4 
REMARK    2  A    between atoms: C2_4  and  C4_6 
REMARK       I    between atoms: C4_6  and  N2_8 
REMARK    3  A    between atoms: N2_8  and  C5_10 
REMARK    4  A    between atoms: C6_11  and  N3_12 
REMARK       I    between atoms: N3_12  and  C7_14 
REMARK    5  A    between atoms: C7_14  and  C8_16 
REMARK    6  A    between atoms: C8_16  and  N4_17 
REMARK    7  A    between atoms: C8_16  and  C9_21 
REMARK    8  A    between atoms: C9_21  and  C10_22 
REMARK    9  A    between atoms: C19_31  and  C20_32 
REMARK   10  A    between atoms: C20_32  and  N5_33 
ROOT
HETATM    1  C5  UNL     1       5.287 -23.639  10.622  1.00  0.00     0.137 C 
HETATM    2  C6  UNL     1       6.191 -22.451  10.720  1.00  0.00     0.119 C 
HETATM    3  C19 UNL     1       7.198 -22.662   9.558  1.00  0.00     0.055 C 
HETATM    4  C23 UNL     1       7.320 -24.120   9.531  1.00  0.00     0.030 C 
HETATM    5  C24 UNL     1       7.888 -24.802  10.750  1.00  0.00     0.034 C 
HETATM    6  C25 UNL     1       7.234 -26.180  10.576  1.00  0.00     0.168 C 
HETATM    7  O3  UNL     1       5.972 -25.894  10.156  1.00  0.00    -0.383 OA
HETATM    8  C26 UNL     1       5.854 -24.619   9.678  1.00  0.00     0.151 C 
ENDROOT
BRANCH   2   9
HETATM    9  N3  UNL     1       5.490 -21.207  10.357  1.00  0.00    -0.352 N 
HETATM   10  C7  UNL     1       5.462 -20.085  11.181  1.00  0.00     0.248 C 
HETATM   11  O2  UNL     1       6.044 -20.116  12.287  1.00  0.00    -0.271 OA
ATOM     12  H3  UNL     1       5.003 -21.166   9.462  1.00  0.00     0.163 HD
BRANCH  10  13
HETATM   13  C8  UNL     1       4.731 -18.845  10.728  1.00  0.00     0.275 C 
BRANCH  13  14
HETATM   14  N4  UNL     1       5.461 -18.208   9.669  1.00  0.00    -0.066 N 
ATOM     15  H43 UNL     1       6.385 -17.901   9.971  1.00  0.00     0.275 HD
ATOM     16  H42 UNL     1       5.752 -18.872   8.952  1.00  0.00     0.275 HD
ATOM     17  H41 UNL     1       4.910 -17.443   9.280  1.00  0.00     0.275 HD
ENDBRANCH  13  14
BRANCH  13  18
HETATM   18  C9  UNL     1       3.363 -19.266  10.315  1.00  0.00     0.047 C 
BRANCH  18  19
HETATM   19  C10 UNL     1       2.382 -19.560  11.407  1.00  0.00    -0.012 C 
HETATM   20  C11 UNL     1       1.799 -20.933  11.087  1.00  0.00     0.005 C 
HETATM   21  C12 UNL     1       0.774 -21.391  12.057  1.00  0.00     0.005 C 
HETATM   22  C13 UNL     1       0.064 -20.308  12.784  1.00  0.00    -0.010 C 
HETATM   23  C14 UNL     1      -1.425 -20.589  12.938  1.00  0.00     0.005 C 
HETATM   24  C17 UNL     1       0.040 -18.990  12.111  1.00  0.00    -0.010 C 
HETATM   25  C15 UNL     1      -2.065 -19.990  11.698  1.00  0.00     0.001 C 
HETATM   26  C16 UNL     1      -1.101 -19.021  11.109  1.00  0.00     0.005 C 
HETATM   27  C18 UNL     1       1.340 -18.518  11.521  1.00  0.00     0.010 C 
ENDBRANCH  18  19
ENDBRANCH  13  18
ENDBRANCH  10  13
ENDBRANCH   2   9
BRANCH   1  28
HETATM   28  N2  UNL     1       4.956 -24.185  11.917  1.00  0.00    -0.350 N 
HETATM   29  C4  UNL     1       4.334 -23.590  13.004  1.00  0.00     0.240 C 
HETATM   30  O1  UNL     1       3.965 -22.403  12.964  1.00  0.00    -0.271 OA
ATOM     31  H2  UNL     1       5.220 -25.161  12.053  1.00  0.00     0.163 HD
BRANCH  29  32
HETATM   32  C2  UNL     1       4.125 -24.413  14.227  1.00  0.00     0.165 C 
HETATM   33  C3  UNL     1       5.405 -25.088  14.685  1.00  0.00     0.042 C 
BRANCH  32  34
HETATM   34  N1  UNL     1       3.413 -23.791  15.278  1.00  0.00    -0.414 N 
HETATM   35  C1  UNL     1       2.019 -24.046  15.357  1.00  0.00     0.140 C 
ATOM     36  H1  UNL     1       3.881 -23.186  15.952  1.00  0.00     0.153 HD
ENDBRANCH  32  34
ENDBRANCH  29  32
ENDBRANCH   1  28
BRANCH   3  37
HETATM   37  C20 UNL     1       8.384 -21.801   9.749  1.00  0.00     0.064 C 
BRANCH  37  38
HETATM   38  N5  UNL     1       9.518 -22.144   9.033  1.00  0.00    -0.401 N 
HETATM   39  C21 UNL     1      10.669 -22.642   9.677  1.00  0.00     0.148 C 
HETATM   40  C22 UNL     1       9.722 -21.528   7.757  1.00  0.00     0.148 C 
ENDBRANCH  37  38
ENDBRANCH   3  37
TORSDOF 10
ENDMDL
MODEL 3
REMARK VINA RESULT: -6.778574057      4.023      8.725
REMARK  10 active torsions:
REMARK  status: ('A' for Active; 'I' for Inactive)
REMARK    1  A    between atoms: N1_2  and  C2_4 
REMARK    2  A    between atoms: C2_4  and  C4_6 
REMARK       I    between atoms: C4_6  and  N2_8 
REMARK    3  A    between atoms: N2_8  and  C5_10 
REMARK    4  A    between atoms: C6_11  and  N3_12 
REMARK       I    between atoms: N3_12  and  C7_14 
REMARK    5  A    between atoms: C7_14  and  C8_16 
REMARK    6  A    between atoms: C8_16  and  N4_17 
REMARK    7  A    between atoms: C8_16  and  C9_21 
REMARK    8  A    between atoms: C9_21  and  C10_22 
REMARK    9  A    between atoms: C19_31  and  C20_32 
REMARK   10  A    between atoms: C20_32  and  N5_33 
ROOT
HETATM    1  C5  UNL     1      -1.260 -22.483  11.255  1.00  0.00     0.137 C 
HETATM    2  C6  UNL     1      -0.276 -21.768  12.125  1.00  0.00     0.119 C 
HETATM    3  C19 UNL     1       0.594 -22.913  12.709  1.00  0.00     0.055 C 
HETATM    4  C23 UNL     1      -0.384 -23.994  12.838  1.00  0.00     0.030 C 
HETATM    5  C24 UNL     1      -1.546 -23.784  13.777  1.00  0.00     0.034 C 
HETATM    6  C25 UNL     1      -2.553 -24.740  13.122  1.00  0.00     0.168 C 
HETATM    7  O3  UNL     1      -2.371 -24.547  11.788  1.00  0.00    -0.383 OA
HETATM    8  C26 UNL     1      -1.183 -23.934  11.504  1.00  0.00     0.151 C 
ENDROOT
BRANCH   2   9
HETATM    9  N3  UNL     1       0.675 -20.976  11.326  1.00  0.00    -0.352 N 
HETATM   10  C7  UNL     1       0.971 -19.644  11.602  1.00  0.00     0.248 C 
HETATM   11  O2  UNL     1       0.409 -19.072  12.562  1.00  0.00    -0.271 OA
ATOM     12  H3  UNL     1       1.137 -21.423  10.535  1.00  0.00     0.163 HD
BRANCH  10  13
HETATM   13  C8  UNL     1       1.968 -18.907  10.742  1.00  0.00     0.275 C 
BRANCH  13  14
HETATM   14  N4  UNL     1       1.708 -17.497  10.792  1.00  0.00    -0.066 N 
ATOM     15  H43 UNL     1       1.834 -17.117  11.729  1.00  0.00     0.275 HD
ATOM     16  H42 UNL     1       2.429 -16.957  10.315  1.00  0.00     0.275 HD
ATOM     17  H41 UNL     1       0.777 -17.303  10.422  1.00  0.00     0.275 HD
ENDBRANCH  13  14
BRANCH  13  18
HETATM   18  C9  UNL     1       3.326 -19.262  11.242  1.00  0.00     0.047 C 
BRANCH  18  19
HETATM   19  C10 UNL     1       3.958 -20.498  10.681  1.00  0.00    -0.012 C 
HETATM   20  C11 UNL     1       4.168 -21.435  11.867  1.00  0.00     0.005 C 
HETATM   21  C12 UNL     1       4.815 -22.720  11.509  1.00  0.00     0.005 C 
HETATM   22  C13 UNL     1       5.659 -22.683  10.288  1.00  0.00    -0.010 C 
HETATM   23  C14 UNL     1       6.947 -23.482  10.446  1.00  0.00     0.005 C 
HETATM   24  C17 UNL     1       6.189 -21.354   9.912  1.00  0.00    -0.010 C 
HETATM   25  C15 UNL     1       7.953 -22.492  11.005  1.00  0.00     0.001 C 
HETATM   26  C16 UNL     1       7.439 -21.120  10.742  1.00  0.00     0.005 C 
HETATM   27  C18 UNL     1       5.216 -20.208   9.962  1.00  0.00     0.010 C 
ENDBRANCH  18  19
ENDBRANCH  13  18
ENDBRANCH  10  13
ENDBRANCH   2   9
BRANCH   1  28
HETATM   28  N2  UNL     1      -2.591 -21.934  11.364  1.00  0.00    -0.350 N 
HETATM   29  C4  UNL     1      -3.048 -20.648  11.118  1.00  0.00     0.240 C 
HETATM   30  O1  UNL     1      -2.274 -19.750  10.742  1.00  0.00    -0.271 OA
ATOM     31  H2  UNL     1      -3.306 -22.594  11.670  1.00  0.00     0.163 HD
BRANCH  29  32
HETATM   32  C2  UNL     1      -4.497 -20.370  11.324  1.00  0.00     0.165 C 
HETATM   33  C3  UNL     1      -5.351 -20.946  10.210  1.00  0.00     0.042 C 
BRANCH  32  34
HETATM   34  N1  UNL     1      -5.003 -20.643  12.616  1.00  0.00    -0.414 N 
HETATM   35  C1  UNL     1      -6.377 -20.370  12.845  1.00  0.00     0.140 C 
ATOM     36  H1  UNL     1      -4.406 -21.020  13.352  1.00  0.00     0.153 HD
ENDBRANCH  32  34
ENDBRANCH  29  32
ENDBRANCH   1  28
BRANCH   3  37
HETATM   37  C20 UNL     1       1.352 -22.428  13.881  1.00  0.00     0.064 C 
BRANCH  37  38
HETATM   38  N5  UNL     1       1.821 -23.394  14.756  1.00  0.00    -0.401 N 
HETATM   39  C21 UNL     1       1.491 -23.364  16.126  1.00  0.00     0.148 C 
HETATM   40  C22 UNL     1       3.020 -24.094  14.408  1.00  0.00     0.148 C 
ENDBRANCH  37  38
ENDBRANCH   3  37
TORSDOF 10
ENDMDL
MODEL 4
REMARK VINA RESULT: -6.776018097      4.581      9.120
REMARK  10 active torsions:
REMARK  status: ('A' for Active; 'I' for Inactive)
REMARK    1  A    between atoms: N1_2  and  C2_4 
REMARK    2  A    between atoms: C2_4  and  C4_6 
REMARK       I    between atoms: C4_6  and  N2_8 
REMARK    3  A    between atoms: N2_8  and  C5_10 
REMARK    4  A    between atoms: C6_11  and  N3_12 
REMARK       I    between atoms: N3_12  and  C7_14 
REMARK    5  A    between atoms: C7_14  and  C8_16 
REMARK    6  A    between atoms: C8_16  and  N4_17 
REMARK    7  A    between atoms: C8_16  and  C9_21 
REMARK    8  A    between atoms: C9_21  and  C10_22 
REMARK    9  A    between atoms: C19_31  and  C20_32 
REMARK   10  A    between atoms: C20_32  and  N5_33 
ROOT
HETATM    1  C5  UNL     1      -1.812 -22.059  11.167  1.00  0.00     0.137 C 
HETATM    2  C6  UNL     1      -0.712 -21.389  11.928  1.00  0.00     0.119 C 
HETATM    3  C19 UNL     1       0.376 -22.491  12.041  1.00  0.00     0.055 C 
HETATM    4  C23 UNL     1      -0.438 -23.703  12.149  1.00  0.00     0.030 C 
HETATM    5  C24 UNL     1      -1.344 -23.838  13.347  1.00  0.00     0.034 C 
HETATM    6  C25 UNL     1      -2.391 -24.784  12.745  1.00  0.00     0.168 C 
HETATM    7  O3  UNL     1      -2.564 -24.320  11.477  1.00  0.00    -0.383 OA
HETATM    8  C26 UNL     1      -1.545 -23.505  11.073  1.00  0.00     0.151 C 
ENDROOT
BRANCH   2   9
HETATM    9  N3  UNL     1      -0.065 -20.336  11.127  1.00  0.00    -0.352 N 
HETATM   10  C7  UNL     1       0.213 -19.067  11.626  1.00  0.00     0.248 C 
HETATM   11  O2  UNL     1      -0.100 -18.784  12.804  1.00  0.00    -0.271 OA
ATOM     12  H3  UNL     1       0.191 -20.546  10.162  1.00  0.00     0.163 HD
BRANCH  10  13
HETATM   13  C8  UNL     1       0.891 -18.049  10.743  1.00  0.00     0.275 C 
BRANCH  13  14
HETATM   14  N4  UNL     1       0.641 -16.727  11.241  1.00  0.00    -0.066 N 
ATOM     15  H43 UNL     1       0.841 -16.649  12.237  1.00  0.00     0.275 HD
ATOM     16  H42 UNL     1       1.325 -16.053  10.899  1.00  0.00     0.275 HD
ATOM     17  H41 UNL     1      -0.315 -16.448  11.019  1.00  0.00     0.275 HD
ENDBRANCH  13  14
BRANCH  13  18
HETATM   18  C9  UNL     1       2.341 -18.390  10.712  1.00  0.00     0.047 C 
BRANCH  18  19
HETATM   19  C10 UNL     1       3.243 -17.470   9.949  1.00  0.00    -0.012 C 
HETATM   20  C11 UNL     1       2.524 -17.175   8.635  1.00  0.00     0.005 C 
HETATM   21  C12 UNL     1       3.284 -16.287   7.722  1.00  0.00     0.005 C 
HETATM   22  C13 UNL     1       4.757 -16.303   7.906  1.00  0.00    -0.010 C 
HETATM   23  C14 UNL     1       5.510 -16.279   6.582  1.00  0.00     0.005 C 
HETATM   24  C17 UNL     1       5.314 -17.523   8.531  1.00  0.00    -0.010 C 
HETATM   25  C15 UNL     1       5.679 -17.739   6.203  1.00  0.00     0.001 C 
HETATM   26  C16 UNL     1       5.474 -18.557   7.430  1.00  0.00     0.005 C 
HETATM   27  C18 UNL     1       4.586 -18.047   9.739  1.00  0.00     0.010 C 
ENDBRANCH  18  19
ENDBRANCH  13  18
ENDBRANCH  10  13
ENDBRANCH   2   9
BRANCH   1  28
HETATM   28  N2  UNL     1      -3.118 -21.731  11.689  1.00  0.00    -0.350 N 
HETATM   29  C4  UNL     1      -4.020 -20.757  11.288  1.00  0.00     0.240 C 
HETATM   30  O1  UNL     1      -3.763 -19.991  10.342  1.00  0.00    -0.271 OA
ATOM     31  H2  UNL     1      -3.425 -22.305  12.474  1.00  0.00     0.163 HD
BRANCH  29  32
HETATM   32  C2  UNL     1      -5.308 -20.650  12.028  1.00  0.00     0.165 C 
HETATM   33  C3  UNL     1      -6.383 -21.540  11.433  1.00  0.00     0.042 C 
BRANCH  32  34
HETATM   34  N1  UNL     1      -5.223 -20.741  13.437  1.00  0.00    -0.414 N 
HETATM   35  C1  UNL     1      -6.250 -21.458  14.104  1.00  0.00     0.140 C 
ATOM     36  H1  UNL     1      -4.455 -20.309  13.951  1.00  0.00     0.153 HD
ENDBRANCH  32  34
ENDBRANCH  29  32
ENDBRANCH   1  28
BRANCH   3  37
HETATM   37  C20 UNL     1       1.355 -22.134  13.089  1.00  0.00     0.064 C 
BRANCH  37  38
HETATM   38  N5  UNL     1       2.561 -22.814  13.065  1.00  0.00    -0.401 N 
HETATM   39  C21 UNL     1       2.912 -23.720  14.087  1.00  0.00     0.148 C 
HETATM   40  C22 UNL     1       3.645 -22.239  12.328  1.00  0.00     0.148 C 
ENDBRANCH  37  38
ENDBRANCH   3  37
TORSDOF 10
ENDMDL
MODEL 5
REMARK VINA RESULT: -6.766874746      2.216      3.687
REMARK  10 active torsions:
REMARK  status: ('A' for Active; 'I' for Inactive)
REMARK    1  A    between atoms: N1_2  and  C2_4 
REMARK    2  A    between atoms: C2_4  and  C4_6 
REMARK       I    between atoms: C4_6  and  N2_8 
REMARK    3  A    between atoms: N2_8  and  C5_10 
REMARK    4  A    between atoms: C6_11  and  N3_12 
REMARK       I    between atoms: N3_12  and  C7_14 
REMARK    5  A    between atoms: C7_14  and  C8_16 
REMARK    6  A    between atoms: C8_16  and  N4_17 
REMARK    7  A    between atoms: C8_16  and  C9_21 
REMARK    8  A    between atoms: C9_21  and  C10_22 
REMARK    9  A    between atoms: C19_31  and  C20_32 
REMARK   10  A    between atoms: C20_32  and  N5_33 
ROOT
HETATM    1  C5  UNL     1       8.555 -21.921  12.981  1.00  0.00     0.137 C 
HETATM    2  C6  UNL     1       7.728 -23.128  13.294  1.00  0.00     0.119 C 
HETATM    3  C19 UNL     1       7.963 -23.346  14.813  1.00  0.00     0.055 C 
HETATM    4  C23 UNL     1       9.353 -22.913  14.965  1.00  0.00     0.030 C 
HETATM    5  C24 UNL     1      10.417 -23.687  14.227  1.00  0.00     0.034 C 
HETATM    6  C25 UNL     1      11.476 -22.582  14.113  1.00  0.00     0.168 C 
HETATM    7  O3  UNL     1      10.755 -21.463  13.831  1.00  0.00    -0.383 OA
HETATM    8  C26 UNL     1       9.429 -21.605  14.125  1.00  0.00     0.151 C 
ENDROOT
BRANCH   2   9
HETATM    9  N3  UNL     1       6.288 -22.836  13.199  1.00  0.00    -0.352 N 
HETATM   10  C7  UNL     1       5.503 -23.235  12.121  1.00  0.00     0.248 C 
HETATM   11  O2  UNL     1       6.026 -23.865  11.176  1.00  0.00    -0.271 OA
ATOM     12  H3  UNL     1       5.846 -22.316  13.957  1.00  0.00     0.163 HD
BRANCH  10  13
HETATM   13  C8  UNL     1       4.030 -22.907  12.108  1.00  0.00     0.275 C 
BRANCH  13  14
HETATM   14  N4  UNL     1       3.335 -23.743  13.044  1.00  0.00    -0.066 N 
ATOM     15  H43 UNL     1       3.087 -24.645  12.640  1.00  0.00     0.275 HD
ATOM     16  H42 UNL     1       3.947 -24.076  13.788  1.00  0.00     0.275 HD
ATOM     17  H41 UNL     1       2.521 -23.250  13.411  1.00  0.00     0.275 HD
ENDBRANCH  13  14
BRANCH  13  18
HETATM   18  C9  UNL     1       3.900 -21.456  12.421  1.00  0.00     0.047 C 
BRANCH  18  19
HETATM   19  C10 UNL     1       3.564 -20.540  11.286  1.00  0.00    -0.012 C 
HETATM   20  C11 UNL     1       4.347 -19.255  11.539  1.00  0.00     0.005 C 
HETATM   21  C12 UNL     1       4.120 -18.203  10.518  1.00  0.00     0.005 C 
HETATM   22  C13 UNL     1       2.822 -18.287   9.802  1.00  0.00    -0.010 C 
HETATM   23  C14 UNL     1       2.186 -16.919   9.586  1.00  0.00     0.005 C 
HETATM   24  C17 UNL     1       1.738 -18.998  10.517  1.00  0.00    -0.010 C 
HETATM   25  C15 UNL     1       1.335 -16.686  10.821  1.00  0.00     0.001 C 
HETATM   26  C16 UNL     1       1.108 -18.003  11.476  1.00  0.00     0.005 C 
HETATM   27  C18 UNL     1       2.111 -20.301  11.169  1.00  0.00     0.010 C 
ENDBRANCH  18  19
ENDBRANCH  13  18
ENDBRANCH  10  13
ENDBRANCH   2   9
BRANCH   1  28
HETATM   28  N2  UNL     1       9.250 -22.044  11.721  1.00  0.00    -0.350 N 
HETATM   29  C4  UNL     1       8.870 -21.643  10.449  1.00  0.00     0.240 C 
HETATM   30  O1  UNL     1       7.777 -21.082  10.251  1.00  0.00    -0.271 OA
ATOM     31  H2  UNL     1      10.163 -22.496  11.775  1.00  0.00     0.163 HD
BRANCH  29  32
HETATM   32  C2  UNL     1       9.806 -21.909   9.323  1.00  0.00     0.165 C 
HETATM   33  C3  UNL     1      10.230 -23.365   9.265  1.00  0.00     0.042 C 
BRANCH  32  34
HETATM   34  N1  UNL     1       9.426 -21.387   8.064  1.00  0.00    -0.414 N 
HETATM   35  C1  UNL     1      10.407 -21.387   7.039  1.00  0.00     0.140 C 
ATOM     36  H1  UNL     1       8.486 -21.026   7.901  1.00  0.00     0.153 HD
ENDBRANCH  32  34
ENDBRANCH  29  32
ENDBRANCH   1  28
BRANCH   3  37
HETATM   37  C20 UNL     1       7.543 -24.709  15.202  1.00  0.00     0.064 C 
BRANCH  37  38
HETATM   38  N5  UNL     1       6.437 -24.802  16.029  1.00  0.00    -0.401 N 
HETATM   39  C21 UNL     1       6.552 -24.654  17.426  1.00  0.00     0.148 C 
HETATM   40  C22 UNL     1       5.306 -25.544  15.561  1.00  0.00     0.148 C 
ENDBRANCH  37  38
ENDBRANCH   3  37
TORSDOF 10
ENDMDL
