MODEL 1
REMARK VINA RESULT: -5.278266307      0.000      0.000
REMARK  0 active torsions:
REMARK  status: ('A' for Active; 'I' for Inactive)
ROOT
HETATM    1  C1  UNL     1     -31.077   2.297 -38.503  1.00  0.00     0.000 C 
HETATM    2  C2  UNL     1     -31.851   3.526 -38.071  1.00  0.00     0.000 C 
HETATM    3  C3  UNL     1     -32.660   4.112 -39.216  1.00  0.00     0.002 C 
HETATM    4  C4  UNL     1     -34.087   3.575 -39.216  1.00  0.00     0.027 C 
HETATM    5  C5  UNL     1     -34.291   2.544 -40.310  1.00  0.00     0.232 C 
HETATM    6  N1  UNL     1     -35.124   1.495 -39.736  1.00  0.00    -0.074 N 
ATOM      7  H11 UNL     1     -36.113   1.734 -39.810  1.00  0.00     0.277 HD
ATOM      8  H12 UNL     1     -35.035   1.473 -38.720  1.00  0.00     0.277 HD
HETATM    9  C6  UNL     1     -34.864   0.203 -40.301  1.00  0.00     0.259 C 
HETATM   10  C7  UNL     1     -35.136  -0.919 -39.301  1.00  0.00     0.259 C 
HETATM   11  N2  UNL     1     -34.260  -0.873 -38.172  1.00  0.00    -0.074 N 
ATOM     12  H21 UNL     1     -34.767  -1.078 -37.310  1.00  0.00     0.277 HD
ATOM     13  H22 UNL     1     -33.972   0.085 -37.974  1.00  0.00     0.277 HD
HETATM   14  C8  UNL     1     -33.115  -1.732 -38.306  1.00  0.00     0.232 C 
HETATM   15  C9  UNL     1     -31.927  -1.280 -37.497  1.00  0.00     0.027 C 
HETATM   16  C10 UNL     1     -31.135  -0.202 -38.239  1.00  0.00     0.002 C 
HETATM   17  C11 UNL     1     -31.647   1.121 -37.766  1.00  0.00     0.000 C 
ENDROOT
TORSDOF 0
ENDMDL
MODEL 2
REMARK VINA RESULT: -4.953494967      1.510      3.408
REMARK  0 active torsions:
REMARK  status: ('A' for Active; 'I' for Inactive)
ROOT
HETATM    1  C1  UNL     1     -34.541   3.080 -39.780  1.00  0.00     0.000 C 
HETATM    2  C2  UNL     1     -33.408   4.053 -40.040  1.00  0.00     0.000 C 
HETATM    3  C3  UNL     1     -32.745   4.502 -38.748  1.00  0.00     0.002 C 
HETATM    4  C4  UNL     1     -31.532   3.637 -38.421  1.00  0.00     0.027 C 
HETATM    5  C5  UNL     1     -31.835   2.663 -37.298  1.00  0.00     0.232 C 
HETATM    6  N1  UNL     1     -31.187   1.408 -37.657  1.00  0.00    -0.074 N 
ATOM      7  H11 UNL     1     -30.210   1.405 -37.364  1.00  0.00     0.277 HD
ATOM      8  H12 UNL     1     -31.058   1.340 -38.667  1.00  0.00     0.277 HD
HETATM    9  C6  UNL     1     -31.879   0.257 -37.151  1.00  0.00     0.259 C 
HETATM   10  C7  UNL     1     -31.688  -0.961 -38.051  1.00  0.00     0.259 C 
HETATM   11  N2  UNL     1     -32.260  -0.781 -39.350  1.00  0.00    -0.074 N 
ATOM     12  H21 UNL     1     -31.646  -1.159 -40.072  1.00  0.00     0.277 HD
ATOM     13  H22 UNL     1     -32.248   0.203 -39.618  1.00  0.00     0.277 HD
HETATM   14  C8  UNL     1     -33.584  -1.327 -39.468  1.00  0.00     0.232 C 
HETATM   15  C9  UNL     1     -34.418  -0.656 -40.528  1.00  0.00     0.027 C 
HETATM   16  C10 UNL     1     -35.055   0.630 -39.996  1.00  0.00     0.002 C 
HETATM   17  C11 UNL     1     -34.138   1.754 -40.357  1.00  0.00     0.000 C 
ENDROOT
TORSDOF 0
ENDMDL
MODEL 3
REMARK VINA RESULT: -4.839227913      1.323      3.466
REMARK  0 active torsions:
REMARK  status: ('A' for Active; 'I' for Inactive)
ROOT
HETATM    1  C1  UNL     1     -34.141   3.003 -39.248  1.00  0.00     0.000 C 
HETATM    2  C2  UNL     1     -32.809   3.625 -39.617  1.00  0.00     0.000 C 
HETATM    3  C3  UNL     1     -31.803   3.511 -38.484  1.00  0.00     0.002 C 
HETATM    4  C4  UNL     1     -30.931   2.269 -38.643  1.00  0.00     0.027 C 
HETATM    5  C5  UNL     1     -31.341   1.178 -37.671  1.00  0.00     0.232 C 
HETATM    6  N1  UNL     1     -31.254  -0.079 -38.404  1.00  0.00    -0.074 N 
ATOM      7  H11 UNL     1     -30.303  -0.449 -38.382  1.00  0.00     0.277 HD
ATOM      8  H12 UNL     1     -31.347   0.077 -39.408  1.00  0.00     0.277 HD
HETATM    9  C6  UNL     1     -32.197  -1.058 -37.948  1.00  0.00     0.259 C 
HETATM   10  C7  UNL     1     -32.617  -2.008 -39.068  1.00  0.00     0.259 C 
HETATM   11  N2  UNL     1     -33.321  -1.340 -40.120  1.00  0.00    -0.074 N 
ATOM     12  H21 UNL     1     -33.025  -1.688 -41.032  1.00  0.00     0.277 HD
ATOM     13  H22 UNL     1     -33.015  -0.370 -40.202  1.00  0.00     0.277 HD
HETATM   14  C8  UNL     1     -34.750  -1.415 -39.983  1.00  0.00     0.232 C 
HETATM   15  C9  UNL     1     -35.477  -0.279 -40.653  1.00  0.00     0.027 C 
HETATM   16  C10 UNL     1     -35.512   0.959 -39.754  1.00  0.00     0.002 C 
HETATM   17  C11 UNL     1     -34.344   1.810 -40.135  1.00  0.00     0.000 C 
ENDROOT
TORSDOF 0
ENDMDL
MODEL 4
REMARK VINA RESULT: -4.826735882      1.677      5.153
REMARK  0 active torsions:
REMARK  status: ('A' for Active; 'I' for Inactive)
ROOT
HETATM    1  C1  UNL     1     -34.405   0.114 -39.923  1.00  0.00     0.000 C 
HETATM    2  C2  UNL     1     -34.435  -0.771 -38.693  1.00  0.00     0.000 C 
HETATM    3  C3  UNL     1     -33.113  -1.492 -38.487  1.00  0.00     0.002 C 
HETATM    4  C4  UNL     1     -32.202  -0.715 -37.542  1.00  0.00     0.027 C 
HETATM    5  C5  UNL     1     -31.088  -0.016 -38.298  1.00  0.00     0.232 C 
HETATM    6  N1  UNL     1     -30.926   1.292 -37.674  1.00  0.00    -0.074 N 
ATOM      7  H11 UNL     1     -30.308   1.235 -36.864  1.00  0.00     0.277 HD
ATOM      8  H12 UNL     1     -31.785   1.583 -37.207  1.00  0.00     0.277 HD
HETATM    9  C6  UNL     1     -30.477   2.297 -38.594  1.00  0.00     0.259 C 
HETATM   10  C7  UNL     1     -30.978   3.687 -38.204  1.00  0.00     0.259 C 
HETATM   11  N2  UNL     1     -32.403   3.796 -38.270  1.00  0.00    -0.074 N 
ATOM     12  H21 UNL     1     -32.763   4.328 -37.478  1.00  0.00     0.277 HD
ATOM     13  H22 UNL     1     -32.845   2.895 -38.083  1.00  0.00     0.277 HD
HETATM   14  C8  UNL     1     -32.873   4.347 -39.512  1.00  0.00     0.232 C 
HETATM   15  C9  UNL     1     -34.276   3.923 -39.863  1.00  0.00     0.027 C 
HETATM   16  C10 UNL     1     -34.283   2.548 -40.535  1.00  0.00     0.002 C 
HETATM   17  C11 UNL     1     -34.514   1.537 -39.458  1.00  0.00     0.000 C 
ENDROOT
TORSDOF 0
ENDMDL
MODEL 5
REMARK VINA RESULT: -4.791952182      0.960      1.215
REMARK  0 active torsions:
REMARK  status: ('A' for Active; 'I' for Inactive)
ROOT
HETATM    1  C1  UNL     1     -31.397   0.895 -38.379  1.00  0.00     0.000 C 
HETATM    2  C2  UNL     1     -31.788   2.265 -37.862  1.00  0.00     0.000 C 
HETATM    3  C3  UNL     1     -32.289   3.165 -38.979  1.00  0.00     0.002 C 
HETATM    4  C4  UNL     1     -33.809   3.103 -39.098  1.00  0.00     0.027 C 
HETATM    5  C5  UNL     1     -34.236   2.278 -40.298  1.00  0.00     0.232 C 
HETATM    6  N1  UNL     1     -35.391   1.499 -39.871  1.00  0.00    -0.074 N 
ATOM      7  H11 UNL     1     -36.251   2.040 -39.966  1.00  0.00     0.277 HD
ATOM      8  H12 UNL     1     -35.389   1.369 -38.859  1.00  0.00     0.277 HD
HETATM    9  C6  UNL     1     -35.498   0.240 -40.550  1.00  0.00     0.259 C 
HETATM   10  C7  UNL     1     -36.175  -0.818 -39.680  1.00  0.00     0.259 C 
HETATM   11  N2  UNL     1     -35.414  -1.139 -38.512  1.00  0.00    -0.074 N 
ATOM     12  H21 UNL     1     -36.023  -1.244 -37.700  1.00  0.00     0.277 HD
ATOM     13  H22 UNL     1     -34.862  -0.337 -38.207  1.00  0.00     0.277 HD
HETATM   14  C8  UNL     1     -34.581  -2.299 -38.679  1.00  0.00     0.232 C 
HETATM   15  C9  UNL     1     -33.376  -2.307 -37.775  1.00  0.00     0.027 C 
HETATM   16  C10 UNL     1     -32.237  -1.473 -38.369  1.00  0.00     0.002 C 
HETATM   17  C11 UNL     1     -32.354  -0.099 -37.789  1.00  0.00     0.000 C 
ENDROOT
TORSDOF 0
ENDMDL
