MODEL 1
REMARK VINA RESULT: -7.701353362      0.000      0.000
REMARK  8 active torsions:
REMARK  status: ('A' for Active; 'I' for Inactive)
REMARK    1  A    between atoms: O1_2  and  C2_3 
REMARK    2  A    between atoms: C2_3  and  C3_4 
REMARK    3  A    between atoms: C3_4  and  C4_8 
REMARK    4  A    between atoms: C4_8  and  N2_10 
REMARK       I    between atoms: N2_10  and  C6_12 
REMARK    5  A    between atoms: C6_12  and  C7_14 
REMARK    6  A    between atoms: C9_20  and  N5_21 
REMARK    7  A    between atoms: C13_29  and  N8_30 
REMARK    8  A    between atoms: C14_33  and  C15_34 
ROOT
HETATM    1  C7  UNL     1      43.674 268.799 159.526  1.00  0.00     0.136 A 
HETATM    2  N3  UNL     1      44.916 269.080 159.016  1.00  0.00    -0.184 N 
ATOM      3  H3  UNL     1      45.639 269.421 159.649  1.00  0.00     0.184 HD
HETATM    4  C8  UNL     1      45.218 268.926 157.724  1.00  0.00     0.709 A 
HETATM    5  N4  UNL     1      46.446 269.212 157.272  1.00  0.00    -0.021 N 
ATOM      6  H4  UNL     1      47.140 269.551 157.938  1.00  0.00     0.203 HD
HETATM    7  C9  UNL     1      46.814 269.076 155.981  1.00  0.00     0.698 A 
HETATM    8  N6  UNL     1      45.858 268.627 155.160  1.00  0.00    -0.140 N 
ATOM      9  H6  UNL     1      46.076 268.502 154.171  1.00  0.00     0.189 HD
HETATM   10  C12 UNL     1      44.613 268.333 155.595  1.00  0.00     0.361 A 
HETATM   11  O3  UNL     1      43.767 267.917 154.772  1.00  0.00    -0.245 OA
HETATM   12  N7  UNL     1      44.276 268.477 156.881  1.00  0.00    -0.079 N 
HETATM   13  C13 UNL     1      43.031 268.181 157.307  1.00  0.00     0.145 A 
HETATM   14  C14 UNL     1      42.736 268.358 158.687  1.00  0.00     0.106 A 
ENDROOT
BRANCH   1  15
HETATM   15  C6  UNL     1      43.591 269.017 160.960  1.00  0.00     0.270 C 
HETATM   16  N2  UNL     1      43.190 270.233 161.530  1.00  0.00    -0.346 N 
ATOM     17  H2  UNL     1      42.939 271.022 160.935  1.00  0.00     0.163 HD
HETATM   18  O2  UNL     1      43.884 268.055 161.754  1.00  0.00    -0.266 OA
BRANCH  16  19
HETATM   19  C4  UNL     1      43.137 270.361 162.993  1.00  0.00     0.128 C 
HETATM   20  C5  UNL     1      44.269 271.215 163.481  1.00  0.00     0.038 C 
BRANCH  19  21
HETATM   21  C3  UNL     1      41.812 270.996 163.283  1.00  0.00     0.026 C 
HETATM   22  N1  UNL     1      40.802 270.616 162.614  1.00  0.00    -0.402 N 
ATOM     23  H12 UNL     1      39.899 271.049 162.811  1.00  0.00     0.155 HD
ATOM     24  H11 UNL     1      40.902 269.883 161.911  1.00  0.00     0.155 HD
BRANCH  21  25
HETATM   25  C2  UNL     1      41.667 272.058 164.302  1.00  0.00     0.221 C 
BRANCH  25  26
HETATM   26  O1  UNL     1      41.183 273.252 163.891  1.00  0.00    -0.390 OA
HETATM   27  C1  UNL     1      41.903 274.002 163.021  1.00  0.00     0.201 C 
ENDBRANCH  25  26
ENDBRANCH  21  25
ENDBRANCH  19  21
ENDBRANCH  16  19
ENDBRANCH   1  15
BRANCH  14  28
HETATM   28  C15 UNL     1      41.356 268.182 159.066  1.00  0.00     0.271 C 
HETATM   29  N9  UNL     1      40.553 269.217 159.538  1.00  0.00    -0.057 NA
HETATM   30  O4  UNL     1      40.839 267.021 158.956  1.00  0.00    -0.271 OA
ENDBRANCH  14  28
BRANCH  13  31
HETATM   31  N8  UNL     1      42.097 267.763 156.615  1.00  0.00    -0.384 N 
ATOM     32  H82 UNL     1      42.341 267.031 155.949  1.00  0.00     0.157 HD
ATOM     33  H81 UNL     1      41.127 268.077 156.649  1.00  0.00     0.157 HD
ENDBRANCH  13  31
BRANCH   7  34
HETATM   34  N5  UNL     1      48.128 269.390 155.535  1.00  0.00    -0.226 N 
HETATM   35  C10 UNL     1      49.268 269.128 156.360  1.00  0.00     0.168 C 
HETATM   36  C11 UNL     1      48.299 269.980 154.233  1.00  0.00     0.168 C 
ENDBRANCH   7  34
TORSDOF 8
ENDMDL
MODEL 2
REMARK VINA RESULT: -7.656084789      4.796      7.617
REMARK  8 active torsions:
REMARK  status: ('A' for Active; 'I' for Inactive)
REMARK    1  A    between atoms: O1_2  and  C2_3 
REMARK    2  A    between atoms: C2_3  and  C3_4 
REMARK    3  A    between atoms: C3_4  and  C4_8 
REMARK    4  A    between atoms: C4_8  and  N2_10 
REMARK       I    between atoms: N2_10  and  C6_12 
REMARK    5  A    between atoms: C6_12  and  C7_14 
REMARK    6  A    between atoms: C9_20  and  N5_21 
REMARK    7  A    between atoms: C13_29  and  N8_30 
REMARK    8  A    between atoms: C14_33  and  C15_34 
ROOT
HETATM    1  C7  UNL     1      41.131 271.952 163.471  1.00  0.00     0.136 A 
HETATM    2  N3  UNL     1      39.848 272.082 163.004  1.00  0.00    -0.184 N 
ATOM      3  H3  UNL     1      39.182 272.628 163.552  1.00  0.00     0.184 HD
HETATM    4  C8  UNL     1      39.433 271.526 161.863  1.00  0.00     0.709 A 
HETATM    5  N4  UNL     1      38.169 271.683 161.447  1.00  0.00    -0.021 N 
ATOM      6  H4  UNL     1      37.535 272.235 162.024  1.00  0.00     0.203 HD
HETATM    7  C9  UNL     1      37.691 271.148 160.304  1.00  0.00     0.698 A 
HETATM    8  N6  UNL     1      38.573 270.436 159.594  1.00  0.00    -0.140 N 
ATOM      9  H6  UNL     1      38.271 270.007 158.719  1.00  0.00     0.189 HD
HETATM   10  C12 UNL     1      39.852 270.265 159.997  1.00  0.00     0.361 A 
HETATM   11  O3  UNL     1      40.624 269.586 159.283  1.00  0.00    -0.245 OA
HETATM   12  N7  UNL     1      40.300 270.807 161.134  1.00  0.00    -0.079 N 
HETATM   13  C13 UNL     1      41.578 270.631 161.527  1.00  0.00     0.145 A 
HETATM   14  C14 UNL     1      41.991 271.232 162.749  1.00  0.00     0.106 A 
ENDROOT
BRANCH   1  15
HETATM   15  C6  UNL     1      41.354 272.667 164.716  1.00  0.00     0.270 C 
HETATM   16  N2  UNL     1      40.926 272.191 165.962  1.00  0.00    -0.346 N 
ATOM     17  H2  UNL     1      40.431 271.301 166.031  1.00  0.00     0.163 HD
HETATM   18  O2  UNL     1      41.982 273.783 164.688  1.00  0.00    -0.266 OA
BRANCH  16  19
HETATM   19  C4  UNL     1      41.197 272.983 167.170  1.00  0.00     0.128 C 
HETATM   20  C5  UNL     1      39.920 273.264 167.903  1.00  0.00     0.038 C 
BRANCH  19  21
HETATM   21  C3  UNL     1      42.123 272.143 167.992  1.00  0.00     0.026 C 
HETATM   22  N1  UNL     1      43.066 271.530 167.401  1.00  0.00    -0.402 N 
ATOM     23  H12 UNL     1      43.697 270.956 167.962  1.00  0.00     0.155 HD
ATOM     24  H11 UNL     1      43.186 271.630 166.394  1.00  0.00     0.155 HD
BRANCH  21  25
HETATM   25  C2  UNL     1      41.948 271.997 169.453  1.00  0.00     0.221 C 
BRANCH  25  26
HETATM   26  O1  UNL     1      42.674 272.815 170.250  1.00  0.00    -0.390 OA
HETATM   27  C1  UNL     1      43.934 272.459 170.602  1.00  0.00     0.201 C 
ENDBRANCH  25  26
ENDBRANCH  21  25
ENDBRANCH  19  21
ENDBRANCH  16  19
ENDBRANCH   1  15
BRANCH  14  28
HETATM   28  C15 UNL     1      43.314 270.887 163.208  1.00  0.00     0.271 C 
HETATM   29  N9  UNL     1      44.469 271.528 162.768  1.00  0.00    -0.057 NA
HETATM   30  O4  UNL     1      43.433 269.954 164.069  1.00  0.00    -0.271 OA
ENDBRANCH  14  28
BRANCH  13  31
HETATM   31  N8  UNL     1      42.450 269.991 160.931  1.00  0.00    -0.384 N 
ATOM     32  H82 UNL     1      42.107 269.342 160.223  1.00  0.00     0.157 HD
ATOM     33  H81 UNL     1      43.457 270.052 161.079  1.00  0.00     0.157 HD
ENDBRANCH  13  31
BRANCH   7  34
HETATM   34  N5  UNL     1      36.342 271.335 159.893  1.00  0.00    -0.226 N 
HETATM   35  C10 UNL     1      35.335 271.734 160.829  1.00  0.00     0.168 C 
HETATM   36  C11 UNL     1      35.999 271.116 158.512  1.00  0.00     0.168 C 
ENDBRANCH   7  34
TORSDOF 8
ENDMDL
MODEL 3
REMARK VINA RESULT: -7.536365743      4.383      9.092
REMARK  8 active torsions:
REMARK  status: ('A' for Active; 'I' for Inactive)
REMARK    1  A    between atoms: O1_2  and  C2_3 
REMARK    2  A    between atoms: C2_3  and  C3_4 
REMARK    3  A    between atoms: C3_4  and  C4_8 
REMARK    4  A    between atoms: C4_8  and  N2_10 
REMARK       I    between atoms: N2_10  and  C6_12 
REMARK    5  A    between atoms: C6_12  and  C7_14 
REMARK    6  A    between atoms: C9_20  and  N5_21 
REMARK    7  A    between atoms: C13_29  and  N8_30 
REMARK    8  A    between atoms: C14_33  and  C15_34 
ROOT
HETATM    1  C7  UNL     1      43.304 271.116 163.386  1.00  0.00     0.136 A 
HETATM    2  N3  UNL     1      42.353 271.513 164.292  1.00  0.00    -0.184 N 
ATOM      3  H3  UNL     1      41.406 271.694 163.959  1.00  0.00     0.184 HD
HETATM    4  C8  UNL     1      42.614 271.671 165.592  1.00  0.00     0.709 A 
HETATM    5  N4  UNL     1      41.652 272.059 166.440  1.00  0.00    -0.021 N 
ATOM      6  H4  UNL     1      40.719 272.231 166.066  1.00  0.00     0.203 HD
HETATM    7  C9  UNL     1      41.853 272.234 167.762  1.00  0.00     0.698 A 
HETATM    8  N6  UNL     1      43.098 271.993 168.188  1.00  0.00    -0.140 N 
ATOM      9  H6  UNL     1      43.311 272.107 169.179  1.00  0.00     0.189 HD
HETATM   10  C12 UNL     1      44.083 271.601 167.350  1.00  0.00     0.361 A 
HETATM   11  O3  UNL     1      45.225 271.392 167.816  1.00  0.00    -0.245 OA
HETATM   12  N7  UNL     1      43.856 271.434 166.043  1.00  0.00    -0.079 N 
HETATM   13  C13 UNL     1      44.845 271.044 165.214  1.00  0.00     0.145 A 
HETATM   14  C14 UNL     1      44.539 270.887 163.834  1.00  0.00     0.106 A 
ENDROOT
BRANCH   1  15
HETATM   15  C6  UNL     1      42.778 270.987 162.038  1.00  0.00     0.270 C 
HETATM   16  N2  UNL     1      42.331 269.773 161.500  1.00  0.00    -0.346 N 
ATOM     17  H2  UNL     1      42.363 268.921 162.060  1.00  0.00     0.163 HD
HETATM   18  O2  UNL     1      42.704 272.030 161.297  1.00  0.00    -0.266 OA
BRANCH  16  19
HETATM   19  C4  UNL     1      41.815 269.739 160.125  1.00  0.00     0.128 C 
HETATM   20  C5  UNL     1      42.232 268.469 159.446  1.00  0.00     0.038 C 
BRANCH  19  21
HETATM   21  C3  UNL     1      40.326 269.819 160.262  1.00  0.00     0.026 C 
HETATM   22  N1  UNL     1      39.680 268.744 160.460  1.00  0.00    -0.402 N 
ATOM     23  H12 UNL     1      38.666 268.799 160.553  1.00  0.00     0.155 HD
ATOM     24  H11 UNL     1      40.178 267.858 160.537  1.00  0.00     0.155 HD
BRANCH  21  25
HETATM   25  C2  UNL     1      39.605 271.105 160.150  1.00  0.00     0.221 C 
BRANCH  25  26
HETATM   26  O1  UNL     1      38.803 271.461 161.180  1.00  0.00    -0.390 OA
HETATM   27  C1  UNL     1      39.304 272.218 162.186  1.00  0.00     0.201 C 
ENDBRANCH  25  26
ENDBRANCH  21  25
ENDBRANCH  19  21
ENDBRANCH  16  19
ENDBRANCH   1  15
BRANCH  14  28
HETATM   28  C15 UNL     1      45.658 270.623 162.963  1.00  0.00     0.271 C 
HETATM   29  N9  UNL     1      46.433 271.626 162.387  1.00  0.00    -0.057 NA
HETATM   30  O4  UNL     1      45.961 269.410 162.714  1.00  0.00    -0.271 OA
ENDBRANCH  14  28
BRANCH  13  31
HETATM   31  N8  UNL     1      46.015 270.801 165.528  1.00  0.00    -0.384 N 
ATOM     32  H82 UNL     1      46.235 269.815 165.663  1.00  0.00     0.157 HD
ATOM     33  H81 UNL     1      46.762 271.482 165.661  1.00  0.00     0.157 HD
ENDBRANCH  13  31
BRANCH   7  34
HETATM   34  N5  UNL     1      40.807 272.648 168.634  1.00  0.00    -0.226 N 
HETATM   35  C10 UNL     1      39.441 272.322 168.353  1.00  0.00     0.168 C 
HETATM   36  C11 UNL     1      41.141 273.405 169.813  1.00  0.00     0.168 C 
ENDBRANCH   7  34
TORSDOF 8
ENDMDL
MODEL 4
REMARK VINA RESULT: -7.475126978      0.959      1.069
REMARK  8 active torsions:
REMARK  status: ('A' for Active; 'I' for Inactive)
REMARK    1  A    between atoms: O1_2  and  C2_3 
REMARK    2  A    between atoms: C2_3  and  C3_4 
REMARK    3  A    between atoms: C3_4  and  C4_8 
REMARK    4  A    between atoms: C4_8  and  N2_10 
REMARK       I    between atoms: N2_10  and  C6_12 
REMARK    5  A    between atoms: C6_12  and  C7_14 
REMARK    6  A    between atoms: C9_20  and  N5_21 
REMARK    7  A    between atoms: C13_29  and  N8_30 
REMARK    8  A    between atoms: C14_33  and  C15_34 
ROOT
HETATM    1  C7  UNL     1      43.632 268.792 159.600  1.00  0.00     0.136 A 
HETATM    2  N3  UNL     1      44.874 269.065 159.083  1.00  0.00    -0.184 N 
ATOM      3  H3  UNL     1      45.606 269.389 159.715  1.00  0.00     0.184 HD
HETATM    4  C8  UNL     1      45.164 268.924 157.787  1.00  0.00     0.709 A 
HETATM    5  N4  UNL     1      46.392 269.202 157.329  1.00  0.00    -0.021 N 
ATOM      6  H4  UNL     1      47.095 269.524 157.994  1.00  0.00     0.203 HD
HETATM    7  C9  UNL     1      46.747 269.077 156.033  1.00  0.00     0.698 A 
HETATM    8  N6  UNL     1      45.780 268.651 155.214  1.00  0.00    -0.140 N 
ATOM      9  H6  UNL     1      45.989 268.536 154.222  1.00  0.00     0.189 HD
HETATM   10  C12 UNL     1      44.535 268.366 155.656  1.00  0.00     0.361 A 
HETATM   11  O3  UNL     1      43.678 267.970 154.834  1.00  0.00    -0.245 OA
HETATM   12  N7  UNL     1      44.210 268.497 156.946  1.00  0.00    -0.079 N 
HETATM   13  C13 UNL     1      42.965 268.211 157.378  1.00  0.00     0.145 A 
HETATM   14  C14 UNL     1      42.682 268.373 158.762  1.00  0.00     0.106 A 
ENDROOT
BRANCH   1  15
HETATM   15  C6  UNL     1      43.563 268.993 161.037  1.00  0.00     0.270 C 
HETATM   16  N2  UNL     1      43.182 270.206 161.626  1.00  0.00    -0.346 N 
ATOM     17  H2  UNL     1      42.934 271.005 161.042  1.00  0.00     0.163 HD
HETATM   18  O2  UNL     1      43.852 268.018 161.816  1.00  0.00    -0.266 OA
BRANCH  16  19
HETATM   19  C4  UNL     1      43.141 270.316 163.090  1.00  0.00     0.128 C 
HETATM   20  C5  UNL     1      44.431 270.881 163.604  1.00  0.00     0.038 C 
BRANCH  19  21
HETATM   21  C3  UNL     1      41.992 271.230 163.383  1.00  0.00     0.026 C 
HETATM   22  N1  UNL     1      41.805 271.598 164.584  1.00  0.00    -0.402 N 
ATOM     23  H12 UNL     1      41.022 272.221 164.783  1.00  0.00     0.155 HD
ATOM     24  H11 UNL     1      42.439 271.283 165.318  1.00  0.00     0.155 HD
BRANCH  21  25
HETATM   25  C2  UNL     1      41.073 271.687 162.319  1.00  0.00     0.221 C 
BRANCH  25  26
HETATM   26  O1  UNL     1      39.779 271.886 162.657  1.00  0.00    -0.390 OA
HETATM   27  C1  UNL     1      38.822 271.837 161.698  1.00  0.00     0.201 C 
ENDBRANCH  25  26
ENDBRANCH  21  25
ENDBRANCH  19  21
ENDBRANCH  16  19
ENDBRANCH   1  15
BRANCH  14  28
HETATM   28  C15 UNL     1      41.303 268.209 159.151  1.00  0.00     0.271 C 
HETATM   29  N9  UNL     1      40.499 269.260 159.583  1.00  0.00    -0.057 NA
HETATM   30  O4  UNL     1      40.790 267.044 159.087  1.00  0.00    -0.271 OA
ENDBRANCH  14  28
BRANCH  13  31
HETATM   31  N8  UNL     1      42.020 267.813 156.688  1.00  0.00    -0.384 N 
ATOM     32  H82 UNL     1      42.165 266.915 156.227  1.00  0.00     0.157 HD
ATOM     33  H81 UNL     1      41.131 268.290 156.542  1.00  0.00     0.157 HD
ENDBRANCH  13  31
BRANCH   7  34
HETATM   34  N5  UNL     1      48.062 269.382 155.581  1.00  0.00    -0.226 N 
HETATM   35  C10 UNL     1      49.203 269.124 156.406  1.00  0.00     0.168 C 
HETATM   36  C11 UNL     1      48.232 269.958 154.272  1.00  0.00     0.168 C 
ENDBRANCH   7  34
TORSDOF 8
ENDMDL
MODEL 5
REMARK VINA RESULT: -7.374703578      3.653      7.051
REMARK  8 active torsions:
REMARK  status: ('A' for Active; 'I' for Inactive)
REMARK    1  A    between atoms: O1_2  and  C2_3 
REMARK    2  A    between atoms: C2_3  and  C3_4 
REMARK    3  A    between atoms: C3_4  and  C4_8 
REMARK    4  A    between atoms: C4_8  and  N2_10 
REMARK       I    between atoms: N2_10  and  C6_12 
REMARK    5  A    between atoms: C6_12  and  C7_14 
REMARK    6  A    between atoms: C9_20  and  N5_21 
REMARK    7  A    between atoms: C13_29  and  N8_30 
REMARK    8  A    between atoms: C14_33  and  C15_34 
ROOT
HETATM    1  C7  UNL     1      43.328 270.666 162.737  1.00  0.00     0.136 A 
HETATM    2  N3  UNL     1      44.097 269.554 162.965  1.00  0.00    -0.184 N 
ATOM      3  H3  UNL     1      43.695 268.635 162.781  1.00  0.00     0.184 HD
HETATM    4  C8  UNL     1      45.352 269.623 163.418  1.00  0.00     0.709 A 
HETATM    5  N4  UNL     1      46.066 268.508 163.625  1.00  0.00    -0.021 N 
ATOM      6  H4  UNL     1      45.626 267.609 163.429  1.00  0.00     0.203 HD
HETATM    7  C9  UNL     1      47.336 268.512 164.078  1.00  0.00     0.698 A 
HETATM    8  N6  UNL     1      47.854 269.722 164.315  1.00  0.00    -0.140 N 
ATOM      9  H6  UNL     1      48.812 269.790 164.659  1.00  0.00     0.189 HD
HETATM   10  C12 UNL     1      47.151 270.859 164.114  1.00  0.00     0.361 A 
HETATM   11  O3  UNL     1      47.698 271.958 164.356  1.00  0.00    -0.245 OA
HETATM   12  N7  UNL     1      45.893 270.826 163.662  1.00  0.00    -0.079 N 
HETATM   13  C13 UNL     1      45.199 271.965 163.465  1.00  0.00     0.145 A 
HETATM   14  C14 UNL     1      43.864 271.862 162.986  1.00  0.00     0.106 A 
ENDROOT
BRANCH   1  15
HETATM   15  C6  UNL     1      42.009 270.343 162.221  1.00  0.00     0.270 C 
HETATM   16  N2  UNL     1      41.795 269.781 160.955  1.00  0.00    -0.346 N 
ATOM     17  H2  UNL     1      42.586 269.577 160.343  1.00  0.00     0.163 HD
HETATM   18  O2  UNL     1      40.982 270.567 162.953  1.00  0.00    -0.266 OA
BRANCH  16  19
HETATM   19  C4  UNL     1      40.424 269.487 160.518  1.00  0.00     0.128 C 
HETATM   20  C5  UNL     1      39.778 270.725 159.971  1.00  0.00     0.038 C 
BRANCH  19  21
HETATM   21  C3  UNL     1      40.565 268.436 159.461  1.00  0.00     0.026 C 
HETATM   22  N1  UNL     1      39.526 268.072 158.829  1.00  0.00    -0.402 N 
ATOM     23  H12 UNL     1      39.622 267.356 158.109  1.00  0.00     0.155 HD
ATOM     24  H11 UNL     1      38.626 268.505 159.036  1.00  0.00     0.155 HD
BRANCH  21  25
HETATM   25  C2  UNL     1      41.870 267.809 159.161  1.00  0.00     0.221 C 
BRANCH  25  26
HETATM   26  O1  UNL     1      42.662 268.424 158.253  1.00  0.00    -0.390 OA
HETATM   27  C1  UNL     1      44.009 268.296 158.346  1.00  0.00     0.201 C 
ENDBRANCH  25  26
ENDBRANCH  21  25
ENDBRANCH  19  21
ENDBRANCH  16  19
ENDBRANCH   1  15
BRANCH  14  28
HETATM   28  C15 UNL     1      43.111 273.091 162.941  1.00  0.00     0.271 C 
HETATM   29  N9  UNL     1      42.400 273.593 164.027  1.00  0.00    -0.057 NA
HETATM   30  O4  UNL     1      43.102 273.758 161.854  1.00  0.00    -0.271 OA
ENDBRANCH  14  28
BRANCH  13  31
HETATM   31  N8  UNL     1      45.605 273.116 163.658  1.00  0.00    -0.384 N 
ATOM     32  H82 UNL     1      45.138 273.841 163.113  1.00  0.00     0.157 HD
ATOM     33  H81 UNL     1      46.346 273.400 164.298  1.00  0.00     0.157 HD
ENDBRANCH  13  31
BRANCH   7  34
HETATM   34  N5  UNL     1      48.065 267.307 164.287  1.00  0.00    -0.226 N 
HETATM   35  C10 UNL     1      47.392 266.086 164.610  1.00  0.00     0.168 C 
HETATM   36  C11 UNL     1      49.499 267.332 164.167  1.00  0.00     0.168 C 
ENDBRANCH   7  34
TORSDOF 8
ENDMDL
