MODEL 1
REMARK VINA RESULT: -10.214940624      0.000      0.000
REMARK  13 active torsions:
REMARK  status: ('A' for Active; 'I' for Inactive)
REMARK    1  A    between atoms: C2_2  and  C3_3 
REMARK    2  A    between atoms: C3_3  and  C4_4 
REMARK    3  A    between atoms: C4_4  and  C5_5 
REMARK    4  A    between atoms: C5_5  and  C6_6 
REMARK    5  A    between atoms: C6_6  and  O1_7 
REMARK    6  A    between atoms: O1_7  and  C7_8 
REMARK       I    between atoms: C7_8  and  N1_10 
REMARK    7  A    between atoms: C10_13  and  N2_14 
REMARK    8  A    between atoms: C14_19  and  C15_20 
REMARK       I    between atoms: C15_20  and  N3_22 
REMARK    9  A    between atoms: N3_22  and  C16_24 
REMARK   10  A    between atoms: C16_24  and  C17_25 
REMARK   11  A    between atoms: C16_24  and  C25_38 
REMARK   12  A    between atoms: C17_25  and  C18_26 
REMARK   13  A    between atoms: C19_27  and  C20_28 
ROOT
HETATM    1  N2  UNL     1      -6.379  26.878  14.303  1.00  0.00    -0.334 N 
HETATM    2  C11 UNL     1      -6.814  27.899  15.277  1.00  0.00     0.221 C 
HETATM    3  O3  UNL     1      -7.954  28.008  15.787  1.00  0.00    -0.273 OA
HETATM    4  C12 UNL     1      -5.694  28.803  15.580  1.00  0.00     0.105 C 
HETATM    5  C13 UNL     1      -4.539  28.174  14.857  1.00  0.00     0.044 C 
HETATM    6  C14 UNL     1      -5.305  27.539  13.660  1.00  0.00     0.180 C 
ENDROOT
BRANCH   6   7
HETATM    7  C15 UNL     1      -4.302  26.822  12.917  1.00  0.00     0.241 C 
HETATM    8  O4  UNL     1      -4.083  25.619  13.008  1.00  0.00    -0.271 OA
HETATM    9  N3  UNL     1      -3.488  27.553  11.998  1.00  0.00    -0.344 N 
ATOM     10  H3  UNL     1      -3.640  28.557  11.895  1.00  0.00     0.163 HD
BRANCH   9  11
HETATM   11  C16 UNL     1      -2.454  26.916  11.206  1.00  0.00     0.196 C 
BRANCH  11  12
HETATM   12  C17 UNL     1      -1.113  26.987  11.906  1.00  0.00     0.130 C 
BRANCH  12  13
HETATM   13  C18 UNL     1      -0.748  25.747  12.572  1.00  0.00    -0.103 C 
HETATM   14  C19 UNL     1      -0.425  24.707  13.113  1.00  0.00    -0.098 C 
BRANCH  14  15
HETATM   15  C20 UNL     1      -0.009  23.456  13.770  1.00  0.00     0.111 C 
HETATM   16  C21 UNL     1       1.326  23.678  14.406  1.00  0.00     0.106 C 
HETATM   17  C22 UNL     1       1.283  23.001  15.751  1.00  0.00     0.312 C 
HETATM   18  F1  UNL     1       2.052  21.831  15.763  1.00  0.00    -0.199 F 
HETATM   19  F2  UNL     1       1.823  23.849  16.712  1.00  0.00    -0.199 F 
HETATM   20  C23 UNL     1      -0.139  22.651  16.043  1.00  0.00     0.339 C 
HETATM   21  F3  UNL     1      -0.368  21.287  16.049  1.00  0.00    -0.196 F 
HETATM   22  F4  UNL     1      -0.495  23.215  17.243  1.00  0.00    -0.196 F 
HETATM   23  C24 UNL     1      -0.972  23.256  14.931  1.00  0.00     0.264 C 
HETATM   24  F5  UNL     1      -1.516  24.465  15.320  1.00  0.00    -0.241 F 
ENDBRANCH  14  15
ENDBRANCH  12  13
ENDBRANCH  11  12
BRANCH  11  25
HETATM   25  C25 UNL     1      -2.368  27.477   9.850  1.00  0.00     0.197 C 
HETATM   26  O5  UNL     1      -1.298  28.017   9.469  1.00  0.00    -0.646 OA
HETATM   27  O6  UNL     1      -3.426  27.437   8.962  1.00  0.00    -0.646 OA
ENDBRANCH  11  25
ENDBRANCH   9  11
ENDBRANCH   6   7
BRANCH   1  28
HETATM   28  C10 UNL     1      -7.089  25.650  14.244  1.00  0.00     0.091 C 
HETATM   29  C9  UNL     1      -6.467  24.493  15.018  1.00  0.00     0.045 C 
HETATM   30  C8  UNL     1      -7.660  23.663  15.560  1.00  0.00     0.130 C 
HETATM   31  N1  UNL     1      -8.432  23.374  14.340  1.00  0.00    -0.328 N 
HETATM   32  C7  UNL     1      -9.665  22.656  14.560  1.00  0.00     0.362 C 
HETATM   33  C27 UNL     1      -8.025  23.751  13.033  1.00  0.00     0.130 C 
HETATM   34  O2  UNL     1     -10.357  22.380  13.550  1.00  0.00    -0.238 OA
HETATM   35  C26 UNL     1      -7.429  25.127  12.892  1.00  0.00     0.045 C 
BRANCH  32  36
HETATM   36  O1  UNL     1     -10.115  22.267  15.765  1.00  0.00    -0.304 OA
BRANCH  36  37
HETATM   37  C6  UNL     1     -11.073  22.684  16.630  1.00  0.00     0.180 C 
BRANCH  37  38
HETATM   38  C5  UNL     1     -11.386  24.099  16.871  1.00  0.00     0.027 C 
BRANCH  38  39
HETATM   39  C4  UNL     1     -12.414  24.733  16.028  1.00  0.00     0.002 C 
BRANCH  39  40
HETATM   40  C3  UNL     1     -13.377  23.710  15.417  1.00  0.00    -0.000 C 
BRANCH  40  41
HETATM   41  C2  UNL     1     -14.138  24.284  14.252  1.00  0.00    -0.005 C 
HETATM   42  C1  UNL     1     -13.454  23.942  12.930  1.00  0.00     0.005 C 
ENDBRANCH  40  41
ENDBRANCH  39  40
ENDBRANCH  38  39
ENDBRANCH  37  38
ENDBRANCH  36  37
ENDBRANCH  32  36
ENDBRANCH   1  28
TORSDOF 13
ENDMDL
MODEL 2
REMARK VINA RESULT: -10.150973674      2.053      2.906
REMARK  13 active torsions:
REMARK  status: ('A' for Active; 'I' for Inactive)
REMARK    1  A    between atoms: C2_2  and  C3_3 
REMARK    2  A    between atoms: C3_3  and  C4_4 
REMARK    3  A    between atoms: C4_4  and  C5_5 
REMARK    4  A    between atoms: C5_5  and  C6_6 
REMARK    5  A    between atoms: C6_6  and  O1_7 
REMARK    6  A    between atoms: O1_7  and  C7_8 
REMARK       I    between atoms: C7_8  and  N1_10 
REMARK    7  A    between atoms: C10_13  and  N2_14 
REMARK    8  A    between atoms: C14_19  and  C15_20 
REMARK       I    between atoms: C15_20  and  N3_22 
REMARK    9  A    between atoms: N3_22  and  C16_24 
REMARK   10  A    between atoms: C16_24  and  C17_25 
REMARK   11  A    between atoms: C16_24  and  C25_38 
REMARK   12  A    between atoms: C17_25  and  C18_26 
REMARK   13  A    between atoms: C19_27  and  C20_28 
ROOT
HETATM    1  N2  UNL     1      -7.545  27.473  15.209  1.00  0.00    -0.334 N 
HETATM    2  C11 UNL     1      -7.809  28.599  16.126  1.00  0.00     0.221 C 
HETATM    3  O3  UNL     1      -8.899  28.873  16.680  1.00  0.00    -0.273 OA
HETATM    4  C12 UNL     1      -6.579  29.387  16.310  1.00  0.00     0.105 C 
HETATM    5  C13 UNL     1      -5.543  28.582  15.581  1.00  0.00     0.044 C 
HETATM    6  C14 UNL     1      -6.441  27.962  14.470  1.00  0.00     0.180 C 
ENDROOT
BRANCH   6   7
HETATM    7  C15 UNL     1      -5.566  27.086  13.734  1.00  0.00     0.241 C 
HETATM    8  O4  UNL     1      -5.881  26.457  12.729  1.00  0.00    -0.271 OA
HETATM    9  N3  UNL     1      -4.224  26.923  14.197  1.00  0.00    -0.344 N 
ATOM     10  H3  UNL     1      -3.925  27.429  15.031  1.00  0.00     0.163 HD
BRANCH   9  11
HETATM   11  C16 UNL     1      -3.273  26.064  13.520  1.00  0.00     0.196 C 
BRANCH  11  12
HETATM   12  C17 UNL     1      -3.288  24.668  14.107  1.00  0.00     0.130 C 
BRANCH  12  13
HETATM   13  C18 UNL     1      -2.057  24.326  14.801  1.00  0.00    -0.103 C 
HETATM   14  C19 UNL     1      -1.040  24.031  15.400  1.00  0.00    -0.098 C 
BRANCH  14  15
HETATM   15  C20 UNL     1       0.183  23.650  16.127  1.00  0.00     0.111 C 
HETATM   16  C21 UNL     1       0.994  22.751  15.249  1.00  0.00     0.106 C 
HETATM   17  C22 UNL     1       2.431  23.172  15.409  1.00  0.00     0.312 C 
HETATM   18  F1  UNL     1       3.161  22.240  16.156  1.00  0.00    -0.199 F 
HETATM   19  F2  UNL     1       3.032  23.246  14.157  1.00  0.00    -0.199 F 
HETATM   20  C23 UNL     1       2.448  24.485  16.121  1.00  0.00     0.339 C 
HETATM   21  F3  UNL     1       2.986  24.402  17.393  1.00  0.00    -0.196 F 
HETATM   22  F4  UNL     1       3.135  25.394  15.355  1.00  0.00    -0.196 F 
HETATM   23  C24 UNL     1       1.004  24.924  16.256  1.00  0.00     0.264 C 
HETATM   24  F5  UNL     1       0.662  25.821  15.263  1.00  0.00    -0.241 F 
ENDBRANCH  14  15
ENDBRANCH  12  13
ENDBRANCH  11  12
BRANCH  11  25
HETATM   25  C25 UNL     1      -1.913  26.623  13.532  1.00  0.00     0.197 C 
HETATM   26  O5  UNL     1      -1.597  27.465  14.411  1.00  0.00    -0.646 OA
HETATM   27  O6  UNL     1      -0.953  26.260  12.607  1.00  0.00    -0.646 OA
ENDBRANCH  11  25
ENDBRANCH   9  11
ENDBRANCH   6   7
BRANCH   1  28
HETATM   28  C10 UNL     1      -8.389  26.334  15.273  1.00  0.00     0.091 C 
HETATM   29  C9  UNL     1      -9.641  26.394  14.405  1.00  0.00     0.045 C 
HETATM   30  C8  UNL     1      -9.887  24.940  13.924  1.00  0.00     0.130 C 
HETATM   31  N1  UNL     1      -9.929  24.185  15.188  1.00  0.00    -0.328 N 
HETATM   32  C7  UNL     1     -10.078  22.757  15.036  1.00  0.00     0.362 C 
HETATM   33  C27 UNL     1      -9.837  24.781  16.474  1.00  0.00     0.130 C 
HETATM   34  O2  UNL     1     -10.124  22.070  16.084  1.00  0.00    -0.238 OA
HETATM   35  C26 UNL     1      -8.826  25.887  16.624  1.00  0.00     0.045 C 
BRANCH  32  36
HETATM   36  O1  UNL     1     -10.171  22.124  13.855  1.00  0.00    -0.304 OA
BRANCH  36  37
HETATM   37  C6  UNL     1     -11.134  21.438  13.188  1.00  0.00     0.180 C 
BRANCH  37  38
HETATM   38  C5  UNL     1     -12.548  21.830  13.181  1.00  0.00     0.027 C 
BRANCH  38  39
HETATM   39  C4  UNL     1     -12.930  23.026  12.410  1.00  0.00     0.002 C 
BRANCH  39  40
HETATM   40  C3  UNL     1     -13.642  24.072  13.273  1.00  0.00    -0.000 C 
BRANCH  40  41
HETATM   41  C2  UNL     1     -13.695  23.661  14.720  1.00  0.00    -0.005 C 
HETATM   42  C1  UNL     1     -13.338  24.831  15.634  1.00  0.00     0.005 C 
ENDBRANCH  40  41
ENDBRANCH  39  40
ENDBRANCH  38  39
ENDBRANCH  37  38
ENDBRANCH  36  37
ENDBRANCH  32  36
ENDBRANCH   1  28
TORSDOF 13
ENDMDL
MODEL 3
REMARK VINA RESULT: -10.069710863      1.450      2.212
REMARK  13 active torsions:
REMARK  status: ('A' for Active; 'I' for Inactive)
REMARK    1  A    between atoms: C2_2  and  C3_3 
REMARK    2  A    between atoms: C3_3  and  C4_4 
REMARK    3  A    between atoms: C4_4  and  C5_5 
REMARK    4  A    between atoms: C5_5  and  C6_6 
REMARK    5  A    between atoms: C6_6  and  O1_7 
REMARK    6  A    between atoms: O1_7  and  C7_8 
REMARK       I    between atoms: C7_8  and  N1_10 
REMARK    7  A    between atoms: C10_13  and  N2_14 
REMARK    8  A    between atoms: C14_19  and  C15_20 
REMARK       I    between atoms: C15_20  and  N3_22 
REMARK    9  A    between atoms: N3_22  and  C16_24 
REMARK   10  A    between atoms: C16_24  and  C17_25 
REMARK   11  A    between atoms: C16_24  and  C25_38 
REMARK   12  A    between atoms: C17_25  and  C18_26 
REMARK   13  A    between atoms: C19_27  and  C20_28 
ROOT
HETATM    1  N2  UNL     1      -7.603  27.547  15.251  1.00  0.00    -0.334 N 
HETATM    2  C11 UNL     1      -8.030  28.753  15.986  1.00  0.00     0.221 C 
HETATM    3  O3  UNL     1      -9.200  29.045  16.328  1.00  0.00    -0.273 OA
HETATM    4  C12 UNL     1      -6.860  29.598  16.275  1.00  0.00     0.105 C 
HETATM    5  C13 UNL     1      -5.707  28.758  15.810  1.00  0.00     0.044 C 
HETATM    6  C14 UNL     1      -6.403  27.993  14.647  1.00  0.00     0.180 C 
ENDROOT
BRANCH   6   7
HETATM    7  C15 UNL     1      -5.406  27.076  14.158  1.00  0.00     0.241 C 
HETATM    8  O4  UNL     1      -5.407  25.866  14.353  1.00  0.00    -0.271 OA
HETATM    9  N3  UNL     1      -4.325  27.601  13.384  1.00  0.00    -0.344 N 
ATOM     10  H3  UNL     1      -4.290  28.604  13.202  1.00  0.00     0.163 HD
BRANCH   9  11
HETATM   11  C16 UNL     1      -3.277  26.753  12.850  1.00  0.00     0.196 C 
BRANCH  11  12
HETATM   12  C17 UNL     1      -1.959  27.014  13.550  1.00  0.00     0.130 C 
BRANCH  12  13
HETATM   13  C18 UNL     1      -1.164  25.811  13.738  1.00  0.00    -0.103 C 
HETATM   14  C19 UNL     1      -0.520  24.792  13.900  1.00  0.00    -0.098 C 
BRANCH  14  15
HETATM   15  C20 UNL     1       0.245  23.546  14.079  1.00  0.00     0.111 C 
HETATM   16  C21 UNL     1       1.541  23.880  14.747  1.00  0.00     0.106 C 
HETATM   17  C22 UNL     1       1.789  22.805  15.772  1.00  0.00     0.312 C 
HETATM   18  F1  UNL     1       2.816  21.940  15.373  1.00  0.00    -0.199 F 
HETATM   19  F2  UNL     1       2.196  23.391  16.966  1.00  0.00    -0.199 F 
HETATM   20  C23 UNL     1       0.527  22.022  15.930  1.00  0.00     0.339 C 
HETATM   21  F3  UNL     1       0.636  20.724  15.461  1.00  0.00    -0.196 F 
HETATM   22  F4  UNL     1       0.160  22.037  17.252  1.00  0.00    -0.196 F 
HETATM   23  C24 UNL     1      -0.527  22.727  15.101  1.00  0.00     0.264 C 
HETATM   24  F5  UNL     1      -1.309  23.550  15.889  1.00  0.00    -0.241 F 
ENDBRANCH  14  15
ENDBRANCH  12  13
ENDBRANCH  11  12
BRANCH  11  25
HETATM   25  C25 UNL     1      -3.135  26.898  11.394  1.00  0.00     0.197 C 
HETATM   26  O5  UNL     1      -4.051  26.485  10.637  1.00  0.00    -0.646 OA
HETATM   27  O6  UNL     1      -2.024  27.476  10.810  1.00  0.00    -0.646 OA
ENDBRANCH  11  25
ENDBRANCH   9  11
ENDBRANCH   6   7
BRANCH   1  28
HETATM   28  C10 UNL     1      -8.426  26.391  15.304  1.00  0.00     0.091 C 
HETATM   29  C9  UNL     1      -9.686  26.441  14.447  1.00  0.00     0.045 C 
HETATM   30  C8  UNL     1      -9.909  24.990  13.947  1.00  0.00     0.130 C 
HETATM   31  N1  UNL     1      -9.927  24.217  15.200  1.00  0.00    -0.328 N 
HETATM   32  C7  UNL     1     -10.052  22.789  15.028  1.00  0.00     0.362 C 
HETATM   33  C27 UNL     1      -9.836  24.795  16.494  1.00  0.00     0.130 C 
HETATM   34  O2  UNL     1     -10.078  22.085  16.067  1.00  0.00    -0.238 OA
HETATM   35  C26 UNL     1      -8.844  25.917  16.652  1.00  0.00     0.045 C 
BRANCH  32  36
HETATM   36  O1  UNL     1     -10.143  22.171  13.838  1.00  0.00    -0.304 OA
BRANCH  36  37
HETATM   37  C6  UNL     1     -11.089  21.456  13.180  1.00  0.00     0.180 C 
BRANCH  37  38
HETATM   38  C5  UNL     1     -12.513  21.816  13.168  1.00  0.00     0.027 C 
BRANCH  38  39
HETATM   39  C4  UNL     1     -12.926  22.976  12.359  1.00  0.00     0.002 C 
BRANCH  39  40
HETATM   40  C3  UNL     1     -13.601  24.062  13.202  1.00  0.00    -0.000 C 
BRANCH  40  41
HETATM   41  C2  UNL     1     -13.661  23.683  14.658  1.00  0.00    -0.005 C 
HETATM   42  C1  UNL     1     -13.359  24.886  15.548  1.00  0.00     0.005 C 
ENDBRANCH  40  41
ENDBRANCH  39  40
ENDBRANCH  38  39
ENDBRANCH  37  38
ENDBRANCH  36  37
ENDBRANCH  32  36
ENDBRANCH   1  28
TORSDOF 13
ENDMDL
MODEL 4
REMARK VINA RESULT: -10.003676589      1.489      1.791
REMARK  13 active torsions:
REMARK  status: ('A' for Active; 'I' for Inactive)
REMARK    1  A    between atoms: C2_2  and  C3_3 
REMARK    2  A    between atoms: C3_3  and  C4_4 
REMARK    3  A    between atoms: C4_4  and  C5_5 
REMARK    4  A    between atoms: C5_5  and  C6_6 
REMARK    5  A    between atoms: C6_6  and  O1_7 
REMARK    6  A    between atoms: O1_7  and  C7_8 
REMARK       I    between atoms: C7_8  and  N1_10 
REMARK    7  A    between atoms: C10_13  and  N2_14 
REMARK    8  A    between atoms: C14_19  and  C15_20 
REMARK       I    between atoms: C15_20  and  N3_22 
REMARK    9  A    between atoms: N3_22  and  C16_24 
REMARK   10  A    between atoms: C16_24  and  C17_25 
REMARK   11  A    between atoms: C16_24  and  C25_38 
REMARK   12  A    between atoms: C17_25  and  C18_26 
REMARK   13  A    between atoms: C19_27  and  C20_28 
ROOT
HETATM    1  N2  UNL     1      -5.223  27.610  14.421  1.00  0.00    -0.334 N 
HETATM    2  C11 UNL     1      -4.888  28.410  15.615  1.00  0.00     0.221 C 
HETATM    3  O3  UNL     1      -5.697  28.926  16.421  1.00  0.00    -0.273 OA
HETATM    4  C12 UNL     1      -3.426  28.527  15.738  1.00  0.00     0.105 C 
HETATM    5  C13 UNL     1      -2.916  27.629  14.649  1.00  0.00     0.044 C 
HETATM    6  C14 UNL     1      -4.072  27.799  13.620  1.00  0.00     0.180 C 
ENDROOT
BRANCH   6   7
HETATM    7  C15 UNL     1      -3.739  26.908  12.538  1.00  0.00     0.241 C 
HETATM    8  O4  UNL     1      -4.175  25.771  12.403  1.00  0.00    -0.271 OA
HETATM    9  N3  UNL     1      -2.829  27.370  11.537  1.00  0.00    -0.344 N 
ATOM     10  H3  UNL     1      -2.443  28.311  11.617  1.00  0.00     0.163 HD
BRANCH   9  11
HETATM   11  C16 UNL     1      -2.437  26.544  10.412  1.00  0.00     0.196 C 
BRANCH  11  12
HETATM   12  C17 UNL     1      -0.988  26.117  10.531  1.00  0.00     0.130 C 
BRANCH  12  13
HETATM   13  C18 UNL     1      -0.729  25.288  11.697  1.00  0.00    -0.103 C 
HETATM   14  C19 UNL     1      -0.531  24.607  12.685  1.00  0.00    -0.098 C 
BRANCH  14  15
HETATM   15  C20 UNL     1      -0.315  23.776  13.882  1.00  0.00     0.111 C 
HETATM   16  C21 UNL     1       1.135  23.415  13.951  1.00  0.00     0.106 C 
HETATM   17  C22 UNL     1       1.544  23.541  15.395  1.00  0.00     0.312 C 
HETATM   18  F1  UNL     1       1.738  22.286  15.986  1.00  0.00    -0.199 F 
HETATM   19  F2  UNL     1       2.757  24.217  15.474  1.00  0.00    -0.199 F 
HETATM   20  C23 UNL     1       0.452  24.257  16.120  1.00  0.00     0.339 C 
HETATM   21  F3  UNL     1      -0.209  23.450  17.030  1.00  0.00    -0.196 F 
HETATM   22  F4  UNL     1       0.982  25.362  16.738  1.00  0.00    -0.196 F 
HETATM   23  C24 UNL     1      -0.551  24.693  15.072  1.00  0.00     0.264 C 
HETATM   24  F5  UNL     1      -0.352  26.012  14.712  1.00  0.00    -0.241 F 
ENDBRANCH  14  15
ENDBRANCH  12  13
ENDBRANCH  11  12
BRANCH  11  25
HETATM   25  C25 UNL     1      -2.684  27.207   9.124  1.00  0.00     0.197 C 
HETATM   26  O5  UNL     1      -3.862  27.492   8.789  1.00  0.00    -0.646 OA
HETATM   27  O6  UNL     1      -1.665  27.538   8.252  1.00  0.00    -0.646 OA
ENDBRANCH  11  25
ENDBRANCH   9  11
ENDBRANCH   6   7
BRANCH   1  28
HETATM   28  C10 UNL     1      -6.484  26.957  14.373  1.00  0.00     0.091 C 
HETATM   29  C9  UNL     1      -6.439  25.436  14.446  1.00  0.00     0.045 C 
HETATM   30  C8  UNL     1      -7.708  25.017  15.234  1.00  0.00     0.130 C 
HETATM   31  N1  UNL     1      -8.788  25.665  14.473  1.00  0.00    -0.328 N 
HETATM   32  C7  UNL     1     -10.108  25.500  15.034  1.00  0.00     0.362 C 
HETATM   33  C27 UNL     1      -8.588  26.399  13.273  1.00  0.00     0.130 C 
HETATM   34  O2  UNL     1     -11.065  26.030  14.419  1.00  0.00    -0.238 OA
HETATM   35  C26 UNL     1      -7.386  27.306  13.242  1.00  0.00     0.045 C 
BRANCH  32  36
HETATM   36  O1  UNL     1     -10.375  24.822  16.163  1.00  0.00    -0.304 OA
BRANCH  36  37
HETATM   37  C6  UNL     1     -10.900  23.609  16.471  1.00  0.00     0.180 C 
BRANCH  37  38
HETATM   38  C5  UNL     1     -11.012  22.507  15.507  1.00  0.00     0.027 C 
BRANCH  38  39
HETATM   39  C4  UNL     1     -12.200  22.468  14.637  1.00  0.00     0.002 C 
BRANCH  39  40
HETATM   40  C3  UNL     1     -13.417  23.137  15.284  1.00  0.00    -0.000 C 
BRANCH  40  41
HETATM   41  C2  UNL     1     -14.016  24.192  14.391  1.00  0.00    -0.005 C 
HETATM   42  C1  UNL     1     -13.546  24.017  12.949  1.00  0.00     0.005 C 
ENDBRANCH  40  41
ENDBRANCH  39  40
ENDBRANCH  38  39
ENDBRANCH  37  38
ENDBRANCH  36  37
ENDBRANCH  32  36
ENDBRANCH   1  28
TORSDOF 13
ENDMDL
MODEL 5
REMARK VINA RESULT: -9.965901379      1.467      2.093
REMARK  13 active torsions:
REMARK  status: ('A' for Active; 'I' for Inactive)
REMARK    1  A    between atoms: C2_2  and  C3_3 
REMARK    2  A    between atoms: C3_3  and  C4_4 
REMARK    3  A    between atoms: C4_4  and  C5_5 
REMARK    4  A    between atoms: C5_5  and  C6_6 
REMARK    5  A    between atoms: C6_6  and  O1_7 
REMARK    6  A    between atoms: O1_7  and  C7_8 
REMARK       I    between atoms: C7_8  and  N1_10 
REMARK    7  A    between atoms: C10_13  and  N2_14 
REMARK    8  A    between atoms: C14_19  and  C15_20 
REMARK       I    between atoms: C15_20  and  N3_22 
REMARK    9  A    between atoms: N3_22  and  C16_24 
REMARK   10  A    between atoms: C16_24  and  C17_25 
REMARK   11  A    between atoms: C16_24  and  C25_38 
REMARK   12  A    between atoms: C17_25  and  C18_26 
REMARK   13  A    between atoms: C19_27  and  C20_28 
ROOT
HETATM    1  N2  UNL     1      -5.382  27.668  14.326  1.00  0.00    -0.334 N 
HETATM    2  C11 UNL     1      -5.137  28.487  15.529  1.00  0.00     0.221 C 
HETATM    3  O3  UNL     1      -6.004  29.013  16.266  1.00  0.00    -0.273 OA
HETATM    4  C12 UNL     1      -3.688  28.610  15.757  1.00  0.00     0.105 C 
HETATM    5  C13 UNL     1      -3.099  27.697  14.722  1.00  0.00     0.044 C 
HETATM    6  C14 UNL     1      -4.176  27.848  13.608  1.00  0.00     0.180 C 
ENDROOT
BRANCH   6   7
HETATM    7  C15 UNL     1      -3.763  26.943  12.568  1.00  0.00     0.241 C 
HETATM    8  O4  UNL     1      -4.069  25.757  12.503  1.00  0.00    -0.271 OA
HETATM    9  N3  UNL     1      -2.929  27.448  11.522  1.00  0.00    -0.344 N 
ATOM     10  H3  UNL     1      -2.652  28.429  11.543  1.00  0.00     0.163 HD
BRANCH   9  11
HETATM   11  C16 UNL     1      -2.465  26.610  10.434  1.00  0.00     0.196 C 
BRANCH  11  12
HETATM   12  C17 UNL     1      -1.006  26.245  10.613  1.00  0.00     0.130 C 
BRANCH  12  13
HETATM   13  C18 UNL     1      -0.772  25.366  11.747  1.00  0.00    -0.103 C 
HETATM   14  C19 UNL     1      -0.564  24.649  12.708  1.00  0.00    -0.098 C 
BRANCH  14  15
HETATM   15  C20 UNL     1      -0.322  23.799  13.886  1.00  0.00     0.111 C 
HETATM   16  C21 UNL     1       1.137  23.476  13.942  1.00  0.00     0.106 C 
HETATM   17  C22 UNL     1       1.548  23.581  15.388  1.00  0.00     0.312 C 
HETATM   18  F1  UNL     1       1.777  22.320  15.951  1.00  0.00    -0.199 F 
HETATM   19  F2  UNL     1       2.743  24.287  15.478  1.00  0.00    -0.199 F 
HETATM   20  C23 UNL     1       0.440  24.252  16.132  1.00  0.00     0.339 C 
HETATM   21  F3  UNL     1      -0.197  23.408  17.026  1.00  0.00    -0.196 F 
HETATM   22  F4  UNL     1       0.943  25.357  16.772  1.00  0.00    -0.196 F 
HETATM   23  C24 UNL     1      -0.578  24.683  15.096  1.00  0.00     0.264 C 
HETATM   24  F5  UNL     1      -0.416  26.015  14.765  1.00  0.00    -0.241 F 
ENDBRANCH  14  15
ENDBRANCH  12  13
ENDBRANCH  11  12
BRANCH  11  25
HETATM   25  C25 UNL     1      -2.693  27.231   9.120  1.00  0.00     0.197 C 
HETATM   26  O5  UNL     1      -3.866  27.499   8.756  1.00  0.00    -0.646 OA
HETATM   27  O6  UNL     1      -1.660  27.538   8.255  1.00  0.00    -0.646 OA
ENDBRANCH  11  25
ENDBRANCH   9  11
ENDBRANCH   6   7
BRANCH   1  28
HETATM   28  C10 UNL     1      -6.635  27.011  14.196  1.00  0.00     0.091 C 
HETATM   29  C9  UNL     1      -7.001  26.567  12.784  1.00  0.00     0.045 C 
HETATM   30  C8  UNL     1      -7.788  25.241  12.954  1.00  0.00     0.130 C 
HETATM   31  N1  UNL     1      -8.863  25.621  13.885  1.00  0.00    -0.328 N 
HETATM   32  C7  UNL     1      -9.729  24.537  14.285  1.00  0.00     0.362 C 
HETATM   33  C27 UNL     1      -9.067  26.941  14.370  1.00  0.00     0.130 C 
HETATM   34  O2  UNL     1     -10.665  24.811  15.075  1.00  0.00    -0.238 OA
HETATM   35  C26 UNL     1      -7.828  27.709  14.748  1.00  0.00     0.045 C 
BRANCH  32  36
HETATM   36  O1  UNL     1      -9.598  23.266  13.870  1.00  0.00    -0.304 OA
BRANCH  36  37
HETATM   37  C6  UNL     1     -10.314  22.121  13.994  1.00  0.00     0.180 C 
BRANCH  37  38
HETATM   38  C5  UNL     1     -11.427  21.762  13.107  1.00  0.00     0.027 C 
BRANCH  38  39
HETATM   39  C4  UNL     1     -12.793  22.111  13.536  1.00  0.00     0.002 C 
BRANCH  39  40
HETATM   40  C3  UNL     1     -13.226  23.491  13.030  1.00  0.00    -0.000 C 
BRANCH  40  41
HETATM   41  C2  UNL     1     -13.967  24.267  14.087  1.00  0.00    -0.005 C 
HETATM   42  C1  UNL     1     -13.874  23.570  15.442  1.00  0.00     0.005 C 
ENDBRANCH  40  41
ENDBRANCH  39  40
ENDBRANCH  38  39
ENDBRANCH  37  38
ENDBRANCH  36  37
ENDBRANCH  32  36
ENDBRANCH   1  28
TORSDOF 13
ENDMDL
