MODEL 1
REMARK VINA RESULT: -9.292127074      0.000      0.000
REMARK  12 active torsions:
REMARK  status: ('A' for Active; 'I' for Inactive)
REMARK    1  A    between atoms: C7_7  and  C8_8 
REMARK    2  A    between atoms: C8_8  and  S1_9 
REMARK    3  A    between atoms: S1_9  and  N1_12 
REMARK    4  A    between atoms: N1_12  and  C9_14 
REMARK    5  A    between atoms: C9_14  and  C10_15 
REMARK    6  A    between atoms: C10_15  and  C11_16 
REMARK    7  A    between atoms: C11_16  and  C12_19 
REMARK       I    between atoms: C12_19  and  N2_21 
REMARK    8  A    between atoms: N2_21  and  C13_23 
REMARK    9  A    between atoms: C13_23  and  C14_24 
REMARK   10  A    between atoms: C14_24  and  N3_26 
REMARK   11  A    between atoms: C14_24  and  C20_32 
REMARK   12  A    between atoms: C20_32  and  C21_33 
ROOT
HETATM    1  C12 UNL     1      -4.854  27.445  14.052  1.00  0.00     0.290 C 
HETATM    2  O3  UNL     1      -5.337  26.319  14.358  1.00  0.00    -0.267 OA
HETATM    3  N2  UNL     1      -3.969  27.468  12.929  1.00  0.00    -0.354 N 
ATOM      4  H2  UNL     1      -3.551  28.345  12.617  1.00  0.00     0.162 HD
ENDROOT
BRANCH   1   5
HETATM    5  C11 UNL     1      -5.129  28.684  14.754  1.00  0.00     0.324 C 
HETATM    6  F1  UNL     1      -5.471  29.670  13.800  1.00  0.00    -0.196 F 
HETATM    7  F2  UNL     1      -3.884  29.165  15.222  1.00  0.00    -0.196 F 
BRANCH   5   8
HETATM    8  C10 UNL     1      -6.125  28.667  15.841  1.00  0.00     0.110 C 
BRANCH   8   9
HETATM    9  C9  UNL     1      -7.552  28.477  15.482  1.00  0.00     0.138 C 
BRANCH   9  10
HETATM   10  N1  UNL     1      -8.062  27.137  15.595  1.00  0.00    -0.319 N 
ATOM     11  H1  UNL     1      -7.879  26.504  16.373  1.00  0.00     0.172 HD
BRANCH  10  12
HETATM   12  S1  UNL     1      -9.053  26.753  14.187  1.00  0.00     0.227 S 
HETATM   13  O1  UNL     1      -8.219  27.148  13.014  1.00  0.00    -0.206 OA
HETATM   14  O2  UNL     1     -10.262  27.629  14.322  1.00  0.00    -0.206 OA
BRANCH  12  15
HETATM   15  C8  UNL     1      -9.347  25.052  14.220  1.00  0.00     0.173 C 
BRANCH  15  16
HETATM   16  C7  UNL     1     -10.525  24.493  14.861  1.00  0.00    -0.018 C 
HETATM   17  C2  UNL     1     -10.753  23.038  14.955  1.00  0.00    -0.035 C 
HETATM   18  C1  UNL     1     -10.800  22.295  13.640  1.00  0.00     0.016 C 
HETATM   19  C3  UNL     1      -9.950  22.263  15.942  1.00  0.00     0.016 C 
HETATM   20  C4  UNL     1     -12.187  23.118  15.556  1.00  0.00    -0.006 C 
HETATM   21  C5  UNL     1     -12.875  23.945  14.541  1.00  0.00     0.006 C 
HETATM   22  C26 UNL     1     -11.843  23.989  16.759  1.00  0.00     0.006 C 
HETATM   23  C6  UNL     1     -11.821  24.948  14.137  1.00  0.00     0.012 C 
HETATM   24  C25 UNL     1     -10.743  24.932  16.298  1.00  0.00     0.012 C 
ENDBRANCH  15  16
ENDBRANCH  12  15
ENDBRANCH  10  12
ENDBRANCH   9  10
ENDBRANCH   8   9
ENDBRANCH   5   8
ENDBRANCH   1   5
BRANCH   3  25
HETATM   25  C13 UNL     1      -3.675  26.233  12.242  1.00  0.00     0.154 C 
BRANCH  25  26
HETATM   26  C14 UNL     1      -2.171  25.946  12.280  1.00  0.00     0.056 C 
HETATM   27  C15 UNL     1      -1.656  26.926  13.344  1.00  0.00     0.041 C 
BRANCH  26  28
HETATM   28  N3  UNL     1      -1.539  26.033  11.024  1.00  0.00    -0.397 N 
HETATM   29  C16 UNL     1      -0.699  27.135  10.745  1.00  0.00     0.144 C 
HETATM   30  C17 UNL     1      -0.630  27.453   9.245  1.00  0.00     0.187 C 
HETATM   31  O4  UNL     1      -0.301  26.256   8.611  1.00  0.00    -0.388 OA
HETATM   32  C18 UNL     1      -1.326  25.351   8.721  1.00  0.00     0.187 C 
HETATM   33  C19 UNL     1      -2.301  25.719   9.861  1.00  0.00     0.144 C 
ENDBRANCH  26  28
BRANCH  26  34
HETATM   34  C20 UNL     1      -2.017  24.559  12.880  1.00  0.00     0.084 C 
HETATM   35  C22 UNL     1      -2.107  24.510  14.384  1.00  0.00     0.021 C 
HETATM   36  C23 UNL     1      -3.239  23.517  14.348  1.00  0.00     0.002 C 
HETATM   37  C24 UNL     1      -3.290  23.716  12.851  1.00  0.00     0.021 C 
BRANCH  34  38
HETATM   38  C21 UNL     1      -0.879  23.718  12.409  1.00  0.00     0.397 C 
HETATM   39  F3  UNL     1       0.228  24.400  12.001  1.00  0.00    -0.170 F 
HETATM   40  F4  UNL     1      -0.421  22.979  13.553  1.00  0.00    -0.170 F 
HETATM   41  F5  UNL     1      -1.295  22.722  11.559  1.00  0.00    -0.170 F 
ENDBRANCH  34  38
ENDBRANCH  26  34
ENDBRANCH  25  26
ENDBRANCH   3  25
TORSDOF 12
ENDMDL
MODEL 2
REMARK VINA RESULT: -9.232332818      3.913      8.315
REMARK  12 active torsions:
REMARK  status: ('A' for Active; 'I' for Inactive)
REMARK    1  A    between atoms: C7_7  and  C8_8 
REMARK    2  A    between atoms: C8_8  and  S1_9 
REMARK    3  A    between atoms: S1_9  and  N1_12 
REMARK    4  A    between atoms: N1_12  and  C9_14 
REMARK    5  A    between atoms: C9_14  and  C10_15 
REMARK    6  A    between atoms: C10_15  and  C11_16 
REMARK    7  A    between atoms: C11_16  and  C12_19 
REMARK       I    between atoms: C12_19  and  N2_21 
REMARK    8  A    between atoms: N2_21  and  C13_23 
REMARK    9  A    between atoms: C13_23  and  C14_24 
REMARK   10  A    between atoms: C14_24  and  N3_26 
REMARK   11  A    between atoms: C14_24  and  C20_32 
REMARK   12  A    between atoms: C20_32  and  C21_33 
ROOT
HETATM    1  C12 UNL     1      -9.215  27.812  15.373  1.00  0.00     0.290 C 
HETATM    2  O3  UNL     1      -8.945  27.822  14.138  1.00  0.00    -0.267 OA
HETATM    3  N2  UNL     1     -10.130  26.804  15.811  1.00  0.00    -0.354 N 
ATOM      4  H2  UNL     1     -10.383  26.728  16.796  1.00  0.00     0.162 HD
ENDROOT
BRANCH   1   5
HETATM    5  C11 UNL     1      -8.672  28.739  16.347  1.00  0.00     0.324 C 
HETATM    6  F1  UNL     1      -8.720  28.125  17.620  1.00  0.00    -0.196 F 
HETATM    7  F2  UNL     1      -9.627  29.771  16.494  1.00  0.00    -0.196 F 
BRANCH   5   8
HETATM    8  C10 UNL     1      -7.329  29.300  16.108  1.00  0.00     0.110 C 
BRANCH   8   9
HETATM    9  C9  UNL     1      -6.228  28.364  15.774  1.00  0.00     0.138 C 
BRANCH   9  10
HETATM   10  N1  UNL     1      -4.923  28.717  16.264  1.00  0.00    -0.319 N 
ATOM     11  H1  UNL     1      -4.731  29.124  17.179  1.00  0.00     0.172 HD
BRANCH  10  12
HETATM   12  S1  UNL     1      -3.704  28.344  15.045  1.00  0.00     0.227 S 
HETATM   13  O1  UNL     1      -2.558  29.246  15.362  1.00  0.00    -0.206 OA
HETATM   14  O2  UNL     1      -4.346  28.710  13.741  1.00  0.00    -0.206 OA
BRANCH  12  15
HETATM   15  C8  UNL     1      -3.282  26.681  15.238  1.00  0.00     0.173 C 
BRANCH  15  16
HETATM   16  C7  UNL     1      -2.843  25.870  14.115  1.00  0.00    -0.018 C 
HETATM   17  C2  UNL     1      -2.169  24.570  14.301  1.00  0.00    -0.035 C 
HETATM   18  C1  UNL     1      -0.894  24.602  15.109  1.00  0.00     0.016 C 
HETATM   19  C3  UNL     1      -2.998  23.402  14.713  1.00  0.00     0.016 C 
HETATM   20  C4  UNL     1      -1.827  24.328  12.802  1.00  0.00    -0.006 C 
HETATM   21  C5  UNL     1      -1.066  25.555  12.482  1.00  0.00     0.006 C 
HETATM   22  C26 UNL     1      -3.243  24.464  12.256  1.00  0.00     0.006 C 
HETATM   23  C6  UNL     1      -1.791  26.627  13.260  1.00  0.00     0.012 C 
HETATM   24  C25 UNL     1      -3.930  25.513  13.116  1.00  0.00     0.012 C 
ENDBRANCH  15  16
ENDBRANCH  12  15
ENDBRANCH  10  12
ENDBRANCH   9  10
ENDBRANCH   8   9
ENDBRANCH   5   8
ENDBRANCH   1   5
BRANCH   3  25
HETATM   25  C13 UNL     1     -10.690  25.895  14.840  1.00  0.00     0.154 C 
BRANCH  25  26
HETATM   26  C14 UNL     1     -10.363  24.446  15.214  1.00  0.00     0.056 C 
HETATM   27  C15 UNL     1     -10.524  24.436  16.742  1.00  0.00     0.041 C 
BRANCH  26  28
HETATM   28  N3  UNL     1      -9.116  23.997  14.738  1.00  0.00    -0.397 N 
HETATM   29  C16 UNL     1      -8.097  23.669  15.661  1.00  0.00     0.144 C 
HETATM   30  C17 UNL     1      -6.692  23.847  15.068  1.00  0.00     0.187 C 
HETATM   31  O4  UNL     1      -6.684  23.134  13.871  1.00  0.00    -0.388 OA
HETATM   32  C18 UNL     1      -7.518  23.721  12.953  1.00  0.00     0.187 C 
HETATM   33  C19 UNL     1      -8.538  24.669  13.622  1.00  0.00     0.144 C 
ENDBRANCH  26  28
BRANCH  26  34
HETATM   34  C20 UNL     1     -11.500  23.599  14.669  1.00  0.00     0.084 C 
HETATM   35  C22 UNL     1     -12.768  23.647  15.483  1.00  0.00     0.021 C 
HETATM   36  C23 UNL     1     -13.583  24.106  14.304  1.00  0.00     0.002 C 
HETATM   37  C24 UNL     1     -12.289  24.256  13.539  1.00  0.00     0.021 C 
BRANCH  34  38
HETATM   38  C21 UNL     1     -11.195  22.191  14.280  1.00  0.00     0.397 C 
HETATM   39  F3  UNL     1     -10.594  21.432  15.238  1.00  0.00    -0.170 F 
HETATM   40  F4  UNL     1     -12.462  21.544  14.079  1.00  0.00    -0.170 F 
HETATM   41  F5  UNL     1     -10.623  22.117  13.034  1.00  0.00    -0.170 F 
ENDBRANCH  34  38
ENDBRANCH  26  34
ENDBRANCH  25  26
ENDBRANCH   3  25
TORSDOF 12
ENDMDL
MODEL 3
REMARK VINA RESULT: -9.214867268      3.751      8.369
REMARK  12 active torsions:
REMARK  status: ('A' for Active; 'I' for Inactive)
REMARK    1  A    between atoms: C7_7  and  C8_8 
REMARK    2  A    between atoms: C8_8  and  S1_9 
REMARK    3  A    between atoms: S1_9  and  N1_12 
REMARK    4  A    between atoms: N1_12  and  C9_14 
REMARK    5  A    between atoms: C9_14  and  C10_15 
REMARK    6  A    between atoms: C10_15  and  C11_16 
REMARK    7  A    between atoms: C11_16  and  C12_19 
REMARK       I    between atoms: C12_19  and  N2_21 
REMARK    8  A    between atoms: N2_21  and  C13_23 
REMARK    9  A    between atoms: C13_23  and  C14_24 
REMARK   10  A    between atoms: C14_24  and  N3_26 
REMARK   11  A    between atoms: C14_24  and  C20_32 
REMARK   12  A    between atoms: C20_32  and  C21_33 
ROOT
HETATM    1  C12 UNL     1      -9.181  27.782  15.350  1.00  0.00     0.290 C 
HETATM    2  O3  UNL     1      -8.999  27.808  14.100  1.00  0.00    -0.267 OA
HETATM    3  N2  UNL     1     -10.062  26.766  15.839  1.00  0.00    -0.354 N 
ATOM      4  H2  UNL     1     -10.245  26.678  16.838  1.00  0.00     0.162 HD
ENDROOT
BRANCH   1   5
HETATM    5  C11 UNL     1      -8.573  28.698  16.295  1.00  0.00     0.324 C 
HETATM    6  F1  UNL     1      -8.444  28.035  17.537  1.00  0.00    -0.196 F 
HETATM    7  F2  UNL     1      -9.552  29.673  16.596  1.00  0.00    -0.196 F 
BRANCH   5   8
HETATM    8  C10 UNL     1      -7.295  29.336  15.928  1.00  0.00     0.110 C 
BRANCH   8   9
HETATM    9  C9  UNL     1      -6.088  28.480  15.825  1.00  0.00     0.138 C 
BRANCH   9  10
HETATM   10  N1  UNL     1      -6.202  27.319  14.984  1.00  0.00    -0.319 N 
ATOM     11  H1  UNL     1      -6.975  26.655  15.005  1.00  0.00     0.172 HD
BRANCH  10  12
HETATM   12  S1  UNL     1      -4.806  27.217  13.912  1.00  0.00     0.227 S 
HETATM   13  O1  UNL     1      -4.445  28.635  13.616  1.00  0.00    -0.206 OA
HETATM   14  O2  UNL     1      -5.316  26.514  12.689  1.00  0.00    -0.206 OA
BRANCH  12  15
HETATM   15  C8  UNL     1      -3.553  26.406  14.781  1.00  0.00     0.173 C 
BRANCH  15  16
HETATM   16  C7  UNL     1      -2.417  25.807  14.100  1.00  0.00    -0.018 C 
HETATM   17  C2  UNL     1      -2.398  24.385  13.706  1.00  0.00    -0.035 C 
HETATM   18  C1  UNL     1      -2.579  23.390  14.828  1.00  0.00     0.016 C 
HETATM   19  C3  UNL     1      -3.215  23.971  12.530  1.00  0.00     0.016 C 
HETATM   20  C4  UNL     1      -0.921  24.352  13.217  1.00  0.00    -0.006 C 
HETATM   21  C5  UNL     1      -0.212  24.830  14.425  1.00  0.00     0.006 C 
HETATM   22  C26 UNL     1      -1.024  25.496  12.215  1.00  0.00     0.006 C 
HETATM   23  C6  UNL     1      -1.139  25.886  14.977  1.00  0.00     0.012 C 
HETATM   24  C25 UNL     1      -2.010  26.491  12.807  1.00  0.00     0.012 C 
ENDBRANCH  15  16
ENDBRANCH  12  15
ENDBRANCH  10  12
ENDBRANCH   9  10
ENDBRANCH   8   9
ENDBRANCH   5   8
ENDBRANCH   1   5
BRANCH   3  25
HETATM   25  C13 UNL     1     -10.687  25.868  14.898  1.00  0.00     0.154 C 
BRANCH  25  26
HETATM   26  C14 UNL     1     -10.352  24.414  15.245  1.00  0.00     0.056 C 
HETATM   27  C15 UNL     1     -10.496  24.378  16.773  1.00  0.00     0.041 C 
BRANCH  26  28
HETATM   28  N3  UNL     1      -9.109  23.977  14.746  1.00  0.00    -0.397 N 
HETATM   29  C16 UNL     1      -8.077  23.644  15.653  1.00  0.00     0.144 C 
HETATM   30  C17 UNL     1      -6.680  23.836  15.044  1.00  0.00     0.187 C 
HETATM   31  O4  UNL     1      -6.685  23.137  13.838  1.00  0.00    -0.388 OA
HETATM   32  C18 UNL     1      -7.533  23.730  12.938  1.00  0.00     0.187 C 
HETATM   33  C19 UNL     1      -8.549  24.665  13.631  1.00  0.00     0.144 C 
ENDBRANCH  26  28
BRANCH  26  34
HETATM   34  C20 UNL     1     -11.492  23.573  14.698  1.00  0.00     0.084 C 
HETATM   35  C22 UNL     1     -12.753  23.607  15.523  1.00  0.00     0.021 C 
HETATM   36  C23 UNL     1     -13.580  24.081  14.358  1.00  0.00     0.002 C 
HETATM   37  C24 UNL     1     -12.292  24.244  13.584  1.00  0.00     0.021 C 
BRANCH  34  38
HETATM   38  C21 UNL     1     -11.189  22.171  14.286  1.00  0.00     0.397 C 
HETATM   39  F3  UNL     1     -10.562  21.405  15.223  1.00  0.00    -0.170 F 
HETATM   40  F4  UNL     1     -12.457  21.519  14.108  1.00  0.00    -0.170 F 
HETATM   41  F5  UNL     1     -10.645  22.113  13.027  1.00  0.00    -0.170 F 
ENDBRANCH  34  38
ENDBRANCH  26  34
ENDBRANCH  25  26
ENDBRANCH   3  25
TORSDOF 12
ENDMDL
MODEL 4
REMARK VINA RESULT: -9.209017301      2.343      3.592
REMARK  12 active torsions:
REMARK  status: ('A' for Active; 'I' for Inactive)
REMARK    1  A    between atoms: C7_7  and  C8_8 
REMARK    2  A    between atoms: C8_8  and  S1_9 
REMARK    3  A    between atoms: S1_9  and  N1_12 
REMARK    4  A    between atoms: N1_12  and  C9_14 
REMARK    5  A    between atoms: C9_14  and  C10_15 
REMARK    6  A    between atoms: C10_15  and  C11_16 
REMARK    7  A    between atoms: C11_16  and  C12_19 
REMARK       I    between atoms: C12_19  and  N2_21 
REMARK    8  A    between atoms: N2_21  and  C13_23 
REMARK    9  A    between atoms: C13_23  and  C14_24 
REMARK   10  A    between atoms: C14_24  and  N3_26 
REMARK   11  A    between atoms: C14_24  and  C20_32 
REMARK   12  A    between atoms: C20_32  and  C21_33 
ROOT
HETATM    1  C12 UNL     1      -3.985  28.187  14.783  1.00  0.00     0.290 C 
HETATM    2  O3  UNL     1      -3.068  28.994  15.105  1.00  0.00    -0.267 OA
HETATM    3  N2  UNL     1      -3.595  26.821  14.619  1.00  0.00    -0.354 N 
ATOM      4  H2  UNL     1      -4.285  26.112  14.372  1.00  0.00     0.162 HD
ENDROOT
BRANCH   1   5
HETATM    5  C11 UNL     1      -5.372  28.552  14.569  1.00  0.00     0.324 C 
HETATM    6  F1  UNL     1      -5.408  29.707  13.755  1.00  0.00    -0.196 F 
HETATM    7  F2  UNL     1      -5.848  29.060  15.800  1.00  0.00    -0.196 F 
BRANCH   5   8
HETATM    8  C10 UNL     1      -6.291  27.529  14.036  1.00  0.00     0.110 C 
BRANCH   8   9
HETATM    9  C9  UNL     1      -7.727  27.620  14.396  1.00  0.00     0.138 C 
BRANCH   9  10
HETATM   10  N1  UNL     1      -8.647  26.948  13.519  1.00  0.00    -0.319 N 
ATOM     11  H1  UNL     1      -8.904  27.266  12.585  1.00  0.00     0.172 HD
BRANCH  10  12
HETATM   12  S1  UNL     1      -9.264  25.493  14.299  1.00  0.00     0.227 S 
HETATM   13  O1  UNL     1      -8.735  25.552  15.694  1.00  0.00    -0.206 OA
HETATM   14  O2  UNL     1      -8.656  24.360  13.529  1.00  0.00    -0.206 OA
BRANCH  12  15
HETATM   15  C8  UNL     1     -10.988  25.588  14.265  1.00  0.00     0.173 C 
BRANCH  15  16
HETATM   16  C7  UNL     1     -11.822  24.527  14.806  1.00  0.00    -0.018 C 
HETATM   17  C2  UNL     1     -12.402  23.472  13.952  1.00  0.00    -0.035 C 
HETATM   18  C1  UNL     1     -13.293  23.951  12.831  1.00  0.00     0.016 C 
HETATM   19  C3  UNL     1     -11.500  22.396  13.455  1.00  0.00     0.016 C 
HETATM   20  C4  UNL     1     -13.274  22.806  15.057  1.00  0.00    -0.006 C 
HETATM   21  C5  UNL     1     -14.078  23.958  15.517  1.00  0.00     0.006 C 
HETATM   22  C26 UNL     1     -12.154  22.549  16.058  1.00  0.00     0.006 C 
HETATM   23  C6  UNL     1     -13.101  25.107  15.467  1.00  0.00     0.012 C 
HETATM   24  C25 UNL     1     -11.182  23.710  15.914  1.00  0.00     0.012 C 
ENDBRANCH  15  16
ENDBRANCH  12  15
ENDBRANCH  10  12
ENDBRANCH   9  10
ENDBRANCH   8   9
ENDBRANCH   5   8
ENDBRANCH   1   5
BRANCH   3  25
HETATM   25  C13 UNL     1      -2.210  26.460  14.810  1.00  0.00     0.154 C 
BRANCH  25  26
HETATM   26  C14 UNL     1      -1.942  25.060  14.249  1.00  0.00     0.056 C 
HETATM   27  C15 UNL     1      -3.316  24.378  14.341  1.00  0.00     0.041 C 
BRANCH  26  28
HETATM   28  N3  UNL     1      -0.888  24.378  14.887  1.00  0.00    -0.397 N 
HETATM   29  C16 UNL     1      -1.134  23.120  15.481  1.00  0.00     0.144 C 
HETATM   30  C17 UNL     1      -0.174  22.824  16.642  1.00  0.00     0.187 C 
HETATM   31  O4  UNL     1       1.111  23.022  16.141  1.00  0.00    -0.388 OA
HETATM   32  C18 UNL     1       1.320  24.348  15.855  1.00  0.00     0.187 C 
HETATM   33  C19 UNL     1      -0.007  25.126  15.721  1.00  0.00     0.144 C 
ENDBRANCH  26  28
BRANCH  26  34
HETATM   34  C20 UNL     1      -1.665  25.241  12.766  1.00  0.00     0.084 C 
HETATM   35  C22 UNL     1      -0.757  24.200  12.163  1.00  0.00     0.021 C 
HETATM   36  C23 UNL     1      -1.780  23.815  11.128  1.00  0.00     0.002 C 
HETATM   37  C24 UNL     1      -2.764  24.706  11.850  1.00  0.00     0.021 C 
BRANCH  34  38
HETATM   38  C21 UNL     1      -1.272  26.600  12.292  1.00  0.00     0.397 C 
HETATM   39  F3  UNL     1      -0.487  27.317  13.145  1.00  0.00    -0.170 F 
HETATM   40  F4  UNL     1      -0.431  26.399  11.145  1.00  0.00    -0.170 F 
HETATM   41  F5  UNL     1      -2.337  27.286  11.763  1.00  0.00    -0.170 F 
ENDBRANCH  34  38
ENDBRANCH  26  34
ENDBRANCH  25  26
ENDBRANCH   3  25
TORSDOF 12
ENDMDL
MODEL 5
REMARK VINA RESULT: -9.194714962      1.181      1.595
REMARK  12 active torsions:
REMARK  status: ('A' for Active; 'I' for Inactive)
REMARK    1  A    between atoms: C7_7  and  C8_8 
REMARK    2  A    between atoms: C8_8  and  S1_9 
REMARK    3  A    between atoms: S1_9  and  N1_12 
REMARK    4  A    between atoms: N1_12  and  C9_14 
REMARK    5  A    between atoms: C9_14  and  C10_15 
REMARK    6  A    between atoms: C10_15  and  C11_16 
REMARK    7  A    between atoms: C11_16  and  C12_19 
REMARK       I    between atoms: C12_19  and  N2_21 
REMARK    8  A    between atoms: N2_21  and  C13_23 
REMARK    9  A    between atoms: C13_23  and  C14_24 
REMARK   10  A    between atoms: C14_24  and  N3_26 
REMARK   11  A    between atoms: C14_24  and  C20_32 
REMARK   12  A    between atoms: C20_32  and  C21_33 
ROOT
HETATM    1  C12 UNL     1      -4.735  27.211  14.026  1.00  0.00     0.290 C 
HETATM    2  O3  UNL     1      -5.394  26.155  14.244  1.00  0.00    -0.267 OA
HETATM    3  N2  UNL     1      -3.626  27.089  13.131  1.00  0.00    -0.354 N 
ATOM      4  H2  UNL     1      -3.057  27.903  12.899  1.00  0.00     0.162 HD
ENDROOT
BRANCH   1   5
HETATM    5  C11 UNL     1      -5.023  28.504  14.615  1.00  0.00     0.324 C 
HETATM    6  F1  UNL     1      -5.423  29.384  13.583  1.00  0.00    -0.196 F 
HETATM    7  F2  UNL     1      -3.778  29.059  14.992  1.00  0.00    -0.196 F 
BRANCH   5   8
HETATM    8  C10 UNL     1      -5.983  28.567  15.733  1.00  0.00     0.110 C 
BRANCH   8   9
HETATM    9  C9  UNL     1      -7.428  28.438  15.424  1.00  0.00     0.138 C 
BRANCH   9  10
HETATM   10  N1  UNL     1      -7.994  27.124  15.569  1.00  0.00    -0.319 N 
ATOM     11  H1  UNL     1      -7.825  26.497  16.355  1.00  0.00     0.172 HD
BRANCH  10  12
HETATM   12  S1  UNL     1      -9.025  26.759  14.186  1.00  0.00     0.227 S 
HETATM   13  O1  UNL     1      -8.217  27.149  12.994  1.00  0.00    -0.206 OA
HETATM   14  O2  UNL     1     -10.219  27.650  14.355  1.00  0.00    -0.206 OA
BRANCH  12  15
HETATM   15  C8  UNL     1      -9.341  25.062  14.219  1.00  0.00     0.173 C 
BRANCH  15  16
HETATM   16  C7  UNL     1     -10.520  24.517  14.871  1.00  0.00    -0.018 C 
HETATM   17  C2  UNL     1     -10.753  23.064  14.985  1.00  0.00    -0.035 C 
HETATM   18  C1  UNL     1     -10.806  22.303  13.682  1.00  0.00     0.016 C 
HETATM   19  C3  UNL     1      -9.951  22.300  15.982  1.00  0.00     0.016 C 
HETATM   20  C4  UNL     1     -12.185  23.158  15.588  1.00  0.00    -0.006 C 
HETATM   21  C5  UNL     1     -12.872  23.974  14.563  1.00  0.00     0.006 C 
HETATM   22  C26 UNL     1     -11.835  24.045  16.778  1.00  0.00     0.006 C 
HETATM   23  C6  UNL     1     -11.815  24.966  14.143  1.00  0.00     0.012 C 
HETATM   24  C25 UNL     1     -10.732  24.977  16.302  1.00  0.00     0.012 C 
ENDBRANCH  15  16
ENDBRANCH  12  15
ENDBRANCH  10  12
ENDBRANCH   9  10
ENDBRANCH   8   9
ENDBRANCH   5   8
ENDBRANCH   1   5
BRANCH   3  25
HETATM   25  C13 UNL     1      -3.324  25.798  12.561  1.00  0.00     0.154 C 
BRANCH  25  26
HETATM   26  C14 UNL     1      -1.809  25.570  12.529  1.00  0.00     0.056 C 
HETATM   27  C15 UNL     1      -1.241  26.962  12.841  1.00  0.00     0.041 C 
BRANCH  26  28
HETATM   28  N3  UNL     1      -1.342  24.982  11.337  1.00  0.00    -0.397 N 
HETATM   29  C16 UNL     1      -0.282  25.594  10.631  1.00  0.00     0.144 C 
HETATM   30  C17 UNL     1      -0.323  25.281   9.129  1.00  0.00     0.187 C 
HETATM   31  O4  UNL     1      -0.407  23.894   9.025  1.00  0.00    -0.388 OA
HETATM   32  C18 UNL     1      -1.614  23.446   9.499  1.00  0.00     0.187 C 
HETATM   33  C19 UNL     1      -2.302  24.489  10.406  1.00  0.00     0.144 C 
ENDBRANCH  26  28
BRANCH  26  34
HETATM   34  C20 UNL     1      -1.484  24.706  13.735  1.00  0.00     0.084 C 
HETATM   35  C22 UNL     1      -0.135  24.035  13.684  1.00  0.00     0.021 C 
HETATM   36  C23 UNL     1       0.292  24.652  14.990  1.00  0.00     0.002 C 
HETATM   37  C24 UNL     1      -0.969  25.482  14.945  1.00  0.00     0.021 C 
BRANCH  34  38
HETATM   38  C21 UNL     1      -2.519  23.736  14.198  1.00  0.00     0.397 C 
HETATM   39  F3  UNL     1      -3.127  23.012  13.217  1.00  0.00    -0.170 F 
HETATM   40  F4  UNL     1      -1.826  22.745  14.972  1.00  0.00    -0.170 F 
HETATM   41  F5  UNL     1      -3.368  24.295  15.121  1.00  0.00    -0.170 F 
ENDBRANCH  34  38
ENDBRANCH  26  34
ENDBRANCH  25  26
ENDBRANCH   3  25
TORSDOF 12
ENDMDL
