MODEL 1
REMARK VINA RESULT: -5.988636305      0.000      0.000
REMARK  8 active torsions:
REMARK  status: ('A' for Active; 'I' for Inactive)
REMARK       I    between atoms: C2_2  and  N1_4 
REMARK    1  A    between atoms: N1_4  and  C3_6 
REMARK    2  A    between atoms: C3_6  and  C5_8 
REMARK    3  A    between atoms: C5_8  and  O3_10 
REMARK    4  A    between atoms: O3_10  and  C6_11 
REMARK    5  A    between atoms: C6_11  and  O4_12 
REMARK    6  A    between atoms: C12_20  and  O6_21 
REMARK    7  A    between atoms: C12_20  and  C13_23 
REMARK    8  A    between atoms: C16_26  and  O7_28 
ROOT
HETATM    1  C6  UNL     1      10.850  46.646 -35.054  1.00  0.00     0.209 C 
HETATM    2  C7  UNL     1      10.642  47.898 -35.836  1.00  0.00     0.093 C 
HETATM    3  C8  UNL     1      11.657  48.916 -35.361  1.00  0.00     0.092 C 
HETATM    4  C9  UNL     1      11.436  49.058 -33.876  1.00  0.00     0.135 C 
HETATM    5  O5  UNL     1      12.188  49.654 -33.151  1.00  0.00    -0.297 OA
HETATM    6  C10 UNL     1      10.182  48.382 -33.375  1.00  0.00     0.098 C 
HETATM    7  C11 UNL     1       9.051  48.932 -34.208  1.00  0.00     0.054 C 
HETATM    8  C12 UNL     1       9.226  48.390 -35.622  1.00  0.00     0.071 C 
HETATM    9  C16 UNL     1      10.390  46.893 -33.635  1.00  0.00     0.121 C 
HETATM   10  C17 UNL     1      11.483  46.446 -32.690  1.00  0.00     0.052 C 
ENDROOT
BRANCH   1  11
HETATM   11  O3  UNL     1      12.218  46.241 -35.060  1.00  0.00    -0.278 OA
BRANCH  11  12
HETATM   12  C5  UNL     1      12.691  45.151 -35.751  1.00  0.00     0.284 C 
HETATM   13  O2  UNL     1      12.441  44.006 -35.294  1.00  0.00    -0.263 OA
BRANCH  12  14
HETATM   14  C3  UNL     1      13.484  45.282 -37.015  1.00  0.00     0.180 C 
HETATM   15  C4  UNL     1      12.589  45.492 -38.210  1.00  0.00     0.043 C 
BRANCH  14  16
HETATM   16  N1  UNL     1      14.258  44.100 -37.229  1.00  0.00    -0.348 N 
HETATM   17  C2  UNL     1      15.540  44.101 -37.839  1.00  0.00     0.214 C 
HETATM   18  C1  UNL     1      16.316  42.863 -38.047  1.00  0.00     0.117 C 
HETATM   19  O1  UNL     1      16.067  45.181 -38.228  1.00  0.00    -0.274 OA
ATOM     20  H1  UNL     1      13.867  43.206 -36.929  1.00  0.00     0.163 HD
ENDBRANCH  14  16
ENDBRANCH  12  14
ENDBRANCH  11  12
ENDBRANCH   1  11
BRANCH   1  21
HETATM   21  O4  UNL     1      10.116  45.579 -35.547  1.00  0.00    -0.362 OA
ATOM     22  H4  UNL     1      10.664  45.140 -36.187  1.00  0.00     0.213 HD
ENDBRANCH   1  21
BRANCH   9  23
HETATM   23  O7  UNL     1       9.229  46.186 -33.322  1.00  0.00    -0.384 OA
ATOM     24  H7  UNL     1       9.140  46.032 -32.389  1.00  0.00     0.210 HD
ENDBRANCH   9  23
BRANCH   8  25
HETATM   25  O6  UNL     1       8.304  47.383 -35.783  1.00  0.00    -0.389 OA
ATOM     26  H6  UNL     1       7.459  47.615 -35.415  1.00  0.00     0.210 HD
ENDBRANCH   8  25
BRANCH   8  27
HETATM   27  C13 UNL     1       8.989  49.490 -36.647  1.00  0.00     0.012 C 
HETATM   28  C14 UNL     1       9.256  50.858 -36.113  1.00  0.00     0.012 C 
HETATM   29  C15 UNL     1       7.592  49.408 -37.214  1.00  0.00     0.012 C 
ENDBRANCH   8  27
TORSDOF 8
ENDMDL
MODEL 2
REMARK VINA RESULT: -5.914974063      7.278     10.047
REMARK  8 active torsions:
REMARK  status: ('A' for Active; 'I' for Inactive)
REMARK       I    between atoms: C2_2  and  N1_4 
REMARK    1  A    between atoms: N1_4  and  C3_6 
REMARK    2  A    between atoms: C3_6  and  C5_8 
REMARK    3  A    between atoms: C5_8  and  O3_10 
REMARK    4  A    between atoms: O3_10  and  C6_11 
REMARK    5  A    between atoms: C6_11  and  O4_12 
REMARK    6  A    between atoms: C12_20  and  O6_21 
REMARK    7  A    between atoms: C12_20  and  C13_23 
REMARK    8  A    between atoms: C16_26  and  O7_28 
ROOT
HETATM    1  C6  UNL     1      19.586  43.315 -39.830  1.00  0.00     0.209 C 
HETATM    2  C7  UNL     1      18.377  44.144 -39.562  1.00  0.00     0.093 C 
HETATM    3  C8  UNL     1      18.766  45.228 -38.579  1.00  0.00     0.092 C 
HETATM    4  C9  UNL     1      19.318  44.512 -37.371  1.00  0.00     0.135 C 
HETATM    5  O5  UNL     1      19.884  45.075 -36.472  1.00  0.00    -0.297 OA
HETATM    6  C10 UNL     1      19.096  43.019 -37.390  1.00  0.00     0.098 C 
HETATM    7  C11 UNL     1      17.614  42.820 -37.584  1.00  0.00     0.054 C 
HETATM    8  C12 UNL     1      17.280  43.263 -39.004  1.00  0.00     0.071 C 
HETATM    9  C16 UNL     1      19.887  42.505 -38.589  1.00  0.00     0.121 C 
HETATM   10  C17 UNL     1      21.349  42.682 -38.241  1.00  0.00     0.052 C 
ENDROOT
BRANCH   1  11
HETATM   11  O3  UNL     1      20.714  44.119 -40.172  1.00  0.00    -0.278 OA
BRANCH  11  12
HETATM   12  C5  UNL     1      20.774  44.915 -41.291  1.00  0.00     0.284 C 
HETATM   13  O2  UNL     1      20.132  44.555 -42.310  1.00  0.00    -0.263 OA
BRANCH  12  14
HETATM   14  C3  UNL     1      21.571  46.184 -41.333  1.00  0.00     0.180 C 
HETATM   15  C4  UNL     1      22.280  46.436 -40.026  1.00  0.00     0.043 C 
BRANCH  14  16
HETATM   16  N1  UNL     1      20.709  47.291 -41.603  1.00  0.00    -0.348 N 
HETATM   17  C2  UNL     1      20.609  47.916 -42.874  1.00  0.00     0.214 C 
HETATM   18  C1  UNL     1      19.709  49.059 -43.123  1.00  0.00     0.117 C 
HETATM   19  O1  UNL     1      21.299  47.505 -43.850  1.00  0.00    -0.274 OA
ATOM     20  H1  UNL     1      20.136  47.653 -40.841  1.00  0.00     0.163 HD
ENDBRANCH  14  16
ENDBRANCH  12  14
ENDBRANCH  11  12
ENDBRANCH   1  11
BRANCH   1  21
HETATM   21  O4  UNL     1      19.401  42.421 -40.873  1.00  0.00    -0.362 OA
ATOM     22  H4  UNL     1      20.265  42.197 -41.199  1.00  0.00     0.213 HD
ENDBRANCH   1  21
BRANCH   9  23
HETATM   23  O7  UNL     1      19.647  41.143 -38.773  1.00  0.00    -0.384 OA
ATOM     24  H7  UNL     1      19.727  40.649 -37.965  1.00  0.00     0.210 HD
ENDBRANCH   9  23
BRANCH   8  25
HETATM   25  O6  UNL     1      17.112  42.121 -39.751  1.00  0.00    -0.389 OA
ATOM     26  H6  UNL     1      16.254  42.089 -40.160  1.00  0.00     0.210 HD
ENDBRANCH   8  25
BRANCH   8  27
HETATM   27  C13 UNL     1      16.006  44.094 -39.016  1.00  0.00     0.012 C 
HETATM   28  C14 UNL     1      15.519  44.444 -37.649  1.00  0.00     0.012 C 
HETATM   29  C15 UNL     1      14.917  43.403 -39.802  1.00  0.00     0.012 C 
ENDBRANCH   8  27
TORSDOF 8
ENDMDL
MODEL 3
REMARK VINA RESULT: -5.792347530      7.363     10.246
REMARK  8 active torsions:
REMARK  status: ('A' for Active; 'I' for Inactive)
REMARK       I    between atoms: C2_2  and  N1_4 
REMARK    1  A    between atoms: N1_4  and  C3_6 
REMARK    2  A    between atoms: C3_6  and  C5_8 
REMARK    3  A    between atoms: C5_8  and  O3_10 
REMARK    4  A    between atoms: O3_10  and  C6_11 
REMARK    5  A    between atoms: C6_11  and  O4_12 
REMARK    6  A    between atoms: C12_20  and  O6_21 
REMARK    7  A    between atoms: C12_20  and  C13_23 
REMARK    8  A    between atoms: C16_26  and  O7_28 
ROOT
HETATM    1  C6  UNL     1      19.687  43.191 -39.838  1.00  0.00     0.209 C 
HETATM    2  C7  UNL     1      18.482  44.047 -39.651  1.00  0.00     0.093 C 
HETATM    3  C8  UNL     1      18.875  45.216 -38.772  1.00  0.00     0.092 C 
HETATM    4  C9  UNL     1      19.421  44.612 -37.502  1.00  0.00     0.135 C 
HETATM    5  O5  UNL     1      19.988  45.253 -36.657  1.00  0.00    -0.297 OA
HETATM    6  C10 UNL     1      19.192  43.125 -37.382  1.00  0.00     0.098 C 
HETATM    7  C11 UNL     1      17.708  42.916 -37.560  1.00  0.00     0.054 C 
HETATM    8  C12 UNL     1      17.379  43.227 -39.016  1.00  0.00     0.071 C 
HETATM    9  C16 UNL     1      19.982  42.498 -38.527  1.00  0.00     0.121 C 
HETATM   10  C17 UNL     1      21.444  42.699 -38.193  1.00  0.00     0.052 C 
ENDROOT
BRANCH   1  11
HETATM   11  O3  UNL     1      20.820  43.954 -40.251  1.00  0.00    -0.278 OA
BRANCH  11  12
HETATM   12  C5  UNL     1      21.510  43.729 -41.418  1.00  0.00     0.284 C 
HETATM   13  O2  UNL     1      22.456  42.901 -41.396  1.00  0.00    -0.263 OA
BRANCH  12  14
HETATM   14  C3  UNL     1      21.174  44.429 -42.699  1.00  0.00     0.180 C 
HETATM   15  C4  UNL     1      20.354  45.671 -42.453  1.00  0.00     0.043 C 
BRANCH  14  16
HETATM   16  N1  UNL     1      20.430  43.556 -43.551  1.00  0.00    -0.348 N 
HETATM   17  C2  UNL     1      21.017  42.786 -44.590  1.00  0.00     0.214 C 
HETATM   18  C1  UNL     1      20.222  41.892 -45.454  1.00  0.00     0.117 C 
HETATM   19  O1  UNL     1      22.260  42.842 -44.810  1.00  0.00    -0.274 OA
ATOM     20  H1  UNL     1      19.423  43.483 -43.406  1.00  0.00     0.163 HD
ENDBRANCH  14  16
ENDBRANCH  12  14
ENDBRANCH  11  12
ENDBRANCH   1  11
BRANCH   1  21
HETATM   21  O4  UNL     1      19.500  42.205 -40.794  1.00  0.00    -0.362 OA
ATOM     22  H4  UNL     1      20.336  42.081 -41.227  1.00  0.00     0.213 HD
ENDBRANCH   1  21
BRANCH   9  23
HETATM   23  O7  UNL     1      19.735  41.126 -38.584  1.00  0.00    -0.384 OA
ATOM     24  H7  UNL     1      20.499  40.611 -38.350  1.00  0.00     0.210 HD
ENDBRANCH   9  23
BRANCH   8  25
HETATM   25  O6  UNL     1      17.206  42.021 -39.654  1.00  0.00    -0.389 OA
ATOM     26  H6  UNL     1      17.095  41.307 -39.037  1.00  0.00     0.210 HD
ENDBRANCH   8  25
BRANCH   8  27
HETATM   27  C13 UNL     1      16.109  44.059 -39.108  1.00  0.00     0.012 C 
HETATM   28  C14 UNL     1      15.626  44.544 -37.781  1.00  0.00     0.012 C 
HETATM   29  C15 UNL     1      15.016  43.301 -39.823  1.00  0.00     0.012 C 
ENDBRANCH   8  27
TORSDOF 8
ENDMDL
MODEL 4
REMARK VINA RESULT: -5.682844931      7.115      9.917
REMARK  8 active torsions:
REMARK  status: ('A' for Active; 'I' for Inactive)
REMARK       I    between atoms: C2_2  and  N1_4 
REMARK    1  A    between atoms: N1_4  and  C3_6 
REMARK    2  A    between atoms: C3_6  and  C5_8 
REMARK    3  A    between atoms: C5_8  and  O3_10 
REMARK    4  A    between atoms: O3_10  and  C6_11 
REMARK    5  A    between atoms: C6_11  and  O4_12 
REMARK    6  A    between atoms: C12_20  and  O6_21 
REMARK    7  A    between atoms: C12_20  and  C13_23 
REMARK    8  A    between atoms: C16_26  and  O7_28 
ROOT
HETATM    1  C6  UNL     1      19.268  43.520 -39.746  1.00  0.00     0.209 C 
HETATM    2  C7  UNL     1      18.040  44.284 -39.387  1.00  0.00     0.093 C 
HETATM    3  C8  UNL     1      18.409  45.273 -38.301  1.00  0.00     0.092 C 
HETATM    4  C9  UNL     1      18.991  44.453 -37.177  1.00  0.00     0.135 C 
HETATM    5  O5  UNL     1      19.550  44.937 -36.229  1.00  0.00    -0.297 OA
HETATM    6  C10 UNL     1      18.809  42.964 -37.346  1.00  0.00     0.098 C 
HETATM    7  C11 UNL     1      17.330  42.745 -37.550  1.00  0.00     0.054 C 
HETATM    8  C12 UNL     1      16.972  43.321 -38.915  1.00  0.00     0.071 C 
HETATM    9  C16 UNL     1      19.602  42.596 -38.596  1.00  0.00     0.121 C 
HETATM   10  C17 UNL     1      21.062  42.777 -38.242  1.00  0.00     0.052 C 
ENDROOT
BRANCH   1  11
HETATM   11  O3  UNL     1      20.371  44.385 -40.012  1.00  0.00    -0.278 OA
BRANCH  11  12
HETATM   12  C5  UNL     1      20.881  44.610 -41.268  1.00  0.00     0.284 C 
HETATM   13  O2  UNL     1      20.255  45.388 -42.032  1.00  0.00    -0.263 OA
BRANCH  12  14
HETATM   14  C3  UNL     1      22.145  43.964 -41.750  1.00  0.00     0.180 C 
HETATM   15  C4  UNL     1      23.086  44.975 -42.356  1.00  0.00     0.043 C 
BRANCH  14  16
HETATM   16  N1  UNL     1      21.842  42.977 -42.738  1.00  0.00    -0.348 N 
HETATM   17  C2  UNL     1      21.588  41.615 -42.433  1.00  0.00     0.214 C 
HETATM   18  C1  UNL     1      21.277  40.617 -43.476  1.00  0.00     0.117 C 
HETATM   19  O1  UNL     1      21.619  41.205 -41.238  1.00  0.00    -0.274 OA
ATOM     20  H1  UNL     1      21.807  43.268 -43.715  1.00  0.00     0.163 HD
ENDBRANCH  14  16
ENDBRANCH  12  14
ENDBRANCH  11  12
ENDBRANCH   1  11
BRANCH   1  21
HETATM   21  O4  UNL     1      19.097  42.732 -40.874  1.00  0.00    -0.362 OA
ATOM     22  H4  UNL     1      18.199  42.424 -40.859  1.00  0.00     0.213 HD
ENDBRANCH   1  21
BRANCH   9  23
HETATM   23  O7  UNL     1      19.396  41.254 -38.917  1.00  0.00    -0.384 OA
ATOM     24  H7  UNL     1      18.590  41.117 -39.400  1.00  0.00     0.210 HD
ENDBRANCH   9  23
BRANCH   8  25
HETATM   25  O6  UNL     1      16.827  42.257 -39.773  1.00  0.00    -0.389 OA
ATOM     26  H6  UNL     1      17.660  41.975 -40.131  1.00  0.00     0.210 HD
ENDBRANCH   8  25
BRANCH   8  27
HETATM   27  C13 UNL     1      15.676  44.114 -38.834  1.00  0.00     0.012 C 
HETATM   28  C14 UNL     1      15.171  44.276 -37.438  1.00  0.00     0.012 C 
HETATM   29  C15 UNL     1      14.611  43.501 -39.712  1.00  0.00     0.012 C 
ENDBRANCH   8  27
TORSDOF 8
ENDMDL
MODEL 5
REMARK VINA RESULT: -5.580265054      7.745     10.329
REMARK  8 active torsions:
REMARK  status: ('A' for Active; 'I' for Inactive)
REMARK       I    between atoms: C2_2  and  N1_4 
REMARK    1  A    between atoms: N1_4  and  C3_6 
REMARK    2  A    between atoms: C3_6  and  C5_8 
REMARK    3  A    between atoms: C5_8  and  O3_10 
REMARK    4  A    between atoms: O3_10  and  C6_11 
REMARK    5  A    between atoms: C6_11  and  O4_12 
REMARK    6  A    between atoms: C12_20  and  O6_21 
REMARK    7  A    between atoms: C12_20  and  C13_23 
REMARK    8  A    between atoms: C16_26  and  O7_28 
ROOT
HETATM    1  C6  UNL     1      18.314  42.162 -38.815  1.00  0.00     0.209 C 
HETATM    2  C7  UNL     1      19.763  42.513 -38.834  1.00  0.00     0.093 C 
HETATM    3  C8  UNL     1      20.090  43.205 -37.527  1.00  0.00     0.092 C 
HETATM    4  C9  UNL     1      19.158  44.387 -37.442  1.00  0.00     0.135 C 
HETATM    5  O5  UNL     1      19.026  45.053 -36.449  1.00  0.00    -0.297 OA
HETATM    6  C10 UNL     1      18.401  44.665 -38.718  1.00  0.00     0.098 C 
HETATM    7  C11 UNL     1      19.443  44.795 -39.801  1.00  0.00     0.054 C 
HETATM    8  C12 UNL     1      20.044  43.412 -40.019  1.00  0.00     0.071 C 
HETATM    9  C16 UNL     1      17.518  43.441 -38.941  1.00  0.00     0.121 C 
HETATM   10  C17 UNL     1      16.471  43.467 -37.849  1.00  0.00     0.052 C 
ENDROOT
BRANCH   1  11
HETATM   11  O3  UNL     1      17.951  41.479 -37.616  1.00  0.00    -0.278 OA
BRANCH  11  12
HETATM   12  C5  UNL     1      18.385  40.215 -37.295  1.00  0.00     0.284 C 
HETATM   13  O2  UNL     1      18.935  39.530 -38.195  1.00  0.00    -0.263 OA
BRANCH  12  14
HETATM   14  C3  UNL     1      18.225  39.634 -35.923  1.00  0.00     0.180 C 
HETATM   15  C4  UNL     1      19.209  38.518 -35.677  1.00  0.00     0.043 C 
BRANCH  14  16
HETATM   16  N1  UNL     1      16.902  39.116 -35.764  1.00  0.00    -0.348 N 
HETATM   17  C2  UNL     1      16.319  38.829 -34.502  1.00  0.00     0.214 C 
HETATM   18  C1  UNL     1      14.949  38.294 -34.370  1.00  0.00     0.117 C 
HETATM   19  O1  UNL     1      16.964  39.026 -33.434  1.00  0.00    -0.274 OA
ATOM     20  H1  UNL     1      16.348  38.943 -36.603  1.00  0.00     0.163 HD
ENDBRANCH  14  16
ENDBRANCH  12  14
ENDBRANCH  11  12
ENDBRANCH   1  11
BRANCH   1  21
HETATM   21  O4  UNL     1      17.948  41.341 -39.870  1.00  0.00    -0.362 OA
ATOM     22  H4  UNL     1      17.058  41.576 -40.104  1.00  0.00     0.213 HD
ENDBRANCH   1  21
BRANCH   9  23
HETATM   23  O7  UNL     1      16.864  43.540 -40.170  1.00  0.00    -0.384 OA
ATOM     24  H7  UNL     1      16.857  44.429 -40.505  1.00  0.00     0.210 HD
ENDBRANCH   9  23
BRANCH   8  25
HETATM   25  O6  UNL     1      19.497  42.915 -41.179  1.00  0.00    -0.389 OA
ATOM     26  H6  UNL     1      19.657  41.983 -41.275  1.00  0.00     0.210 HD
ENDBRANCH   8  25
BRANCH   8  27
HETATM   27  C13 UNL     1      21.557  43.503 -40.146  1.00  0.00     0.012 C 
HETATM   28  C14 UNL     1      22.055  44.907 -40.246  1.00  0.00     0.012 C 
HETATM   29  C15 UNL     1      22.052  42.683 -41.314  1.00  0.00     0.012 C 
ENDBRANCH   8  27
TORSDOF 8
ENDMDL
