MODEL 1
REMARK VINA RESULT: -4.621225366      0.000      0.000
REMARK  7 active torsions:
REMARK  status: ('A' for Active; 'I' for Inactive)
REMARK    1  A    between atoms: S1_2  and  C2_4 
REMARK    2  A    between atoms: S1_2  and  C5_7 
REMARK    3  A    between atoms: C8_13  and  C9_14 
REMARK    4  A    between atoms: C9_14  and  N2_16 
REMARK    5  A    between atoms: N2_16  and  S2_18 
REMARK    6  A    between atoms: C12_22  and  O4_23 
REMARK    7  A    between atoms: C13_25  and  O5_26 
ROOT
HETATM    1  C5  UNL     1      19.225  42.611 -37.163  1.00  0.00     0.129 C 
HETATM    2  C6  UNL     1      18.243  41.726 -37.784  1.00  0.00     0.200 C 
HETATM    3  C7  UNL     1      17.296  42.346 -38.789  1.00  0.00     0.041 C 
HETATM    4  N1  UNL     1      18.783  40.485 -38.345  1.00  0.00    -0.061 N 
ATOM      5  H11 UNL     1      19.467  40.674 -39.078  1.00  0.00     0.278 HD
ATOM      6  H12 UNL     1      18.085  39.993 -38.903  1.00  0.00     0.278 HD
HETATM    7  C8  UNL     1      19.332  39.633 -37.320  1.00  0.00     0.240 C 
HETATM    8  C12 UNL     1      19.962  40.434 -36.239  1.00  0.00     0.180 C 
HETATM    9  C13 UNL     1      20.477  41.754 -36.862  1.00  0.00     0.166 C 
ENDROOT
BRANCH   7  10
HETATM   10  C9  UNL     1      18.419  38.527 -36.921  1.00  0.00     0.122 C 
HETATM   11  C10 UNL     1      19.108  37.245 -37.484  1.00  0.00     0.035 C 
BRANCH  10  12
HETATM   12  N2  UNL     1      18.141  38.375 -35.546  1.00  0.00    -0.313 N 
ATOM     13  H2  UNL     1      18.821  37.959 -34.910  1.00  0.00     0.172 HD
BRANCH  12  14
HETATM   14  S2  UNL     1      16.624  38.911 -34.988  1.00  0.00     0.223 S 
HETATM   15  C11 UNL     1      15.405  37.800 -35.724  1.00  0.00     0.185 C 
HETATM   16  O2  UNL     1      16.221  40.270 -35.384  1.00  0.00    -0.206 OA
HETATM   17  O3  UNL     1      16.474  38.682 -33.489  1.00  0.00    -0.206 OA
ENDBRANCH  12  14
ENDBRANCH  10  12
ENDBRANCH   7  10
BRANCH   8  18
HETATM   18  O4  UNL     1      19.158  40.836 -35.209  1.00  0.00    -0.391 OA
ATOM     19  H4  UNL     1      19.553  41.379 -34.537  1.00  0.00     0.210 HD
ENDBRANCH   8  18
BRANCH   9  20
HETATM   20  O5  UNL     1      21.263  41.526 -37.944  1.00  0.00    -0.392 OA
ATOM     21  H5  UNL     1      21.755  40.714 -37.899  1.00  0.00     0.210 HD
ENDBRANCH   9  20
BRANCH   1  22
HETATM   22  S1  UNL     1      19.653  44.122 -37.861  1.00  0.00    -0.047 S 
HETATM   23  C1  UNL     1      18.480  45.146 -38.156  1.00  0.00     0.114 C 
HETATM   24  O1  UNL     1      20.142  43.857 -39.288  1.00  0.00    -0.270 OA
BRANCH  22  25
HETATM   25  C2  UNL     1      20.998  44.898 -37.009  1.00  0.00     0.059 C 
HETATM   26  C3  UNL     1      20.511  46.002 -36.091  1.00  0.00     0.022 C 
HETATM   27  C4  UNL     1      21.960  45.550 -37.987  1.00  0.00     0.022 C 
ENDBRANCH  22  25
ENDBRANCH   1  22
TORSDOF 7
ENDMDL
MODEL 2
REMARK VINA RESULT: -4.618282507      3.604      6.634
REMARK  7 active torsions:
REMARK  status: ('A' for Active; 'I' for Inactive)
REMARK    1  A    between atoms: S1_2  and  C2_4 
REMARK    2  A    between atoms: S1_2  and  C5_7 
REMARK    3  A    between atoms: C8_13  and  C9_14 
REMARK    4  A    between atoms: C9_14  and  N2_16 
REMARK    5  A    between atoms: N2_16  and  S2_18 
REMARK    6  A    between atoms: C12_22  and  O4_23 
REMARK    7  A    between atoms: C13_25  and  O5_26 
ROOT
HETATM    1  C5  UNL     1      18.616  43.649 -38.489  1.00  0.00     0.129 C 
HETATM    2  C6  UNL     1      19.937  43.358 -37.936  1.00  0.00     0.200 C 
HETATM    3  C7  UNL     1      20.034  42.216 -36.948  1.00  0.00     0.041 C 
HETATM    4  N1  UNL     1      21.013  43.224 -38.922  1.00  0.00    -0.061 N 
ATOM      5  H11 UNL     1      20.828  42.463 -39.575  1.00  0.00     0.278 HD
ATOM      6  H12 UNL     1      21.867  42.863 -38.495  1.00  0.00     0.278 HD
HETATM    7  C8  UNL     1      21.256  44.464 -39.615  1.00  0.00     0.240 C 
HETATM    8  C12 UNL     1      19.995  45.221 -39.818  1.00  0.00     0.180 C 
HETATM    9  C13 UNL     1      18.836  44.199 -39.917  1.00  0.00     0.166 C 
ENDROOT
BRANCH   7  10
HETATM   10  C9  UNL     1      22.435  45.210 -39.094  1.00  0.00     0.122 C 
HETATM   11  C10 UNL     1      23.225  45.615 -40.378  1.00  0.00     0.035 C 
BRANCH  10  12
HETATM   12  N2  UNL     1      22.188  46.342 -38.289  1.00  0.00    -0.313 N 
ATOM     13  H2  UNL     1      22.023  47.260 -38.701  1.00  0.00     0.172 HD
BRANCH  12  14
HETATM   14  S2  UNL     1      22.175  46.116 -36.601  1.00  0.00     0.223 S 
HETATM   15  C11 UNL     1      23.061  47.529 -35.906  1.00  0.00     0.185 C 
HETATM   16  O2  UNL     1      22.864  44.920 -36.092  1.00  0.00    -0.206 OA
HETATM   17  O3  UNL     1      20.767  46.251 -36.036  1.00  0.00    -0.206 OA
ENDBRANCH  12  14
ENDBRANCH  10  12
ENDBRANCH   7  10
BRANCH   8  18
HETATM   18  O4  UNL     1      19.609  46.073 -38.820  1.00  0.00    -0.391 OA
ATOM     19  H4  UNL     1      18.700  46.037 -38.545  1.00  0.00     0.210 HD
ENDBRANCH   8  18
BRANCH   9  20
HETATM   20  O5  UNL     1      19.090  43.241 -40.844  1.00  0.00    -0.392 OA
ATOM     21  H5  UNL     1      19.182  43.575 -41.729  1.00  0.00     0.210 HD
ENDBRANCH   9  20
BRANCH   1  22
HETATM   22  S1  UNL     1      17.344  42.494 -38.451  1.00  0.00    -0.047 S 
HETATM   23  C1  UNL     1      17.459  41.318 -37.394  1.00  0.00     0.114 C 
HETATM   24  O1  UNL     1      17.403  41.690 -39.752  1.00  0.00    -0.270 OA
BRANCH  22  25
HETATM   25  C2  UNL     1      15.747  43.257 -38.406  1.00  0.00     0.059 C 
HETATM   26  C3  UNL     1      15.103  43.279 -39.778  1.00  0.00     0.022 C 
HETATM   27  C4  UNL     1      15.846  44.704 -37.958  1.00  0.00     0.022 C 
ENDBRANCH  22  25
ENDBRANCH   1  22
TORSDOF 7
ENDMDL
MODEL 3
REMARK VINA RESULT: -4.592411134      4.264      7.796
REMARK  7 active torsions:
REMARK  status: ('A' for Active; 'I' for Inactive)
REMARK    1  A    between atoms: S1_2  and  C2_4 
REMARK    2  A    between atoms: S1_2  and  C5_7 
REMARK    3  A    between atoms: C8_13  and  C9_14 
REMARK    4  A    between atoms: C9_14  and  N2_16 
REMARK    5  A    between atoms: N2_16  and  S2_18 
REMARK    6  A    between atoms: C12_22  and  O4_23 
REMARK    7  A    between atoms: C13_25  and  O5_26 
ROOT
HETATM    1  C5  UNL     1      19.094  43.494 -40.543  1.00  0.00     0.129 C 
HETATM    2  C6  UNL     1      20.075  44.575 -40.483  1.00  0.00     0.200 C 
HETATM    3  C7  UNL     1      19.880  45.622 -39.408  1.00  0.00     0.041 C 
HETATM    4  N1  UNL     1      21.477  44.150 -40.483  1.00  0.00    -0.061 N 
ATOM      5  H11 UNL     1      21.687  43.559 -39.678  1.00  0.00     0.278 HD
ATOM      6  H12 UNL     1      22.102  44.929 -40.276  1.00  0.00     0.278 HD
HETATM    7  C8  UNL     1      21.836  43.502 -41.719  1.00  0.00     0.240 C 
HETATM    8  C12 UNL     1      20.700  42.714 -42.261  1.00  0.00     0.180 C 
HETATM    9  C13 UNL     1      19.835  42.241 -41.067  1.00  0.00     0.166 C 
ENDROOT
BRANCH   7  10
HETATM   10  C9  UNL     1      22.574  44.391 -42.659  1.00  0.00     0.122 C 
HETATM   11  C10 UNL     1      23.224  43.407 -43.680  1.00  0.00     0.035 C 
BRANCH  10  12
HETATM   12  N2  UNL     1      21.833  45.384 -43.334  1.00  0.00    -0.313 N 
ATOM     13  H2  UNL     1      21.205  45.147 -44.102  1.00  0.00     0.172 HD
BRANCH  12  14
HETATM   14  S2  UNL     1      22.026  46.995 -42.816  1.00  0.00     0.223 S 
HETATM   15  C11 UNL     1      20.364  47.699 -42.758  1.00  0.00     0.185 C 
HETATM   16  O2  UNL     1      22.808  47.879 -43.695  1.00  0.00    -0.206 OA
HETATM   17  O3  UNL     1      22.503  47.056 -41.370  1.00  0.00    -0.206 OA
ENDBRANCH  12  14
ENDBRANCH  10  12
ENDBRANCH   7  10
BRANCH   8  18
HETATM   18  O4  UNL     1      19.819  43.367 -43.079  1.00  0.00    -0.391 OA
ATOM     19  H4  UNL     1      19.693  44.296 -42.927  1.00  0.00     0.210 HD
ENDBRANCH   8  18
BRANCH   9  20
HETATM   20  O5  UNL     1      20.580  41.608 -40.128  1.00  0.00    -0.392 OA
ATOM     21  H5  UNL     1      20.211  40.784 -39.832  1.00  0.00     0.210 HD
ENDBRANCH   9  20
BRANCH   1  22
HETATM   22  S1  UNL     1      18.084  43.111 -39.206  1.00  0.00    -0.047 S 
HETATM   23  C1  UNL     1      18.747  43.127 -37.766  1.00  0.00     0.114 C 
HETATM   24  O1  UNL     1      17.711  41.630 -39.311  1.00  0.00    -0.270 OA
BRANCH  22  25
HETATM   25  C2  UNL     1      16.562  44.014 -39.234  1.00  0.00     0.059 C 
HETATM   26  C3  UNL     1      16.321  44.739 -37.925  1.00  0.00     0.022 C 
HETATM   27  C4  UNL     1      15.379  43.083 -39.430  1.00  0.00     0.022 C 
ENDBRANCH  22  25
ENDBRANCH   1  22
TORSDOF 7
ENDMDL
MODEL 4
REMARK VINA RESULT: -4.554850075      1.086      1.421
REMARK  7 active torsions:
REMARK  status: ('A' for Active; 'I' for Inactive)
REMARK    1  A    between atoms: S1_2  and  C2_4 
REMARK    2  A    between atoms: S1_2  and  C5_7 
REMARK    3  A    between atoms: C8_13  and  C9_14 
REMARK    4  A    between atoms: C9_14  and  N2_16 
REMARK    5  A    between atoms: N2_16  and  S2_18 
REMARK    6  A    between atoms: C12_22  and  O4_23 
REMARK    7  A    between atoms: C13_25  and  O5_26 
ROOT
HETATM    1  C5  UNL     1      20.058  42.293 -37.286  1.00  0.00     0.129 C 
HETATM    2  C6  UNL     1      19.184  41.464 -38.113  1.00  0.00     0.200 C 
HETATM    3  C7  UNL     1      18.663  42.077 -39.394  1.00  0.00     0.041 C 
HETATM    4  N1  UNL     1      19.687  40.118 -38.402  1.00  0.00    -0.061 N 
ATOM      5  H11 UNL     1      20.572  40.152 -38.906  1.00  0.00     0.278 HD
ATOM      6  H12 UNL     1      19.119  39.652 -39.109  1.00  0.00     0.278 HD
HETATM    7  C8  UNL     1      19.793  39.322 -37.204  1.00  0.00     0.240 C 
HETATM    8  C12 UNL     1      20.189  40.156 -36.041  1.00  0.00     0.180 C 
HETATM    9  C13 UNL     1      21.039  41.338 -36.567  1.00  0.00     0.166 C 
ENDROOT
BRANCH   7  10
HETATM   10  C9  UNL     1      18.661  38.373 -37.025  1.00  0.00     0.122 C 
HETATM   11  C10 UNL     1      19.198  37.027 -37.603  1.00  0.00     0.035 C 
BRANCH  10  12
HETATM   12  N2  UNL     1      18.168  38.186 -35.715  1.00  0.00    -0.313 N 
ATOM     13  H2  UNL     1      18.639  37.567 -35.055  1.00  0.00     0.172 HD
BRANCH  12  14
HETATM   14  S2  UNL     1      16.757  39.032 -35.279  1.00  0.00     0.223 S 
HETATM   15  C11 UNL     1      15.393  37.869 -35.505  1.00  0.00     0.185 C 
HETATM   16  O2  UNL     1      16.419  40.211 -36.092  1.00  0.00    -0.206 OA
HETATM   17  O3  UNL     1      16.736  39.339 -33.787  1.00  0.00    -0.206 OA
ENDBRANCH  12  14
ENDBRANCH  10  12
ENDBRANCH   7  10
BRANCH   8  18
HETATM   18  O4  UNL     1      19.185  40.752 -35.328  1.00  0.00    -0.391 OA
ATOM     19  H4  UNL     1      19.252  41.688 -35.184  1.00  0.00     0.210 HD
ENDBRANCH   8  18
BRANCH   9  20
HETATM   20  O5  UNL     1      22.064  40.911 -37.346  1.00  0.00    -0.392 OA
ATOM     21  H5  UNL     1      22.673  40.335 -36.900  1.00  0.00     0.210 HD
ENDBRANCH   9  20
BRANCH   1  22
HETATM   22  S1  UNL     1      20.874  43.665 -37.924  1.00  0.00    -0.047 S 
HETATM   23  C1  UNL     1      21.303  43.613 -39.448  1.00  0.00     0.114 C 
HETATM   24  O1  UNL     1      22.251  43.740 -37.261  1.00  0.00    -0.270 OA
BRANCH  22  25
HETATM   25  C2  UNL     1      20.046  45.180 -37.530  1.00  0.00     0.059 C 
HETATM   26  C3  UNL     1      19.706  45.261 -36.055  1.00  0.00     0.022 C 
HETATM   27  C4  UNL     1      18.730  45.293 -38.278  1.00  0.00     0.022 C 
ENDBRANCH  22  25
ENDBRANCH   1  22
TORSDOF 7
ENDMDL
MODEL 5
REMARK VINA RESULT: -4.554569755      3.722      5.524
REMARK  7 active torsions:
REMARK  status: ('A' for Active; 'I' for Inactive)
REMARK    1  A    between atoms: S1_2  and  C2_4 
REMARK    2  A    between atoms: S1_2  and  C5_7 
REMARK    3  A    between atoms: C8_13  and  C9_14 
REMARK    4  A    between atoms: C9_14  and  N2_16 
REMARK    5  A    between atoms: N2_16  and  S2_18 
REMARK    6  A    between atoms: C12_22  and  O4_23 
REMARK    7  A    between atoms: C13_25  and  O5_26 
ROOT
HETATM    1  C5  UNL     1      20.703  45.715 -40.692  1.00  0.00     0.129 C 
HETATM    2  C6  UNL     1      20.061  44.406 -40.609  1.00  0.00     0.200 C 
HETATM    3  C7  UNL     1      19.690  43.736 -41.914  1.00  0.00     0.041 C 
HETATM    4  N1  UNL     1      20.737  43.429 -39.750  1.00  0.00    -0.061 N 
ATOM      5  H11 UNL     1      21.683  43.238 -40.078  1.00  0.00     0.278 HD
ATOM      6  H12 UNL     1      20.338  42.497 -39.861  1.00  0.00     0.278 HD
HETATM    7  C8  UNL     1      20.731  43.843 -38.369  1.00  0.00     0.240 C 
HETATM    8  C12 UNL     1      20.850  45.318 -38.251  1.00  0.00     0.180 C 
HETATM    9  C13 UNL     1      21.649  45.832 -39.474  1.00  0.00     0.166 C 
ENDROOT
BRANCH   7  10
HETATM   10  C9  UNL     1      19.687  43.164 -37.555  1.00  0.00     0.122 C 
HETATM   11  C10 UNL     1      20.122  43.432 -36.080  1.00  0.00     0.035 C 
BRANCH  10  12
HETATM   12  N2  UNL     1      18.346  43.558 -37.753  1.00  0.00    -0.313 N 
ATOM     13  H2  UNL     1      18.012  44.473 -37.452  1.00  0.00     0.172 HD
BRANCH  12  14
HETATM   14  S2  UNL     1      17.307  42.446 -38.516  1.00  0.00     0.223 S 
HETATM   15  C11 UNL     1      16.082  43.438 -39.398  1.00  0.00     0.185 C 
HETATM   16  O2  UNL     1      16.540  41.550 -37.635  1.00  0.00    -0.206 OA
HETATM   17  O3  UNL     1      18.028  41.684 -39.620  1.00  0.00    -0.206 OA
ENDBRANCH  12  14
ENDBRANCH  10  12
ENDBRANCH   7  10
BRANCH   8  18
HETATM   18  O4  UNL     1      19.690  46.043 -38.275  1.00  0.00    -0.391 OA
ATOM     19  H4  UNL     1      19.081  45.910 -37.559  1.00  0.00     0.210 HD
ENDBRANCH   8  18
BRANCH   9  20
HETATM   20  O5  UNL     1      22.822  45.169 -39.621  1.00  0.00    -0.392 OA
ATOM     21  H5  UNL     1      23.493  45.666 -40.075  1.00  0.00     0.210 HD
ENDBRANCH   9  20
BRANCH   1  22
HETATM   22  S1  UNL     1      21.466  46.260 -42.133  1.00  0.00    -0.047 S 
HETATM   23  C1  UNL     1      22.440  45.249 -42.867  1.00  0.00     0.114 C 
HETATM   24  O1  UNL     1      22.461  47.358 -41.748  1.00  0.00    -0.270 OA
BRANCH  22  25
HETATM   25  C2  UNL     1      20.319  46.997 -43.262  1.00  0.00     0.059 C 
HETATM   26  C3  UNL     1      20.765  46.823 -44.700  1.00  0.00     0.022 C 
HETATM   27  C4  UNL     1      20.209  48.493 -43.028  1.00  0.00     0.022 C 
ENDBRANCH  22  25
ENDBRANCH   1  22
TORSDOF 7
ENDMDL
