MODEL 1
REMARK VINA RESULT: -6.062318814      0.000      0.000
REMARK  8 active torsions:
REMARK  status: ('A' for Active; 'I' for Inactive)
REMARK    1  A    between atoms: C5_5  and  S1_6 
REMARK    2  A    between atoms: S1_6  and  C6_9 
REMARK    3  A    between atoms: C6_9  and  C9_12 
REMARK       I    between atoms: C9_12  and  N1_14 
REMARK    4  A    between atoms: N1_14  and  C10_16 
REMARK    5  A    between atoms: C10_16  and  C11_17 
REMARK    6  A    between atoms: C10_16  and  C12_20 
REMARK    7  A    between atoms: C12_20  and  N4_22 
REMARK    8  A    between atoms: N4_22  and  O5_24 
ROOT
HETATM    1  C9  UNL     1      19.241  41.788 -37.547  1.00  0.00     0.242 C 
HETATM    2  O3  UNL     1      19.449  42.700 -36.731  1.00  0.00    -0.272 OA
HETATM    3  N1  UNL     1      18.859  40.513 -37.038  1.00  0.00    -0.341 N 
ATOM      4  H1  UNL     1      18.683  39.750 -37.691  1.00  0.00     0.163 HD
ENDROOT
BRANCH   1   5
HETATM    5  C6  UNL     1      19.360  41.916 -39.027  1.00  0.00     0.142 C 
HETATM    6  C7  UNL     1      20.876  41.850 -39.298  1.00  0.00     0.042 C 
HETATM    7  C8  UNL     1      18.736  40.721 -39.673  1.00  0.00     0.042 C 
BRANCH   5   8
HETATM    8  S1  UNL     1      18.823  43.453 -39.657  1.00  0.00     0.198 S 
HETATM    9  O1  UNL     1      18.771  43.361 -41.150  1.00  0.00    -0.221 OA
HETATM   10  O2  UNL     1      19.825  44.503 -39.302  1.00  0.00    -0.221 OA
BRANCH   8  11
HETATM   11  C5  UNL     1      17.218  43.872 -39.084  1.00  0.00     0.101 A 
HETATM   12  C4  UNL     1      16.883  44.775 -38.110  1.00  0.00     0.032 A 
HETATM   13  C3  UNL     1      15.584  44.934 -37.833  1.00  0.00     0.016 A 
HETATM   14  C2  UNL     1      14.689  44.185 -38.541  1.00  0.00    -0.020 A 
HETATM   15  C1  UNL     1      13.184  44.185 -38.414  1.00  0.00     0.056 C 
HETATM   16  S2  UNL     1      15.687  43.276 -39.578  1.00  0.00    -0.083 SA
ENDBRANCH   8  11
ENDBRANCH   5   8
ENDBRANCH   1   5
BRANCH   3  17
HETATM   17  C10 UNL     1      18.712  40.270 -35.611  1.00  0.00     0.240 C 
BRANCH  17  18
HETATM   18  C11 UNL     1      17.352  39.743 -35.376  1.00  0.00     0.261 C 
HETATM   19  N2  UNL     1      17.018  39.266 -34.079  1.00  0.00    -0.060 NA
HETATM   20  O4  UNL     1      16.491  39.708 -36.291  1.00  0.00    -0.274 OA
ENDBRANCH  17  18
BRANCH  17  21
HETATM   21  C12 UNL     1      19.681  39.242 -35.154  1.00  0.00     0.144 C 
HETATM   22  N3  UNL     1      20.369  38.475 -36.128  1.00  0.00    -0.083 NA
BRANCH  21  23
HETATM   23  N4  UNL     1      19.921  39.021 -33.914  1.00  0.00    -0.257 N 
ATOM     24  H4  UNL     1      20.350  39.753 -33.346  1.00  0.00     0.195 HD
BRANCH  23  25
HETATM   25  O5  UNL     1      19.614  37.833 -33.350  1.00  0.00    -0.289 OA
ATOM     26  H5  UNL     1      19.202  37.791 -32.494  1.00  0.00     0.244 HD
ENDBRANCH  23  25
ENDBRANCH  21  23
ENDBRANCH  17  21
ENDBRANCH   3  17
TORSDOF 8
ENDMDL
MODEL 2
REMARK VINA RESULT: -6.004871348      1.512      2.285
REMARK  8 active torsions:
REMARK  status: ('A' for Active; 'I' for Inactive)
REMARK    1  A    between atoms: C5_5  and  S1_6 
REMARK    2  A    between atoms: S1_6  and  C6_9 
REMARK    3  A    between atoms: C6_9  and  C9_12 
REMARK       I    between atoms: C9_12  and  N1_14 
REMARK    4  A    between atoms: N1_14  and  C10_16 
REMARK    5  A    between atoms: C10_16  and  C11_17 
REMARK    6  A    between atoms: C10_16  and  C12_20 
REMARK    7  A    between atoms: C12_20  and  N4_22 
REMARK    8  A    between atoms: N4_22  and  O5_24 
ROOT
HETATM    1  C9  UNL     1      18.712  41.380 -38.108  1.00  0.00     0.242 C 
HETATM    2  O3  UNL     1      18.331  40.685 -39.063  1.00  0.00    -0.272 OA
HETATM    3  N1  UNL     1      18.503  40.875 -36.792  1.00  0.00    -0.341 N 
ATOM      4  H1  UNL     1      18.810  41.430 -35.993  1.00  0.00     0.163 HD
ENDROOT
BRANCH   1   5
HETATM    5  C6  UNL     1      19.374  42.710 -38.223  1.00  0.00     0.142 C 
HETATM    6  C7  UNL     1      19.210  43.344 -36.828  1.00  0.00     0.042 C 
HETATM    7  C8  UNL     1      20.837  42.510 -38.455  1.00  0.00     0.042 C 
BRANCH   5   8
HETATM    8  S1  UNL     1      18.597  43.801 -39.343  1.00  0.00     0.198 S 
HETATM    9  O1  UNL     1      18.821  43.292 -40.733  1.00  0.00    -0.221 OA
HETATM   10  O2  UNL     1      19.240  45.145 -39.242  1.00  0.00    -0.221 OA
BRANCH   8  11
HETATM   11  C5  UNL     1      16.864  43.892 -39.073  1.00  0.00     0.101 A 
HETATM   12  C4  UNL     1      15.874  43.221 -39.739  1.00  0.00     0.032 A 
HETATM   13  C3  UNL     1      14.611  43.447 -39.363  1.00  0.00     0.016 A 
HETATM   14  C2  UNL     1      14.402  44.329 -38.343  1.00  0.00    -0.020 A 
HETATM   15  C1  UNL     1      13.081  44.747 -37.743  1.00  0.00     0.056 C 
HETATM   16  S2  UNL     1      15.980  44.821 -37.935  1.00  0.00    -0.083 SA
ENDBRANCH   8  11
ENDBRANCH   5   8
ENDBRANCH   1   5
BRANCH   3  17
HETATM   17  C10 UNL     1      17.866  39.589 -36.557  1.00  0.00     0.240 C 
BRANCH  17  18
HETATM   18  C11 UNL     1      18.917  38.550 -36.565  1.00  0.00     0.261 C 
HETATM   19  N2  UNL     1      20.104  38.772 -35.813  1.00  0.00    -0.060 NA
HETATM   20  O4  UNL     1      18.785  37.484 -37.217  1.00  0.00    -0.274 OA
ENDBRANCH  17  18
BRANCH  17  21
HETATM   21  C12 UNL     1      17.215  39.564 -35.223  1.00  0.00     0.144 C 
HETATM   22  N3  UNL     1      15.811  39.375 -35.155  1.00  0.00    -0.083 NA
BRANCH  21  23
HETATM   23  N4  UNL     1      17.871  39.704 -34.131  1.00  0.00    -0.257 N 
ATOM     24  H4  UNL     1      18.259  40.617 -33.890  1.00  0.00     0.195 HD
BRANCH  23  25
HETATM   25  O5  UNL     1      18.056  38.659 -33.294  1.00  0.00    -0.289 OA
ATOM     26  H5  UNL     1      18.072  37.768 -33.623  1.00  0.00     0.244 HD
ENDBRANCH  23  25
ENDBRANCH  21  23
ENDBRANCH  17  21
ENDBRANCH   3  17
TORSDOF 8
ENDMDL
MODEL 3
REMARK VINA RESULT: -5.975021925      0.946      1.234
REMARK  8 active torsions:
REMARK  status: ('A' for Active; 'I' for Inactive)
REMARK    1  A    between atoms: C5_5  and  S1_6 
REMARK    2  A    between atoms: S1_6  and  C6_9 
REMARK    3  A    between atoms: C6_9  and  C9_12 
REMARK       I    between atoms: C9_12  and  N1_14 
REMARK    4  A    between atoms: N1_14  and  C10_16 
REMARK    5  A    between atoms: C10_16  and  C11_17 
REMARK    6  A    between atoms: C10_16  and  C12_20 
REMARK    7  A    between atoms: C12_20  and  N4_22 
REMARK    8  A    between atoms: N4_22  and  O5_24 
ROOT
HETATM    1  C9  UNL     1      19.577  42.509 -37.152  1.00  0.00     0.242 C 
HETATM    2  O3  UNL     1      19.592  43.243 -36.151  1.00  0.00    -0.272 OA
HETATM    3  N1  UNL     1      19.244  41.137 -36.966  1.00  0.00    -0.341 N 
ATOM      4  H1  UNL     1      19.225  40.516 -37.776  1.00  0.00     0.163 HD
ENDROOT
BRANCH   1   5
HETATM    5  C6  UNL     1      19.884  42.947 -38.543  1.00  0.00     0.142 C 
HETATM    6  C7  UNL     1      20.107  44.468 -38.427  1.00  0.00     0.042 C 
HETATM    7  C8  UNL     1      21.177  42.335 -38.975  1.00  0.00     0.042 C 
BRANCH   5   8
HETATM    8  S1  UNL     1      18.563  42.738 -39.666  1.00  0.00     0.198 S 
HETATM    9  O1  UNL     1      18.312  41.273 -39.834  1.00  0.00    -0.221 OA
HETATM   10  O2  UNL     1      18.962  43.285 -40.997  1.00  0.00    -0.221 OA
BRANCH   8  11
HETATM   11  C5  UNL     1      17.083  43.478 -39.081  1.00  0.00     0.101 A 
HETATM   12  C4  UNL     1      16.955  44.545 -38.233  1.00  0.00     0.032 A 
HETATM   13  C3  UNL     1      15.718  44.943 -37.918  1.00  0.00     0.016 A 
HETATM   14  C2  UNL     1      14.673  44.256 -38.465  1.00  0.00    -0.020 A 
HETATM   15  C1  UNL     1      13.199  44.510 -38.265  1.00  0.00     0.056 C 
HETATM   16  S2  UNL     1      15.449  43.069 -39.408  1.00  0.00    -0.083 SA
ENDBRANCH   8  11
ENDBRANCH   5   8
ENDBRANCH   1   5
BRANCH   3  17
HETATM   17  C10 UNL     1      18.928  40.595 -35.654  1.00  0.00     0.240 C 
BRANCH  17  18
HETATM   18  C11 UNL     1      17.549  40.066 -35.699  1.00  0.00     0.261 C 
HETATM   19  N2  UNL     1      17.074  39.300 -34.599  1.00  0.00    -0.060 NA
HETATM   20  O4  UNL     1      16.794  40.277 -36.681  1.00  0.00    -0.274 OA
ENDBRANCH  17  18
BRANCH  17  21
HETATM   21  C12 UNL     1      19.834  39.468 -35.321  1.00  0.00     0.144 C 
HETATM   22  N3  UNL     1      20.474  38.774 -36.380  1.00  0.00    -0.083 NA
BRANCH  21  23
HETATM   23  N4  UNL     1      20.063  39.097 -34.115  1.00  0.00    -0.257 N 
ATOM     24  H4  UNL     1      20.585  39.711 -33.489  1.00  0.00     0.195 HD
BRANCH  23  25
HETATM   25  O5  UNL     1      19.621  37.903 -33.662  1.00  0.00    -0.289 OA
ATOM     26  H5  UNL     1      19.744  37.651 -32.754  1.00  0.00     0.244 HD
ENDBRANCH  23  25
ENDBRANCH  21  23
ENDBRANCH  17  21
ENDBRANCH   3  17
TORSDOF 8
ENDMDL
MODEL 4
REMARK VINA RESULT: -5.749941803      1.701      2.490
REMARK  8 active torsions:
REMARK  status: ('A' for Active; 'I' for Inactive)
REMARK    1  A    between atoms: C5_5  and  S1_6 
REMARK    2  A    between atoms: S1_6  and  C6_9 
REMARK    3  A    between atoms: C6_9  and  C9_12 
REMARK       I    between atoms: C9_12  and  N1_14 
REMARK    4  A    between atoms: N1_14  and  C10_16 
REMARK    5  A    between atoms: C10_16  and  C11_17 
REMARK    6  A    between atoms: C10_16  and  C12_20 
REMARK    7  A    between atoms: C12_20  and  N4_22 
REMARK    8  A    between atoms: N4_22  and  O5_24 
ROOT
HETATM    1  C9  UNL     1      18.896  41.504 -38.852  1.00  0.00     0.242 C 
HETATM    2  O3  UNL     1      18.421  40.726 -39.694  1.00  0.00    -0.272 OA
HETATM    3  N1  UNL     1      18.982  41.054 -37.503  1.00  0.00    -0.341 N 
ATOM      4  H1  UNL     1      19.369  41.678 -36.795  1.00  0.00     0.163 HD
ENDROOT
BRANCH   1   5
HETATM    5  C6  UNL     1      19.386  42.883 -39.136  1.00  0.00     0.142 C 
HETATM    6  C7  UNL     1      20.824  42.902 -38.581  1.00  0.00     0.042 C 
HETATM    7  C8  UNL     1      19.474  43.075 -40.615  1.00  0.00     0.042 C 
BRANCH   5   8
HETATM    8  S1  UNL     1      18.523  44.138 -38.283  1.00  0.00     0.198 S 
HETATM    9  O1  UNL     1      19.013  45.465 -38.771  1.00  0.00    -0.221 OA
HETATM   10  O2  UNL     1      18.838  44.045 -36.827  1.00  0.00    -0.221 OA
BRANCH   8  11
HETATM   11  C5  UNL     1      16.794  44.060 -38.576  1.00  0.00     0.101 A 
HETATM   12  C4  UNL     1      16.145  43.456 -39.620  1.00  0.00     0.032 A 
HETATM   13  C3  UNL     1      14.810  43.522 -39.642  1.00  0.00     0.016 A 
HETATM   14  C2  UNL     1      14.191  44.186 -38.622  1.00  0.00    -0.020 A 
HETATM   15  C1  UNL     1      12.709  44.395 -38.424  1.00  0.00     0.056 C 
HETATM   16  S2  UNL     1      15.496  44.702 -37.657  1.00  0.00    -0.083 SA
ENDBRANCH   8  11
ENDBRANCH   5   8
ENDBRANCH   1   5
BRANCH   3  17
HETATM   17  C10 UNL     1      18.533  39.728 -37.107  1.00  0.00     0.240 C 
BRANCH  17  18
HETATM   18  C11 UNL     1      19.728  38.884 -36.902  1.00  0.00     0.261 C 
HETATM   19  N2  UNL     1      19.575  37.471 -36.894  1.00  0.00    -0.060 NA
HETATM   20  O4  UNL     1      20.868  39.386 -36.734  1.00  0.00    -0.274 OA
ENDBRANCH  17  18
BRANCH  17  21
HETATM   21  C12 UNL     1      17.795  39.788 -35.821  1.00  0.00     0.144 C 
HETATM   22  N3  UNL     1      16.378  39.845 -35.852  1.00  0.00    -0.083 NA
BRANCH  21  23
HETATM   23  N4  UNL     1      18.386  39.789 -34.684  1.00  0.00    -0.257 N 
ATOM     24  H4  UNL     1      19.336  40.156 -34.610  1.00  0.00     0.195 HD
BRANCH  23  25
HETATM   25  O5  UNL     1      17.769  39.311 -33.580  1.00  0.00    -0.289 OA
ATOM     26  H5  UNL     1      18.267  38.907 -32.880  1.00  0.00     0.244 HD
ENDBRANCH  23  25
ENDBRANCH  21  23
ENDBRANCH  17  21
ENDBRANCH   3  17
TORSDOF 8
ENDMDL
MODEL 5
REMARK VINA RESULT: -5.681998395      6.540      9.076
REMARK  8 active torsions:
REMARK  status: ('A' for Active; 'I' for Inactive)
REMARK    1  A    between atoms: C5_5  and  S1_6 
REMARK    2  A    between atoms: S1_6  and  C6_9 
REMARK    3  A    between atoms: C6_9  and  C9_12 
REMARK       I    between atoms: C9_12  and  N1_14 
REMARK    4  A    between atoms: N1_14  and  C10_16 
REMARK    5  A    between atoms: C10_16  and  C11_17 
REMARK    6  A    between atoms: C10_16  and  C12_20 
REMARK    7  A    between atoms: C12_20  and  N4_22 
REMARK    8  A    between atoms: N4_22  and  O5_24 
ROOT
HETATM    1  C9  UNL     1      12.470  45.839 -35.522  1.00  0.00     0.242 C 
HETATM    2  O3  UNL     1      12.354  46.959 -36.045  1.00  0.00    -0.272 OA
HETATM    3  N1  UNL     1      13.273  44.872 -36.192  1.00  0.00    -0.341 N 
ATOM      4  H1  UNL     1      13.382  43.946 -35.779  1.00  0.00     0.163 HD
ENDROOT
BRANCH   1   5
HETATM    5  C6  UNL     1      11.831  45.418 -34.243  1.00  0.00     0.142 C 
HETATM    6  C7  UNL     1      11.560  43.912 -34.426  1.00  0.00     0.042 C 
HETATM    7  C8  UNL     1      12.819  45.564 -33.132  1.00  0.00     0.042 C 
BRANCH   5   8
HETATM    8  S1  UNL     1      10.277  46.155 -33.944  1.00  0.00     0.198 S 
HETATM    9  O1  UNL     1      10.036  46.170 -32.467  1.00  0.00    -0.221 OA
HETATM   10  O2  UNL     1       9.210  45.317 -34.569  1.00  0.00    -0.221 OA
BRANCH   8  11
HETATM   11  C5  UNL     1      10.216  47.812 -34.520  1.00  0.00     0.101 A 
HETATM   12  C4  UNL     1      10.931  48.887 -34.063  1.00  0.00     0.032 A 
HETATM   13  C3  UNL     1      10.721  50.068 -34.654  1.00  0.00     0.016 A 
HETATM   14  C2  UNL     1       9.809  50.115 -35.669  1.00  0.00    -0.020 A 
HETATM   15  C1  UNL     1       9.402  51.318 -36.485  1.00  0.00     0.056 C 
HETATM   16  S2  UNL     1       9.268  48.504 -35.771  1.00  0.00    -0.083 SA
ENDBRANCH   8  11
ENDBRANCH   5   8
ENDBRANCH   1   5
BRANCH   3  17
HETATM   17  C10 UNL     1      13.944  45.169 -37.447  1.00  0.00     0.240 C 
BRANCH  17  18
HETATM   18  C11 UNL     1      15.246  44.468 -37.446  1.00  0.00     0.261 C 
HETATM   19  N2  UNL     1      16.341  45.057 -38.136  1.00  0.00    -0.060 NA
HETATM   20  O4  UNL     1      15.402  43.372 -36.853  1.00  0.00    -0.274 OA
ENDBRANCH  17  18
BRANCH  17  21
HETATM   21  C12 UNL     1      13.156  44.657 -38.596  1.00  0.00     0.144 C 
HETATM   22  N3  UNL     1      11.982  45.355 -38.980  1.00  0.00    -0.083 NA
BRANCH  21  23
HETATM   23  N4  UNL     1      13.494  43.611 -39.255  1.00  0.00    -0.257 N 
ATOM     24  H4  UNL     1      13.167  42.694 -38.948  1.00  0.00     0.195 HD
BRANCH  23  25
HETATM   25  O5  UNL     1      14.277  43.706 -40.353  1.00  0.00    -0.289 OA
ATOM     26  H5  UNL     1      14.722  42.943 -40.701  1.00  0.00     0.244 HD
ENDBRANCH  23  25
ENDBRANCH  21  23
ENDBRANCH  17  21
ENDBRANCH   3  17
TORSDOF 8
ENDMDL
