MODEL 1
REMARK VINA RESULT: -8.418277749      0.000      0.000
REMARK  9 active torsions:
REMARK  status: ('A' for Active; 'I' for Inactive)
REMARK    1  A    between atoms: C2_2  and  C4_4 
REMARK    2  A    between atoms: C4_4  and  C5_5 
REMARK    3  A    between atoms: C4_4  and  N1_7 
REMARK    4  A    between atoms: N1_7  and  C6_9 
REMARK    5  A    between atoms: C6_9  and  C7_10 
REMARK    6  A    between atoms: C6_9  and  C8_15 
REMARK    7  A    between atoms: C8_15  and  N4_16 
REMARK    8  A    between atoms: C8_15  and  C9_20 
REMARK    9  A    between atoms: C9_20  and  C10_21 
ROOT
HETATM    1  C6  UNL     1      -7.302  18.696 -24.646  1.00  0.00     0.172 C 
ENDROOT
BRANCH   1   2
HETATM    2  N1  UNL     1      -6.352  19.520 -25.247  1.00  0.00    -0.399 N 
ATOM      3  H1  UNL     1      -5.443  19.539 -24.784  1.00  0.00     0.154 HD
BRANCH   2   4
HETATM    4  C4  UNL     1      -6.448  20.301 -26.357  1.00  0.00     0.142 C 
BRANCH   4   5
HETATM    5  C2  UNL     1      -5.182  20.853 -26.943  1.00  0.00     0.006 C 
HETATM    6  C1  UNL     1      -5.488  22.050 -27.854  1.00  0.00     0.012 C 
HETATM    7  C3  UNL     1      -4.332  21.451 -25.795  1.00  0.00     0.012 C 
ENDBRANCH   4   5
BRANCH   4   8
HETATM    8  C5  UNL     1      -7.051  19.457 -27.475  1.00  0.00     0.256 C 
HETATM    9  O1  UNL     1      -8.099  19.781 -27.995  1.00  0.00    -0.305 OA
ENDBRANCH   4   8
ENDBRANCH   2   4
ENDBRANCH   1   2
BRANCH   1  10
HETATM   10  C7  UNL     1      -7.338  17.284 -25.022  1.00  0.00     0.111 C 
HETATM   11  N2  UNL     1      -8.431  16.610 -24.944  1.00  0.00    -0.389 N 
ATOM     12  H22 UNL     1      -9.247  17.131 -24.623  1.00  0.00     0.157 HD
ATOM     13  H21 UNL     1      -8.456  15.625 -25.207  1.00  0.00     0.157 HD
HETATM   14  N3  UNL     1      -6.201  16.559 -25.471  1.00  0.00    -0.086 NA
ENDBRANCH   1  10
BRANCH   1  15
HETATM   15  C8  UNL     1      -7.302  18.856 -23.105  1.00  0.00     0.213 C 
BRANCH  15  16
HETATM   16  N4  UNL     1      -6.122  18.031 -22.746  1.00  0.00    -0.073 N 
ATOM     17  H43 UNL     1      -6.318  17.196 -22.195  1.00  0.00     0.274 HD
ATOM     18  H42 UNL     1      -5.687  17.525 -23.517  1.00  0.00     0.274 HD
ATOM     19  H41 UNL     1      -5.535  18.731 -22.291  1.00  0.00     0.274 HD
ENDBRANCH  15  16
BRANCH  15  20
HETATM   20  C9  UNL     1      -7.020  20.275 -22.807  1.00  0.00     0.040 C 
BRANCH  20  21
HETATM   21  C10 UNL     1      -8.081  21.102 -22.177  1.00  0.00    -0.013 C 
HETATM   22  C11 UNL     1      -9.257  20.362 -21.654  1.00  0.00     0.005 C 
HETATM   23  C12 UNL     1     -10.175  21.379 -21.000  1.00  0.00     0.000 C 
HETATM   24  C13 UNL     1      -9.501  21.766 -19.698  1.00  0.00     0.000 C 
HETATM   25  C14 UNL     1      -8.034  22.012 -19.823  1.00  0.00     0.000 C 
HETATM   26  C15 UNL     1      -7.545  22.134 -21.248  1.00  0.00     0.005 C 
ENDBRANCH  20  21
ENDBRANCH  15  20
ENDBRANCH   1  15
TORSDOF 9
ENDMDL
MODEL 2
REMARK VINA RESULT: -8.047495935      1.186      1.692
REMARK  9 active torsions:
REMARK  status: ('A' for Active; 'I' for Inactive)
REMARK    1  A    between atoms: C2_2  and  C4_4 
REMARK    2  A    between atoms: C4_4  and  C5_5 
REMARK    3  A    between atoms: C4_4  and  N1_7 
REMARK    4  A    between atoms: N1_7  and  C6_9 
REMARK    5  A    between atoms: C6_9  and  C7_10 
REMARK    6  A    between atoms: C6_9  and  C8_15 
REMARK    7  A    between atoms: C8_15  and  N4_16 
REMARK    8  A    between atoms: C8_15  and  C9_20 
REMARK    9  A    between atoms: C9_20  and  C10_21 
ROOT
HETATM    1  C6  UNL     1      -7.206  18.772 -24.439  1.00  0.00     0.172 C 
ENDROOT
BRANCH   1   2
HETATM    2  N1  UNL     1      -6.193  19.581 -24.954  1.00  0.00    -0.399 N 
ATOM      3  H1  UNL     1      -5.568  19.985 -24.257  1.00  0.00     0.154 HD
BRANCH   2   4
HETATM    4  C4  UNL     1      -5.910  19.913 -26.242  1.00  0.00     0.142 C 
BRANCH   4   5
HETATM    5  C2  UNL     1      -6.945  20.675 -27.017  1.00  0.00     0.006 C 
HETATM    6  C1  UNL     1      -6.277  21.578 -28.063  1.00  0.00     0.012 C 
HETATM    7  C3  UNL     1      -7.771  19.666 -27.853  1.00  0.00     0.012 C 
ENDBRANCH   4   5
BRANCH   4   8
HETATM    8  C5  UNL     1      -4.690  20.828 -26.234  1.00  0.00     0.256 C 
HETATM    9  O1  UNL     1      -4.439  21.513 -25.263  1.00  0.00    -0.305 OA
ENDBRANCH   4   8
ENDBRANCH   2   4
ENDBRANCH   1   2
BRANCH   1  10
HETATM   10  C7  UNL     1      -7.324  17.403 -24.937  1.00  0.00     0.111 C 
HETATM   11  N2  UNL     1      -8.465  16.810 -24.965  1.00  0.00    -0.389 N 
ATOM     12  H22 UNL     1      -9.257  17.363 -24.636  1.00  0.00     0.157 HD
ATOM     13  H21 UNL     1      -8.548  15.855 -25.313  1.00  0.00     0.157 HD
HETATM   14  N3  UNL     1      -6.221  16.634 -25.397  1.00  0.00    -0.086 NA
ENDBRANCH   1  10
BRANCH   1  15
HETATM   15  C8  UNL     1      -7.224  18.798 -22.890  1.00  0.00     0.213 C 
BRANCH  15  16
HETATM   16  N4  UNL     1      -6.053  17.938 -22.589  1.00  0.00    -0.073 N 
ATOM     17  H43 UNL     1      -6.088  16.995 -22.974  1.00  0.00     0.274 HD
ATOM     18  H42 UNL     1      -5.187  18.192 -23.063  1.00  0.00     0.274 HD
ATOM     19  H41 UNL     1      -6.033  17.998 -21.571  1.00  0.00     0.274 HD
ENDBRANCH  15  16
BRANCH  15  20
HETATM   20  C9  UNL     1      -6.938  20.185 -22.467  1.00  0.00     0.040 C 
BRANCH  20  21
HETATM   21  C10 UNL     1      -8.057  21.034 -21.983  1.00  0.00    -0.013 C 
HETATM   22  C11 UNL     1      -9.274  20.311 -21.536  1.00  0.00     0.005 C 
HETATM   23  C12 UNL     1     -10.253  21.353 -21.023  1.00  0.00     0.000 C 
HETATM   24  C13 UNL     1      -9.707  21.811 -19.685  1.00  0.00     0.000 C 
HETATM   25  C14 UNL     1      -8.235  22.063 -19.685  1.00  0.00     0.000 C 
HETATM   26  C15 UNL     1      -7.614  22.116 -21.062  1.00  0.00     0.005 C 
ENDBRANCH  20  21
ENDBRANCH  15  20
ENDBRANCH   1  15
TORSDOF 9
ENDMDL
MODEL 3
REMARK VINA RESULT: -7.937232671      0.419      1.196
REMARK  9 active torsions:
REMARK  status: ('A' for Active; 'I' for Inactive)
REMARK    1  A    between atoms: C2_2  and  C4_4 
REMARK    2  A    between atoms: C4_4  and  C5_5 
REMARK    3  A    between atoms: C4_4  and  N1_7 
REMARK    4  A    between atoms: N1_7  and  C6_9 
REMARK    5  A    between atoms: C6_9  and  C7_10 
REMARK    6  A    between atoms: C6_9  and  C8_15 
REMARK    7  A    between atoms: C8_15  and  N4_16 
REMARK    8  A    between atoms: C8_15  and  C9_20 
REMARK    9  A    between atoms: C9_20  and  C10_21 
ROOT
HETATM    1  C6  UNL     1      -7.263  18.705 -24.930  1.00  0.00     0.172 C 
ENDROOT
BRANCH   1   2
HETATM    2  N1  UNL     1      -6.372  19.686 -25.361  1.00  0.00    -0.399 N 
ATOM      3  H1  UNL     1      -5.576  19.846 -24.744  1.00  0.00     0.154 HD
BRANCH   2   4
HETATM    4  C4  UNL     1      -6.400  20.462 -26.478  1.00  0.00     0.142 C 
BRANCH   4   5
HETATM    5  C2  UNL     1      -5.095  20.974 -27.013  1.00  0.00     0.006 C 
HETATM    6  C1  UNL     1      -5.324  22.209 -27.897  1.00  0.00     0.012 C 
HETATM    7  C3  UNL     1      -4.253  21.503 -25.826  1.00  0.00     0.012 C 
ENDBRANCH   4   5
BRANCH   4   8
HETATM    8  C5  UNL     1      -6.978  19.627 -27.616  1.00  0.00     0.256 C 
HETATM    9  O1  UNL     1      -8.080  19.874 -28.063  1.00  0.00    -0.305 OA
ENDBRANCH   4   8
ENDBRANCH   2   4
ENDBRANCH   1   2
BRANCH   1  10
HETATM   10  C7  UNL     1      -7.051  17.328 -25.375  1.00  0.00     0.111 C 
HETATM   11  N2  UNL     1      -8.050  16.565 -25.650  1.00  0.00    -0.389 N 
ATOM     12  H22 UNL     1      -8.971  16.992 -25.550  1.00  0.00     0.157 HD
ATOM     13  H21 UNL     1      -7.902  15.605 -25.961  1.00  0.00     0.157 HD
HETATM   14  N3  UNL     1      -5.768  16.734 -25.515  1.00  0.00    -0.086 NA
ENDBRANCH   1  10
BRANCH   1  15
HETATM   15  C8  UNL     1      -7.475  18.761 -23.397  1.00  0.00     0.213 C 
BRANCH  15  16
HETATM   16  N4  UNL     1      -6.142  18.317 -22.920  1.00  0.00    -0.073 N 
ATOM     17  H43 UNL     1      -5.347  18.633 -23.475  1.00  0.00     0.274 HD
ATOM     18  H42 UNL     1      -5.818  18.747 -22.054  1.00  0.00     0.274 HD
ATOM     19  H41 UNL     1      -6.282  17.307 -22.886  1.00  0.00     0.274 HD
ENDBRANCH  15  16
BRANCH  15  20
HETATM   20  C9  UNL     1      -7.682  20.178 -23.030  1.00  0.00     0.040 C 
BRANCH  20  21
HETATM   21  C10 UNL     1      -8.057  20.511 -21.631  1.00  0.00    -0.013 C 
HETATM   22  C11 UNL     1      -7.708  21.879 -21.174  1.00  0.00     0.005 C 
HETATM   23  C12 UNL     1      -8.236  22.028 -19.758  1.00  0.00     0.000 C 
HETATM   24  C13 UNL     1      -9.740  22.166 -19.890  1.00  0.00     0.000 C 
HETATM   25  C14 UNL     1     -10.356  21.203 -20.851  1.00  0.00     0.000 C 
HETATM   26  C15 UNL     1      -9.438  20.081 -21.279  1.00  0.00     0.005 C 
ENDBRANCH  20  21
ENDBRANCH  15  20
ENDBRANCH   1  15
TORSDOF 9
ENDMDL
MODEL 4
REMARK VINA RESULT: -7.592373469      1.330      2.118
REMARK  9 active torsions:
REMARK  status: ('A' for Active; 'I' for Inactive)
REMARK    1  A    between atoms: C2_2  and  C4_4 
REMARK    2  A    between atoms: C4_4  and  C5_5 
REMARK    3  A    between atoms: C4_4  and  N1_7 
REMARK    4  A    between atoms: N1_7  and  C6_9 
REMARK    5  A    between atoms: C6_9  and  C7_10 
REMARK    6  A    between atoms: C6_9  and  C8_15 
REMARK    7  A    between atoms: C8_15  and  N4_16 
REMARK    8  A    between atoms: C8_15  and  C9_20 
REMARK    9  A    between atoms: C9_20  and  C10_21 
ROOT
HETATM    1  C6  UNL     1      -6.773  18.656 -24.938  1.00  0.00     0.172 C 
ENDROOT
BRANCH   1   2
HETATM    2  N1  UNL     1      -5.747  19.560 -25.212  1.00  0.00    -0.399 N 
ATOM      3  H1  UNL     1      -5.096  19.719 -24.443  1.00  0.00     0.154 HD
BRANCH   2   4
HETATM    4  C4  UNL     1      -5.480  20.262 -26.346  1.00  0.00     0.142 C 
BRANCH   4   5
HETATM    5  C2  UNL     1      -6.622  20.954 -27.032  1.00  0.00     0.006 C 
HETATM    6  C1  UNL     1      -6.100  21.890 -28.132  1.00  0.00     0.012 C 
HETATM    7  C3  UNL     1      -7.451  19.891 -27.793  1.00  0.00     0.012 C 
ENDBRANCH   4   5
BRANCH   4   8
HETATM    8  C5  UNL     1      -4.513  21.385 -25.987  1.00  0.00     0.256 C 
HETATM    9  O1  UNL     1      -3.355  21.342 -26.353  1.00  0.00    -0.305 OA
ENDBRANCH   4   8
ENDBRANCH   2   4
ENDBRANCH   1   2
BRANCH   1  10
HETATM   10  C7  UNL     1      -6.627  17.277 -25.398  1.00  0.00     0.111 C 
HETATM   11  N2  UNL     1      -7.660  16.567 -25.688  1.00  0.00    -0.389 N 
ATOM     12  H22 UNL     1      -8.559  17.037 -25.587  1.00  0.00     0.157 HD
ATOM     13  H21 UNL     1      -7.558  15.604 -26.009  1.00  0.00     0.157 HD
HETATM   14  N3  UNL     1      -5.373  16.621 -25.539  1.00  0.00    -0.086 NA
ENDBRANCH   1  10
BRANCH   1  15
HETATM   15  C8  UNL     1      -7.186  18.698 -23.446  1.00  0.00     0.213 C 
BRANCH  15  16
HETATM   16  N4  UNL     1      -6.001  18.066 -22.816  1.00  0.00    -0.073 N 
ATOM     17  H43 UNL     1      -5.735  18.436 -21.904  1.00  0.00     0.274 HD
ATOM     18  H42 UNL     1      -6.135  17.111 -22.485  1.00  0.00     0.274 HD
ATOM     19  H41 UNL     1      -5.310  18.183 -23.557  1.00  0.00     0.274 HD
ENDBRANCH  15  16
BRANCH  15  20
HETATM   20  C9  UNL     1      -7.257  20.119 -23.045  1.00  0.00     0.040 C 
BRANCH  20  21
HETATM   21  C10 UNL     1      -7.744  20.459 -21.683  1.00  0.00    -0.013 C 
HETATM   22  C11 UNL     1      -7.511  21.856 -21.240  1.00  0.00     0.005 C 
HETATM   23  C12 UNL     1      -8.140  22.003 -19.866  1.00  0.00     0.000 C 
HETATM   24  C13 UNL     1      -9.638  22.041 -20.098  1.00  0.00     0.000 C 
HETATM   25  C14 UNL     1     -10.127  21.019 -21.071  1.00  0.00     0.000 C 
HETATM   26  C15 UNL     1      -9.115  19.949 -21.409  1.00  0.00     0.005 C 
ENDBRANCH  20  21
ENDBRANCH  15  20
ENDBRANCH   1  15
TORSDOF 9
ENDMDL
MODEL 5
REMARK VINA RESULT: -7.534716015      0.838      1.182
REMARK  9 active torsions:
REMARK  status: ('A' for Active; 'I' for Inactive)
REMARK    1  A    between atoms: C2_2  and  C4_4 
REMARK    2  A    between atoms: C4_4  and  C5_5 
REMARK    3  A    between atoms: C4_4  and  N1_7 
REMARK    4  A    between atoms: N1_7  and  C6_9 
REMARK    5  A    between atoms: C6_9  and  C7_10 
REMARK    6  A    between atoms: C6_9  and  C8_15 
REMARK    7  A    between atoms: C8_15  and  N4_16 
REMARK    8  A    between atoms: C8_15  and  C9_20 
REMARK    9  A    between atoms: C9_20  and  C10_21 
ROOT
HETATM    1  C6  UNL     1      -6.669  18.839 -25.240  1.00  0.00     0.172 C 
ENDROOT
BRANCH   1   2
HETATM    2  N1  UNL     1      -5.896  19.963 -25.525  1.00  0.00    -0.399 N 
ATOM      3  H1  UNL     1      -5.158  20.161 -24.850  1.00  0.00     0.154 HD
BRANCH   2   4
HETATM    4  C4  UNL     1      -5.973  20.837 -26.565  1.00  0.00     0.142 C 
BRANCH   4   5
HETATM    5  C2  UNL     1      -4.693  21.397 -27.112  1.00  0.00     0.006 C 
HETATM    6  C1  UNL     1      -4.938  22.771 -27.753  1.00  0.00     0.012 C 
HETATM    7  C3  UNL     1      -3.742  21.690 -25.926  1.00  0.00     0.012 C 
ENDBRANCH   4   5
BRANCH   4   8
HETATM    8  C5  UNL     1      -6.606  20.107 -27.746  1.00  0.00     0.256 C 
HETATM    9  O1  UNL     1      -7.783  20.256 -28.003  1.00  0.00    -0.305 OA
ENDBRANCH   4   8
ENDBRANCH   2   4
ENDBRANCH   1   2
BRANCH   1  10
HETATM   10  C7  UNL     1      -5.989  17.614 -24.822  1.00  0.00     0.111 C 
HETATM   11  N2  UNL     1      -5.138  17.630 -23.858  1.00  0.00    -0.389 N 
ATOM     12  H22 UNL     1      -4.994  18.537 -23.414  1.00  0.00     0.157 HD
ATOM     13  H21 UNL     1      -4.663  16.776 -23.567  1.00  0.00     0.157 HD
HETATM   14  N3  UNL     1      -6.191  16.350 -25.441  1.00  0.00    -0.086 NA
ENDBRANCH   1  10
BRANCH   1  15
HETATM   15  C8  UNL     1      -7.834  19.178 -24.277  1.00  0.00     0.213 C 
BRANCH  15  16
HETATM   16  N4  UNL     1      -8.190  17.822 -23.790  1.00  0.00    -0.073 N 
ATOM     17  H43 UNL     1      -8.724  17.246 -24.441  1.00  0.00     0.274 HD
ATOM     18  H42 UNL     1      -7.414  17.165 -23.712  1.00  0.00     0.274 HD
ATOM     19  H41 UNL     1      -8.662  18.054 -22.917  1.00  0.00     0.274 HD
ENDBRANCH  15  16
BRANCH  15  20
HETATM   20  C9  UNL     1      -7.272  19.969 -23.163  1.00  0.00     0.040 C 
BRANCH  20  21
HETATM   21  C10 UNL     1      -8.158  20.912 -22.432  1.00  0.00    -0.013 C 
HETATM   22  C11 UNL     1      -9.304  20.301 -21.712  1.00  0.00     0.005 C 
HETATM   23  C12 UNL     1     -10.028  21.422 -20.987  1.00  0.00     0.000 C 
HETATM   24  C13 UNL     1      -9.143  21.795 -19.814  1.00  0.00     0.000 C 
HETATM   25  C14 UNL     1      -7.694  21.903 -20.158  1.00  0.00     0.000 C 
HETATM   26  C15 UNL     1      -7.408  21.926 -21.642  1.00  0.00     0.005 C 
ENDBRANCH  20  21
ENDBRANCH  15  20
ENDBRANCH   1  15
TORSDOF 9
ENDMDL
