MODEL 1
REMARK VINA RESULT: -5.689467349      0.000      0.000
REMARK  0 active torsions:
REMARK  status: ('A' for Active; 'I' for Inactive)
ROOT
HETATM    1  N1  UNL     1      23.624   3.821 -30.449  1.00  0.00    -0.193 NA
HETATM    2  C1  UNL     1      23.244   4.720 -31.064  1.00  0.00     0.118 C 
HETATM    3  C2  UNL     1      22.783   5.859 -31.816  1.00  0.00     0.335 C 
HETATM    4  C3  UNL     1      21.621   5.596 -32.624  1.00  0.00     0.118 C 
HETATM    5  N2  UNL     1      20.674   5.388 -33.274  1.00  0.00    -0.193 NA
HETATM    6  C4  UNL     1      22.552   7.024 -30.876  1.00  0.00     0.056 C 
HETATM    7  C5  UNL     1      23.712   7.280 -29.985  1.00  0.00     0.011 C 
HETATM    8  C6  UNL     1      24.935   7.555 -30.839  1.00  0.00     0.031 C 
HETATM    9  C7  UNL     1      25.020   6.540 -31.935  1.00  0.00     0.276 C 
HETATM   10  N3  UNL     1      23.813   6.412 -32.696  1.00  0.00     0.126 N 
HETATM   11  C8  UNL     1      23.237   7.685 -33.043  1.00  0.00     0.276 C 
HETATM   12  C9  UNL     1      22.454   8.174 -31.865  1.00  0.00     0.039 C 
ENDROOT
TORSDOF 0
ENDMDL
MODEL 2
REMARK VINA RESULT: -5.580849516      1.981      3.753
REMARK  0 active torsions:
REMARK  status: ('A' for Active; 'I' for Inactive)
ROOT
HETATM    1  N1  UNL     1      24.808  10.363 -31.950  1.00  0.00    -0.193 NA
HETATM    2  C1  UNL     1      24.271   9.379 -31.676  1.00  0.00     0.118 C 
HETATM    3  C2  UNL     1      23.588   8.152 -31.356  1.00  0.00     0.335 C 
HETATM    4  C3  UNL     1      23.612   7.815 -29.958  1.00  0.00     0.118 C 
HETATM    5  N2  UNL     1      23.623   7.542 -28.823  1.00  0.00    -0.193 NA
HETATM    6  C4  UNL     1      22.170   8.210 -31.888  1.00  0.00     0.056 C 
HETATM    7  C5  UNL     1      22.110   8.618 -33.315  1.00  0.00     0.011 C 
HETATM    8  C6  UNL     1      22.918   7.634 -34.140  1.00  0.00     0.031 C 
HETATM    9  C7  UNL     1      24.232   7.379 -33.472  1.00  0.00     0.276 C 
HETATM   10  N3  UNL     1      24.113   7.002 -32.095  1.00  0.00     0.126 N 
HETATM   11  C8  UNL     1      23.079   6.025 -31.872  1.00  0.00     0.276 C 
HETATM   12  C9  UNL     1      21.770   6.747 -31.798  1.00  0.00     0.039 C 
ENDROOT
TORSDOF 0
ENDMDL
MODEL 3
REMARK VINA RESULT: -5.462380062      2.140      3.531
REMARK  0 active torsions:
REMARK  status: ('A' for Active; 'I' for Inactive)
ROOT
HETATM    1  N1  UNL     1      23.887   7.890 -28.699  1.00  0.00    -0.193 NA
HETATM    2  C1  UNL     1      23.849   8.096 -29.834  1.00  0.00     0.118 C 
HETATM    3  C2  UNL     1      23.802   8.328 -31.255  1.00  0.00     0.335 C 
HETATM    4  C3  UNL     1      24.192   9.657 -31.644  1.00  0.00     0.118 C 
HETATM    5  N2  UNL     1      24.515  10.733 -31.965  1.00  0.00    -0.193 NA
HETATM    6  C4  UNL     1      24.630   7.277 -31.965  1.00  0.00     0.056 C 
HETATM    7  C5  UNL     1      24.293   5.896 -31.536  1.00  0.00     0.011 C 
HETATM    8  C6  UNL     1      22.822   5.645 -31.804  1.00  0.00     0.031 C 
HETATM    9  C7  UNL     1      22.018   6.813 -31.325  1.00  0.00     0.276 C 
HETATM   10  N3  UNL     1      22.480   8.073 -31.827  1.00  0.00     0.126 N 
HETATM   11  C8  UNL     1      22.782   8.035 -33.234  1.00  0.00     0.276 C 
HETATM   12  C9  UNL     1      24.153   7.456 -33.397  1.00  0.00     0.039 C 
ENDROOT
TORSDOF 0
ENDMDL
MODEL 4
REMARK VINA RESULT: -5.442704705      2.442      4.344
REMARK  0 active torsions:
REMARK  status: ('A' for Active; 'I' for Inactive)
ROOT
HETATM    1  N1  UNL     1      20.194  10.191 -33.249  1.00  0.00    -0.193 NA
HETATM    2  C1  UNL     1      21.208   9.697 -33.011  1.00  0.00     0.118 C 
HETATM    3  C2  UNL     1      22.464   9.057 -32.710  1.00  0.00     0.335 C 
HETATM    4  C3  UNL     1      23.515   9.971 -32.349  1.00  0.00     0.118 C 
HETATM    5  N2  UNL     1      24.369  10.709 -32.049  1.00  0.00    -0.193 NA
HETATM    6  C4  UNL     1      22.251   8.007 -31.639  1.00  0.00     0.056 C 
HETATM    7  C5  UNL     1      21.129   7.086 -31.954  1.00  0.00     0.011 C 
HETATM    8  C6  UNL     1      21.412   6.406 -33.280  1.00  0.00     0.031 C 
HETATM    9  C7  UNL     1      21.873   7.421 -34.278  1.00  0.00     0.276 C 
HETATM   10  N3  UNL     1      22.958   8.232 -33.813  1.00  0.00     0.126 N 
HETATM   11  C8  UNL     1      23.985   7.466 -33.156  1.00  0.00     0.276 C 
HETATM   12  C9  UNL     1      23.549   7.223 -31.745  1.00  0.00     0.039 C 
ENDROOT
TORSDOF 0
ENDMDL
MODEL 5
REMARK VINA RESULT: -5.373887403      2.067      3.590
REMARK  0 active torsions:
REMARK  status: ('A' for Active; 'I' for Inactive)
ROOT
HETATM    1  N1  UNL     1      21.092   8.069 -32.617  1.00  0.00    -0.193 NA
HETATM    2  C1  UNL     1      22.171   8.347 -32.319  1.00  0.00     0.118 C 
HETATM    3  C2  UNL     1      23.521   8.672 -31.933  1.00  0.00     0.335 C 
HETATM    4  C3  UNL     1      23.841  10.070 -32.044  1.00  0.00     0.118 C 
HETATM    5  N2  UNL     1      24.103  11.205 -32.125  1.00  0.00    -0.193 NA
HETATM    6  C4  UNL     1      23.785   8.152 -30.535  1.00  0.00     0.056 C 
HETATM    7  C5  UNL     1      23.404   6.725 -30.373  1.00  0.00     0.011 C 
HETATM    8  C6  UNL     1      24.180   5.894 -31.376  1.00  0.00     0.031 C 
HETATM    9  C7  UNL     1      24.131   6.552 -32.719  1.00  0.00     0.276 C 
HETATM   10  N3  UNL     1      24.523   7.929 -32.699  1.00  0.00     0.126 N 
HETATM   11  C8  UNL     1      25.708   8.160 -31.914  1.00  0.00     0.276 C 
HETATM   12  C9  UNL     1      25.301   8.244 -30.477  1.00  0.00     0.039 C 
ENDROOT
TORSDOF 0
ENDMDL
