MODEL 1
REMARK VINA RESULT: -6.902041253      0.000      0.000
REMARK  11 active torsions:
REMARK  status: ('A' for Active; 'I' for Inactive)
REMARK    1  A    between atoms: N1_2  and  N2_3 
REMARK    2  A    between atoms: N1_2  and  C2_7 
REMARK    3  A    between atoms: C2_7  and  C3_8 
REMARK    4  A    between atoms: C3_8  and  C4_9 
REMARK    5  A    between atoms: C5_13  and  C6_14 
REMARK    6  A    between atoms: C6_14  and  N4_15 
REMARK       I    between atoms: N4_15  and  C7_17 
REMARK    7  A    between atoms: N6_19  and  C8_21 
REMARK    8  A    between atoms: C8_21  and  C9_22 
REMARK    9  A    between atoms: C9_22  and  C10_23 
REMARK   10  A    between atoms: C10_23  and  C11_24 
REMARK   11  A    between atoms: C11_24  and  N7_25 
ROOT
HETATM    1  C4  UNL     1     -27.537  27.974 -16.006  1.00  0.00     0.281 C 
HETATM    2  N3  UNL     1     -27.465  27.073 -17.158  1.00  0.00    -0.040 N 
ATOM      3  H31 UNL     1     -26.759  27.301 -17.859  1.00  0.00     0.280 HD
ATOM      4  H32 UNL     1     -28.246  27.123 -17.812  1.00  0.00     0.280 HD
HETATM    5  C5  UNL     1     -27.289  25.789 -16.463  1.00  0.00     0.305 C 
HETATM    6  N8  UNL     1     -28.324  25.874 -15.450  1.00  0.00    -0.330 N 
ATOM      7  H8  UNL     1     -28.843  25.096 -15.043  1.00  0.00     0.164 HD
HETATM    8  C12 UNL     1     -28.475  27.260 -15.134  1.00  0.00     0.250 C 
HETATM    9  O2  UNL     1     -29.249  27.768 -14.285  1.00  0.00    -0.271 OA
ENDROOT
BRANCH   5  10
HETATM   10  C6  UNL     1     -27.497  24.638 -17.399  1.00  0.00     0.176 C 
BRANCH  10  11
HETATM   11  N4  UNL     1     -26.307  24.280 -18.110  1.00  0.00    -0.361 N 
HETATM   12  C7  UNL     1     -25.976  24.741 -19.402  1.00  0.00     0.184 C 
HETATM   13  N5  UNL     1     -26.762  25.736 -20.019  1.00  0.00    -0.064 NA
HETATM   14  N6  UNL     1     -24.970  24.273 -20.039  1.00  0.00    -0.365 N 
ATOM     15  H6  UNL     1     -24.734  24.610 -20.972  1.00  0.00     0.162 HD
ATOM     16  H4  UNL     1     -25.652  23.647 -17.649  1.00  0.00     0.162 HD
BRANCH  14  17
HETATM   17  C8  UNL     1     -24.172  23.241 -19.385  1.00  0.00     0.122 C 
BRANCH  17  18
HETATM   18  C9  UNL     1     -23.719  22.190 -20.339  1.00  0.00     0.021 C 
BRANCH  18  19
HETATM   19  C10 UNL     1     -24.082  20.832 -19.807  1.00  0.00     0.029 C 
BRANCH  19  20
HETATM   20  C11 UNL     1     -23.023  19.824 -20.095  1.00  0.00     0.229 C 
BRANCH  20  21
HETATM   21  N7  UNL     1     -21.775  20.138 -19.384  1.00  0.00    -0.079 N 
ATOM     22  H73 UNL     1     -21.492  21.107 -19.534  1.00  0.00     0.274 HD
ATOM     23  H72 UNL     1     -21.918  20.172 -18.374  1.00  0.00     0.274 HD
ATOM     24  H71 UNL     1     -21.029  19.489 -19.635  1.00  0.00     0.274 HD
ENDBRANCH  20  21
ENDBRANCH  19  20
ENDBRANCH  18  19
ENDBRANCH  17  18
ENDBRANCH  14  17
ENDBRANCH  10  11
ENDBRANCH   5  10
BRANCH   1  25
HETATM   25  C3  UNL     1     -27.993  29.347 -16.405  1.00  0.00     0.082 C 
BRANCH  25  26
HETATM   26  C2  UNL     1     -27.100  30.435 -15.860  1.00  0.00     0.344 C 
BRANCH  26  27
HETATM   27  N1  UNL     1     -27.812  31.693 -15.984  1.00  0.00     0.099 N 
HETATM   28  C1  UNL     1     -27.611  32.252 -17.301  1.00  0.00     0.389 C 
HETATM   29  O1  UNL     1     -29.156  31.534 -15.815  1.00  0.00    -0.043 OA
BRANCH  27  30
HETATM   30  N2  UNL     1     -27.339  32.543 -14.978  1.00  0.00    -0.211 N 
ATOM     31  H22 UNL     1     -26.712  32.235 -14.234  1.00  0.00     0.192 HD
ATOM     32  H21 UNL     1     -27.695  33.492 -15.084  1.00  0.00     0.192 HD
ENDBRANCH  27  30
ENDBRANCH  26  27
ENDBRANCH  25  26
ENDBRANCH   1  25
TORSDOF 11
ENDMDL
MODEL 2
REMARK VINA RESULT: -6.843799545      1.094      1.168
REMARK  11 active torsions:
REMARK  status: ('A' for Active; 'I' for Inactive)
REMARK    1  A    between atoms: N1_2  and  N2_3 
REMARK    2  A    between atoms: N1_2  and  C2_7 
REMARK    3  A    between atoms: C2_7  and  C3_8 
REMARK    4  A    between atoms: C3_8  and  C4_9 
REMARK    5  A    between atoms: C5_13  and  C6_14 
REMARK    6  A    between atoms: C6_14  and  N4_15 
REMARK       I    between atoms: N4_15  and  C7_17 
REMARK    7  A    between atoms: N6_19  and  C8_21 
REMARK    8  A    between atoms: C8_21  and  C9_22 
REMARK    9  A    between atoms: C9_22  and  C10_23 
REMARK   10  A    between atoms: C10_23  and  C11_24 
REMARK   11  A    between atoms: C11_24  and  N7_25 
ROOT
HETATM    1  C4  UNL     1     -27.176  28.643 -16.711  1.00  0.00     0.281 C 
HETATM    2  N3  UNL     1     -27.153  27.655 -17.791  1.00  0.00    -0.040 N 
ATOM      3  H31 UNL     1     -26.532  27.864 -18.573  1.00  0.00     0.280 HD
ATOM      4  H32 UNL     1     -27.993  27.605 -18.367  1.00  0.00     0.280 HD
HETATM    5  C5  UNL     1     -26.831  26.446 -17.019  1.00  0.00     0.305 C 
HETATM    6  N8  UNL     1     -27.771  26.556 -15.919  1.00  0.00    -0.330 N 
ATOM      7  H8  UNL     1     -28.198  25.787 -15.404  1.00  0.00     0.164 HD
HETATM    8  C12 UNL     1     -27.981  27.953 -15.699  1.00  0.00     0.250 C 
HETATM    9  O2  UNL     1     -28.704  28.486 -14.820  1.00  0.00    -0.271 OA
ENDROOT
BRANCH   5  10
HETATM   10  C6  UNL     1     -27.050  25.211 -17.837  1.00  0.00     0.176 C 
BRANCH  10  11
HETATM   11  N4  UNL     1     -25.932  24.894 -18.673  1.00  0.00    -0.361 N 
HETATM   12  C7  UNL     1     -25.867  25.157 -20.058  1.00  0.00     0.184 C 
HETATM   13  N5  UNL     1     -26.882  25.913 -20.681  1.00  0.00    -0.064 NA
HETATM   14  N6  UNL     1     -24.900  24.723 -20.774  1.00  0.00    -0.365 N 
ATOM     15  H6  UNL     1     -24.857  24.916 -21.775  1.00  0.00     0.162 HD
ATOM     16  H4  UNL     1     -25.126  24.447 -18.236  1.00  0.00     0.162 HD
BRANCH  14  17
HETATM   17  C8  UNL     1     -23.862  23.940 -20.111  1.00  0.00     0.122 C 
BRANCH  17  18
HETATM   18  C9  UNL     1     -23.807  22.538 -20.613  1.00  0.00     0.021 C 
BRANCH  18  19
HETATM   19  C10 UNL     1     -24.246  21.595 -19.528  1.00  0.00     0.029 C 
BRANCH  19  20
HETATM   20  C11 UNL     1     -23.093  21.102 -18.723  1.00  0.00     0.229 C 
BRANCH  20  21
HETATM   21  N7  UNL     1     -22.733  19.723 -19.088  1.00  0.00    -0.079 N 
ATOM     22  H73 UNL     1     -22.771  19.101 -18.282  1.00  0.00     0.274 HD
ATOM     23  H72 UNL     1     -23.458  19.287 -19.658  1.00  0.00     0.274 HD
ATOM     24  H71 UNL     1     -21.823  19.685 -19.547  1.00  0.00     0.274 HD
ENDBRANCH  20  21
ENDBRANCH  19  20
ENDBRANCH  18  19
ENDBRANCH  17  18
ENDBRANCH  14  17
ENDBRANCH  10  11
ENDBRANCH   5  10
BRANCH   1  25
HETATM   25  C3  UNL     1     -27.755  29.951 -17.170  1.00  0.00     0.082 C 
BRANCH  25  26
HETATM   26  C2  UNL     1     -26.858  31.124 -16.854  1.00  0.00     0.344 C 
BRANCH  26  27
HETATM   27  N1  UNL     1     -27.685  32.166 -16.276  1.00  0.00     0.099 N 
HETATM   28  C1  UNL     1     -26.857  33.150 -15.616  1.00  0.00     0.389 C 
HETATM   29  O1  UNL     1     -28.412  32.823 -17.224  1.00  0.00    -0.043 OA
BRANCH  27  30
HETATM   30  N2  UNL     1     -28.573  31.551 -15.386  1.00  0.00    -0.211 N 
ATOM     31  H22 UNL     1     -29.578  31.726 -15.389  1.00  0.00     0.192 HD
ATOM     32  H21 UNL     1     -28.093  30.917 -14.748  1.00  0.00     0.192 HD
ENDBRANCH  27  30
ENDBRANCH  26  27
ENDBRANCH  25  26
ENDBRANCH   1  25
TORSDOF 11
ENDMDL
MODEL 3
REMARK VINA RESULT: -6.806210417      3.279      7.440
REMARK  11 active torsions:
REMARK  status: ('A' for Active; 'I' for Inactive)
REMARK    1  A    between atoms: N1_2  and  N2_3 
REMARK    2  A    between atoms: N1_2  and  C2_7 
REMARK    3  A    between atoms: C2_7  and  C3_8 
REMARK    4  A    between atoms: C3_8  and  C4_9 
REMARK    5  A    between atoms: C5_13  and  C6_14 
REMARK    6  A    between atoms: C6_14  and  N4_15 
REMARK       I    between atoms: N4_15  and  C7_17 
REMARK    7  A    between atoms: N6_19  and  C8_21 
REMARK    8  A    between atoms: C8_21  and  C9_22 
REMARK    9  A    between atoms: C9_22  and  C10_23 
REMARK   10  A    between atoms: C10_23  and  C11_24 
REMARK   11  A    between atoms: C11_24  and  N7_25 
ROOT
HETATM    1  C4  UNL     1     -25.251  25.583 -18.983  1.00  0.00     0.281 C 
HETATM    2  N3  UNL     1     -25.431  26.166 -17.652  1.00  0.00    -0.040 N 
ATOM      3  H31 UNL     1     -24.685  25.983 -16.981  1.00  0.00     0.280 HD
ATOM      4  H32 UNL     1     -26.161  25.746 -17.078  1.00  0.00     0.280 HD
HETATM    5  C5  UNL     1     -25.633  27.575 -18.021  1.00  0.00     0.305 C 
HETATM    6  N8  UNL     1     -26.608  27.450 -19.088  1.00  0.00    -0.330 N 
ATOM      7  H8  UNL     1     -27.329  28.126 -19.336  1.00  0.00     0.164 HD
HETATM    8  C12 UNL     1     -26.359  26.194 -19.724  1.00  0.00     0.250 C 
HETATM    9  O2  UNL     1     -26.962  25.708 -20.713  1.00  0.00    -0.271 OA
ENDROOT
BRANCH   5  10
HETATM   10  C6  UNL     1     -26.154  28.365 -16.859  1.00  0.00     0.176 C 
BRANCH  10  11
HETATM   11  N4  UNL     1     -27.054  27.614 -16.038  1.00  0.00    -0.361 N 
HETATM   12  C7  UNL     1     -28.158  28.162 -15.350  1.00  0.00     0.184 C 
HETATM   13  N5  UNL     1     -28.530  29.504 -15.569  1.00  0.00    -0.064 NA
HETATM   14  N6  UNL     1     -28.838  27.465 -14.520  1.00  0.00    -0.365 N 
ATOM     15  H6  UNL     1     -29.636  27.865 -14.026  1.00  0.00     0.162 HD
ATOM     16  H4  UNL     1     -26.886  26.612 -15.943  1.00  0.00     0.162 HD
BRANCH  14  17
HETATM   17  C8  UNL     1     -28.435  26.080 -14.305  1.00  0.00     0.122 C 
BRANCH  17  18
HETATM   18  C9  UNL     1     -28.917  25.177 -15.388  1.00  0.00     0.021 C 
BRANCH  18  19
HETATM   19  C10 UNL     1     -28.232  23.844 -15.279  1.00  0.00     0.029 C 
BRANCH  19  20
HETATM   20  C11 UNL     1     -29.212  22.725 -15.177  1.00  0.00     0.229 C 
BRANCH  20  21
HETATM   21  N7  UNL     1     -29.209  22.129 -13.833  1.00  0.00    -0.079 N 
ATOM     22  H73 UNL     1     -28.667  22.691 -13.176  1.00  0.00     0.274 HD
ATOM     23  H72 UNL     1     -30.124  22.205 -13.388  1.00  0.00     0.274 HD
ATOM     24  H71 UNL     1     -28.882  21.162 -13.855  1.00  0.00     0.274 HD
ENDBRANCH  20  21
ENDBRANCH  19  20
ENDBRANCH  18  19
ENDBRANCH  17  18
ENDBRANCH  14  17
ENDBRANCH  10  11
ENDBRANCH   5  10
BRANCH   1  25
HETATM   25  C3  UNL     1     -25.294  24.083 -18.941  1.00  0.00     0.082 C 
BRANCH  25  26
HETATM   26  C2  UNL     1     -24.276  23.501 -17.988  1.00  0.00     0.344 C 
BRANCH  26  27
HETATM   27  N1  UNL     1     -23.468  22.555 -18.733  1.00  0.00     0.099 N 
HETATM   28  C1  UNL     1     -24.249  21.956 -19.791  1.00  0.00     0.389 C 
HETATM   29  O1  UNL     1     -22.392  23.156 -19.318  1.00  0.00    -0.043 OA
BRANCH  27  30
HETATM   30  N2  UNL     1     -23.000  21.599 -17.825  1.00  0.00    -0.211 N 
ATOM     31  H22 UNL     1     -23.590  20.865 -17.432  1.00  0.00     0.192 HD
ATOM     32  H21 UNL     1     -22.011  21.729 -17.612  1.00  0.00     0.192 HD
ENDBRANCH  27  30
ENDBRANCH  26  27
ENDBRANCH  25  26
ENDBRANCH   1  25
TORSDOF 11
ENDMDL
MODEL 4
REMARK VINA RESULT: -6.701993064      1.190      1.409
REMARK  11 active torsions:
REMARK  status: ('A' for Active; 'I' for Inactive)
REMARK    1  A    between atoms: N1_2  and  N2_3 
REMARK    2  A    between atoms: N1_2  and  C2_7 
REMARK    3  A    between atoms: C2_7  and  C3_8 
REMARK    4  A    between atoms: C3_8  and  C4_9 
REMARK    5  A    between atoms: C5_13  and  C6_14 
REMARK    6  A    between atoms: C6_14  and  N4_15 
REMARK       I    between atoms: N4_15  and  C7_17 
REMARK    7  A    between atoms: N6_19  and  C8_21 
REMARK    8  A    between atoms: C8_21  and  C9_22 
REMARK    9  A    between atoms: C9_22  and  C10_23 
REMARK   10  A    between atoms: C10_23  and  C11_24 
REMARK   11  A    between atoms: C11_24  and  N7_25 
ROOT
HETATM    1  C4  UNL     1     -27.548  27.956 -15.985  1.00  0.00     0.281 C 
HETATM    2  N3  UNL     1     -27.482  27.042 -17.127  1.00  0.00    -0.040 N 
ATOM      3  H31 UNL     1     -26.767  27.250 -17.824  1.00  0.00     0.280 HD
ATOM      4  H32 UNL     1     -28.257  27.097 -17.787  1.00  0.00     0.280 HD
HETATM    5  C5  UNL     1     -27.333  25.763 -16.417  1.00  0.00     0.305 C 
HETATM    6  N8  UNL     1     -28.374  25.876 -15.413  1.00  0.00    -0.330 N 
ATOM      7  H8  UNL     1     -28.909  25.111 -15.002  1.00  0.00     0.164 HD
HETATM    8  C12 UNL     1     -28.504  27.268 -15.113  1.00  0.00     0.250 C 
HETATM    9  O2  UNL     1     -29.276  27.798 -14.276  1.00  0.00    -0.271 OA
ENDROOT
BRANCH   5  10
HETATM   10  C6  UNL     1     -27.553  24.605 -17.342  1.00  0.00     0.176 C 
BRANCH  10  11
HETATM   11  N4  UNL     1     -26.353  24.187 -18.002  1.00  0.00    -0.361 N 
HETATM   12  C7  UNL     1     -25.952  24.619 -19.284  1.00  0.00     0.184 C 
HETATM   13  N5  UNL     1     -26.668  25.642 -19.940  1.00  0.00    -0.064 NA
HETATM   14  N6  UNL     1     -24.944  24.101 -19.876  1.00  0.00    -0.365 N 
ATOM     15  H6  UNL     1     -24.656  24.417 -20.802  1.00  0.00     0.162 HD
ATOM     16  H4  UNL     1     -25.747  23.531 -17.510  1.00  0.00     0.162 HD
BRANCH  14  17
HETATM   17  C8  UNL     1     -24.219  23.042 -19.182  1.00  0.00     0.122 C 
BRANCH  17  18
HETATM   18  C9  UNL     1     -23.003  22.608 -19.928  1.00  0.00     0.021 C 
BRANCH  18  19
HETATM   19  C10 UNL     1     -21.911  22.258 -18.956  1.00  0.00     0.029 C 
BRANCH  19  20
HETATM   20  C11 UNL     1     -21.373  23.467 -18.270  1.00  0.00     0.229 C 
BRANCH  20  21
HETATM   21  N7  UNL     1     -19.907  23.420 -18.170  1.00  0.00    -0.079 N 
ATOM     22  H73 UNL     1     -19.483  23.099 -19.040  1.00  0.00     0.274 HD
ATOM     23  H72 UNL     1     -19.505  24.357 -18.135  1.00  0.00     0.274 HD
ATOM     24  H71 UNL     1     -19.606  22.854 -17.376  1.00  0.00     0.274 HD
ENDBRANCH  20  21
ENDBRANCH  19  20
ENDBRANCH  18  19
ENDBRANCH  17  18
ENDBRANCH  14  17
ENDBRANCH  10  11
ENDBRANCH   5  10
BRANCH   1  25
HETATM   25  C3  UNL     1     -27.977  29.333 -16.403  1.00  0.00     0.082 C 
BRANCH  25  26
HETATM   26  C2  UNL     1     -27.154  30.418 -15.752  1.00  0.00     0.344 C 
BRANCH  26  27
HETATM   27  N1  UNL     1     -27.835  31.680 -15.975  1.00  0.00     0.099 N 
HETATM   28  C1  UNL     1     -27.587  32.148 -17.320  1.00  0.00     0.389 C 
HETATM   29  O1  UNL     1     -29.186  31.560 -15.833  1.00  0.00    -0.043 OA
BRANCH  27  30
HETATM   30  N2  UNL     1     -27.368  32.583 -15.014  1.00  0.00    -0.211 N 
ATOM     31  H22 UNL     1     -27.071  33.533 -15.237  1.00  0.00     0.192 HD
ATOM     32  H21 UNL     1     -27.365  32.175 -14.079  1.00  0.00     0.192 HD
ENDBRANCH  27  30
ENDBRANCH  26  27
ENDBRANCH  25  26
ENDBRANCH   1  25
TORSDOF 11
ENDMDL
MODEL 5
REMARK VINA RESULT: -6.623289801      3.038      6.452
REMARK  11 active torsions:
REMARK  status: ('A' for Active; 'I' for Inactive)
REMARK    1  A    between atoms: N1_2  and  N2_3 
REMARK    2  A    between atoms: N1_2  and  C2_7 
REMARK    3  A    between atoms: C2_7  and  C3_8 
REMARK    4  A    between atoms: C3_8  and  C4_9 
REMARK    5  A    between atoms: C5_13  and  C6_14 
REMARK    6  A    between atoms: C6_14  and  N4_15 
REMARK       I    between atoms: N4_15  and  C7_17 
REMARK    7  A    between atoms: N6_19  and  C8_21 
REMARK    8  A    between atoms: C8_21  and  C9_22 
REMARK    9  A    between atoms: C9_22  and  C10_23 
REMARK   10  A    between atoms: C10_23  and  C11_24 
REMARK   11  A    between atoms: C11_24  and  N7_25 
ROOT
HETATM    1  C4  UNL     1     -28.124  24.833 -16.066  1.00  0.00     0.281 C 
HETATM    2  N3  UNL     1     -28.128  26.277 -16.307  1.00  0.00    -0.040 N 
ATOM      3  H31 UNL     1     -28.603  26.586 -17.155  1.00  0.00     0.280 HD
ATOM      4  H32 UNL     1     -27.231  26.689 -16.562  1.00  0.00     0.280 HD
HETATM    5  C5  UNL     1     -28.711  26.742 -15.039  1.00  0.00     0.305 C 
HETATM    6  N8  UNL     1     -27.926  25.992 -14.077  1.00  0.00    -0.330 N 
ATOM      7  H8  UNL     1     -27.679  26.285 -13.132  1.00  0.00     0.164 HD
HETATM    8  C12 UNL     1     -27.565  24.763 -14.712  1.00  0.00     0.250 C 
HETATM    9  O2  UNL     1     -26.906  23.814 -14.218  1.00  0.00    -0.271 OA
ENDROOT
BRANCH   5  10
HETATM   10  C6  UNL     1     -28.546  28.223 -14.882  1.00  0.00     0.176 C 
BRANCH  10  11
HETATM   11  N4  UNL     1     -27.834  28.819 -15.971  1.00  0.00    -0.361 N 
HETATM   12  C7  UNL     1     -28.072  30.119 -16.468  1.00  0.00     0.184 C 
HETATM   13  N5  UNL     1     -28.957  30.982 -15.789  1.00  0.00    -0.064 NA
HETATM   14  N6  UNL     1     -27.502  30.539 -17.532  1.00  0.00    -0.365 N 
ATOM     15  H6  UNL     1     -27.676  31.480 -17.887  1.00  0.00     0.162 HD
ATOM     16  H4  UNL     1     -27.104  28.266 -16.420  1.00  0.00     0.162 HD
BRANCH  14  17
HETATM   17  C8  UNL     1     -26.594  29.629 -18.222  1.00  0.00     0.122 C 
BRANCH  17  18
HETATM   18  C9  UNL     1     -27.134  29.182 -19.537  1.00  0.00     0.021 C 
BRANCH  18  19
HETATM   19  C10 UNL     1     -26.178  29.561 -20.633  1.00  0.00     0.029 C 
BRANCH  19  20
HETATM   20  C11 UNL     1     -26.609  29.022 -21.954  1.00  0.00     0.229 C 
BRANCH  20  21
HETATM   21  N7  UNL     1     -26.715  27.555 -21.927  1.00  0.00    -0.079 N 
ATOM     22  H73 UNL     1     -27.355  27.240 -21.198  1.00  0.00     0.274 HD
ATOM     23  H72 UNL     1     -27.217  27.202 -22.742  1.00  0.00     0.274 HD
ATOM     24  H71 UNL     1     -25.798  27.118 -21.834  1.00  0.00     0.274 HD
ENDBRANCH  20  21
ENDBRANCH  19  20
ENDBRANCH  18  19
ENDBRANCH  17  18
ENDBRANCH  14  17
ENDBRANCH  10  11
ENDBRANCH   5  10
BRANCH   1  25
HETATM   25  C3  UNL     1     -27.320  24.102 -17.102  1.00  0.00     0.082 C 
BRANCH  25  26
HETATM   26  C2  UNL     1     -26.977  24.970 -18.288  1.00  0.00     0.344 C 
BRANCH  26  27
HETATM   27  N1  UNL     1     -25.558  25.266 -18.220  1.00  0.00     0.099 N 
HETATM   28  C1  UNL     1     -24.995  25.312 -19.550  1.00  0.00     0.389 C 
HETATM   29  O1  UNL     1     -25.319  26.477 -17.640  1.00  0.00    -0.043 OA
BRANCH  27  30
HETATM   30  N2  UNL     1     -24.961  24.274 -17.434  1.00  0.00    -0.211 N 
ATOM     31  H22 UNL     1     -25.443  23.422 -17.148  1.00  0.00     0.192 HD
ATOM     32  H21 UNL     1     -24.000  24.511 -17.190  1.00  0.00     0.192 HD
ENDBRANCH  27  30
ENDBRANCH  26  27
ENDBRANCH  25  26
ENDBRANCH   1  25
TORSDOF 11
ENDMDL
