MODEL 1
REMARK VINA RESULT: -7.288299286      0.000      0.000
REMARK  11 active torsions:
REMARK  status: ('A' for Active; 'I' for Inactive)
REMARK    1  A    between atoms: C1_2  and  O1_3 
REMARK    2  A    between atoms: N2_5  and  C2_7 
REMARK    3  A    between atoms: C2_7  and  C3_8 
REMARK    4  A    between atoms: C3_8  and  C4_9 
REMARK    5  A    between atoms: C4_9  and  C5_10 
REMARK    6  A    between atoms: C5_10  and  N3_11 
REMARK    7  A    between atoms: N3_11  and  C6_14 
REMARK    8  A    between atoms: C6_14  and  C7_15 
REMARK    9  A    between atoms: C7_15  and  C8_16 
REMARK   10  A    between atoms: C8_16  and  N4_17 
REMARK   11  A    between atoms: C12_27  and  O3_28 
ROOT
HETATM    1  C8  UNL     1     -26.411  26.086 -18.972  1.00  0.00     0.139 C 
ENDROOT
BRANCH   1   2
HETATM    2  C7  UNL     1     -25.038  26.323 -18.350  1.00  0.00     0.048 C 
BRANCH   2   3
HETATM    3  C6  UNL     1     -24.874  27.771 -18.026  1.00  0.00     0.234 C 
BRANCH   3   4
HETATM    4  N3  UNL     1     -25.513  28.566 -19.024  1.00  0.00    -0.075 N 
ATOM      5  H32 UNL     1     -26.210  28.031 -19.540  1.00  0.00     0.277 HD
ATOM      6  H31 UNL     1     -24.880  28.782 -19.794  1.00  0.00     0.277 HD
BRANCH   4   7
HETATM    7  C5  UNL     1     -26.092  29.790 -18.437  1.00  0.00     0.232 C 
BRANCH   7   8
HETATM    8  C4  UNL     1     -27.546  29.490 -18.222  1.00  0.00     0.029 C 
BRANCH   8   9
HETATM    9  C3  UNL     1     -27.996  29.603 -16.785  1.00  0.00     0.021 C 
BRANCH   9  10
HETATM   10  C2  UNL     1     -26.992  30.454 -16.040  1.00  0.00     0.123 C 
BRANCH  10  11
HETATM   11  N2  UNL     1     -27.772  31.572 -15.477  1.00  0.00    -0.359 N 
HETATM   12  C1  UNL     1     -27.553  32.738 -15.928  1.00  0.00     0.225 C 
HETATM   13  N1  UNL     1     -26.607  32.983 -16.925  1.00  0.00    -0.057 NA
ATOM     14  H2  UNL     1     -28.466  31.414 -14.747  1.00  0.00     0.162 HD
BRANCH  12  15
HETATM   15  O1  UNL     1     -28.304  33.786 -15.383  1.00  0.00    -0.335 OA
ATOM     16  H1  UNL     1     -29.204  33.647 -15.111  1.00  0.00     0.220 HD
ENDBRANCH  12  15
ENDBRANCH  10  11
ENDBRANCH   9  10
ENDBRANCH   8   9
ENDBRANCH   7   8
ENDBRANCH   4   7
ENDBRANCH   3   4
ENDBRANCH   2   3
ENDBRANCH   1   2
BRANCH   1  17
HETATM   17  N4  UNL     1     -27.005  25.043 -18.213  1.00  0.00    -0.226 N 
HETATM   18  C9  UNL     1     -27.537  25.048 -17.066  1.00  0.00     0.683 A 
HETATM   19  N5  UNL     1     -27.663  26.175 -16.233  1.00  0.00    -0.141 N 
HETATM   20  N7  UNL     1     -28.054  23.785 -16.600  1.00  0.00    -0.175 N 
HETATM   21  C10 UNL     1     -28.285  26.114 -14.939  1.00  0.00     0.340 A 
ATOM     22  H5  UNL     1     -27.298  27.070 -16.560  1.00  0.00     0.189 HD
HETATM   23  O2  UNL     1     -28.390  27.132 -14.206  1.00  0.00    -0.246 OA
HETATM   24  N6  UNL     1     -28.782  24.835 -14.522  1.00  0.00    -0.292 N 
HETATM   25  C11 UNL     1     -28.675  23.682 -15.331  1.00  0.00     0.146 A 
ATOM     26  H6  UNL     1     -29.230  24.756 -13.609  1.00  0.00     0.172 HD
HETATM   27  C12 UNL     1     -29.140  22.525 -14.916  1.00  0.00     0.180 C 
ATOM     28  H7  UNL     1     -27.971  22.957 -17.189  1.00  0.00     0.186 HD
ATOM     29  H4  UNL     1     -27.001  24.133 -18.672  1.00  0.00     0.177 HD
BRANCH  27  30
HETATM   30  O3  UNL     1     -29.748  22.398 -13.674  1.00  0.00    -0.369 OA
ATOM     31  H3  UNL     1     -30.307  21.657 -13.474  1.00  0.00     0.216 HD
ENDBRANCH  27  30
ENDBRANCH   1  17
TORSDOF 11
ENDMDL
MODEL 2
REMARK VINA RESULT: -7.267312194      1.372      6.912
REMARK  11 active torsions:
REMARK  status: ('A' for Active; 'I' for Inactive)
REMARK    1  A    between atoms: C1_2  and  O1_3 
REMARK    2  A    between atoms: N2_5  and  C2_7 
REMARK    3  A    between atoms: C2_7  and  C3_8 
REMARK    4  A    between atoms: C3_8  and  C4_9 
REMARK    5  A    between atoms: C4_9  and  C5_10 
REMARK    6  A    between atoms: C5_10  and  N3_11 
REMARK    7  A    between atoms: N3_11  and  C6_14 
REMARK    8  A    between atoms: C6_14  and  C7_15 
REMARK    9  A    between atoms: C7_15  and  C8_16 
REMARK   10  A    between atoms: C8_16  and  N4_17 
REMARK   11  A    between atoms: C12_27  and  O3_28 
ROOT
HETATM    1  C8  UNL     1     -24.569  27.956 -17.995  1.00  0.00     0.139 C 
ENDROOT
BRANCH   1   2
HETATM    2  C7  UNL     1     -25.266  27.575 -19.298  1.00  0.00     0.048 C 
BRANCH   2   3
HETATM    3  C6  UNL     1     -26.110  26.363 -19.083  1.00  0.00     0.234 C 
BRANCH   3   4
HETATM    4  N3  UNL     1     -25.560  25.570 -18.032  1.00  0.00    -0.075 N 
ATOM      5  H32 UNL     1     -25.186  26.150 -17.281  1.00  0.00     0.277 HD
ATOM      6  H31 UNL     1     -24.696  25.112 -18.320  1.00  0.00     0.277 HD
BRANCH   4   7
HETATM    7  C5  UNL     1     -26.549  24.598 -17.527  1.00  0.00     0.232 C 
BRANCH   7   8
HETATM    8  C4  UNL     1     -27.732  25.409 -17.091  1.00  0.00     0.029 C 
BRANCH   8   9
HETATM    9  C3  UNL     1     -28.074  25.270 -15.627  1.00  0.00     0.021 C 
BRANCH   9  10
HETATM   10  C2  UNL     1     -27.418  24.012 -15.105  1.00  0.00     0.123 C 
BRANCH  10  11
HETATM   11  N2  UNL     1     -28.405  23.409 -14.189  1.00  0.00    -0.359 N 
HETATM   12  C1  UNL     1     -29.241  22.585 -14.673  1.00  0.00     0.225 C 
HETATM   13  N1  UNL     1     -29.249  22.245 -16.026  1.00  0.00    -0.057 NA
ATOM     14  H2  UNL     1     -28.416  23.648 -13.198  1.00  0.00     0.162 HD
BRANCH  12  15
HETATM   15  O1  UNL     1     -30.168  22.023 -13.788  1.00  0.00    -0.335 OA
ATOM     16  H1  UNL     1     -29.878  21.569 -13.005  1.00  0.00     0.220 HD
ENDBRANCH  12  15
ENDBRANCH  10  11
ENDBRANCH   9  10
ENDBRANCH   8   9
ENDBRANCH   7   8
ENDBRANCH   4   7
ENDBRANCH   3   4
ENDBRANCH   2   3
ENDBRANCH   1   2
BRANCH   1  17
HETATM   17  N4  UNL     1     -25.009  29.272 -17.692  1.00  0.00    -0.226 N 
HETATM   18  C9  UNL     1     -25.989  29.686 -17.009  1.00  0.00     0.683 A 
HETATM   19  N5  UNL     1     -26.928  28.866 -16.354  1.00  0.00    -0.141 N 
HETATM   20  N7  UNL     1     -26.133  31.117 -16.904  1.00  0.00    -0.175 N 
HETATM   21  C10 UNL     1     -28.018  29.401 -15.587  1.00  0.00     0.340 A 
ATOM     22  H5  UNL     1     -26.829  27.853 -16.427  1.00  0.00     0.189 HD
HETATM   23  O2  UNL     1     -28.848  28.653 -15.007  1.00  0.00    -0.246 OA
HETATM   24  N6  UNL     1     -28.117  30.829 -15.514  1.00  0.00    -0.292 N 
HETATM   25  C11 UNL     1     -27.194  31.685 -16.158  1.00  0.00     0.146 A 
ATOM     26  H6  UNL     1     -28.879  31.243 -14.978  1.00  0.00     0.172 HD
HETATM   27  C12 UNL     1     -27.316  32.990 -16.070  1.00  0.00     0.180 C 
ATOM     28  H7  UNL     1     -25.463  31.727 -17.373  1.00  0.00     0.186 HD
ATOM     29  H4  UNL     1     -24.435  30.013 -18.095  1.00  0.00     0.177 HD
BRANCH  27  30
HETATM   30  O3  UNL     1     -28.350  33.569 -15.349  1.00  0.00    -0.369 OA
ATOM     31  H3  UNL     1     -28.819  34.326 -15.682  1.00  0.00     0.216 HD
ENDBRANCH  27  30
ENDBRANCH   1  17
TORSDOF 11
ENDMDL
MODEL 3
REMARK VINA RESULT: -7.113496992      1.495      2.006
REMARK  11 active torsions:
REMARK  status: ('A' for Active; 'I' for Inactive)
REMARK    1  A    between atoms: C1_2  and  O1_3 
REMARK    2  A    between atoms: N2_5  and  C2_7 
REMARK    3  A    between atoms: C2_7  and  C3_8 
REMARK    4  A    between atoms: C3_8  and  C4_9 
REMARK    5  A    between atoms: C4_9  and  C5_10 
REMARK    6  A    between atoms: C5_10  and  N3_11 
REMARK    7  A    between atoms: N3_11  and  C6_14 
REMARK    8  A    between atoms: C6_14  and  C7_15 
REMARK    9  A    between atoms: C7_15  and  C8_16 
REMARK   10  A    between atoms: C8_16  and  N4_17 
REMARK   11  A    between atoms: C12_27  and  O3_28 
ROOT
HETATM    1  C8  UNL     1     -26.579  25.939 -18.766  1.00  0.00     0.139 C 
ENDROOT
BRANCH   1   2
HETATM    2  C7  UNL     1     -26.571  25.547 -20.240  1.00  0.00     0.048 C 
BRANCH   2   3
HETATM    3  C6  UNL     1     -25.784  26.543 -21.024  1.00  0.00     0.234 C 
BRANCH   3   4
HETATM    4  N3  UNL     1     -26.660  27.525 -21.576  1.00  0.00    -0.075 N 
ATOM      5  H32 UNL     1     -27.631  27.350 -21.316  1.00  0.00     0.277 HD
ATOM      6  H31 UNL     1     -26.749  27.423 -22.587  1.00  0.00     0.277 HD
BRANCH   4   7
HETATM    7  C5  UNL     1     -26.235  28.888 -21.203  1.00  0.00     0.232 C 
BRANCH   7   8
HETATM    8  C4  UNL     1     -27.101  29.282 -20.044  1.00  0.00     0.029 C 
BRANCH   8   9
HETATM    9  C3  UNL     1     -26.348  29.896 -18.888  1.00  0.00     0.021 C 
BRANCH   9  10
HETATM   10  C2  UNL     1     -26.997  29.436 -17.602  1.00  0.00     0.123 C 
BRANCH  10  11
HETATM   11  N2  UNL     1     -27.692  30.625 -17.071  1.00  0.00    -0.359 N 
HETATM   12  C1  UNL     1     -28.429  30.475 -16.048  1.00  0.00     0.225 C 
HETATM   13  N1  UNL     1     -28.597  29.237 -15.428  1.00  0.00    -0.057 NA
ATOM     14  H2  UNL     1     -27.584  31.537 -17.511  1.00  0.00     0.162 HD
BRANCH  12  15
HETATM   15  O1  UNL     1     -29.078  31.614 -15.557  1.00  0.00    -0.335 OA
ATOM     16  H1  UNL     1     -28.702  32.119 -14.846  1.00  0.00     0.220 HD
ENDBRANCH  12  15
ENDBRANCH  10  11
ENDBRANCH   9  10
ENDBRANCH   8   9
ENDBRANCH   7   8
ENDBRANCH   4   7
ENDBRANCH   3   4
ENDBRANCH   2   3
ENDBRANCH   1   2
BRANCH   1  17
HETATM   17  N4  UNL     1     -27.310  24.921 -18.098  1.00  0.00    -0.226 N 
HETATM   18  C9  UNL     1     -27.662  24.805 -16.890  1.00  0.00     0.683 A 
HETATM   19  N5  UNL     1     -27.381  25.733 -15.869  1.00  0.00    -0.141 N 
HETATM   20  N7  UNL     1     -28.415  23.621 -16.557  1.00  0.00    -0.175 N 
HETATM   21  C10 UNL     1     -27.817  25.544 -14.513  1.00  0.00     0.340 A 
ATOM     22  H5  UNL     1     -26.848  26.571 -16.101  1.00  0.00     0.189 HD
HETATM   23  O2  UNL     1     -27.558  26.384 -13.612  1.00  0.00    -0.246 OA
HETATM   24  N6  UNL     1     -28.562  24.351 -14.234  1.00  0.00    -0.292 N 
HETATM   25  C11 UNL     1     -28.863  23.398 -15.232  1.00  0.00     0.146 A 
ATOM     26  H6  UNL     1     -28.886  24.186 -13.282  1.00  0.00     0.172 HD
HETATM   27  C12 UNL     1     -29.548  22.314 -14.941  1.00  0.00     0.180 C 
ATOM     28  H7  UNL     1     -28.627  22.938 -17.283  1.00  0.00     0.186 HD
ATOM     29  H4  UNL     1     -27.601  24.148 -18.697  1.00  0.00     0.177 HD
BRANCH  27  30
HETATM   30  O3  UNL     1     -29.993  22.071 -13.649  1.00  0.00    -0.369 OA
ATOM     31  H3  UNL     1     -29.910  21.211 -13.254  1.00  0.00     0.216 HD
ENDBRANCH  27  30
ENDBRANCH   1  17
TORSDOF 11
ENDMDL
MODEL 4
REMARK VINA RESULT: -7.102999562      1.745      6.224
REMARK  11 active torsions:
REMARK  status: ('A' for Active; 'I' for Inactive)
REMARK    1  A    between atoms: C1_2  and  O1_3 
REMARK    2  A    between atoms: N2_5  and  C2_7 
REMARK    3  A    between atoms: C2_7  and  C3_8 
REMARK    4  A    between atoms: C3_8  and  C4_9 
REMARK    5  A    between atoms: C4_9  and  C5_10 
REMARK    6  A    between atoms: C5_10  and  N3_11 
REMARK    7  A    between atoms: N3_11  and  C6_14 
REMARK    8  A    between atoms: C6_14  and  C7_15 
REMARK    9  A    between atoms: C7_15  and  C8_16 
REMARK   10  A    between atoms: C8_16  and  N4_17 
REMARK   11  A    between atoms: C12_27  and  O3_28 
ROOT
HETATM    1  C8  UNL     1     -24.598  27.909 -18.024  1.00  0.00     0.139 C 
ENDROOT
BRANCH   1   2
HETATM    2  C7  UNL     1     -24.939  27.704 -19.496  1.00  0.00     0.048 C 
BRANCH   2   3
HETATM    3  C6  UNL     1     -24.276  26.466 -20.002  1.00  0.00     0.234 C 
BRANCH   3   4
HETATM    4  N3  UNL     1     -24.393  25.425 -19.034  1.00  0.00    -0.075 N 
ATOM      5  H32 UNL     1     -24.415  25.796 -18.084  1.00  0.00     0.277 HD
ATOM      6  H31 UNL     1     -23.536  24.876 -18.967  1.00  0.00     0.277 HD
BRANCH   4   7
HETATM    7  C5  UNL     1     -25.565  24.571 -19.310  1.00  0.00     0.232 C 
BRANCH   7   8
HETATM    8  C4  UNL     1     -26.276  24.418 -17.999  1.00  0.00     0.029 C 
BRANCH   8   9
HETATM    9  C3  UNL     1     -27.455  25.345 -17.821  1.00  0.00     0.021 C 
BRANCH   9  10
HETATM   10  C2  UNL     1     -28.484  24.643 -16.965  1.00  0.00     0.123 C 
BRANCH  10  11
HETATM   11  N2  UNL     1     -28.679  25.519 -15.794  1.00  0.00    -0.359 N 
HETATM   12  C1  UNL     1     -28.125  25.185 -14.702  1.00  0.00     0.225 C 
HETATM   13  N1  UNL     1     -27.353  24.029 -14.584  1.00  0.00    -0.057 NA
ATOM     14  H2  UNL     1     -29.242  26.367 -15.860  1.00  0.00     0.162 HD
BRANCH  12  15
HETATM   15  O1  UNL     1     -28.320  26.030 -13.603  1.00  0.00    -0.335 OA
ATOM     16  H1  UNL     1     -28.126  26.959 -13.664  1.00  0.00     0.220 HD
ENDBRANCH  12  15
ENDBRANCH  10  11
ENDBRANCH   9  10
ENDBRANCH   8   9
ENDBRANCH   7   8
ENDBRANCH   4   7
ENDBRANCH   3   4
ENDBRANCH   2   3
ENDBRANCH   1   2
BRANCH   1  17
HETATM   17  N4  UNL     1     -25.031  29.223 -17.705  1.00  0.00    -0.226 N 
HETATM   18  C9  UNL     1     -26.006  29.633 -17.012  1.00  0.00     0.683 A 
HETATM   19  N5  UNL     1     -26.942  28.809 -16.359  1.00  0.00    -0.141 N 
HETATM   20  N7  UNL     1     -26.144  31.063 -16.892  1.00  0.00    -0.175 N 
HETATM   21  C10 UNL     1     -28.027  29.340 -15.580  1.00  0.00     0.340 A 
ATOM     22  H5  UNL     1     -26.847  27.797 -16.443  1.00  0.00     0.189 HD
HETATM   23  O2  UNL     1     -28.855  28.589 -15.002  1.00  0.00    -0.246 OA
HETATM   24  N6  UNL     1     -28.120  30.768 -15.492  1.00  0.00    -0.292 N 
HETATM   25  C11 UNL     1     -27.199  31.627 -16.133  1.00  0.00     0.146 A 
ATOM     26  H6  UNL     1     -28.878  31.178 -14.947  1.00  0.00     0.172 HD
HETATM   27  C12 UNL     1     -27.316  32.932 -16.032  1.00  0.00     0.180 C 
ATOM     28  H7  UNL     1     -25.476  31.676 -17.359  1.00  0.00     0.186 HD
ATOM     29  H4  UNL     1     -24.457  29.966 -18.105  1.00  0.00     0.177 HD
BRANCH  27  30
HETATM   30  O3  UNL     1     -28.344  33.507 -15.299  1.00  0.00    -0.369 OA
ATOM     31  H3  UNL     1     -28.808  34.272 -15.618  1.00  0.00     0.216 HD
ENDBRANCH  27  30
ENDBRANCH   1  17
TORSDOF 11
ENDMDL
MODEL 5
REMARK VINA RESULT: -7.080254964      3.351      7.846
REMARK  11 active torsions:
REMARK  status: ('A' for Active; 'I' for Inactive)
REMARK    1  A    between atoms: C1_2  and  O1_3 
REMARK    2  A    between atoms: N2_5  and  C2_7 
REMARK    3  A    between atoms: C2_7  and  C3_8 
REMARK    4  A    between atoms: C3_8  and  C4_9 
REMARK    5  A    between atoms: C4_9  and  C5_10 
REMARK    6  A    between atoms: C5_10  and  N3_11 
REMARK    7  A    between atoms: N3_11  and  C6_14 
REMARK    8  A    between atoms: C6_14  and  C7_15 
REMARK    9  A    between atoms: C7_15  and  C8_16 
REMARK   10  A    between atoms: C8_16  and  N4_17 
REMARK   11  A    between atoms: C12_27  and  O3_28 
ROOT
HETATM    1  C8  UNL     1     -28.106  25.750 -14.765  1.00  0.00     0.139 C 
ENDROOT
BRANCH   1   2
HETATM    2  C7  UNL     1     -28.827  24.961 -15.853  1.00  0.00     0.048 C 
BRANCH   2   3
HETATM    3  C6  UNL     1     -27.937  23.879 -16.366  1.00  0.00     0.234 C 
BRANCH   3   4
HETATM    4  N3  UNL     1     -26.619  24.388 -16.562  1.00  0.00    -0.075 N 
ATOM      5  H32 UNL     1     -25.960  23.989 -15.894  1.00  0.00     0.277 HD
ATOM      6  H31 UNL     1     -26.550  25.367 -16.284  1.00  0.00     0.277 HD
BRANCH   4   7
HETATM    7  C5  UNL     1     -26.172  24.185 -17.954  1.00  0.00     0.232 C 
BRANCH   7   8
HETATM    8  C4  UNL     1     -24.687  24.396 -17.939  1.00  0.00     0.029 C 
BRANCH   8   9
HETATM    9  C3  UNL     1     -23.911  23.296 -17.255  1.00  0.00     0.021 C 
BRANCH   9  10
HETATM   10  C2  UNL     1     -23.039  22.619 -18.288  1.00  0.00     0.123 C 
BRANCH  10  11
HETATM   11  N2  UNL     1     -23.699  21.329 -18.568  1.00  0.00    -0.359 N 
HETATM   12  C1  UNL     1     -24.186  21.149 -19.727  1.00  0.00     0.225 C 
HETATM   13  N1  UNL     1     -24.115  22.124 -20.722  1.00  0.00    -0.057 NA
ATOM     14  H2  UNL     1     -23.762  20.605 -17.854  1.00  0.00     0.162 HD
BRANCH  12  15
HETATM   15  O1  UNL     1     -24.805  19.919 -19.974  1.00  0.00    -0.335 OA
ATOM     16  H1  UNL     1     -25.742  19.868 -20.126  1.00  0.00     0.220 HD
ENDBRANCH  12  15
ENDBRANCH  10  11
ENDBRANCH   9  10
ENDBRANCH   8   9
ENDBRANCH   7   8
ENDBRANCH   4   7
ENDBRANCH   3   4
ENDBRANCH   2   3
ENDBRANCH   1   2
BRANCH   1  17
HETATM   17  N4  UNL     1     -28.481  27.107 -14.957  1.00  0.00    -0.226 N 
HETATM   18  C9  UNL     1     -27.869  28.070 -15.500  1.00  0.00     0.683 A 
HETATM   19  N5  UNL     1     -26.585  27.998 -16.073  1.00  0.00    -0.141 N 
HETATM   20  N7  UNL     1     -28.566  29.332 -15.526  1.00  0.00    -0.175 N 
HETATM   21  C10 UNL     1     -25.947  29.133 -16.680  1.00  0.00     0.340 A 
ATOM     22  H5  UNL     1     -26.090  27.107 -16.055  1.00  0.00     0.189 HD
HETATM   23  O2  UNL     1     -24.798  29.051 -17.189  1.00  0.00    -0.246 OA
HETATM   24  N6  UNL     1     -26.681  30.364 -16.681  1.00  0.00    -0.292 N 
HETATM   25  C11 UNL     1     -27.972  30.475 -16.116  1.00  0.00     0.146 A 
ATOM     26  H6  UNL     1     -26.258  31.190 -17.104  1.00  0.00     0.172 HD
HETATM   27  C12 UNL     1     -28.616  31.620 -16.132  1.00  0.00     0.180 C 
ATOM     28  H7  UNL     1     -29.497  29.403 -15.115  1.00  0.00     0.186 HD
ATOM     29  H4  UNL     1     -29.404  27.345 -14.594  1.00  0.00     0.177 HD
BRANCH  27  30
HETATM   30  O3  UNL     1     -28.052  32.754 -16.700  1.00  0.00    -0.369 OA
ATOM     31  H3  UNL     1     -27.147  32.762 -16.987  1.00  0.00     0.216 HD
ENDBRANCH  27  30
ENDBRANCH   1  17
TORSDOF 11
ENDMDL
