MODEL 1
REMARK VINA RESULT: -6.974370707      0.000      0.000
REMARK  8 active torsions:
REMARK  status: ('A' for Active; 'I' for Inactive)
REMARK    1  A    between atoms: C2_2  and  C3_7 
REMARK    2  A    between atoms: N1_3  and  O1_5 
REMARK    3  A    between atoms: C5_9  and  C6_10 
REMARK    4  A    between atoms: C6_10  and  O3_15 
REMARK    5  A    between atoms: N2_11  and  O2_13 
REMARK    6  A    between atoms: O3_15  and  C7_16 
REMARK    7  A    between atoms: C7_16  and  C8_17 
REMARK    8  A    between atoms: C12_21  and  N3_22 
ROOT
HETATM    1  C3  UNL     1      18.168  12.534   5.076  1.00  0.00     0.007 A 
HETATM    2  C4  UNL     1      17.338  13.087   4.142  1.00  0.00     0.033 A 
HETATM    3  C5  UNL     1      17.038  14.460   4.094  1.00  0.00     0.051 A 
HETATM    4  C12 UNL     1      17.577  15.325   4.997  1.00  0.00     0.118 A 
HETATM    5  C13 UNL     1      18.438  14.756   5.967  1.00  0.00     0.057 A 
HETATM    6  C14 UNL     1      18.707  13.422   5.988  1.00  0.00     0.026 A 
HETATM    7  S1  UNL     1      19.804  12.773   7.243  1.00  0.00    -0.052 SA
ENDROOT
BRANCH   3   8
HETATM    8  C6  UNL     1      16.046  14.883   3.092  1.00  0.00     0.175 C 
HETATM    9  N2  UNL     1      16.334  15.053   1.893  1.00  0.00    -0.247 N 
ATOM     10  H2  UNL     1      17.313  14.877   1.671  1.00  0.00     0.196 HD
BRANCH   9  11
HETATM   11  O2  UNL     1      15.594  15.422   0.845  1.00  0.00    -0.288 OA
ATOM     12  H2  UNL     1      15.820  15.581  -0.065  1.00  0.00     0.244 HD
ENDBRANCH   9  11
BRANCH   8  13
HETATM   13  O3  UNL     1      14.743  15.100   3.490  1.00  0.00    -0.333 OA
BRANCH  13  14
HETATM   14  C7  UNL     1      13.879  14.113   3.931  1.00  0.00     0.182 C 
BRANCH  14  15
HETATM   15  C8  UNL     1      13.826  12.886   3.054  1.00  0.00     0.010 C 
HETATM   16  C9  UNL     1      12.425  12.447   2.676  1.00  0.00     0.007 C 
HETATM   17  C10 UNL     1      12.865  11.033   3.000  1.00  0.00     0.001 C 
HETATM   18  C11 UNL     1      13.904  11.640   3.921  1.00  0.00     0.007 C 
ENDBRANCH  14  15
ENDBRANCH  13  14
ENDBRANCH   8  13
ENDBRANCH   3   8
BRANCH   4  19
HETATM   19  N3  UNL     1      17.371  16.718   5.049  1.00  0.00    -0.115 N 
HETATM   20  O4  UNL     1      16.469  17.397   5.511  1.00  0.00    -0.532 OA
HETATM   21  O5  UNL     1      18.349  17.472   4.360  1.00  0.00    -0.532 OA
ENDBRANCH   4  19
BRANCH   1  22
HETATM   22  C2  UNL     1      18.503  11.117   5.165  1.00  0.00     0.039 C 
HETATM   23  C1  UNL     1      17.542  10.101   5.654  1.00  0.00     0.071 C 
HETATM   24  N1  UNL     1      19.682  10.738   4.845  1.00  0.00    -0.273 N 
ATOM     25  H1  UNL     1      20.355  11.425   4.503  1.00  0.00     0.194 HD
BRANCH  24  26
HETATM   26  O1  UNL     1      20.052   9.437   4.953  1.00  0.00    -0.290 OA
ATOM     27  H1  UNL     1      20.928   9.157   4.716  1.00  0.00     0.244 HD
ENDBRANCH  24  26
ENDBRANCH   1  22
TORSDOF 8
ENDMDL
MODEL 2
REMARK VINA RESULT: -6.954078091      3.833      7.053
REMARK  8 active torsions:
REMARK  status: ('A' for Active; 'I' for Inactive)
REMARK    1  A    between atoms: C2_2  and  C3_7 
REMARK    2  A    between atoms: N1_3  and  O1_5 
REMARK    3  A    between atoms: C5_9  and  C6_10 
REMARK    4  A    between atoms: C6_10  and  O3_15 
REMARK    5  A    between atoms: N2_11  and  O2_13 
REMARK    6  A    between atoms: O3_15  and  C7_16 
REMARK    7  A    between atoms: C7_16  and  C8_17 
REMARK    8  A    between atoms: C12_21  and  N3_22 
ROOT
HETATM    1  C3  UNL     1      14.535  12.964   4.004  1.00  0.00     0.007 A 
HETATM    2  C4  UNL     1      15.136  11.759   4.240  1.00  0.00     0.033 A 
HETATM    3  C5  UNL     1      14.658  10.545   3.717  1.00  0.00     0.051 A 
HETATM    4  C12 UNL     1      13.549  10.511   2.929  1.00  0.00     0.118 A 
HETATM    5  C13 UNL     1      12.922  11.756   2.683  1.00  0.00     0.057 A 
HETATM    6  C14 UNL     1      13.408  12.915   3.205  1.00  0.00     0.026 A 
HETATM    7  S1  UNL     1      12.564  14.453   2.851  1.00  0.00    -0.052 SA
ENDROOT
BRANCH   3   8
HETATM    8  C6  UNL     1      15.358   9.322   4.147  1.00  0.00     0.175 C 
HETATM    9  N2  UNL     1      15.176   8.218   3.603  1.00  0.00    -0.247 N 
ATOM     10  H2  UNL     1      14.500   8.236   2.839  1.00  0.00     0.196 HD
BRANCH   9  11
HETATM   11  O2  UNL     1      15.705   7.014   3.835  1.00  0.00    -0.288 OA
ATOM     12  H2  UNL     1      15.477   6.332   4.456  1.00  0.00     0.244 HD
ENDBRANCH   9  11
BRANCH   8  13
HETATM   13  O3  UNL     1      16.253   9.397   5.194  1.00  0.00    -0.333 OA
BRANCH  13  14
HETATM   14  C7  UNL     1      17.620   9.558   5.051  1.00  0.00     0.182 C 
BRANCH  14  15
HETATM   15  C8  UNL     1      18.451   8.834   6.083  1.00  0.00     0.010 C 
HETATM   16  C9  UNL     1      18.542   7.335   5.874  1.00  0.00     0.007 C 
HETATM   17  C10 UNL     1      18.288   7.191   7.361  1.00  0.00     0.001 C 
HETATM   18  C11 UNL     1      17.596   8.540   7.304  1.00  0.00     0.007 C 
ENDBRANCH  14  15
ENDBRANCH  13  14
ENDBRANCH   8  13
ENDBRANCH   3   8
BRANCH   4  19
HETATM   19  N3  UNL     1      12.978   9.367   2.334  1.00  0.00    -0.115 N 
HETATM   20  O4  UNL     1      12.215   8.516   2.757  1.00  0.00    -0.532 OA
HETATM   21  O5  UNL     1      13.443   9.107   1.024  1.00  0.00    -0.532 OA
ENDBRANCH   4  19
BRANCH   1  22
HETATM   22  C2  UNL     1      14.992  14.245   4.528  1.00  0.00     0.039 C 
HETATM   23  C1  UNL     1      14.731  14.675   5.922  1.00  0.00     0.071 C 
HETATM   24  N1  UNL     1      15.612  15.047   3.748  1.00  0.00    -0.273 N 
ATOM     25  H1  UNL     1      15.804  14.766   2.786  1.00  0.00     0.194 HD
BRANCH  24  26
HETATM   26  O1  UNL     1      16.019  16.268   4.180  1.00  0.00    -0.290 OA
ATOM     27  H1  UNL     1      15.399  16.979   4.291  1.00  0.00     0.244 HD
ENDBRANCH  24  26
ENDBRANCH   1  22
TORSDOF 8
ENDMDL
MODEL 3
REMARK VINA RESULT: -6.904414390      2.478      5.370
REMARK  8 active torsions:
REMARK  status: ('A' for Active; 'I' for Inactive)
REMARK    1  A    between atoms: C2_2  and  C3_7 
REMARK    2  A    between atoms: N1_3  and  O1_5 
REMARK    3  A    between atoms: C5_9  and  C6_10 
REMARK    4  A    between atoms: C6_10  and  O3_15 
REMARK    5  A    between atoms: N2_11  and  O2_13 
REMARK    6  A    between atoms: O3_15  and  C7_16 
REMARK    7  A    between atoms: C7_16  and  C8_17 
REMARK    8  A    between atoms: C12_21  and  N3_22 
ROOT
HETATM    1  C3  UNL     1      16.669  13.215   4.437  1.00  0.00     0.007 A 
HETATM    2  C4  UNL     1      15.962  12.066   4.222  1.00  0.00     0.033 A 
HETATM    3  C5  UNL     1      16.405  10.800   4.645  1.00  0.00     0.051 A 
HETATM    4  C12 UNL     1      17.585  10.657   5.308  1.00  0.00     0.118 A 
HETATM    5  C13 UNL     1      18.320  11.845   5.532  1.00  0.00     0.057 A 
HETATM    6  C14 UNL     1      17.867  13.056   5.109  1.00  0.00     0.026 A 
HETATM    7  S1  UNL     1      18.850  14.517   5.428  1.00  0.00    -0.052 SA
ENDROOT
BRANCH   3   8
HETATM    8  C6  UNL     1      15.579   9.647   4.247  1.00  0.00     0.175 C 
HETATM    9  N2  UNL     1      15.984   8.473   4.323  1.00  0.00    -0.247 N 
ATOM     10  H2  UNL     1      16.935   8.382   4.680  1.00  0.00     0.196 HD
BRANCH   9  11
HETATM   11  O2  UNL     1      15.401   7.310   4.023  1.00  0.00    -0.288 OA
ATOM     12  H2  UNL     1      14.944   6.673   4.561  1.00  0.00     0.244 HD
ENDBRANCH   9  11
BRANCH   8  13
HETATM   13  O3  UNL     1      14.304   9.871   3.770  1.00  0.00    -0.333 OA
BRANCH  13  14
HETATM   14  C7  UNL     1      13.890   9.611   2.475  1.00  0.00     0.182 C 
BRANCH  14  15
HETATM   15  C8  UNL     1      12.415   9.817   2.232  1.00  0.00     0.010 C 
HETATM   16  C9  UNL     1      12.025   9.887   0.769  1.00  0.00     0.007 C 
HETATM   17  C10 UNL     1      11.163  11.079   1.137  1.00  0.00     0.001 C 
HETATM   18  C11 UNL     1      12.090  11.299   2.316  1.00  0.00     0.007 C 
ENDBRANCH  14  15
ENDBRANCH  13  14
ENDBRANCH   8  13
ENDBRANCH   3   8
BRANCH   4  19
HETATM   19  N3  UNL     1      18.132   9.452   5.795  1.00  0.00    -0.115 N 
HETATM   20  O4  UNL     1      19.001   8.712   5.365  1.00  0.00    -0.532 OA
HETATM   21  O5  UNL     1      17.496   8.960   6.957  1.00  0.00    -0.532 OA
ENDBRANCH   4  19
BRANCH   1  22
HETATM   22  C2  UNL     1      16.251  14.547   4.014  1.00  0.00     0.039 C 
HETATM   23  C1  UNL     1      15.288  15.364   4.788  1.00  0.00     0.071 C 
HETATM   24  N1  UNL     1      16.704  15.017   2.913  1.00  0.00    -0.273 N 
ATOM     25  H1  UNL     1      17.371  14.469   2.369  1.00  0.00     0.194 HD
BRANCH  24  26
HETATM   26  O1  UNL     1      16.310  16.233   2.458  1.00  0.00    -0.290 OA
ATOM     27  H1  UNL     1      16.870  16.747   1.890  1.00  0.00     0.244 HD
ENDBRANCH  24  26
ENDBRANCH   1  22
TORSDOF 8
ENDMDL
MODEL 4
REMARK VINA RESULT: -6.860878175      3.348      5.625
REMARK  8 active torsions:
REMARK  status: ('A' for Active; 'I' for Inactive)
REMARK    1  A    between atoms: C2_2  and  C3_7 
REMARK    2  A    between atoms: N1_3  and  O1_5 
REMARK    3  A    between atoms: C5_9  and  C6_10 
REMARK    4  A    between atoms: C6_10  and  O3_15 
REMARK    5  A    between atoms: N2_11  and  O2_13 
REMARK    6  A    between atoms: O3_15  and  C7_16 
REMARK    7  A    between atoms: C7_16  and  C8_17 
REMARK    8  A    between atoms: C12_21  and  N3_22 
ROOT
HETATM    1  C3  UNL     1      15.195  13.196   4.471  1.00  0.00     0.007 A 
HETATM    2  C4  UNL     1      14.104  12.672   3.836  1.00  0.00     0.033 A 
HETATM    3  C5  UNL     1      13.999  11.317   3.478  1.00  0.00     0.051 A 
HETATM    4  C12 UNL     1      15.003  10.440   3.756  1.00  0.00     0.118 A 
HETATM    5  C13 UNL     1      16.135  10.979   4.413  1.00  0.00     0.057 A 
HETATM    6  C14 UNL     1      16.208  12.296   4.746  1.00  0.00     0.026 A 
HETATM    7  S1  UNL     1      17.671  12.908   5.576  1.00  0.00    -0.052 SA
ENDROOT
BRANCH   3   8
HETATM    8  C6  UNL     1      12.805  10.929   2.708  1.00  0.00     0.175 C 
HETATM    9  N2  UNL     1      12.671   9.802   2.198  1.00  0.00    -0.247 N 
ATOM     10  H2  UNL     1      13.460   9.176   2.358  1.00  0.00     0.196 HD
BRANCH   9  11
HETATM   11  O2  UNL     1      11.683   9.262   1.481  1.00  0.00    -0.288 OA
ATOM     12  H2  UNL     1      11.568   8.392   1.116  1.00  0.00     0.244 HD
ENDBRANCH   9  11
BRANCH   8  13
HETATM   13  O3  UNL     1      11.789  11.848   2.543  1.00  0.00    -0.333 OA
BRANCH  13  14
HETATM   14  C7  UNL     1      11.455  12.445   1.339  1.00  0.00     0.182 C 
BRANCH  14  15
HETATM   15  C8  UNL     1      11.482  13.954   1.355  1.00  0.00     0.010 C 
HETATM   16  C9  UNL     1      12.867  14.554   1.496  1.00  0.00     0.007 C 
HETATM   17  C10 UNL     1      12.267  15.500   2.518  1.00  0.00     0.001 C 
HETATM   18  C11 UNL     1      11.201  14.450   2.764  1.00  0.00     0.007 C 
ENDBRANCH  14  15
ENDBRANCH  13  14
ENDBRANCH   8  13
ENDBRANCH   3   8
BRANCH   4  19
HETATM   19  N3  UNL     1      15.016   9.061   3.464  1.00  0.00    -0.115 N 
HETATM   20  O4  UNL     1      14.810   8.075   4.151  1.00  0.00    -0.532 OA
HETATM   21  O5  UNL     1      15.432   8.755   2.148  1.00  0.00    -0.532 OA
ENDBRANCH   4  19
BRANCH   1  22
HETATM   22  C2  UNL     1      15.348  14.594   4.858  1.00  0.00     0.039 C 
HETATM   23  C1  UNL     1      14.801  15.135   6.124  1.00  0.00     0.071 C 
HETATM   24  N1  UNL     1      15.945  15.395   4.059  1.00  0.00    -0.273 N 
ATOM     25  H1  UNL     1      16.331  15.039   3.184  1.00  0.00     0.194 HD
BRANCH  24  26
HETATM   26  O1  UNL     1      16.073  16.713   4.357  1.00  0.00    -0.290 OA
ATOM     27  H1  UNL     1      15.941  17.379   3.693  1.00  0.00     0.244 HD
ENDBRANCH  24  26
ENDBRANCH   1  22
TORSDOF 8
ENDMDL
MODEL 5
REMARK VINA RESULT: -6.818567540      3.898      7.087
REMARK  8 active torsions:
REMARK  status: ('A' for Active; 'I' for Inactive)
REMARK    1  A    between atoms: C2_2  and  C3_7 
REMARK    2  A    between atoms: N1_3  and  O1_5 
REMARK    3  A    between atoms: C5_9  and  C6_10 
REMARK    4  A    between atoms: C6_10  and  O3_15 
REMARK    5  A    between atoms: N2_11  and  O2_13 
REMARK    6  A    between atoms: O3_15  and  C7_16 
REMARK    7  A    between atoms: C7_16  and  C8_17 
REMARK    8  A    between atoms: C12_21  and  N3_22 
ROOT
HETATM    1  C3  UNL     1      13.971  13.149   3.388  1.00  0.00     0.007 A 
HETATM    2  C4  UNL     1      14.624  11.983   3.679  1.00  0.00     0.033 A 
HETATM    3  C5  UNL     1      14.130  10.715   3.323  1.00  0.00     0.051 A 
HETATM    4  C12 UNL     1      12.952  10.586   2.654  1.00  0.00     0.118 A 
HETATM    5  C13 UNL     1      12.273  11.791   2.352  1.00  0.00     0.057 A 
HETATM    6  C14 UNL     1      12.775  13.003   2.711  1.00  0.00     0.026 A 
HETATM    7  S1  UNL     1      11.861  14.484   2.296  1.00  0.00    -0.052 SA
ENDROOT
BRANCH   3   8
HETATM    8  C6  UNL     1      14.900   9.553   3.798  1.00  0.00     0.175 C 
HETATM    9  N2  UNL     1      14.839   8.438   3.248  1.00  0.00    -0.247 N 
ATOM     10  H2  UNL     1      14.209   8.402   2.447  1.00  0.00     0.196 HD
BRANCH   9  11
HETATM   11  O2  UNL     1      15.448   7.281   3.516  1.00  0.00    -0.288 OA
ATOM     12  H2  UNL     1      15.273   6.392   3.229  1.00  0.00     0.244 HD
ENDBRANCH   9  11
BRANCH   8  13
HETATM   13  O3  UNL     1      15.724   9.699   4.894  1.00  0.00    -0.333 OA
BRANCH  13  14
HETATM   14  C7  UNL     1      17.093   9.894   4.830  1.00  0.00     0.182 C 
BRANCH  14  15
HETATM   15  C8  UNL     1      17.590  11.116   5.564  1.00  0.00     0.010 C 
HETATM   16  C9  UNL     1      17.936  12.287   4.665  1.00  0.00     0.007 C 
HETATM   17  C10 UNL     1      19.197  12.447   5.492  1.00  0.00     0.001 C 
HETATM   18  C11 UNL     1      19.078  10.975   5.833  1.00  0.00     0.007 C 
ENDBRANCH  14  15
ENDBRANCH  13  14
ENDBRANCH   8  13
ENDBRANCH   3   8
BRANCH   4  19
HETATM   19  N3  UNL     1      12.357   9.380   2.229  1.00  0.00    -0.115 N 
HETATM   20  O4  UNL     1      12.029   8.371   2.829  1.00  0.00    -0.532 OA
HETATM   21  O5  UNL     1      12.187   9.285   0.829  1.00  0.00    -0.532 OA
ENDBRANCH   4  19
BRANCH   1  22
HETATM   22  C2  UNL     1      14.443  14.483   3.741  1.00  0.00     0.039 C 
HETATM   23  C1  UNL     1      15.326  15.275   2.853  1.00  0.00     0.071 C 
HETATM   24  N1  UNL     1      14.114  14.977   4.874  1.00  0.00    -0.273 N 
ATOM     25  H1  UNL     1      13.503  14.446   5.495  1.00  0.00     0.194 HD
BRANCH  24  26
HETATM   26  O1  UNL     1      14.564  16.197   5.262  1.00  0.00    -0.290 OA
ATOM     27  H1  UNL     1      14.034  16.761   5.812  1.00  0.00     0.244 HD
ENDBRANCH  24  26
ENDBRANCH   1  22
TORSDOF 8
ENDMDL
