MODEL 1
REMARK VINA RESULT: -6.860475400      0.000      0.000
REMARK  9 active torsions:
REMARK  status: ('A' for Active; 'I' for Inactive)
REMARK    1  A    between atoms: C2_2  and  O1_4 
REMARK    2  A    between atoms: O1_4  and  C4_5 
REMARK    3  A    between atoms: C5_7  and  C6_8 
REMARK    4  A    between atoms: C10_15  and  N3_16 
REMARK    5  A    between atoms: N3_16  and  C11_18 
REMARK    6  A    between atoms: C13_20  and  N4_21 
REMARK    7  A    between atoms: N4_21  and  O2_23 
REMARK    8  A    between atoms: C14_25  and  O3_26 
REMARK    9  A    between atoms: C15_28  and  O4_29 
ROOT
HETATM    1  C6  UNL     1      14.905  12.820   3.884  1.00  0.00     0.083 A 
HETATM    2  N1  UNL     1      13.734  12.862   3.159  1.00  0.00    -0.361 N 
ATOM      3  H1  UNL     1      13.367  13.774   2.887  1.00  0.00     0.165 HD
HETATM    4  C7  UNL     1      13.060  11.786   2.799  1.00  0.00     0.113 A 
HETATM    5  C8  UNL     1      13.513  10.533   3.142  1.00  0.00     0.089 A 
HETATM    6  C9  UNL     1      12.725   9.424   2.718  1.00  0.00     0.103 C 
HETATM    7  N2  UNL     1      12.069   8.543   2.376  1.00  0.00    -0.191 NA
HETATM    8  C10 UNL     1      14.669  10.422   3.859  1.00  0.00     0.085 A 
HETATM    9  C13 UNL     1      15.357  11.612   4.221  1.00  0.00     0.110 A 
ENDROOT
BRANCH   8  10
HETATM   10  N3  UNL     1      15.154   9.352   4.209  1.00  0.00    -0.367 N 
ATOM     11  H3  UNL     1      15.218   9.386   5.227  1.00  0.00     0.165 HD
BRANCH  10  12
HETATM   12  C11 UNL     1      15.647   8.130   3.830  1.00  0.00     0.057 C 
HETATM   13  C12 UNL     1      16.475   7.490   4.935  1.00  0.00     0.054 C 
ENDBRANCH  10  12
ENDBRANCH   8  10
BRANCH   9  14
HETATM   14  N4  UNL     1      16.596  11.449   4.915  1.00  0.00    -0.265 N 
ATOM     15  H4  UNL     1      16.650  11.594   5.923  1.00  0.00     0.194 HD
BRANCH  14  16
HETATM   16  O2  UNL     1      17.597  11.128   4.271  1.00  0.00    -0.289 OA
ATOM     17  H2  UNL     1      17.755  10.206   4.102  1.00  0.00     0.244 HD
ENDBRANCH  14  16
ENDBRANCH   9  14
BRANCH   1  18
HETATM   18  C5  UNL     1      15.476  14.140   4.256  1.00  0.00     0.072 A 
HETATM   19  S1  UNL     1      15.193  14.909   5.800  1.00  0.00    -0.057 SA
HETATM   20  C4  UNL     1      16.140  16.288   5.617  1.00  0.00     0.153 A 
HETATM   21  C15 UNL     1      16.664  16.136   4.366  1.00  0.00     0.141 A 
HETATM   22  C14 UNL     1      16.316  15.024   3.671  1.00  0.00     0.122 A 
BRANCH  20  23
HETATM   23  O1  UNL     1      16.344  17.344   6.531  1.00  0.00    -0.306 OA
BRANCH  23  24
HETATM   24  C2  UNL     1      15.493  18.462   6.494  1.00  0.00     0.041 C 
HETATM   25  C1  UNL     1      16.031  19.613   6.145  1.00  0.00     0.046 C 
HETATM   26  C3  UNL     1      14.071  18.358   6.828  1.00  0.00     0.076 C 
ENDBRANCH  23  24
ENDBRANCH  20  23
BRANCH  21  27
HETATM   27  O4  UNL     1      17.539  17.156   3.877  1.00  0.00    -0.355 OA
ATOM     28  H4  UNL     1      18.455  17.114   4.126  1.00  0.00     0.218 HD
ENDBRANCH  21  27
BRANCH  22  29
HETATM   29  O3  UNL     1      16.839  14.809   2.363  1.00  0.00    -0.357 OA
ATOM     30  H3  UNL     1      16.616  15.379   1.636  1.00  0.00     0.218 HD
ENDBRANCH  22  29
ENDBRANCH   1  18
TORSDOF 9
ENDMDL
MODEL 2
REMARK VINA RESULT: -6.841896639      3.249      7.135
REMARK  9 active torsions:
REMARK  status: ('A' for Active; 'I' for Inactive)
REMARK    1  A    between atoms: C2_2  and  O1_4 
REMARK    2  A    between atoms: O1_4  and  C4_5 
REMARK    3  A    between atoms: C5_7  and  C6_8 
REMARK    4  A    between atoms: C10_15  and  N3_16 
REMARK    5  A    between atoms: N3_16  and  C11_18 
REMARK    6  A    between atoms: C13_20  and  N4_21 
REMARK    7  A    between atoms: N4_21  and  O2_23 
REMARK    8  A    between atoms: C14_25  and  O3_26 
REMARK    9  A    between atoms: C15_28  and  O4_29 
ROOT
HETATM    1  C6  UNL     1      15.486  14.939   4.466  1.00  0.00     0.083 A 
HETATM    2  N1  UNL     1      15.005  15.936   5.287  1.00  0.00    -0.361 N 
ATOM      3  H1  UNL     1      13.999  15.984   5.449  1.00  0.00     0.165 HD
HETATM    4  C7  UNL     1      15.776  16.832   5.875  1.00  0.00     0.113 A 
HETATM    5  C8  UNL     1      17.139  16.809   5.688  1.00  0.00     0.089 A 
HETATM    6  C9  UNL     1      17.898  17.813   6.355  1.00  0.00     0.103 C 
HETATM    7  N2  UNL     1      18.491  18.639   6.893  1.00  0.00    -0.191 NA
HETATM    8  C10 UNL     1      17.679  15.845   4.887  1.00  0.00     0.085 A 
HETATM    9  C13 UNL     1      16.805  14.903   4.279  1.00  0.00     0.110 A 
ENDROOT
BRANCH   8  10
HETATM   10  N3  UNL     1      18.879  15.740   4.662  1.00  0.00    -0.367 N 
ATOM     11  H3  UNL     1      19.032  16.131   3.732  1.00  0.00     0.165 HD
BRANCH  10  12
HETATM   12  C11 UNL     1      20.106  15.327   5.114  1.00  0.00     0.057 C 
HETATM   13  C12 UNL     1      19.990  14.517   6.397  1.00  0.00     0.054 C 
ENDBRANCH  10  12
ENDBRANCH   8  10
BRANCH   9  14
HETATM   14  N4  UNL     1      17.418  13.872   3.501  1.00  0.00    -0.265 N 
ATOM     15  H4  UNL     1      17.512  13.970   2.490  1.00  0.00     0.194 HD
BRANCH  14  16
HETATM   16  O2  UNL     1      17.831  12.863   4.076  1.00  0.00    -0.289 OA
ATOM     17  H2  UNL     1      17.403  12.032   3.903  1.00  0.00     0.244 HD
ENDBRANCH  14  16
ENDBRANCH   9  14
BRANCH   1  18
HETATM   18  C5  UNL     1      14.455  14.072   3.839  1.00  0.00     0.072 A 
HETATM   19  S1  UNL     1      14.340  12.352   4.129  1.00  0.00    -0.057 SA
HETATM   20  C4  UNL     1      12.975  11.992   3.213  1.00  0.00     0.153 A 
HETATM   21  C15 UNL     1      12.624  13.206   2.696  1.00  0.00     0.141 A 
HETATM   22  C14 UNL     1      13.395  14.273   3.026  1.00  0.00     0.122 A 
BRANCH  20  23
HETATM   23  O1  UNL     1      12.345  10.743   3.024  1.00  0.00    -0.306 OA
BRANCH  23  24
HETATM   24  C2  UNL     1      12.706   9.949   1.923  1.00  0.00     0.041 C 
HETATM   25  C1  UNL     1      13.813   9.242   2.031  1.00  0.00     0.046 C 
HETATM   26  C3  UNL     1      11.893   9.906   0.705  1.00  0.00     0.076 C 
ENDBRANCH  23  24
ENDBRANCH  20  23
BRANCH  21  27
HETATM   27  O4  UNL     1      11.476  13.266   1.847  1.00  0.00    -0.355 OA
ATOM     28  H4  UNL     1      10.865  13.983   1.974  1.00  0.00     0.218 HD
ENDBRANCH  21  27
BRANCH  22  29
HETATM   29  O3  UNL     1      13.071  15.567   2.521  1.00  0.00    -0.357 OA
ATOM     30  H3  UNL     1      12.245  15.741   2.086  1.00  0.00     0.218 HD
ENDBRANCH  22  29
ENDBRANCH   1  18
TORSDOF 9
ENDMDL
MODEL 3
REMARK VINA RESULT: -6.830116865      2.425      3.871
REMARK  9 active torsions:
REMARK  status: ('A' for Active; 'I' for Inactive)
REMARK    1  A    between atoms: C2_2  and  O1_4 
REMARK    2  A    between atoms: O1_4  and  C4_5 
REMARK    3  A    between atoms: C5_7  and  C6_8 
REMARK    4  A    between atoms: C10_15  and  N3_16 
REMARK    5  A    between atoms: N3_16  and  C11_18 
REMARK    6  A    between atoms: C13_20  and  N4_21 
REMARK    7  A    between atoms: N4_21  and  O2_23 
REMARK    8  A    between atoms: C14_25  and  O3_26 
REMARK    9  A    between atoms: C15_28  and  O4_29 
ROOT
HETATM    1  C6  UNL     1      15.283  13.807   4.159  1.00  0.00     0.083 A 
HETATM    2  N1  UNL     1      15.742  12.533   4.416  1.00  0.00    -0.361 N 
ATOM      3  H1  UNL     1      16.648  12.431   4.874  1.00  0.00     0.165 HD
HETATM    4  C7  UNL     1      15.073  11.440   4.102  1.00  0.00     0.113 A 
HETATM    5  C8  UNL     1      13.847  11.525   3.484  1.00  0.00     0.089 A 
HETATM    6  C9  UNL     1      13.193  10.298   3.175  1.00  0.00     0.103 C 
HETATM    7  N2  UNL     1      12.688   9.295   2.925  1.00  0.00    -0.191 NA
HETATM    8  C10 UNL     1      13.334  12.759   3.202  1.00  0.00     0.085 A 
HETATM    9  C13 UNL     1      14.095  13.905   3.562  1.00  0.00     0.110 A 
ENDROOT
BRANCH   8  10
HETATM   10  N3  UNL     1      12.252  12.938   2.658  1.00  0.00    -0.367 N 
ATOM     11  H3  UNL     1      11.571  13.064   3.407  1.00  0.00     0.165 HD
BRANCH  10  12
HETATM   12  C11 UNL     1      11.556  13.043   1.481  1.00  0.00     0.057 C 
HETATM   13  C12 UNL     1      10.860  11.740   1.120  1.00  0.00     0.054 C 
ENDBRANCH  10  12
ENDBRANCH   8  10
BRANCH   9  14
HETATM   14  N4  UNL     1      13.493  15.176   3.309  1.00  0.00    -0.265 N 
ATOM     15  H4  UNL     1      13.044  15.699   4.061  1.00  0.00     0.194 HD
BRANCH  14  16
HETATM   16  O2  UNL     1      13.526  15.630   2.162  1.00  0.00    -0.289 OA
ATOM     17  H2  UNL     1      13.830  16.521   2.033  1.00  0.00     0.244 HD
ENDBRANCH  14  16
ENDBRANCH   9  14
BRANCH   1  18
HETATM   18  C5  UNL     1      16.211  14.909   4.520  1.00  0.00     0.072 A 
HETATM   19  S1  UNL     1      17.028  15.010   6.062  1.00  0.00    -0.057 SA
HETATM   20  C4  UNL     1      17.948  16.398   5.815  1.00  0.00     0.153 A 
HETATM   21  C15 UNL     1      17.613  16.764   4.544  1.00  0.00     0.141 A 
HETATM   22  C14 UNL     1      16.716  15.989   3.884  1.00  0.00     0.122 A 
BRANCH  20  23
HETATM   23  O1  UNL     1      18.845  17.030   6.703  1.00  0.00    -0.306 OA
BRANCH  23  24
HETATM   24  C2  UNL     1      20.228  16.883   6.505  1.00  0.00     0.041 C 
HETATM   25  C1  UNL     1      20.984  17.932   6.756  1.00  0.00     0.046 C 
HETATM   26  C3  UNL     1      20.810  15.621   6.040  1.00  0.00     0.076 C 
ENDBRANCH  23  24
ENDBRANCH  20  23
BRANCH  21  27
HETATM   27  O4  UNL     1      18.228  17.935   4.000  1.00  0.00    -0.355 OA
ATOM     28  H4  UNL     1      17.840  18.777   4.205  1.00  0.00     0.218 HD
ENDBRANCH  21  27
BRANCH  22  29
HETATM   29  O3  UNL     1      16.336  16.320   2.550  1.00  0.00    -0.357 OA
ATOM     30  H3  UNL     1      16.309  15.666   1.861  1.00  0.00     0.218 HD
ENDBRANCH  22  29
ENDBRANCH   1  18
TORSDOF 9
ENDMDL
MODEL 4
REMARK VINA RESULT: -6.763951754      3.510      7.173
REMARK  9 active torsions:
REMARK  status: ('A' for Active; 'I' for Inactive)
REMARK    1  A    between atoms: C2_2  and  O1_4 
REMARK    2  A    between atoms: O1_4  and  C4_5 
REMARK    3  A    between atoms: C5_7  and  C6_8 
REMARK    4  A    between atoms: C10_15  and  N3_16 
REMARK    5  A    between atoms: N3_16  and  C11_18 
REMARK    6  A    between atoms: C13_20  and  N4_21 
REMARK    7  A    between atoms: N4_21  and  O2_23 
REMARK    8  A    between atoms: C14_25  and  O3_26 
REMARK    9  A    between atoms: C15_28  and  O4_29 
ROOT
HETATM    1  C6  UNL     1      17.526  14.387   4.483  1.00  0.00     0.083 A 
HETATM    2  N1  UNL     1      18.132  13.183   4.769  1.00  0.00    -0.361 N 
ATOM      3  H1  UNL     1      17.678  12.327   4.450  1.00  0.00     0.165 HD
HETATM    4  C7  UNL     1      19.268  13.078   5.433  1.00  0.00     0.113 A 
HETATM    5  C8  UNL     1      19.919  14.202   5.884  1.00  0.00     0.089 A 
HETATM    6  C9  UNL     1      21.136  14.001   6.596  1.00  0.00     0.103 C 
HETATM    7  N2  UNL     1      22.112  13.815   7.177  1.00  0.00    -0.191 NA
HETATM    8  C10 UNL     1      19.372  15.428   5.633  1.00  0.00     0.085 A 
HETATM    9  C13 UNL     1      18.147  15.486   4.912  1.00  0.00     0.110 A 
ENDROOT
BRANCH   8  10
HETATM   10  N3  UNL     1      19.876  16.485   5.990  1.00  0.00    -0.367 N 
ATOM     11  H3  UNL     1      20.202  16.949   5.142  1.00  0.00     0.165 HD
BRANCH  10  12
HETATM   12  C11 UNL     1      20.195  17.317   7.032  1.00  0.00     0.057 C 
HETATM   13  C12 UNL     1      19.780  18.754   6.752  1.00  0.00     0.054 C 
ENDBRANCH  10  12
ENDBRANCH   8  10
BRANCH   9  14
HETATM   14  N4  UNL     1      17.643  16.790   4.614  1.00  0.00    -0.265 N 
ATOM     15  H4  UNL     1      16.827  17.156   5.104  1.00  0.00     0.194 HD
BRANCH  14  16
HETATM   16  O2  UNL     1      18.214  17.463   3.754  1.00  0.00    -0.289 OA
ATOM     17  H2  UNL     1      17.906  17.413   2.856  1.00  0.00     0.244 HD
ENDBRANCH  14  16
ENDBRANCH   9  14
BRANCH   1  18
HETATM   18  C5  UNL     1      16.215  14.297   3.790  1.00  0.00     0.072 A 
HETATM   19  S1  UNL     1      14.912  13.265   4.331  1.00  0.00    -0.057 SA
HETATM   20  C4  UNL     1      13.733  13.667   3.198  1.00  0.00     0.153 A 
HETATM   21  C15 UNL     1      14.361  14.594   2.418  1.00  0.00     0.141 A 
HETATM   22  C14 UNL     1      15.642  14.912   2.732  1.00  0.00     0.122 A 
BRANCH  20  23
HETATM   23  O1  UNL     1      12.417  13.168   3.082  1.00  0.00    -0.306 OA
BRANCH  23  24
HETATM   24  C2  UNL     1      12.198  11.953   2.412  1.00  0.00     0.041 C 
HETATM   25  C1  UNL     1      11.224  11.924   1.525  1.00  0.00     0.046 C 
HETATM   26  C3  UNL     1      13.012  10.766   2.684  1.00  0.00     0.076 C 
ENDBRANCH  23  24
ENDBRANCH  20  23
BRANCH  21  27
HETATM   27  O4  UNL     1      13.628  15.161   1.329  1.00  0.00    -0.355 OA
ATOM     28  H4  UNL     1      12.770  14.803   1.136  1.00  0.00     0.218 HD
ENDBRANCH  21  27
BRANCH  22  29
HETATM   29  O3  UNL     1      16.345  15.880   1.956  1.00  0.00    -0.357 OA
ATOM     30  H3  UNL     1      16.822  16.595   2.361  1.00  0.00     0.218 HD
ENDBRANCH  22  29
ENDBRANCH   1  18
TORSDOF 9
ENDMDL
MODEL 5
REMARK VINA RESULT: -6.736684958      3.141      7.603
REMARK  9 active torsions:
REMARK  status: ('A' for Active; 'I' for Inactive)
REMARK    1  A    between atoms: C2_2  and  O1_4 
REMARK    2  A    between atoms: O1_4  and  C4_5 
REMARK    3  A    between atoms: C5_7  and  C6_8 
REMARK    4  A    between atoms: C10_15  and  N3_16 
REMARK    5  A    between atoms: N3_16  and  C11_18 
REMARK    6  A    between atoms: C13_20  and  N4_21 
REMARK    7  A    between atoms: N4_21  and  O2_23 
REMARK    8  A    between atoms: C14_25  and  O3_26 
REMARK    9  A    between atoms: C15_28  and  O4_29 
ROOT
HETATM    1  C6  UNL     1      16.108  14.508   4.647  1.00  0.00     0.083 A 
HETATM    2  N1  UNL     1      16.714  13.913   5.733  1.00  0.00    -0.361 N 
ATOM      3  H1  UNL     1      16.379  12.996   6.030  1.00  0.00     0.165 HD
HETATM    4  C7  UNL     1      17.705  14.464   6.408  1.00  0.00     0.113 A 
HETATM    5  C8  UNL     1      18.193  15.699   6.046  1.00  0.00     0.089 A 
HETATM    6  C9  UNL     1      19.260  16.225   6.829  1.00  0.00     0.103 C 
HETATM    7  N2  UNL     1      20.114  16.636   7.481  1.00  0.00    -0.191 NA
HETATM    8  C10 UNL     1      17.637  16.342   4.978  1.00  0.00     0.085 A 
HETATM    9  C13 UNL     1      16.572  15.703   4.284  1.00  0.00     0.110 A 
ENDROOT
BRANCH   8  10
HETATM   10  N3  UNL     1      18.003  17.440   4.578  1.00  0.00    -0.367 N 
ATOM     11  H3  UNL     1      18.508  17.274   3.707  1.00  0.00     0.165 HD
BRANCH  10  12
HETATM   12  C11 UNL     1      18.031  18.794   4.789  1.00  0.00     0.057 C 
HETATM   13  C12 UNL     1      16.867  19.254   5.654  1.00  0.00     0.054 C 
ENDBRANCH  10  12
ENDBRANCH   8  10
BRANCH   9  14
HETATM   14  N4  UNL     1      16.063  16.381   3.134  1.00  0.00    -0.265 N 
ATOM     15  H4  UNL     1      15.360  17.113   3.231  1.00  0.00     0.194 HD
BRANCH  14  16
HETATM   16  O2  UNL     1      16.489  16.063   2.021  1.00  0.00    -0.289 OA
ATOM     17  H2  UNL     1      16.732  15.157   1.867  1.00  0.00     0.244 HD
ENDBRANCH  14  16
ENDBRANCH   9  14
BRANCH   1  18
HETATM   18  C5  UNL     1      14.962  13.763   4.065  1.00  0.00     0.072 A 
HETATM   19  S1  UNL     1      14.786  12.028   4.179  1.00  0.00    -0.057 SA
HETATM   20  C4  UNL     1      13.302  11.833   3.409  1.00  0.00     0.153 A 
HETATM   21  C15 UNL     1      12.961  13.112   3.075  1.00  0.00     0.141 A 
HETATM   22  C14 UNL     1      13.825  14.101   3.418  1.00  0.00     0.122 A 
BRANCH  20  23
HETATM   23  O1  UNL     1      12.585  10.642   3.167  1.00  0.00    -0.306 OA
BRANCH  23  24
HETATM   24  C2  UNL     1      12.770   9.961   1.951  1.00  0.00     0.041 C 
HETATM   25  C1  UNL     1      13.866   9.240   1.829  1.00  0.00     0.046 C 
HETATM   26  C3  UNL     1      11.792  10.046   0.864  1.00  0.00     0.076 C 
ENDBRANCH  23  24
ENDBRANCH  20  23
BRANCH  21  27
HETATM   27  O4  UNL     1      11.724  13.318   2.388  1.00  0.00    -0.355 OA
ATOM     28  H4  UNL     1      11.099  13.922   2.770  1.00  0.00     0.218 HD
ENDBRANCH  21  27
BRANCH  22  29
HETATM   29  O3  UNL     1      13.516  15.456   3.101  1.00  0.00    -0.357 OA
ATOM     30  H3  UNL     1      14.149  16.029   2.685  1.00  0.00     0.218 HD
ENDBRANCH  22  29
ENDBRANCH   1  18
TORSDOF 9
ENDMDL
