MODEL 1
REMARK VINA RESULT: -8.453023415      0.000      0.000
REMARK  7 active torsions:
REMARK  status: ('A' for Active; 'I' for Inactive)
REMARK    1  A    between atoms: C2_2  and  N1_3 
REMARK    2  A    between atoms: C2_2  and  C3_7 
REMARK    3  A    between atoms: C3_7  and  O1_8 
REMARK    4  A    between atoms: O1_8  and  C4_9 
REMARK    5  A    between atoms: C6_11  and  O2_12 
REMARK    6  A    between atoms: C12_20  and  C13_21 
REMARK    7  A    between atoms: C12_20  and  C14_23 
ROOT
HETATM    1  C4  UNL     1      16.763  10.222   5.121  1.00  0.00     0.074 A 
HETATM    2  C5  UNL     1      17.601  11.030   4.420  1.00  0.00     0.074 A 
HETATM    3  C6  UNL     1      17.191  12.128   3.745  1.00  0.00     0.077 A 
HETATM    4  C7  UNL     1      15.845  12.526   3.716  1.00  0.00     0.010 A 
HETATM    5  C8  UNL     1      14.993  11.735   4.410  1.00  0.00     0.080 A 
HETATM    6  C9  UNL     1      15.410  10.601   5.107  1.00  0.00     0.074 A 
HETATM    7  O3  UNL     1      13.611  11.889   4.555  1.00  0.00    -0.350 OA
HETATM    8  C10 UNL     1      12.698  12.400   3.564  1.00  0.00     0.176 C 
HETATM    9  C11 UNL     1      13.407  12.911   2.390  1.00  0.00     0.044 C 
HETATM   10  C12 UNL     1      14.281  14.148   2.552  1.00  0.00     0.024 C 
HETATM   11  C20 UNL     1      15.676  13.750   2.907  1.00  0.00     0.061 C 
ENDROOT
BRANCH  10  12
HETATM   12  C13 UNL     1      14.446  14.522   1.056  1.00  0.00     0.237 C 
HETATM   13  F1  UNL     1      15.699  14.368   0.587  1.00  0.00    -0.254 F 
ENDBRANCH  10  12
BRANCH  10  14
HETATM   14  C14 UNL     1      13.617  15.156   3.343  1.00  0.00     0.022 A 
HETATM   15  C15 UNL     1      12.395  15.710   3.000  1.00  0.00     0.098 A 
HETATM   16  N2  UNL     1      11.740  15.310   1.846  1.00  0.00    -0.098 NA
HETATM   17  C16 UNL     1      11.743  16.683   3.749  1.00  0.00     0.182 A 
HETATM   18  F2  UNL     1      10.540  17.171   3.327  1.00  0.00    -0.201 F 
HETATM   19  C17 UNL     1      12.309  17.154   4.910  1.00  0.00     0.198 A 
HETATM   20  F3  UNL     1      11.684  18.100   5.647  1.00  0.00    -0.199 F 
HETATM   21  C18 UNL     1      13.520  16.641   5.301  1.00  0.00     0.197 A 
HETATM   22  F4  UNL     1      14.082  17.099   6.443  1.00  0.00    -0.199 F 
HETATM   23  C19 UNL     1      14.151  15.654   4.515  1.00  0.00     0.167 A 
HETATM   24  F5  UNL     1      15.312  15.249   4.999  1.00  0.00    -0.202 F 
ENDBRANCH  10  14
BRANCH   3  25
HETATM   25  O2  UNL     1      18.110  12.927   3.035  1.00  0.00    -0.360 OA
ATOM     26  H2  UNL     1      17.944  13.851   2.889  1.00  0.00     0.217 HD
ENDBRANCH   3  25
BRANCH   1  27
HETATM   27  O1  UNL     1      17.112   9.097   5.819  1.00  0.00    -0.349 OA
BRANCH  27  28
HETATM   28  C3  UNL     1      16.709   7.802   5.593  1.00  0.00     0.207 C 
BRANCH  28  29
HETATM   29  C2  UNL     1      17.741   6.739   5.836  1.00  0.00     0.203 C 
HETATM   30  C1  UNL     1      17.599   6.321   7.295  1.00  0.00     0.042 C 
BRANCH  29  31
HETATM   31  N1  UNL     1      17.498   5.601   4.955  1.00  0.00    -0.073 N 
ATOM     32  H13 UNL     1      18.310   5.389   4.375  1.00  0.00     0.274 HD
ATOM     33  H12 UNL     1      17.450   4.724   5.473  1.00  0.00     0.274 HD
ATOM     34  H11 UNL     1      16.660   5.758   4.395  1.00  0.00     0.274 HD
ENDBRANCH  29  31
ENDBRANCH  28  29
ENDBRANCH  27  28
ENDBRANCH   1  27
TORSDOF 7
ENDMDL
MODEL 2
REMARK VINA RESULT: -8.374005290      3.697      7.185
REMARK  7 active torsions:
REMARK  status: ('A' for Active; 'I' for Inactive)
REMARK    1  A    between atoms: C2_2  and  N1_3 
REMARK    2  A    between atoms: C2_2  and  C3_7 
REMARK    3  A    between atoms: C3_7  and  O1_8 
REMARK    4  A    between atoms: O1_8  and  C4_9 
REMARK    5  A    between atoms: C6_11  and  O2_12 
REMARK    6  A    between atoms: C12_20  and  C13_21 
REMARK    7  A    between atoms: C12_20  and  C14_23 
ROOT
HETATM    1  C4  UNL     1      17.086  16.951   5.343  1.00  0.00     0.074 A 
HETATM    2  C5  UNL     1      16.016  16.930   6.180  1.00  0.00     0.074 A 
HETATM    3  C6  UNL     1      14.912  16.177   5.966  1.00  0.00     0.077 A 
HETATM    4  C7  UNL     1      14.785  15.344   4.843  1.00  0.00     0.010 A 
HETATM    5  C8  UNL     1      15.842  15.349   3.996  1.00  0.00     0.080 A 
HETATM    6  C9  UNL     1      16.981  16.123   4.212  1.00  0.00     0.074 A 
HETATM    7  O3  UNL     1      15.990  14.622   2.811  1.00  0.00    -0.350 OA
HETATM    8  C10 UNL     1      14.945  14.288   1.877  1.00  0.00     0.176 C 
HETATM    9  C11 UNL     1      13.625  14.665   2.385  1.00  0.00     0.044 C 
HETATM   10  C12 UNL     1      13.082  13.932   3.604  1.00  0.00     0.024 C 
HETATM   11  C20 UNL     1      13.486  14.642   4.855  1.00  0.00     0.061 C 
ENDROOT
BRANCH  10  12
HETATM   12  C13 UNL     1      11.592  14.350   3.490  1.00  0.00     0.237 C 
HETATM   13  F1  UNL     1      11.357  15.637   3.808  1.00  0.00    -0.254 F 
ENDBRANCH  10  12
BRANCH  10  14
HETATM   14  C14 UNL     1      13.306  12.510   3.501  1.00  0.00     0.022 A 
HETATM   15  C15 UNL     1      12.632  11.696   2.606  1.00  0.00     0.098 A 
HETATM   16  N2  UNL     1      11.684  12.228   1.746  1.00  0.00    -0.098 NA
HETATM   17  C16 UNL     1      12.835  10.325   2.495  1.00  0.00     0.182 A 
HETATM   18  F2  UNL     1      12.120   9.605   1.581  1.00  0.00    -0.201 F 
HETATM   19  C17 UNL     1      13.750   9.696   3.305  1.00  0.00     0.198 A 
HETATM   20  F3  UNL     1      13.955   8.363   3.206  1.00  0.00    -0.199 F 
HETATM   21  C18 UNL     1      14.448  10.452   4.212  1.00  0.00     0.197 A 
HETATM   22  F4  UNL     1      15.351   9.838   5.011  1.00  0.00    -0.199 F 
HETATM   23  C19 UNL     1      14.216  11.841   4.295  1.00  0.00     0.167 A 
HETATM   24  F5  UNL     1      14.948  12.449   5.211  1.00  0.00    -0.202 F 
ENDBRANCH  10  14
BRANCH   3  25
HETATM   25  O2  UNL     1      13.833  16.199   6.872  1.00  0.00    -0.360 OA
ATOM     26  H2  UNL     1      13.298  15.427   7.014  1.00  0.00     0.217 HD
ENDBRANCH   3  25
BRANCH   1  27
HETATM   27  O1  UNL     1      18.227  17.692   5.499  1.00  0.00    -0.349 OA
BRANCH  27  28
HETATM   28  C3  UNL     1      18.539  18.898   4.917  1.00  0.00     0.207 C 
BRANCH  28  29
HETATM   29  C2  UNL     1      17.515  19.985   5.065  1.00  0.00     0.203 C 
HETATM   30  C1  UNL     1      18.077  20.977   6.077  1.00  0.00     0.042 C 
BRANCH  29  31
HETATM   31  N1  UNL     1      17.296  20.640   3.779  1.00  0.00    -0.073 N 
ATOM     32  H13 UNL     1      17.082  21.631   3.889  1.00  0.00     0.274 HD
ATOM     33  H12 UNL     1      18.161  20.729   3.247  1.00  0.00     0.274 HD
ATOM     34  H11 UNL     1      16.573  20.151   3.251  1.00  0.00     0.274 HD
ENDBRANCH  29  31
ENDBRANCH  28  29
ENDBRANCH  27  28
ENDBRANCH   1  27
TORSDOF 7
ENDMDL
MODEL 3
REMARK VINA RESULT: -8.326429242      3.737      7.300
REMARK  7 active torsions:
REMARK  status: ('A' for Active; 'I' for Inactive)
REMARK    1  A    between atoms: C2_2  and  N1_3 
REMARK    2  A    between atoms: C2_2  and  C3_7 
REMARK    3  A    between atoms: C3_7  and  O1_8 
REMARK    4  A    between atoms: O1_8  and  C4_9 
REMARK    5  A    between atoms: C6_11  and  O2_12 
REMARK    6  A    between atoms: C12_20  and  C13_21 
REMARK    7  A    between atoms: C12_20  and  C14_23 
ROOT
HETATM    1  C4  UNL     1      15.631  17.668   5.926  1.00  0.00     0.074 A 
HETATM    2  C5  UNL     1      16.523  17.438   4.927  1.00  0.00     0.074 A 
HETATM    3  C6  UNL     1      16.647  16.248   4.293  1.00  0.00     0.077 A 
HETATM    4  C7  UNL     1      15.849  15.142   4.622  1.00  0.00     0.010 A 
HETATM    5  C8  UNL     1      14.951  15.350   5.614  1.00  0.00     0.080 A 
HETATM    6  C9  UNL     1      14.819  16.573   6.272  1.00  0.00     0.074 A 
HETATM    7  O3  UNL     1      14.034  14.436   6.143  1.00  0.00    -0.350 OA
HETATM    8  C10 UNL     1      14.238  13.019   6.307  1.00  0.00     0.176 C 
HETATM    9  C11 UNL     1      15.494  12.579   5.700  1.00  0.00     0.044 C 
HETATM   10  C12 UNL     1      15.631  12.653   4.184  1.00  0.00     0.024 C 
HETATM   11  C20 UNL     1      16.193  13.977   3.781  1.00  0.00     0.061 C 
ENDROOT
BRANCH  10  12
HETATM   12  C13 UNL     1      16.870  11.736   4.011  1.00  0.00     0.237 C 
HETATM   13  F1  UNL     1      17.982  12.384   3.618  1.00  0.00    -0.254 F 
ENDBRANCH  10  12
BRANCH  10  14
HETATM   14  C14 UNL     1      14.441  12.168   3.529  1.00  0.00     0.022 A 
HETATM   15  C15 UNL     1      14.021  10.850   3.591  1.00  0.00     0.098 A 
HETATM   16  N2  UNL     1      14.750   9.912   4.304  1.00  0.00    -0.098 NA
HETATM   17  C16 UNL     1      12.878  10.366   2.964  1.00  0.00     0.182 A 
HETATM   18  F2  UNL     1      12.547   9.047   3.081  1.00  0.00    -0.201 F 
HETATM   19  C17 UNL     1      12.086  11.212   2.226  1.00  0.00     0.198 A 
HETATM   20  F3  UNL     1      10.972  10.752   1.611  1.00  0.00    -0.199 F 
HETATM   21  C18 UNL     1      12.452  12.531   2.128  1.00  0.00     0.197 A 
HETATM   22  F4  UNL     1      11.675  13.369   1.405  1.00  0.00    -0.199 F 
HETATM   23  C19 UNL     1      13.618  12.985   2.779  1.00  0.00     0.167 A 
HETATM   24  F5  UNL     1      13.859  14.272   2.602  1.00  0.00    -0.202 F 
ENDBRANCH  10  14
BRANCH   3  25
HETATM   25  O2  UNL     1      17.594  16.072   3.264  1.00  0.00    -0.360 OA
ATOM     26  H2  UNL     1      17.746  15.215   2.882  1.00  0.00     0.217 HD
ENDBRANCH   3  25
BRANCH   1  27
HETATM   27  O1  UNL     1      15.459  18.841   6.610  1.00  0.00    -0.349 OA
BRANCH  27  28
HETATM   28  C3  UNL     1      16.399  19.808   6.881  1.00  0.00     0.207 C 
BRANCH  28  29
HETATM   29  C2  UNL     1      16.217  21.120   6.177  1.00  0.00     0.203 C 
HETATM   30  C1  UNL     1      17.246  21.157   5.054  1.00  0.00     0.042 C 
BRANCH  29  31
HETATM   31  N1  UNL     1      14.866  21.209   5.633  1.00  0.00    -0.073 N 
ATOM     32  H13 UNL     1      14.363  20.326   5.717  1.00  0.00     0.274 HD
ATOM     33  H12 UNL     1      14.259  21.785   6.216  1.00  0.00     0.274 HD
ATOM     34  H11 UNL     1      14.893  21.542   4.669  1.00  0.00     0.274 HD
ENDBRANCH  29  31
ENDBRANCH  28  29
ENDBRANCH  27  28
ENDBRANCH   1  27
TORSDOF 7
ENDMDL
MODEL 4
REMARK VINA RESULT: -8.284262705      1.067      1.955
REMARK  7 active torsions:
REMARK  status: ('A' for Active; 'I' for Inactive)
REMARK    1  A    between atoms: C2_2  and  N1_3 
REMARK    2  A    between atoms: C2_2  and  C3_7 
REMARK    3  A    between atoms: C3_7  and  O1_8 
REMARK    4  A    between atoms: O1_8  and  C4_9 
REMARK    5  A    between atoms: C6_11  and  O2_12 
REMARK    6  A    between atoms: C12_20  and  C13_21 
REMARK    7  A    between atoms: C12_20  and  C14_23 
ROOT
HETATM    1  C4  UNL     1      16.638  10.137   5.106  1.00  0.00     0.074 A 
HETATM    2  C5  UNL     1      17.545  10.953   4.508  1.00  0.00     0.074 A 
HETATM    3  C6  UNL     1      17.213  12.095   3.862  1.00  0.00     0.077 A 
HETATM    4  C7  UNL     1      15.883  12.533   3.759  1.00  0.00     0.010 A 
HETATM    5  C8  UNL     1      14.963  11.735   4.350  1.00  0.00     0.080 A 
HETATM    6  C9  UNL     1      15.299  10.557   5.016  1.00  0.00     0.074 A 
HETATM    7  O3  UNL     1      13.578  11.922   4.406  1.00  0.00    -0.350 OA
HETATM    8  C10 UNL     1      12.753  12.508   3.380  1.00  0.00     0.176 C 
HETATM    9  C11 UNL     1      13.557  13.055   2.287  1.00  0.00     0.044 C 
HETATM   10  C12 UNL     1      14.448  14.256   2.573  1.00  0.00     0.024 C 
HETATM   11  C20 UNL     1      15.804  13.800   3.004  1.00  0.00     0.061 C 
ENDROOT
BRANCH  10  12
HETATM   12  C13 UNL     1      14.731  14.698   1.113  1.00  0.00     0.237 C 
HETATM   13  F1  UNL     1      15.597  15.723   1.007  1.00  0.00    -0.254 F 
ENDBRANCH  10  12
BRANCH  10  14
HETATM   14  C14 UNL     1      13.756  15.243   3.365  1.00  0.00     0.022 A 
HETATM   15  C15 UNL     1      14.271  15.779   4.534  1.00  0.00     0.098 A 
HETATM   16  N2  UNL     1      15.509  15.376   5.007  1.00  0.00    -0.098 NA
HETATM   17  C16 UNL     1      13.616  16.729   5.309  1.00  0.00     0.182 A 
HETATM   18  F2  UNL     1      14.205  17.198   6.449  1.00  0.00    -0.201 F 
HETATM   19  C17 UNL     1      12.379  17.194   4.932  1.00  0.00     0.198 A 
HETATM   20  F3  UNL     1      11.734  18.119   5.678  1.00  0.00    -0.199 F 
HETATM   21  C18 UNL     1      11.818  16.699   3.781  1.00  0.00     0.197 A 
HETATM   22  F4  UNL     1      10.602  17.154   3.404  1.00  0.00    -0.199 F 
HETATM   23  C19 UNL     1      12.513  15.736   3.020  1.00  0.00     0.167 A 
HETATM   24  F5  UNL     1      11.862  15.340   1.941  1.00  0.00    -0.202 F 
ENDBRANCH  10  14
BRANCH   3  25
HETATM   25  O2  UNL     1      18.200  12.900   3.260  1.00  0.00    -0.360 OA
ATOM     26  H2  UNL     1      18.075  13.258   2.389  1.00  0.00     0.217 HD
ENDBRANCH   3  25
BRANCH   1  27
HETATM   27  O1  UNL     1      16.907   8.969   5.769  1.00  0.00    -0.349 OA
BRANCH  27  28
HETATM   28  C3  UNL     1      16.692   7.682   5.336  1.00  0.00     0.207 C 
BRANCH  28  29
HETATM   29  C2  UNL     1      17.717   6.668   5.750  1.00  0.00     0.203 C 
HETATM   30  C1  UNL     1      17.449   6.352   7.217  1.00  0.00     0.042 C 
BRANCH  29  31
HETATM   31  N1  UNL     1      17.581   5.464   4.937  1.00  0.00    -0.073 N 
ATOM     32  H13 UNL     1      18.235   5.457   4.154  1.00  0.00     0.274 HD
ATOM     33  H12 UNL     1      17.923   4.636   5.425  1.00  0.00     0.274 HD
ATOM     34  H11 UNL     1      16.616   5.351   4.628  1.00  0.00     0.274 HD
ENDBRANCH  29  31
ENDBRANCH  28  29
ENDBRANCH  27  28
ENDBRANCH   1  27
TORSDOF 7
ENDMDL
MODEL 5
REMARK VINA RESULT: -8.225492322      3.919      7.336
REMARK  7 active torsions:
REMARK  status: ('A' for Active; 'I' for Inactive)
REMARK    1  A    between atoms: C2_2  and  N1_3 
REMARK    2  A    between atoms: C2_2  and  C3_7 
REMARK    3  A    between atoms: C3_7  and  O1_8 
REMARK    4  A    between atoms: O1_8  and  C4_9 
REMARK    5  A    between atoms: C6_11  and  O2_12 
REMARK    6  A    between atoms: C12_20  and  C13_21 
REMARK    7  A    between atoms: C12_20  and  C14_23 
ROOT
HETATM    1  C4  UNL     1      15.777  17.992   6.049  1.00  0.00     0.074 A 
HETATM    2  C5  UNL     1      16.678  17.737   5.065  1.00  0.00     0.074 A 
HETATM    3  C6  UNL     1      16.791  16.539   4.445  1.00  0.00     0.077 A 
HETATM    4  C7  UNL     1      15.970  15.450   4.775  1.00  0.00     0.010 A 
HETATM    5  C8  UNL     1      15.062  15.683   5.752  1.00  0.00     0.080 A 
HETATM    6  C9  UNL     1      14.943  16.915   6.396  1.00  0.00     0.074 A 
HETATM    7  O3  UNL     1      14.124  14.790   6.278  1.00  0.00    -0.350 OA
HETATM    8  C10 UNL     1      14.301  13.372   6.460  1.00  0.00     0.176 C 
HETATM    9  C11 UNL     1      15.558  12.905   5.873  1.00  0.00     0.044 C 
HETATM   10  C12 UNL     1      15.716  12.961   4.360  1.00  0.00     0.024 C 
HETATM   11  C20 UNL     1      16.305  14.271   3.951  1.00  0.00     0.061 C 
ENDROOT
BRANCH  10  12
HETATM   12  C13 UNL     1      16.941  12.021   4.212  1.00  0.00     0.237 C 
HETATM   13  F1  UNL     1      17.831  12.421   3.284  1.00  0.00    -0.254 F 
ENDBRANCH  10  12
BRANCH  10  14
HETATM   14  C14 UNL     1      14.526  12.488   3.693  1.00  0.00     0.022 A 
HETATM   15  C15 UNL     1      13.810  13.249   2.784  1.00  0.00     0.098 A 
HETATM   16  N2  UNL     1      14.216  14.536   2.468  1.00  0.00    -0.098 NA
HETATM   17  C16 UNL     1      12.662  12.810   2.135  1.00  0.00     0.182 A 
HETATM   18  F2  UNL     1      12.023  13.635   1.254  1.00  0.00    -0.201 F 
HETATM   19  C17 UNL     1      12.170  11.550   2.379  1.00  0.00     0.198 A 
HETATM   20  F3  UNL     1      11.054  11.112   1.753  1.00  0.00    -0.199 F 
HETATM   21  C18 UNL     1      12.839  10.750   3.272  1.00  0.00     0.197 A 
HETATM   22  F4  UNL     1      12.361   9.508   3.516  1.00  0.00    -0.199 F 
HETATM   23  C19 UNL     1      14.001  11.230   3.911  1.00  0.00     0.167 A 
HETATM   24  F5  UNL     1      14.545  10.364   4.748  1.00  0.00    -0.202 F 
ENDBRANCH  10  14
BRANCH   3  25
HETATM   25  O2  UNL     1      17.747  16.336   3.430  1.00  0.00    -0.360 OA
ATOM     26  H2  UNL     1      17.519  15.884   2.626  1.00  0.00     0.217 HD
ENDBRANCH   3  25
BRANCH   1  27
HETATM   27  O1  UNL     1      15.616  19.176   6.719  1.00  0.00    -0.349 OA
BRANCH  27  28
HETATM   28  C3  UNL     1      16.412  20.296   6.661  1.00  0.00     0.207 C 
BRANCH  28  29
HETATM   29  C2  UNL     1      15.906  21.420   5.806  1.00  0.00     0.203 C 
HETATM   30  C1  UNL     1      16.245  22.711   6.543  1.00  0.00     0.042 C 
BRANCH  29  31
HETATM   31  N1  UNL     1      16.564  21.390   4.504  1.00  0.00    -0.073 N 
ATOM     32  H13 UNL     1      17.432  20.854   4.529  1.00  0.00     0.274 HD
ATOM     33  H12 UNL     1      16.052  20.817   3.834  1.00  0.00     0.274 HD
ATOM     34  H11 UNL     1      16.713  22.338   4.159  1.00  0.00     0.274 HD
ENDBRANCH  29  31
ENDBRANCH  28  29
ENDBRANCH  27  28
ENDBRANCH   1  27
TORSDOF 7
ENDMDL
