MODEL 1
REMARK VINA RESULT: -3.800322379      0.000      0.000
REMARK  9 active torsions:
REMARK  status: ('A' for Active; 'I' for Inactive)
REMARK    1  A    between atoms: O1_2  and  C2_3 
REMARK    2  A    between atoms: C2_3  and  C3_5 
REMARK    3  A    between atoms: C3_5  and  C4_6 
REMARK    4  A    between atoms: C3_5  and  C5_9 
REMARK    5  A    between atoms: C4_6  and  O3_7 
REMARK    6  A    between atoms: C6_10  and  O4_11 
REMARK    7  A    between atoms: C10_17  and  O5_18 
REMARK    8  A    between atoms: C12_20  and  C13_21 
REMARK    9  A    between atoms: C15_28  and  O7_29 
ROOT
HETATM    1  C5  UNL     1       9.380  21.712  22.348  1.00  0.00     0.030 A 
HETATM    2  C6  UNL     1      10.368  20.742  22.062  1.00  0.00     0.102 A 
HETATM    3  C8  UNL     1      11.666  20.822  22.404  1.00  0.00     0.041 A 
HETATM    4  C9  UNL     1      12.697  19.810  22.095  1.00  0.00     0.071 C 
HETATM    5  N1  UNL     1      12.047  21.921  23.066  1.00  0.00    -0.338 N 
ATOM      6  H1  UNL     1      13.023  22.017  23.345  1.00  0.00     0.168 HD
HETATM    7  C10 UNL     1      11.169  22.915  23.377  1.00  0.00     0.156 A 
HETATM    8  C12 UNL     1       9.815  22.822  23.016  1.00  0.00     0.060 A 
ENDROOT
BRANCH   8   9
HETATM    9  C13 UNL     1       8.978  23.995  23.230  1.00  0.00     0.103 A 
HETATM   10  N2  UNL     1       8.812  25.059  22.391  1.00  0.00    -0.304 N 
HETATM   11  C14 UNL     1       7.900  25.944  22.845  1.00  0.00     0.326 A 
ATOM     12  H2  UNL     1       9.322  25.172  21.514  1.00  0.00     0.171 HD
HETATM   13  O6  UNL     1       7.528  27.014  22.318  1.00  0.00    -0.247 OA
HETATM   14  N3  UNL     1       7.468  25.436  24.013  1.00  0.00    -0.287 N 
HETATM   15  C15 UNL     1       8.091  24.268  24.281  1.00  0.00     0.172 A 
ATOM     16  H3  UNL     1       6.767  25.871  24.613  1.00  0.00     0.172 HD
BRANCH  15  17
HETATM   17  O7  UNL     1       7.865  23.515  25.397  1.00  0.00    -0.344 OA
ATOM     18  H7  UNL     1       8.187  23.672  26.277  1.00  0.00     0.219 HD
ENDBRANCH  15  17
ENDBRANCH   8   9
BRANCH   1  19
HETATM   19  C3  UNL     1       7.988  21.288  22.281  1.00  0.00     0.054 C 
BRANCH  19  20
HETATM   20  C2  UNL     1       7.304  21.759  21.040  1.00  0.00     0.292 C 
HETATM   21  O2  UNL     1       6.441  20.950  20.543  1.00  0.00    -0.260 OA
BRANCH  20  22
HETATM   22  O1  UNL     1       7.547  22.952  20.400  1.00  0.00    -0.323 OA
HETATM   23  C1  UNL     1       6.421  23.790  20.164  1.00  0.00     0.213 C 
ENDBRANCH  20  22
ENDBRANCH  19  20
BRANCH  19  24
HETATM   24  C4  UNL     1       7.174  20.792  23.364  1.00  0.00     0.210 C 
BRANCH  24  25
HETATM   25  O3  UNL     1       7.884  20.655  24.554  1.00  0.00    -0.396 OA
ATOM     26  H3  UNL     1       7.443  20.097  25.184  1.00  0.00     0.209 HD
ENDBRANCH  24  25
ENDBRANCH  19  24
ENDBRANCH   1  19
BRANCH   7  27
HETATM   27  O5  UNL     1      11.606  24.012  24.045  1.00  0.00    -0.340 OA
HETATM   28  C11 UNL     1      11.975  24.011  25.413  1.00  0.00     0.211 C 
ENDBRANCH   7  27
BRANCH   2  29
HETATM   29  O4  UNL     1       9.965  19.609  21.352  1.00  0.00    -0.353 OA
HETATM   30  C7  UNL     1       9.738  18.397  22.103  1.00  0.00     0.210 C 
ENDBRANCH   2  29
TORSDOF 9
ENDMDL
MODEL 2
REMARK VINA RESULT: -3.791189029      2.673      5.069
REMARK  9 active torsions:
REMARK  status: ('A' for Active; 'I' for Inactive)
REMARK    1  A    between atoms: O1_2  and  C2_3 
REMARK    2  A    between atoms: C2_3  and  C3_5 
REMARK    3  A    between atoms: C3_5  and  C4_6 
REMARK    4  A    between atoms: C3_5  and  C5_9 
REMARK    5  A    between atoms: C4_6  and  O3_7 
REMARK    6  A    between atoms: C6_10  and  O4_11 
REMARK    7  A    between atoms: C10_17  and  O5_18 
REMARK    8  A    between atoms: C12_20  and  C13_21 
REMARK    9  A    between atoms: C15_28  and  O7_29 
ROOT
HETATM    1  C5  UNL     1      10.850  19.049  23.082  1.00  0.00     0.030 A 
HETATM    2  C6  UNL     1      11.080  17.663  23.248  1.00  0.00     0.102 A 
HETATM    3  C8  UNL     1      10.179  16.689  23.032  1.00  0.00     0.041 A 
HETATM    4  C9  UNL     1      10.421  15.244  23.216  1.00  0.00     0.071 C 
HETATM    5  N1  UNL     1       8.962  17.074  22.632  1.00  0.00    -0.338 N 
ATOM      6  H1  UNL     1       8.251  16.363  22.455  1.00  0.00     0.168 HD
HETATM    7  C10 UNL     1       8.642  18.386  22.455  1.00  0.00     0.156 A 
HETATM    8  C12 UNL     1       9.591  19.397  22.683  1.00  0.00     0.060 A 
ENDROOT
BRANCH   8   9
HETATM    9  C13 UNL     1       9.128  20.777  22.638  1.00  0.00     0.103 A 
HETATM   10  N2  UNL     1       8.932  21.549  21.529  1.00  0.00    -0.304 N 
HETATM   11  C14 UNL     1       8.415  22.761  21.824  1.00  0.00     0.326 A 
ATOM     12  H2  UNL     1       9.152  21.243  20.581  1.00  0.00     0.171 HD
HETATM   13  O6  UNL     1       8.128  23.693  21.041  1.00  0.00    -0.247 OA
HETATM   14  N3  UNL     1       8.277  22.770  23.161  1.00  0.00    -0.287 N 
HETATM   15  C15 UNL     1       8.695  21.599  23.688  1.00  0.00     0.172 A 
ATOM     16  H3  UNL     1       7.908  23.551  23.703  1.00  0.00     0.172 HD
BRANCH  15  17
HETATM   17  O7  UNL     1       8.681  21.307  25.021  1.00  0.00    -0.344 OA
ATOM     18  H7  UNL     1       8.222  21.773  25.711  1.00  0.00     0.219 HD
ENDBRANCH  15  17
ENDBRANCH   8   9
BRANCH   1  19
HETATM   19  C3  UNL     1      12.018  19.909  22.955  1.00  0.00     0.054 C 
BRANCH  19  20
HETATM   20  C2  UNL     1      12.153  20.867  24.092  1.00  0.00     0.292 C 
HETATM   21  O2  UNL     1      11.637  20.484  25.203  1.00  0.00    -0.260 OA
BRANCH  20  22
HETATM   22  O1  UNL     1      12.751  22.104  24.024  1.00  0.00    -0.323 OA
HETATM   23  C1  UNL     1      11.938  23.180  23.567  1.00  0.00     0.213 C 
ENDBRANCH  20  22
ENDBRANCH  19  20
BRANCH  19  24
HETATM   24  C4  UNL     1      12.803  20.145  21.767  1.00  0.00     0.210 C 
BRANCH  24  25
HETATM   25  O3  UNL     1      14.128  20.468  22.051  1.00  0.00    -0.396 OA
ATOM     26  H3  UNL     1      14.704  20.352  21.304  1.00  0.00     0.209 HD
ENDBRANCH  24  25
ENDBRANCH  19  24
ENDBRANCH   1  19
BRANCH   7  27
HETATM   27  O5  UNL     1       7.392  18.724  22.053  1.00  0.00    -0.340 OA
HETATM   28  C11 UNL     1       6.291  17.833  22.057  1.00  0.00     0.211 C 
ENDBRANCH   7  27
BRANCH   2  29
HETATM   29  O4  UNL     1      12.348  17.274  23.687  1.00  0.00    -0.353 OA
HETATM   30  C7  UNL     1      12.554  17.156  25.111  1.00  0.00     0.210 C 
ENDBRANCH   2  29
TORSDOF 9
ENDMDL
MODEL 3
REMARK VINA RESULT: -3.666620327      2.384      5.034
REMARK  9 active torsions:
REMARK  status: ('A' for Active; 'I' for Inactive)
REMARK    1  A    between atoms: O1_2  and  C2_3 
REMARK    2  A    between atoms: C2_3  and  C3_5 
REMARK    3  A    between atoms: C3_5  and  C4_6 
REMARK    4  A    between atoms: C3_5  and  C5_9 
REMARK    5  A    between atoms: C4_6  and  O3_7 
REMARK    6  A    between atoms: C6_10  and  O4_11 
REMARK    7  A    between atoms: C10_17  and  O5_18 
REMARK    8  A    between atoms: C12_20  and  C13_21 
REMARK    9  A    between atoms: C15_28  and  O7_29 
ROOT
HETATM    1  C5  UNL     1       9.443  19.899  22.892  1.00  0.00     0.030 A 
HETATM    2  C6  UNL     1       8.243  19.369  22.361  1.00  0.00     0.102 A 
HETATM    3  C8  UNL     1       7.303  20.068  21.702  1.00  0.00     0.041 A 
HETATM    4  C9  UNL     1       6.048  19.512  21.158  1.00  0.00     0.071 C 
HETATM    5  N1  UNL     1       7.528  21.378  21.545  1.00  0.00    -0.338 N 
ATOM      6  H1  UNL     1       6.838  21.941  21.047  1.00  0.00     0.168 HD
HETATM    7  C10 UNL     1       8.649  21.980  22.030  1.00  0.00     0.156 A 
HETATM    8  C12 UNL     1       9.626  21.241  22.717  1.00  0.00     0.060 A 
ENDROOT
BRANCH   8   9
HETATM    9  C13 UNL     1      10.708  21.981  23.352  1.00  0.00     0.103 A 
HETATM   10  N2  UNL     1      11.986  22.134  22.896  1.00  0.00    -0.304 N 
HETATM   11  C14 UNL     1      12.723  22.951  23.677  1.00  0.00     0.326 A 
ATOM     12  H2  UNL     1      12.344  21.679  22.055  1.00  0.00     0.171 HD
HETATM   13  O6  UNL     1      13.919  23.287  23.536  1.00  0.00    -0.247 OA
HETATM   14  N3  UNL     1      11.896  23.334  24.666  1.00  0.00    -0.287 N 
HETATM   15  C15 UNL     1      10.678  22.773  24.508  1.00  0.00     0.172 A 
ATOM     16  H3  UNL     1      12.153  23.961  25.428  1.00  0.00     0.172 HD
BRANCH  15  17
HETATM   17  O7  UNL     1       9.626  22.970  25.355  1.00  0.00    -0.344 OA
ATOM     18  H7  UNL     1       9.060  22.311  25.740  1.00  0.00     0.219 HD
ENDBRANCH  15  17
ENDBRANCH   8   9
BRANCH   1  19
HETATM   19  C3  UNL     1      10.512  18.958  23.195  1.00  0.00     0.054 C 
BRANCH  19  20
HETATM   20  C2  UNL     1      10.680  18.731  24.661  1.00  0.00     0.292 C 
HETATM   21  O2  UNL     1       9.796  19.281  25.411  1.00  0.00    -0.260 OA
BRANCH  20  22
HETATM   22  O1  UNL     1      11.700  18.017  25.244  1.00  0.00    -0.323 OA
HETATM   23  C1  UNL     1      11.486  16.619  25.412  1.00  0.00     0.213 C 
ENDBRANCH  20  22
ENDBRANCH  19  20
BRANCH  19  24
HETATM   24  C4  UNL     1      11.566  18.520  22.311  1.00  0.00     0.210 C 
BRANCH  24  25
HETATM   25  O3  UNL     1      12.769  19.187  22.535  1.00  0.00    -0.396 OA
ATOM     26  H3  UNL     1      13.524  18.613  22.480  1.00  0.00     0.209 HD
ENDBRANCH  24  25
ENDBRANCH  19  24
ENDBRANCH   1  19
BRANCH   7  27
HETATM   27  O5  UNL     1       8.827  23.312  21.848  1.00  0.00    -0.340 OA
HETATM   28  C11 UNL     1       7.767  24.236  21.673  1.00  0.00     0.211 C 
ENDBRANCH   7  27
BRANCH   2  29
HETATM   29  O4  UNL     1       8.009  18.005  22.551  1.00  0.00    -0.353 OA
HETATM   30  C7  UNL     1       7.232  17.615  23.703  1.00  0.00     0.210 C 
ENDBRANCH   2  29
TORSDOF 9
ENDMDL
MODEL 4
REMARK VINA RESULT: -3.652435577      2.110      3.641
REMARK  9 active torsions:
REMARK  status: ('A' for Active; 'I' for Inactive)
REMARK    1  A    between atoms: O1_2  and  C2_3 
REMARK    2  A    between atoms: C2_3  and  C3_5 
REMARK    3  A    between atoms: C3_5  and  C4_6 
REMARK    4  A    between atoms: C3_5  and  C5_9 
REMARK    5  A    between atoms: C4_6  and  O3_7 
REMARK    6  A    between atoms: C6_10  and  O4_11 
REMARK    7  A    between atoms: C10_17  and  O5_18 
REMARK    8  A    between atoms: C12_20  and  C13_21 
REMARK    9  A    between atoms: C15_28  and  O7_29 
ROOT
HETATM    1  C5  UNL     1      10.933  19.936  23.309  1.00  0.00     0.030 A 
HETATM    2  C6  UNL     1      12.330  19.740  23.404  1.00  0.00     0.102 A 
HETATM    3  C8  UNL     1      13.256  20.713  23.447  1.00  0.00     0.041 A 
HETATM    4  C9  UNL     1      14.716  20.503  23.537  1.00  0.00     0.071 C 
HETATM    5  N1  UNL     1      12.808  21.973  23.388  1.00  0.00    -0.338 N 
ATOM      6  H1  UNL     1      13.480  22.740  23.421  1.00  0.00     0.168 HD
HETATM    7  C10 UNL     1      11.481  22.261  23.285  1.00  0.00     0.156 A 
HETATM    8  C12 UNL     1      10.521  21.237  23.241  1.00  0.00     0.060 A 
ENDROOT
BRANCH   8   9
HETATM    9  C13 UNL     1       9.143  21.616  22.958  1.00  0.00     0.103 A 
HETATM   10  N2  UNL     1       8.555  21.749  21.733  1.00  0.00    -0.304 N 
HETATM   11  C14 UNL     1       7.238  22.032  21.815  1.00  0.00     0.326 A 
ATOM     12  H2  UNL     1       9.058  21.646  20.851  1.00  0.00     0.171 HD
HETATM   13  O6  UNL     1       6.425  22.218  20.884  1.00  0.00    -0.247 OA
HETATM   14  N3  UNL     1       6.971  22.084  23.132  1.00  0.00    -0.287 N 
HETATM   15  C15 UNL     1       8.087  21.842  23.852  1.00  0.00     0.172 A 
ATOM     16  H3  UNL     1       6.053  22.279  23.532  1.00  0.00     0.172 HD
BRANCH  15  17
HETATM   17  O7  UNL     1       8.134  21.829  25.216  1.00  0.00    -0.344 OA
ATOM     18  H7  UNL     1       7.828  22.502  25.813  1.00  0.00     0.219 HD
ENDBRANCH  15  17
ENDBRANCH   8   9
BRANCH   1  19
HETATM   19  C3  UNL     1      10.075  18.822  23.687  1.00  0.00     0.054 C 
BRANCH  19  20
HETATM   20  C2  UNL     1       9.471  18.135  22.507  1.00  0.00     0.292 C 
HETATM   21  O2  UNL     1       8.281  18.503  22.200  1.00  0.00    -0.260 OA
BRANCH  20  22
HETATM   22  O1  UNL     1      10.076  17.146  21.767  1.00  0.00    -0.323 OA
HETATM   23  C1  UNL     1      10.432  15.957  22.463  1.00  0.00     0.213 C 
ENDBRANCH  20  22
ENDBRANCH  19  20
BRANCH  19  24
HETATM   24  C4  UNL     1       9.521  18.552  24.992  1.00  0.00     0.210 C 
BRANCH  24  25
HETATM   25  O3  UNL     1       8.139  18.721  25.037  1.00  0.00    -0.396 OA
ATOM     26  H3  UNL     1       7.844  19.134  25.841  1.00  0.00     0.209 HD
ENDBRANCH  24  25
ENDBRANCH  19  24
ENDBRANCH   1  19
BRANCH   7  27
HETATM   27  O5  UNL     1      11.078  23.555  23.223  1.00  0.00    -0.340 OA
HETATM   28  C11 UNL     1      10.924  24.391  24.357  1.00  0.00     0.211 C 
ENDBRANCH   7  27
BRANCH   2  29
HETATM   29  O4  UNL     1      12.789  18.421  23.443  1.00  0.00    -0.353 OA
HETATM   30  C7  UNL     1      13.093  17.858  24.737  1.00  0.00     0.210 C 
ENDBRANCH   2  29
TORSDOF 9
ENDMDL
MODEL 5
REMARK VINA RESULT: -3.632561492      4.295      6.746
REMARK  9 active torsions:
REMARK  status: ('A' for Active; 'I' for Inactive)
REMARK    1  A    between atoms: O1_2  and  C2_3 
REMARK    2  A    between atoms: C2_3  and  C3_5 
REMARK    3  A    between atoms: C3_5  and  C4_6 
REMARK    4  A    between atoms: C3_5  and  C5_9 
REMARK    5  A    between atoms: C4_6  and  O3_7 
REMARK    6  A    between atoms: C6_10  and  O4_11 
REMARK    7  A    between atoms: C10_17  and  O5_18 
REMARK    8  A    between atoms: C12_20  and  C13_21 
REMARK    9  A    between atoms: C15_28  and  O7_29 
ROOT
HETATM    1  C5  UNL     1      11.639  15.825  22.575  1.00  0.00     0.030 A 
HETATM    2  C6  UNL     1      12.367  14.782  23.193  1.00  0.00     0.102 A 
HETATM    3  C8  UNL     1      13.101  14.897  24.313  1.00  0.00     0.041 A 
HETATM    4  C9  UNL     1      13.867  13.807  24.950  1.00  0.00     0.071 C 
HETATM    5  N1  UNL     1      13.145  16.108  24.882  1.00  0.00    -0.338 N 
ATOM      6  H1  UNL     1      13.688  16.235  25.736  1.00  0.00     0.168 HD
HETATM    7  C10 UNL     1      12.484  17.176  24.354  1.00  0.00     0.156 A 
HETATM    8  C12 UNL     1      11.720  17.045  23.183  1.00  0.00     0.060 A 
ENDROOT
BRANCH   8   9
HETATM    9  C13 UNL     1      11.186  18.263  22.587  1.00  0.00     0.103 A 
HETATM   10  N2  UNL     1       9.873  18.596  22.420  1.00  0.00    -0.304 N 
HETATM   11  C14 UNL     1       9.711  19.836  21.911  1.00  0.00     0.326 A 
ATOM     12  H2  UNL     1       9.098  17.976  22.656  1.00  0.00     0.171 HD
HETATM   13  O6  UNL     1       8.645  20.429  21.638  1.00  0.00    -0.247 OA
HETATM   14  N3  UNL     1      10.957  20.313  21.743  1.00  0.00    -0.287 N 
HETATM   15  C15 UNL     1      11.871  19.400  22.135  1.00  0.00     0.172 A 
ATOM     16  H3  UNL     1      11.181  21.237  21.372  1.00  0.00     0.172 HD
BRANCH  15  17
HETATM   17  O7  UNL     1      13.221  19.592  22.083  1.00  0.00    -0.344 OA
ATOM     18  H7  UNL     1      13.862  19.382  22.752  1.00  0.00     0.219 HD
ENDBRANCH  15  17
ENDBRANCH   8   9
BRANCH   1  19
HETATM   19  C3  UNL     1      10.592  15.444  21.637  1.00  0.00     0.054 C 
BRANCH  19  20
HETATM   20  C2  UNL     1       9.316  15.073  22.318  1.00  0.00     0.292 C 
HETATM   21  O2  UNL     1       9.074  13.815  22.395  1.00  0.00    -0.260 OA
BRANCH  20  22
HETATM   22  O1  UNL     1       8.400  15.962  22.829  1.00  0.00    -0.323 OA
HETATM   23  C1  UNL     1       7.172  16.090  22.120  1.00  0.00     0.213 C 
ENDBRANCH  20  22
ENDBRANCH  19  20
BRANCH  19  24
HETATM   24  C4  UNL     1      10.753  15.086  20.248  1.00  0.00     0.210 C 
BRANCH  24  25
HETATM   25  O3  UNL     1      10.567  13.725  20.016  1.00  0.00    -0.396 OA
ATOM     26  H3  UNL     1      11.284  13.333  19.530  1.00  0.00     0.209 HD
ENDBRANCH  24  25
ENDBRANCH  19  24
ENDBRANCH   1  19
BRANCH   7  27
HETATM   27  O5  UNL     1      12.564  18.384  24.965  1.00  0.00    -0.340 OA
HETATM   28  C11 UNL     1      13.776  18.967  25.412  1.00  0.00     0.211 C 
ENDBRANCH   7  27
BRANCH   2  29
HETATM   29  O4  UNL     1      12.332  13.528  22.580  1.00  0.00    -0.353 OA
HETATM   30  C7  UNL     1      13.474  13.142  21.783  1.00  0.00     0.210 C 
ENDBRANCH   2  29
TORSDOF 9
ENDMDL
