MODEL 1
REMARK VINA RESULT: -7.296523602      0.000      0.000
REMARK  7 active torsions:
REMARK  status: ('A' for Active; 'I' for Inactive)
REMARK    1  A    between atoms: O1_2  and  C2_3 
REMARK    2  A    between atoms: C6_9  and  C7_10 
REMARK    3  A    between atoms: N2_11  and  N3_13 
REMARK    4  A    between atoms: N3_13  and  C8_15 
REMARK    5  A    between atoms: C9_18  and  N5_19 
REMARK    6  A    between atoms: N5_19  and  C10_21 
REMARK    7  A    between atoms: C13_27  and  N7_28 
ROOT
HETATM    1  C8  UNL     1      15.925  23.465  11.235  1.00  0.00     0.701 A 
HETATM    2  N4  UNL     1      16.328  23.519  12.530  1.00  0.00    -0.173 N 
ATOM      3  H4  UNL     1      17.296  23.775  12.725  1.00  0.00     0.186 HD
HETATM    4  C9  UNL     1      15.520  23.252  13.565  1.00  0.00     0.157 A 
HETATM    5  C13 UNL     1      14.218  22.907  13.254  1.00  0.00     0.215 A 
HETATM    6  C14 UNL     1      13.763  22.840  11.932  1.00  0.00     0.296 A 
HETATM    7  O4  UNL     1      12.560  22.519  11.705  1.00  0.00    -0.265 OA
HETATM    8  N8  UNL     1      14.652  23.127  10.979  1.00  0.00    -0.152 N 
ATOM      9  H8  UNL     1      14.349  23.087  10.006  1.00  0.00     0.187 HD
ENDROOT
BRANCH   1  10
HETATM   10  N3  UNL     1      16.778  23.740  10.304  1.00  0.00    -0.132 N 
ATOM     11  H3  UNL     1      17.039  23.011   9.639  1.00  0.00     0.205 HD
BRANCH  10  12
HETATM   12  N2  UNL     1      17.353  25.008  10.183  1.00  0.00    -0.297 N 
HETATM   13  C7  UNL     1      16.570  26.017  10.009  1.00  0.00     0.122 C 
ATOM     14  H2  UNL     1      18.364  25.131  10.231  1.00  0.00     0.186 HD
BRANCH  13  15
HETATM   15  C6  UNL     1      17.159  27.336   9.883  1.00  0.00     0.017 A 
HETATM   16  C2  UNL     1      18.011  27.596   8.836  1.00  0.00     0.095 A 
HETATM   17  C3  UNL     1      18.545  28.872   8.760  1.00  0.00     0.125 A 
HETATM   18  N1  UNL     1      18.250  29.840   9.676  1.00  0.00    -0.373 N 
HETATM   19  C4  UNL     1      17.423  29.589  10.691  1.00  0.00     0.088 A 
ATOM     20  H1  UNL     1      18.667  30.767   9.582  1.00  0.00     0.164 HD
HETATM   21  C5  UNL     1      16.867  28.315  10.799  1.00  0.00     0.032 A 
BRANCH  16  22
HETATM   22  O1  UNL     1      18.341  26.643   7.879  1.00  0.00    -0.354 OA
HETATM   23  C1  UNL     1      18.410  26.952   6.501  1.00  0.00     0.210 C 
ENDBRANCH  16  22
ENDBRANCH  13  15
ENDBRANCH  10  12
ENDBRANCH   1  10
BRANCH   4  24
HETATM   24  N5  UNL     1      15.899  23.284  14.919  1.00  0.00    -0.346 N 
ATOM     25  H5  UNL     1      15.846  24.164  15.432  1.00  0.00     0.163 HD
BRANCH  24  26
HETATM   26  C10 UNL     1      16.358  22.105  15.594  1.00  0.00     0.287 C 
HETATM   27  C11 UNL     1      15.661  21.671  16.834  1.00  0.00     0.082 C 
HETATM   28  C12 UNL     1      15.885  20.274  16.284  1.00  0.00     0.238 C 
HETATM   29  N6  UNL     1      15.953  20.855  14.961  1.00  0.00    -0.054 N 
ATOM     30  H62 UNL     1      15.152  20.821  14.330  1.00  0.00     0.279 HD
ATOM     31  H61 UNL     1      16.520  20.429  14.228  1.00  0.00     0.279 HD
ENDBRANCH  24  26
ENDBRANCH   4  24
BRANCH   5  32
HETATM   32  N7  UNL     1      13.322  22.616  14.300  1.00  0.00    -0.106 N 
HETATM   33  O2  UNL     1      12.736  21.532  14.326  1.00  0.00    -0.531 OA
HETATM   34  O3  UNL     1      13.104  23.532  15.282  1.00  0.00    -0.531 OA
ENDBRANCH   5  32
TORSDOF 7
ENDMDL
MODEL 2
REMARK VINA RESULT: -7.157768453      2.030      3.163
REMARK  7 active torsions:
REMARK  status: ('A' for Active; 'I' for Inactive)
REMARK    1  A    between atoms: O1_2  and  C2_3 
REMARK    2  A    between atoms: C6_9  and  C7_10 
REMARK    3  A    between atoms: N2_11  and  N3_13 
REMARK    4  A    between atoms: N3_13  and  C8_15 
REMARK    5  A    between atoms: C9_18  and  N5_19 
REMARK    6  A    between atoms: N5_19  and  C10_21 
REMARK    7  A    between atoms: C13_27  and  N7_28 
ROOT
HETATM    1  C8  UNL     1      16.674  25.423  10.031  1.00  0.00     0.701 A 
HETATM    2  N4  UNL     1      16.584  25.075  11.340  1.00  0.00    -0.173 N 
ATOM      3  H4  UNL     1      17.284  25.439  11.986  1.00  0.00     0.186 HD
HETATM    4  C9  UNL     1      15.624  24.276  11.825  1.00  0.00     0.157 A 
HETATM    5  C13 UNL     1      14.699  23.803  10.912  1.00  0.00     0.215 A 
HETATM    6  C14 UNL     1      14.757  24.138   9.555  1.00  0.00     0.296 A 
HETATM    7  O4  UNL     1      13.884  23.676   8.764  1.00  0.00    -0.265 OA
HETATM    8  N8  UNL     1      15.755  24.942   9.179  1.00  0.00    -0.152 N 
ATOM      9  H8  UNL     1      15.821  25.204   8.196  1.00  0.00     0.187 HD
ENDROOT
BRANCH   1  10
HETATM   10  N3  UNL     1      17.637  26.200   9.656  1.00  0.00    -0.132 N 
ATOM     11  H3  UNL     1      18.254  25.897   8.902  1.00  0.00     0.205 HD
BRANCH  10  12
HETATM   12  N2  UNL     1      17.854  27.443  10.255  1.00  0.00    -0.297 N 
HETATM   13  C7  UNL     1      17.903  28.485   9.498  1.00  0.00     0.122 C 
ATOM     14  H2  UNL     1      17.971  27.524  11.265  1.00  0.00     0.186 HD
BRANCH  13  15
HETATM   15  C6  UNL     1      18.129  29.778  10.113  1.00  0.00     0.017 A 
HETATM   16  C2  UNL     1      17.172  30.302  10.948  1.00  0.00     0.095 A 
HETATM   17  C3  UNL     1      17.436  31.540  11.511  1.00  0.00     0.125 A 
HETATM   18  N1  UNL     1      18.591  32.223  11.260  1.00  0.00    -0.373 N 
HETATM   19  C4  UNL     1      19.521  31.713  10.450  1.00  0.00     0.088 A 
ATOM     20  H1  UNL     1      18.745  33.132  11.696  1.00  0.00     0.164 HD
HETATM   21  C5  UNL     1      19.288  30.470   9.865  1.00  0.00     0.032 A 
BRANCH  16  22
HETATM   22  O1  UNL     1      15.980  29.646  11.235  1.00  0.00    -0.354 OA
HETATM   23  C1  UNL     1      14.956  30.245  12.004  1.00  0.00     0.210 C 
ENDBRANCH  16  22
ENDBRANCH  13  15
ENDBRANCH  10  12
ENDBRANCH   1  10
BRANCH   4  24
HETATM   24  N5  UNL     1      15.501  23.881  13.169  1.00  0.00    -0.346 N 
ATOM     25  H5  UNL     1      15.027  24.497  13.829  1.00  0.00     0.163 HD
BRANCH  24  26
HETATM   26  C10 UNL     1      16.028  22.630  13.631  1.00  0.00     0.287 C 
HETATM   27  C11 UNL     1      16.359  22.481  15.074  1.00  0.00     0.082 C 
HETATM   28  C12 UNL     1      15.804  21.079  14.895  1.00  0.00     0.238 C 
HETATM   29  N6  UNL     1      15.030  21.576  13.779  1.00  0.00    -0.054 N 
ATOM     30  H62 UNL     1      14.041  21.800  13.885  1.00  0.00     0.279 HD
ATOM     31  H61 UNL     1      14.787  20.970  12.996  1.00  0.00     0.279 HD
ENDBRANCH  24  26
ENDBRANCH   4  24
BRANCH   5  32
HETATM   32  N7  UNL     1      13.667  22.959  11.365  1.00  0.00    -0.106 N 
HETATM   33  O2  UNL     1      13.449  21.890  10.791  1.00  0.00    -0.531 OA
HETATM   34  O3  UNL     1      12.910  23.325  12.434  1.00  0.00    -0.531 OA
ENDBRANCH   5  32
TORSDOF 7
ENDMDL
MODEL 3
REMARK VINA RESULT: -6.981430116      2.541      4.407
REMARK  7 active torsions:
REMARK  status: ('A' for Active; 'I' for Inactive)
REMARK    1  A    between atoms: O1_2  and  C2_3 
REMARK    2  A    between atoms: C6_9  and  C7_10 
REMARK    3  A    between atoms: N2_11  and  N3_13 
REMARK    4  A    between atoms: N3_13  and  C8_15 
REMARK    5  A    between atoms: C9_18  and  N5_19 
REMARK    6  A    between atoms: N5_19  and  C10_21 
REMARK    7  A    between atoms: C13_27  and  N7_28 
ROOT
HETATM    1  C8  UNL     1      17.331  26.439   9.556  1.00  0.00     0.701 A 
HETATM    2  N4  UNL     1      17.249  25.480  10.512  1.00  0.00    -0.173 N 
ATOM      3  H4  UNL     1      17.853  25.560  11.330  1.00  0.00     0.186 HD
HETATM    4  C9  UNL     1      16.416  24.433  10.436  1.00  0.00     0.157 A 
HETATM    5  C13 UNL     1      15.619  24.364   9.309  1.00  0.00     0.215 A 
HETATM    6  C14 UNL     1      15.673  25.333   8.300  1.00  0.00     0.296 A 
HETATM    7  O4  UNL     1      14.920  25.219   7.289  1.00  0.00    -0.265 OA
HETATM    8  N8  UNL     1      16.538  26.334   8.478  1.00  0.00    -0.152 N 
ATOM      9  H8  UNL     1      16.598  27.055   7.760  1.00  0.00     0.187 HD
ENDROOT
BRANCH   1  10
HETATM   10  N3  UNL     1      18.166  27.414   9.718  1.00  0.00    -0.132 N 
ATOM     11  H3  UNL     1      19.110  27.326   9.342  1.00  0.00     0.205 HD
BRANCH  10  12
HETATM   12  N2  UNL     1      17.809  28.583  10.393  1.00  0.00    -0.297 N 
HETATM   13  C7  UNL     1      17.242  29.526   9.722  1.00  0.00     0.122 C 
ATOM     14  H2  UNL     1      17.992  28.688  11.391  1.00  0.00     0.186 HD
BRANCH  13  15
HETATM   15  C6  UNL     1      16.869  30.743  10.417  1.00  0.00     0.017 A 
HETATM   16  C2  UNL     1      17.845  31.502  11.016  1.00  0.00     0.095 A 
HETATM   17  C3  UNL     1      17.435  32.655  11.665  1.00  0.00     0.125 A 
HETATM   18  N1  UNL     1      16.125  33.036  11.717  1.00  0.00    -0.373 N 
HETATM   19  C4  UNL     1      15.178  32.300  11.134  1.00  0.00     0.088 A 
ATOM     20  H1  UNL     1      15.868  33.894  12.207  1.00  0.00     0.164 HD
HETATM   21  C5  UNL     1      15.554  31.133  10.472  1.00  0.00     0.032 A 
BRANCH  16  22
HETATM   22  O1  UNL     1      19.191  31.156  10.991  1.00  0.00    -0.354 OA
HETATM   23  C1  UNL     1      20.121  31.810  10.150  1.00  0.00     0.210 C 
ENDBRANCH  16  22
ENDBRANCH  13  15
ENDBRANCH  10  12
ENDBRANCH   1  10
BRANCH   4  24
HETATM   24  N5  UNL     1      16.308  23.411  11.397  1.00  0.00    -0.346 N 
ATOM     25  H5  UNL     1      16.708  22.495  11.198  1.00  0.00     0.163 HD
BRANCH  24  26
HETATM   26  C10 UNL     1      15.647  23.632  12.650  1.00  0.00     0.287 C 
HETATM   27  C11 UNL     1      14.371  22.918  12.923  1.00  0.00     0.082 C 
HETATM   28  C12 UNL     1      14.920  22.801  14.333  1.00  0.00     0.238 C 
HETATM   29  N6  UNL     1      16.250  22.930  13.778  1.00  0.00    -0.054 N 
ATOM     30  H62 UNL     1      16.840  22.112  13.633  1.00  0.00     0.279 HD
ATOM     31  H61 UNL     1      17.006  23.353  14.317  1.00  0.00     0.279 HD
ENDBRANCH  24  26
ENDBRANCH   4  24
BRANCH   5  32
HETATM   32  N7  UNL     1      14.724  23.286   9.173  1.00  0.00    -0.106 N 
HETATM   33  O2  UNL     1      13.601  23.349   9.681  1.00  0.00    -0.531 OA
HETATM   34  O3  UNL     1      15.098  22.175   8.483  1.00  0.00    -0.531 OA
ENDBRANCH   5  32
TORSDOF 7
ENDMDL
MODEL 4
REMARK VINA RESULT: -6.754170839      1.722      7.834
REMARK  7 active torsions:
REMARK  status: ('A' for Active; 'I' for Inactive)
REMARK    1  A    between atoms: O1_2  and  C2_3 
REMARK    2  A    between atoms: C6_9  and  C7_10 
REMARK    3  A    between atoms: N2_11  and  N3_13 
REMARK    4  A    between atoms: N3_13  and  C8_15 
REMARK    5  A    between atoms: C9_18  and  N5_19 
REMARK    6  A    between atoms: N5_19  and  C10_21 
REMARK    7  A    between atoms: C13_27  and  N7_28 
ROOT
HETATM    1  C8  UNL     1      16.802  24.766  10.125  1.00  0.00     0.701 A 
HETATM    2  N4  UNL     1      17.534  25.785  10.643  1.00  0.00    -0.173 N 
ATOM      3  H4  UNL     1      17.919  25.675  11.581  1.00  0.00     0.186 HD
HETATM    4  C9  UNL     1      17.776  26.927   9.985  1.00  0.00     0.157 A 
HETATM    5  C13 UNL     1      17.233  27.032   8.718  1.00  0.00     0.215 A 
HETATM    6  C14 UNL     1      16.472  26.005   8.148  1.00  0.00     0.296 A 
HETATM    7  O4  UNL     1      15.999  26.156   6.984  1.00  0.00    -0.265 OA
HETATM    8  N8  UNL     1      16.294  24.910   8.891  1.00  0.00    -0.152 N 
ATOM      9  H8  UNL     1      15.744  24.145   8.501  1.00  0.00     0.187 HD
ENDROOT
BRANCH   1  10
HETATM   10  N3  UNL     1      16.622  23.701  10.836  1.00  0.00    -0.132 N 
ATOM     11  H3  UNL     1      16.985  22.811  10.496  1.00  0.00     0.205 HD
BRANCH  10  12
HETATM   12  N2  UNL     1      15.944  23.738  12.057  1.00  0.00    -0.297 N 
HETATM   13  C7  UNL     1      16.085  22.742  12.862  1.00  0.00     0.122 C 
ATOM     14  H2  UNL     1      15.354  24.532  12.304  1.00  0.00     0.186 HD
BRANCH  13  15
HETATM   15  C6  UNL     1      15.385  22.773  14.132  1.00  0.00     0.017 A 
HETATM   16  C2  UNL     1      14.028  22.987  14.147  1.00  0.00     0.095 A 
HETATM   17  C3  UNL     1      13.407  23.006  15.385  1.00  0.00     0.125 A 
HETATM   18  N1  UNL     1      14.096  22.823  16.549  1.00  0.00    -0.373 N 
HETATM   19  C4  UNL     1      15.414  22.614  16.534  1.00  0.00     0.088 A 
ATOM     20  H1  UNL     1      13.599  22.845  17.439  1.00  0.00     0.164 HD
HETATM   21  C5  UNL     1      16.072  22.588  15.306  1.00  0.00     0.032 A 
BRANCH  16  22
HETATM   22  O1  UNL     1      13.283  23.179  12.989  1.00  0.00    -0.354 OA
HETATM   23  C1  UNL     1      12.858  22.100  12.180  1.00  0.00     0.210 C 
ENDBRANCH  16  22
ENDBRANCH  13  15
ENDBRANCH  10  12
ENDBRANCH   1  10
BRANCH   4  24
HETATM   24  N5  UNL     1      18.519  28.010  10.488  1.00  0.00    -0.346 N 
ATOM     25  H5  UNL     1      19.519  28.062  10.296  1.00  0.00     0.163 HD
BRANCH  24  26
HETATM   26  C10 UNL     1      17.898  29.043  11.265  1.00  0.00     0.287 C 
HETATM   27  C11 UNL     1      18.003  30.452  10.798  1.00  0.00     0.082 C 
HETATM   28  C12 UNL     1      16.570  30.557  11.289  1.00  0.00     0.238 C 
HETATM   29  N6  UNL     1      16.450  29.127  11.104  1.00  0.00    -0.054 N 
ATOM     30  H62 UNL     1      15.989  28.741  10.281  1.00  0.00     0.279 HD
ATOM     31  H61 UNL     1      15.824  28.572  11.688  1.00  0.00     0.279 HD
ENDBRANCH  24  26
ENDBRANCH   4  24
BRANCH   5  32
HETATM   32  N7  UNL     1      17.454  28.209   7.978  1.00  0.00    -0.106 N 
HETATM   33  O2  UNL     1      16.746  29.200   8.170  1.00  0.00    -0.531 OA
HETATM   34  O3  UNL     1      18.450  28.253   7.053  1.00  0.00    -0.531 OA
ENDBRANCH   5  32
TORSDOF 7
ENDMDL
MODEL 5
REMARK VINA RESULT: -6.676229714      2.463      4.422
REMARK  7 active torsions:
REMARK  status: ('A' for Active; 'I' for Inactive)
REMARK    1  A    between atoms: O1_2  and  C2_3 
REMARK    2  A    between atoms: C6_9  and  C7_10 
REMARK    3  A    between atoms: N2_11  and  N3_13 
REMARK    4  A    between atoms: N3_13  and  C8_15 
REMARK    5  A    between atoms: C9_18  and  N5_19 
REMARK    6  A    between atoms: N5_19  and  C10_21 
REMARK    7  A    between atoms: C13_27  and  N7_28 
ROOT
HETATM    1  C8  UNL     1      17.366  26.350   9.488  1.00  0.00     0.701 A 
HETATM    2  N4  UNL     1      17.328  25.400  10.457  1.00  0.00    -0.173 N 
ATOM      3  H4  UNL     1      17.999  25.463  11.222  1.00  0.00     0.186 HD
HETATM    4  C9  UNL     1      16.454  24.384  10.459  1.00  0.00     0.157 A 
HETATM    5  C13 UNL     1      15.565  24.338   9.401  1.00  0.00     0.215 A 
HETATM    6  C14 UNL     1      15.571  25.297   8.382  1.00  0.00     0.296 A 
HETATM    7  O4  UNL     1      14.734  25.205   7.438  1.00  0.00    -0.265 OA
HETATM    8  N8  UNL     1      16.483  26.267   8.480  1.00  0.00    -0.152 N 
ATOM      9  H8  UNL     1      16.511  26.981   7.753  1.00  0.00     0.187 HD
ENDROOT
BRANCH   1  10
HETATM   10  N3  UNL     1      18.245  27.294   9.573  1.00  0.00    -0.132 N 
ATOM     11  H3  UNL     1      19.122  27.203   9.059  1.00  0.00     0.205 HD
BRANCH  10  12
HETATM   12  N2  UNL     1      18.028  28.435  10.348  1.00  0.00    -0.297 N 
HETATM   13  C7  UNL     1      18.101  29.586   9.773  1.00  0.00     0.122 C 
ATOM     14  H2  UNL     1      17.816  28.359  11.343  1.00  0.00     0.186 HD
BRANCH  13  15
HETATM   15  C6  UNL     1      17.876  30.775  10.573  1.00  0.00     0.017 A 
HETATM   16  C2  UNL     1      16.750  30.857  11.356  1.00  0.00     0.095 A 
HETATM   17  C3  UNL     1      16.583  32.013  12.101  1.00  0.00     0.125 A 
HETATM   18  N1  UNL     1      17.487  33.035  12.071  1.00  0.00    -0.373 N 
HETATM   19  C4  UNL     1      18.581  32.955  11.312  1.00  0.00     0.088 A 
ATOM     20  H1  UNL     1      17.324  33.869  12.636  1.00  0.00     0.164 HD
HETATM   21  C5  UNL     1      18.782  31.806  10.549  1.00  0.00     0.032 A 
BRANCH  16  22
HETATM   22  O1  UNL     1      15.801  29.843  11.418  1.00  0.00    -0.354 OA
HETATM   23  C1  UNL     1      14.539  30.029  12.029  1.00  0.00     0.210 C 
ENDBRANCH  16  22
ENDBRANCH  13  15
ENDBRANCH  10  12
ENDBRANCH   1  10
BRANCH   4  24
HETATM   24  N5  UNL     1      16.388  23.373  11.434  1.00  0.00    -0.346 N 
ATOM     25  H5  UNL     1      16.767  22.450  11.223  1.00  0.00     0.163 HD
BRANCH  24  26
HETATM   26  C10 UNL     1      15.800  23.614  12.720  1.00  0.00     0.287 C 
HETATM   27  C11 UNL     1      14.540  22.907  13.074  1.00  0.00     0.082 C 
HETATM   28  C12 UNL     1      15.168  22.808  14.453  1.00  0.00     0.238 C 
HETATM   29  N6  UNL     1      16.464  22.926  13.822  1.00  0.00    -0.054 N 
ATOM     30  H62 UNL     1      17.043  22.104  13.655  1.00  0.00     0.279 HD
ATOM     31  H61 UNL     1      17.250  23.354  14.311  1.00  0.00     0.279 HD
ENDBRANCH  24  26
ENDBRANCH   4  24
BRANCH   5  32
HETATM   32  N7  UNL     1      14.623  23.292   9.349  1.00  0.00    -0.106 N 
HETATM   33  O2  UNL     1      13.558  23.391   9.963  1.00  0.00    -0.531 OA
HETATM   34  O3  UNL     1      14.889  22.174   8.622  1.00  0.00    -0.531 OA
ENDBRANCH   5  32
TORSDOF 7
ENDMDL
