MODEL 1
REMARK VINA RESULT: -4.706295750      0.000      0.000
REMARK  1 active torsions:
REMARK  status: ('A' for Active; 'I' for Inactive)
REMARK    1  A    between atoms: N1_2  and  C4_6 
ROOT
HETATM    1  C1  UNL     1      -1.477   4.288  83.534  1.00  0.00     0.292 C 
HETATM    2  N1  UNL     1      -1.407   4.881  84.881  1.00  0.00     0.017 N 
HETATM    3  C2  UNL     1      -2.771   5.020  85.306  1.00  0.00     0.292 C 
HETATM    4  C3  UNL     1      -0.827   3.874  85.690  1.00  0.00     0.283 C 
HETATM    5  N2  UNL     1      -0.367   3.035  86.349  1.00  0.00    -0.165 NA
ENDROOT
BRANCH   2   6
HETATM    6  C4  UNL     1      -0.631   6.058  84.877  1.00  0.00     0.210 C 
HETATM    7  C5  UNL     1      -1.442   7.342  84.802  1.00  0.00     0.062 C 
HETATM    8  C6  UNL     1      -1.821   7.677  83.377  1.00  0.00     0.234 C 
HETATM    9  N3  UNL     1      -0.605   8.064  82.702  1.00  0.00    -0.075 N 
HETATM   10  C7  UNL     1       0.585   7.568  83.314  1.00  0.00     0.234 C 
ATOM     11  H32 UNL     1      -0.641   7.795  81.719  1.00  0.00     0.277 HD
ATOM     12  H31 UNL     1      -0.560   9.079  82.602  1.00  0.00     0.277 HD
HETATM   13  C8  UNL     1       0.433   6.138  83.825  1.00  0.00     0.062 C 
ENDBRANCH   2   6
TORSDOF 1
ENDMDL
MODEL 2
REMARK VINA RESULT: -4.567548350      2.058      3.437
REMARK  1 active torsions:
REMARK  status: ('A' for Active; 'I' for Inactive)
REMARK    1  A    between atoms: N1_2  and  C4_6 
ROOT
HETATM    1  C1  UNL     1      -2.364   4.624  84.251  1.00  0.00     0.292 C 
HETATM    2  N1  UNL     1      -0.923   4.343  84.379  1.00  0.00     0.017 N 
HETATM    3  C2  UNL     1      -0.314   5.611  84.660  1.00  0.00     0.292 C 
HETATM    4  C3  UNL     1      -0.811   3.565  85.557  1.00  0.00     0.283 C 
HETATM    5  N2  UNL     1      -0.725   2.942  86.533  1.00  0.00    -0.165 NA
ENDROOT
BRANCH   2   6
HETATM    6  C4  UNL     1      -0.440   3.653  83.250  1.00  0.00     0.210 C 
HETATM    7  C5  UNL     1      -0.322   4.508  81.997  1.00  0.00     0.062 C 
HETATM    8  C6  UNL     1      -1.644   4.614  81.271  1.00  0.00     0.234 C 
HETATM    9  N3  UNL     1      -1.917   3.313  80.708  1.00  0.00    -0.075 N 
HETATM   10  C7  UNL     1      -1.234   2.242  81.357  1.00  0.00     0.234 C 
ATOM     11  H32 UNL     1      -2.921   3.136  80.688  1.00  0.00     0.277 HD
ATOM     12  H31 UNL     1      -1.720   3.309  79.707  1.00  0.00     0.277 HD
HETATM   13  C8  UNL     1      -1.183   2.407  82.874  1.00  0.00     0.062 C 
ENDBRANCH   2   6
TORSDOF 1
ENDMDL
MODEL 3
REMARK VINA RESULT: -4.539485632      2.259      4.108
REMARK  1 active torsions:
REMARK  status: ('A' for Active; 'I' for Inactive)
REMARK    1  A    between atoms: N1_2  and  C4_6 
ROOT
HETATM    1  C1  UNL     1      -1.660   2.675  81.018  1.00  0.00     0.292 C 
HETATM    2  N1  UNL     1      -0.927   3.771  81.675  1.00  0.00     0.017 N 
HETATM    3  C2  UNL     1       0.437   3.330  81.742  1.00  0.00     0.292 C 
HETATM    4  C3  UNL     1      -0.967   4.839  80.746  1.00  0.00     0.283 C 
HETATM    5  N2  UNL     1      -0.989   5.704  79.971  1.00  0.00    -0.165 NA
ENDROOT
BRANCH   2   6
HETATM    6  C4  UNL     1      -1.531   4.122  82.899  1.00  0.00     0.210 C 
HETATM    7  C5  UNL     1      -1.349   5.580  83.293  1.00  0.00     0.062 C 
HETATM    8  C6  UNL     1      -0.017   5.809  83.971  1.00  0.00     0.234 C 
HETATM    9  N3  UNL     1      -0.091   5.169  85.263  1.00  0.00    -0.075 N 
HETATM   10  C7  UNL     1      -1.074   4.138  85.347  1.00  0.00     0.234 C 
ATOM     11  H32 UNL     1       0.824   4.813  85.538  1.00  0.00     0.277 HD
ATOM     12  H31 UNL     1      -0.236   5.862  85.997  1.00  0.00     0.277 HD
HETATM   13  C8  UNL     1      -1.147   3.286  84.083  1.00  0.00     0.062 C 
ENDBRANCH   2   6
TORSDOF 1
ENDMDL
MODEL 4
REMARK VINA RESULT: -4.499870560      3.417      4.062
REMARK  1 active torsions:
REMARK  status: ('A' for Active; 'I' for Inactive)
REMARK    1  A    between atoms: N1_2  and  C4_6 
ROOT
HETATM    1  C1  UNL     1      -0.082   0.955  81.240  1.00  0.00     0.292 C 
HETATM    2  N1  UNL     1      -0.559   2.254  81.744  1.00  0.00     0.017 N 
HETATM    3  C2  UNL     1      -1.709   2.572  80.946  1.00  0.00     0.292 C 
HETATM    4  C3  UNL     1      -1.032   1.983  83.051  1.00  0.00     0.283 C 
HETATM    5  N2  UNL     1      -1.433   1.748  84.116  1.00  0.00    -0.165 NA
ENDROOT
BRANCH   2   6
HETATM    6  C4  UNL     1       0.479   3.207  81.752  1.00  0.00     0.210 C 
HETATM    7  C5  UNL     1       0.039   4.610  82.142  1.00  0.00     0.062 C 
HETATM    8  C6  UNL     1      -0.537   5.359  80.962  1.00  0.00     0.234 C 
HETATM    9  N3  UNL     1       0.561   5.640  80.069  1.00  0.00    -0.075 N 
HETATM   10  C7  UNL     1       1.681   4.770  80.231  1.00  0.00     0.234 C 
ATOM     11  H32 UNL     1       0.244   5.636  79.100  1.00  0.00     0.277 HD
ATOM     12  H31 UNL     1       0.850   6.615  80.153  1.00  0.00     0.277 HD
HETATM   13  C8  UNL     1       1.273   3.322  80.485  1.00  0.00     0.062 C 
ENDBRANCH   2   6
TORSDOF 1
ENDMDL
MODEL 5
REMARK VINA RESULT: -4.446964696      2.297      3.590
REMARK  1 active torsions:
REMARK  status: ('A' for Active; 'I' for Inactive)
REMARK    1  A    between atoms: N1_2  and  C4_6 
ROOT
HETATM    1  C1  UNL     1      -1.139   5.433  80.942  1.00  0.00     0.292 C 
HETATM    2  N1  UNL     1      -1.142   4.212  81.767  1.00  0.00     0.017 N 
HETATM    3  C2  UNL     1      -1.889   3.246  81.013  1.00  0.00     0.292 C 
HETATM    4  C3  UNL     1       0.204   3.776  81.771  1.00  0.00     0.283 C 
HETATM    5  N2  UNL     1       1.309   3.416  81.755  1.00  0.00    -0.165 NA
ENDROOT
BRANCH   2   6
HETATM    6  C4  UNL     1      -1.607   4.483  83.069  1.00  0.00     0.210 C 
HETATM    7  C5  UNL     1      -1.295   5.887  83.567  1.00  0.00     0.062 C 
HETATM    8  C6  UNL     1       0.106   5.977  84.130  1.00  0.00     0.234 C 
HETATM    9  N3  UNL     1       0.109   5.226  85.363  1.00  0.00    -0.075 N 
HETATM   10  C7  UNL     1      -0.927   4.250  85.454  1.00  0.00     0.234 C 
ATOM     11  H32 UNL     1       1.020   4.795  85.516  1.00  0.00     0.277 HD
ATOM     12  H31 UNL     1       0.078   5.857  86.164  1.00  0.00     0.277 HD
HETATM   13  C8  UNL     1      -1.171   3.523  84.134  1.00  0.00     0.062 C 
ENDBRANCH   2   6
TORSDOF 1
ENDMDL
