MODEL 1
REMARK VINA RESULT: -4.880194561      0.000      0.000
REMARK  1 active torsions:
REMARK  status: ('A' for Active; 'I' for Inactive)
REMARK    1  A    between atoms: C2_2  and  N1_5 
ROOT
HETATM    1  N1  UNL     1      -1.393   3.923  83.557  1.00  0.00    -0.397 N 
HETATM    2  C5  UNL     1      -1.105   2.543  83.496  1.00  0.00     0.151 C 
HETATM    3  C6  UNL     1      -0.500   2.365  82.120  1.00  0.00     0.205 C 
HETATM    4  C7  UNL     1       0.195   3.727  81.956  1.00  0.00     0.061 C 
HETATM    5  C8  UNL     1      -1.070   4.526  82.329  1.00  0.00     0.107 C 
HETATM    6  C9  UNL     1      -2.019   3.906  81.291  1.00  0.00     0.257 C 
HETATM    7  N2  UNL     1      -1.570   2.533  81.144  1.00  0.00    -0.067 N 
ATOM      8  H21 UNL     1      -2.318   1.845  81.233  1.00  0.00     0.277 HD
ATOM      9  H22 UNL     1      -1.297   2.291  80.191  1.00  0.00     0.277 HD
ENDROOT
BRANCH   1  10
HETATM   10  C2  UNL     1      -1.267   4.602  84.759  1.00  0.00     0.017 C 
HETATM   11  C1  UNL     1      -0.401   5.852  84.566  1.00  0.00     0.037 C 
HETATM   12  C3  UNL     1      -2.655   5.171  85.111  1.00  0.00     0.037 C 
HETATM   13  C4  UNL     1      -0.772   3.851  85.940  1.00  0.00     0.037 C 
ENDBRANCH   1  10
TORSDOF 1
ENDMDL
MODEL 2
REMARK VINA RESULT: -4.867384051      0.243      1.295
REMARK  1 active torsions:
REMARK  status: ('A' for Active; 'I' for Inactive)
REMARK    1  A    between atoms: C2_2  and  N1_5 
ROOT
HETATM    1  N1  UNL     1      -1.500   4.140  83.626  1.00  0.00    -0.397 N 
HETATM    2  C5  UNL     1      -1.282   2.746  83.690  1.00  0.00     0.151 C 
HETATM    3  C6  UNL     1      -0.630   2.428  82.361  1.00  0.00     0.205 C 
HETATM    4  C7  UNL     1       0.140   3.737  82.121  1.00  0.00     0.061 C 
HETATM    5  C8  UNL     1      -1.097   4.623  82.371  1.00  0.00     0.107 C 
HETATM    6  C9  UNL     1      -2.032   3.966  81.344  1.00  0.00     0.257 C 
HETATM    7  N2  UNL     1      -1.649   2.566  81.327  1.00  0.00    -0.067 N 
ATOM      8  H21 UNL     1      -2.434   1.924  81.437  1.00  0.00     0.277 HD
ATOM      9  H22 UNL     1      -1.350   2.234  80.410  1.00  0.00     0.277 HD
ENDROOT
BRANCH   1  10
HETATM   10  C2  UNL     1      -1.390   4.908  84.775  1.00  0.00     0.017 C 
HETATM   11  C1  UNL     1      -2.780   5.354  85.242  1.00  0.00     0.037 C 
HETATM   12  C3  UNL     1      -0.907   3.977  85.903  1.00  0.00     0.037 C 
HETATM   13  C4  UNL     1      -0.489   6.089  84.745  1.00  0.00     0.037 C 
ENDBRANCH   1  10
TORSDOF 1
ENDMDL
MODEL 3
REMARK VINA RESULT: -4.832614463      2.314      3.717
REMARK  1 active torsions:
REMARK  status: ('A' for Active; 'I' for Inactive)
REMARK    1  A    between atoms: C2_2  and  N1_5 
ROOT
HETATM    1  N1  UNL     1      -2.277   4.267  86.306  1.00  0.00    -0.397 N 
HETATM    2  C5  UNL     1      -2.963   5.008  85.319  1.00  0.00     0.151 C 
HETATM    3  C6  UNL     1      -2.057   4.916  84.110  1.00  0.00     0.205 C 
HETATM    4  C7  UNL     1      -1.453   3.519  84.335  1.00  0.00     0.061 C 
HETATM    5  C8  UNL     1      -1.048   3.824  85.792  1.00  0.00     0.107 C 
HETATM    6  C9  UNL     1      -0.223   5.091  85.515  1.00  0.00     0.257 C 
HETATM    7  N2  UNL     1      -0.875   5.725  84.383  1.00  0.00    -0.067 N 
ATOM      8  H21 UNL     1      -1.080   6.713  84.529  1.00  0.00     0.277 HD
ATOM      9  H22 UNL     1      -0.266   5.846  83.574  1.00  0.00     0.277 HD
ENDROOT
BRANCH   1  10
HETATM   10  C2  UNL     1      -2.993   3.524  87.232  1.00  0.00     0.017 C 
HETATM   11  C1  UNL     1      -3.106   4.298  88.550  1.00  0.00     0.037 C 
HETATM   12  C3  UNL     1      -4.447   3.444  86.730  1.00  0.00     0.037 C 
HETATM   13  C4  UNL     1      -2.538   2.140  87.523  1.00  0.00     0.037 C 
ENDBRANCH   1  10
TORSDOF 1
ENDMDL
MODEL 4
REMARK VINA RESULT: -4.729596392      0.185      1.283
REMARK  1 active torsions:
REMARK  status: ('A' for Active; 'I' for Inactive)
REMARK    1  A    between atoms: C2_2  and  N1_5 
ROOT
HETATM    1  N1  UNL     1      -1.498   4.055  83.565  1.00  0.00    -0.397 N 
HETATM    2  C5  UNL     1      -1.086   2.704  83.573  1.00  0.00     0.151 C 
HETATM    3  C6  UNL     1      -0.422   2.526  82.224  1.00  0.00     0.205 C 
HETATM    4  C7  UNL     1       0.154   3.938  82.021  1.00  0.00     0.061 C 
HETATM    5  C8  UNL     1      -1.190   4.633  82.322  1.00  0.00     0.107 C 
HETATM    6  C9  UNL     1      -2.044   3.889  81.285  1.00  0.00     0.257 C 
HETATM    7  N2  UNL     1      -1.470   2.557  81.210  1.00  0.00    -0.067 N 
ATOM      8  H21 UNL     1      -2.156   1.808  81.307  1.00  0.00     0.277 HD
ATOM      9  H22 UNL     1      -1.146   2.302  80.277  1.00  0.00     0.277 HD
ENDROOT
BRANCH   1  10
HETATM   10  C2  UNL     1      -1.473   4.790  84.739  1.00  0.00     0.017 C 
HETATM   11  C1  UNL     1      -0.837   3.962  85.862  1.00  0.00     0.037 C 
HETATM   12  C3  UNL     1      -0.479   5.949  84.533  1.00  0.00     0.037 C 
HETATM   13  C4  UNL     1      -2.748   5.370  85.231  1.00  0.00     0.037 C 
ENDBRANCH   1  10
TORSDOF 1
ENDMDL
MODEL 5
REMARK VINA RESULT: -4.675145491      1.946      3.507
REMARK  1 active torsions:
REMARK  status: ('A' for Active; 'I' for Inactive)
REMARK    1  A    between atoms: C2_2  and  N1_5 
ROOT
HETATM    1  N1  UNL     1      -2.392   4.238  85.868  1.00  0.00    -0.397 N 
HETATM    2  C5  UNL     1      -1.031   3.996  86.153  1.00  0.00     0.151 C 
HETATM    3  C6  UNL     1      -0.298   4.857  85.146  1.00  0.00     0.205 C 
HETATM    4  C7  UNL     1      -1.291   6.024  85.019  1.00  0.00     0.061 C 
HETATM    5  C8  UNL     1      -2.496   5.097  84.761  1.00  0.00     0.107 C 
HETATM    6  C9  UNL     1      -1.909   4.324  83.569  1.00  0.00     0.257 C 
HETATM    7  N2  UNL     1      -0.483   4.252  83.833  1.00  0.00    -0.067 N 
ATOM      8  H21 UNL     1      -0.099   3.310  83.758  1.00  0.00     0.277 HD
ATOM      9  H22 UNL     1       0.091   4.673  83.103  1.00  0.00     0.277 HD
ENDROOT
BRANCH   1  10
HETATM   10  C2  UNL     1      -3.320   4.260  86.898  1.00  0.00     0.017 C 
HETATM   11  C1  UNL     1      -4.415   3.219  86.638  1.00  0.00     0.037 C 
HETATM   12  C3  UNL     1      -2.612   3.737  88.162  1.00  0.00     0.037 C 
HETATM   13  C4  UNL     1      -3.959   5.556  87.240  1.00  0.00     0.037 C 
ENDBRANCH   1  10
TORSDOF 1
ENDMDL
