MODEL 1
REMARK VINA RESULT: -4.760375323      0.000      0.000
REMARK  3 active torsions:
REMARK  status: ('A' for Active; 'I' for Inactive)
REMARK    1  A    between atoms: N1_2  and  C3_4 
REMARK    2  A    between atoms: C3_4  and  C4_5 
REMARK    3  A    between atoms: C5_6  and  C6_7 
ROOT
HETATM    1  C6  UNL     1      -1.839   4.047  85.938  1.00  0.00     0.092 C 
HETATM    2  C7  UNL     1      -2.417   2.868  86.685  1.00  0.00     0.046 C 
HETATM    3  C8  UNL     1      -3.487   3.486  87.520  1.00  0.00     0.233 C 
HETATM    4  N2  UNL     1      -3.744   4.802  87.016  1.00  0.00    -0.074 N 
ATOM      5  H21 UNL     1      -3.500   5.539  87.678  1.00  0.00     0.277 HD
ATOM      6  H22 UNL     1      -4.739   5.016  86.944  1.00  0.00     0.277 HD
HETATM    7  C9  UNL     1      -3.046   4.919  85.754  1.00  0.00     0.249 C 
ENDROOT
BRANCH   1   8
HETATM    8  C5  UNL     1      -1.313   3.620  84.613  1.00  0.00    -0.098 C 
HETATM    9  C4  UNL     1      -0.895   3.294  83.529  1.00  0.00    -0.076 C 
BRANCH   9  10
HETATM   10  C3  UNL     1      -0.391   2.920  82.195  1.00  0.00     0.364 C 
BRANCH  10  11
HETATM   11  N1  UNL     1      -1.220   1.832  81.737  1.00  0.00     0.090 N 
HETATM   12  C1  UNL     1      -0.558   0.571  81.718  1.00  0.00     0.310 C 
HETATM   13  C2  UNL     1      -1.699   2.152  80.419  1.00  0.00     0.310 C 
ENDBRANCH  10  11
ENDBRANCH   9  10
ENDBRANCH   1   8
TORSDOF 3
ENDMDL
MODEL 2
REMARK VINA RESULT: -4.728862682      1.254      5.709
REMARK  3 active torsions:
REMARK  status: ('A' for Active; 'I' for Inactive)
REMARK    1  A    between atoms: N1_2  and  C3_4 
REMARK    2  A    between atoms: C3_4  and  C4_5 
REMARK    3  A    between atoms: C5_6  and  C6_7 
ROOT
HETATM    1  C6  UNL     1      -1.003   2.823  82.124  1.00  0.00     0.092 C 
HETATM    2  C7  UNL     1      -0.901   1.326  81.954  1.00  0.00     0.046 C 
HETATM    3  C8  UNL     1      -0.047   1.178  80.741  1.00  0.00     0.233 C 
HETATM    4  N2  UNL     1       0.581   2.438  80.480  1.00  0.00    -0.074 N 
ATOM      5  H21 UNL     1       0.281   2.862  79.602  1.00  0.00     0.277 HD
ATOM      6  H22 UNL     1       1.571   2.352  80.251  1.00  0.00     0.277 HD
HETATM    7  C9  UNL     1       0.336   3.284  81.630  1.00  0.00     0.249 C 
ENDROOT
BRANCH   1   8
HETATM    8  C5  UNL     1      -1.165   3.178  83.560  1.00  0.00    -0.098 C 
HETATM    9  C4  UNL     1      -1.287   3.444  84.731  1.00  0.00    -0.076 C 
BRANCH   9  10
HETATM   10  C3  UNL     1      -1.424   3.748  86.167  1.00  0.00     0.364 C 
BRANCH  10  11
HETATM   11  N1  UNL     1      -2.798   3.474  86.511  1.00  0.00     0.090 N 
HETATM   12  C1  UNL     1      -3.556   4.638  86.827  1.00  0.00     0.310 C 
HETATM   13  C2  UNL     1      -2.813   2.566  87.627  1.00  0.00     0.310 C 
ENDBRANCH  10  11
ENDBRANCH   9  10
ENDBRANCH   1   8
TORSDOF 3
ENDMDL
MODEL 3
REMARK VINA RESULT: -4.658005020      0.921      5.624
REMARK  3 active torsions:
REMARK  status: ('A' for Active; 'I' for Inactive)
REMARK    1  A    between atoms: N1_2  and  C3_4 
REMARK    2  A    between atoms: C3_4  and  C4_5 
REMARK    3  A    between atoms: C5_6  and  C6_7 
ROOT
HETATM    1  C6  UNL     1      -0.723   2.824  82.601  1.00  0.00     0.092 C 
HETATM    2  C7  UNL     1      -1.725   3.372  81.613  1.00  0.00     0.046 C 
HETATM    3  C8  UNL     1      -1.634   2.417  80.472  1.00  0.00     0.233 C 
HETATM    4  N2  UNL     1      -0.944   1.246  80.922  1.00  0.00    -0.074 N 
ATOM      5  H21 UNL     1      -0.047   1.106  80.456  1.00  0.00     0.277 HD
ATOM      6  H22 UNL     1      -1.386   0.379  80.617  1.00  0.00     0.277 HD
HETATM    7  C9  UNL     1      -0.826   1.347  82.361  1.00  0.00     0.249 C 
ENDROOT
BRANCH   1   8
HETATM    8  C5  UNL     1      -1.134   3.142  83.995  1.00  0.00    -0.098 C 
HETATM    9  C4  UNL     1      -1.490   3.399  85.120  1.00  0.00    -0.076 C 
BRANCH   9  10
HETATM   10  C3  UNL     1      -1.950   3.706  86.486  1.00  0.00     0.364 C 
BRANCH  10  11
HETATM   11  N1  UNL     1      -3.355   4.016  86.383  1.00  0.00     0.090 N 
HETATM   12  C1  UNL     1      -3.682   5.347  86.768  1.00  0.00     0.310 C 
HETATM   13  C2  UNL     1      -4.086   3.079  87.195  1.00  0.00     0.310 C 
ENDBRANCH  10  11
ENDBRANCH   9  10
ENDBRANCH   1   8
TORSDOF 3
ENDMDL
MODEL 4
REMARK VINA RESULT: -4.647128136      0.972      1.266
REMARK  3 active torsions:
REMARK  status: ('A' for Active; 'I' for Inactive)
REMARK    1  A    between atoms: N1_2  and  C3_4 
REMARK    2  A    between atoms: C3_4  and  C4_5 
REMARK    3  A    between atoms: C5_6  and  C6_7 
ROOT
HETATM    1  C6  UNL     1      -1.714   4.152  85.749  1.00  0.00     0.092 C 
HETATM    2  C7  UNL     1      -1.933   2.844  86.472  1.00  0.00     0.046 C 
HETATM    3  C8  UNL     1      -2.926   3.199  87.526  1.00  0.00     0.233 C 
HETATM    4  N2  UNL     1      -3.495   4.471  87.193  1.00  0.00    -0.074 N 
ATOM      5  H21 UNL     1      -3.268   5.201  87.870  1.00  0.00     0.277 HD
ATOM      6  H22 UNL     1      -4.508   4.499  87.308  1.00  0.00     0.277 HD
HETATM    7  C9  UNL     1      -3.067   4.792  85.848  1.00  0.00     0.249 C 
ENDROOT
BRANCH   1   8
HETATM    8  C5  UNL     1      -1.369   3.911  84.323  1.00  0.00    -0.098 C 
HETATM    9  C4  UNL     1      -1.112   3.717  83.159  1.00  0.00    -0.076 C 
BRANCH   9  10
HETATM   10  C3  UNL     1      -0.823   3.486  81.732  1.00  0.00     0.364 C 
BRANCH  10  11
HETATM   11  N1  UNL     1       0.223   2.493  81.684  1.00  0.00     0.090 N 
HETATM   12  C1  UNL     1       1.384   2.913  80.974  1.00  0.00     0.310 C 
HETATM   13  C2  UNL     1      -0.313   1.302  81.081  1.00  0.00     0.310 C 
ENDBRANCH  10  11
ENDBRANCH   9  10
ENDBRANCH   1   8
TORSDOF 3
ENDMDL
MODEL 5
REMARK VINA RESULT: -4.646586595      1.174      1.744
REMARK  3 active torsions:
REMARK  status: ('A' for Active; 'I' for Inactive)
REMARK    1  A    between atoms: N1_2  and  C3_4 
REMARK    2  A    between atoms: C3_4  and  C4_5 
REMARK    3  A    between atoms: C5_6  and  C6_7 
ROOT
HETATM    1  C6  UNL     1      -1.848   4.018  85.917  1.00  0.00     0.092 C 
HETATM    2  C7  UNL     1      -2.349   2.882  86.777  1.00  0.00     0.046 C 
HETATM    3  C8  UNL     1      -3.379   3.533  87.636  1.00  0.00     0.233 C 
HETATM    4  N2  UNL     1      -3.699   4.807  87.063  1.00  0.00    -0.074 N 
ATOM      5  H21 UNL     1      -3.432   5.592  87.658  1.00  0.00     0.277 HD
ATOM      6  H22 UNL     1      -4.701   4.995  87.042  1.00  0.00     0.277 HD
HETATM    7  C9  UNL     1      -3.085   4.852  85.753  1.00  0.00     0.249 C 
ENDROOT
BRANCH   1   8
HETATM    8  C5  UNL     1      -1.396   3.513  84.593  1.00  0.00    -0.098 C 
HETATM    9  C4  UNL     1      -1.044   3.119  83.508  1.00  0.00    -0.076 C 
BRANCH   9  10
HETATM   10  C3  UNL     1      -0.628   2.657  82.172  1.00  0.00     0.364 C 
BRANCH  10  11
HETATM   11  N1  UNL     1       0.365   3.596  81.707  1.00  0.00     0.090 N 
HETATM   12  C1  UNL     1      -0.169   4.658  80.923  1.00  0.00     0.310 C 
HETATM   13  C2  UNL     1       1.349   2.874  80.945  1.00  0.00     0.310 C 
ENDBRANCH  10  11
ENDBRANCH   9  10
ENDBRANCH   1   8
TORSDOF 3
ENDMDL
