MODEL 1
REMARK VINA RESULT: -5.493685629      0.000      0.000
REMARK  2 active torsions:
REMARK  status: ('A' for Active; 'I' for Inactive)
REMARK    1  A    between atoms: C3_5  and  O2_6 
REMARK    2  A    between atoms: C3_5  and  C4_8 
ROOT
HETATM    1  O1  UNL     1      -1.282   1.389  83.403  1.00  0.00    -0.255 OA
HETATM    2  S1  UNL     1      -1.742   3.020  83.504  1.00  0.00     0.050 S 
HETATM    3  C1  UNL     1      -0.313   3.976  84.029  1.00  0.00     0.116 C 
HETATM    4  C2  UNL     1      -0.515   3.428  85.411  1.00  0.00     0.065 C 
HETATM    5  C3  UNL     1      -2.018   3.457  85.191  1.00  0.00     0.139 C 
ENDROOT
BRANCH   5   6
HETATM    6  O2  UNL     1      -2.581   4.722  85.294  1.00  0.00    -0.377 OA
ATOM      7  H2  UNL     1      -2.433   5.094  86.157  1.00  0.00     0.211 HD
ENDBRANCH   5   6
BRANCH   5   8
HETATM    8  C4  UNL     1      -2.676   2.375  85.949  1.00  0.00     0.033 C 
HETATM    9  C5  UNL     1      -3.843   2.816  86.801  1.00  0.00     0.009 C 
HETATM   10  C6  UNL     1      -4.190   1.468  87.422  1.00  0.00     0.001 C 
HETATM   11  C7  UNL     1      -2.834   0.938  87.796  1.00  0.00     0.001 C 
HETATM   12  C8  UNL     1      -1.816   1.690  86.967  1.00  0.00     0.009 C 
ENDBRANCH   5   8
TORSDOF 2
ENDMDL
MODEL 2
REMARK VINA RESULT: -5.430899695      1.519      1.982
REMARK  2 active torsions:
REMARK  status: ('A' for Active; 'I' for Inactive)
REMARK    1  A    between atoms: C3_5  and  O2_6 
REMARK    2  A    between atoms: C3_5  and  C4_8 
ROOT
HETATM    1  O1  UNL     1       0.523   3.745  85.405  1.00  0.00    -0.255 OA
HETATM    2  S1  UNL     1      -0.655   3.659  84.186  1.00  0.00     0.050 S 
HETATM    3  C1  UNL     1      -1.264   5.321  83.874  1.00  0.00     0.116 C 
HETATM    4  C2  UNL     1      -2.028   5.231  85.162  1.00  0.00     0.065 C 
HETATM    5  C3  UNL     1      -2.263   3.752  84.906  1.00  0.00     0.139 C 
ENDROOT
BRANCH   5   6
HETATM    6  O2  UNL     1      -3.249   3.490  83.963  1.00  0.00    -0.377 OA
ATOM      7  H2  UNL     1      -4.068   3.248  84.381  1.00  0.00     0.211 HD
ENDBRANCH   5   6
BRANCH   5   8
HETATM    8  C4  UNL     1      -2.350   3.011  86.179  1.00  0.00     0.033 C 
HETATM    9  C5  UNL     1      -2.190   1.514  86.054  1.00  0.00     0.009 C 
HETATM   10  C6  UNL     1      -2.383   1.144  87.520  1.00  0.00     0.001 C 
HETATM   11  C7  UNL     1      -3.568   1.986  87.901  1.00  0.00     0.001 C 
HETATM   12  C8  UNL     1      -3.667   3.104  86.887  1.00  0.00     0.009 C 
ENDBRANCH   5   8
TORSDOF 2
ENDMDL
MODEL 3
REMARK VINA RESULT: -5.391130329      2.298      3.166
REMARK  2 active torsions:
REMARK  status: ('A' for Active; 'I' for Inactive)
REMARK    1  A    between atoms: C3_5  and  O2_6 
REMARK    2  A    between atoms: C3_5  and  C4_8 
ROOT
HETATM    1  O1  UNL     1      -2.810   2.356  81.317  1.00  0.00    -0.255 OA
HETATM    2  S1  UNL     1      -1.180   2.704  81.643  1.00  0.00     0.050 S 
HETATM    3  C1  UNL     1      -0.380   1.191  82.192  1.00  0.00     0.116 C 
HETATM    4  C2  UNL     1      -1.084   1.355  83.507  1.00  0.00     0.065 C 
HETATM    5  C3  UNL     1      -0.942   2.862  83.383  1.00  0.00     0.139 C 
ENDROOT
BRANCH   5   6
HETATM    6  O2  UNL     1       0.332   3.336  83.673  1.00  0.00    -0.377 OA
ATOM      7  H2  UNL     1       0.981   2.950  83.097  1.00  0.00     0.211 HD
ENDBRANCH   5   6
BRANCH   5   8
HETATM    8  C4  UNL     1      -2.070   3.548  84.043  1.00  0.00     0.033 C 
HETATM    9  C5  UNL     1      -1.882   5.034  84.239  1.00  0.00     0.009 C 
HETATM   10  C6  UNL     1      -3.191   5.333  84.961  1.00  0.00     0.001 C 
HETATM   11  C7  UNL     1      -3.267   4.204  85.950  1.00  0.00     0.001 C 
HETATM   12  C8  UNL     1      -2.359   3.104  85.444  1.00  0.00     0.009 C 
ENDBRANCH   5   8
TORSDOF 2
ENDMDL
MODEL 4
REMARK VINA RESULT: -5.378993274      1.397      1.793
REMARK  2 active torsions:
REMARK  status: ('A' for Active; 'I' for Inactive)
REMARK    1  A    between atoms: C3_5  and  O2_6 
REMARK    2  A    between atoms: C3_5  and  C4_8 
ROOT
HETATM    1  O1  UNL     1      -3.225   4.501  84.182  1.00  0.00    -0.255 OA
HETATM    2  S1  UNL     1      -1.643   4.488  84.796  1.00  0.00     0.050 S 
HETATM    3  C1  UNL     1      -0.548   3.854  83.520  1.00  0.00     0.116 C 
HETATM    4  C2  UNL     1      -1.088   2.484  83.806  1.00  0.00     0.065 C 
HETATM    5  C3  UNL     1      -1.204   2.849  85.276  1.00  0.00     0.139 C 
ENDROOT
BRANCH   5   6
HETATM    6  O2  UNL     1       0.005   2.834  85.961  1.00  0.00    -0.377 OA
ATOM      7  H2  UNL     1       0.638   2.273  85.527  1.00  0.00     0.211 HD
ENDBRANCH   5   6
BRANCH   5   8
HETATM    8  C4  UNL     1      -2.329   2.128  85.904  1.00  0.00     0.033 C 
HETATM    9  C5  UNL     1      -3.184   2.967  86.825  1.00  0.00     0.009 C 
HETATM   10  C6  UNL     1      -4.155   1.883  87.279  1.00  0.00     0.001 C 
HETATM   11  C7  UNL     1      -3.231   0.732  87.558  1.00  0.00     0.001 C 
HETATM   12  C8  UNL     1      -1.942   1.001  86.812  1.00  0.00     0.009 C 
ENDBRANCH   5   8
TORSDOF 2
ENDMDL
MODEL 5
REMARK VINA RESULT: -5.218527922      3.167      4.616
REMARK  2 active torsions:
REMARK  status: ('A' for Active; 'I' for Inactive)
REMARK    1  A    between atoms: C3_5  and  O2_6 
REMARK    2  A    between atoms: C3_5  and  C4_8 
ROOT
HETATM    1  O1  UNL     1      -2.090   0.522  85.536  1.00  0.00    -0.255 OA
HETATM    2  S1  UNL     1      -0.960   1.781  85.404  1.00  0.00     0.050 S 
HETATM    3  C1  UNL     1      -1.852   3.341  85.399  1.00  0.00     0.116 C 
HETATM    4  C2  UNL     1      -2.269   3.042  83.989  1.00  0.00     0.065 C 
HETATM    5  C3  UNL     1      -0.925   2.377  83.744  1.00  0.00     0.139 C 
ENDROOT
BRANCH   5   6
HETATM    6  O2  UNL     1       0.122   3.271  83.555  1.00  0.00    -0.377 OA
ATOM      7  H2  UNL     1       0.573   3.101  82.736  1.00  0.00     0.211 HD
ENDBRANCH   5   6
BRANCH   5   8
HETATM    8  C4  UNL     1      -1.055   1.290  82.755  1.00  0.00     0.033 C 
HETATM    9  C5  UNL     1       0.217   0.951  82.014  1.00  0.00     0.009 C 
HETATM   10  C6  UNL     1      -0.337  -0.137  81.101  1.00  0.00     0.001 C 
HETATM   11  C7  UNL     1      -1.625   0.478  80.631  1.00  0.00     0.001 C 
HETATM   12  C8  UNL     1      -1.990   1.565  81.617  1.00  0.00     0.009 C 
ENDBRANCH   5   8
TORSDOF 2
ENDMDL
