MODEL 1
REMARK VINA RESULT: -7.839203682      0.000      0.000
REMARK  6 active torsions:
REMARK  status: ('A' for Active; 'I' for Inactive)
REMARK    1  A    between atoms: O1_1  and  C1_3 
REMARK    2  A    between atoms: C3_5  and  O2_6 
REMARK    3  A    between atoms: O2_6  and  C4_7 
REMARK    4  A    between atoms: C4_7  and  C5_8 
REMARK    5  A    between atoms: C11_15  and  C12_16 
REMARK    6  A    between atoms: N1_19  and  C15_20 
ROOT
HETATM    1  C1  UNL     1     -15.242 -45.143 -10.524  1.00  0.00     0.078 A 
HETATM    2  C2  UNL     1     -15.053 -45.927  -9.360  1.00  0.00     0.074 A 
HETATM    3  C3  UNL     1     -14.967 -45.383  -8.118  1.00  0.00     0.071 A 
HETATM    4  C9  UNL     1     -15.079 -43.965  -8.051  1.00  0.00     0.038 A 
HETATM    5  C10 UNL     1     -15.258 -43.225  -9.172  1.00  0.00     0.017 A 
HETATM    6  C11 UNL     1     -15.346 -43.804 -10.459  1.00  0.00    -0.000 A 
ENDROOT
BRANCH   6   7
HETATM    7  C12 UNL     1     -15.416 -42.863 -11.538  1.00  0.00    -0.064 C 
HETATM    8  C13 UNL     1     -15.074 -41.486 -10.993  1.00  0.00     0.054 C 
HETATM    9  C14 UNL     1     -16.043 -40.460 -11.559  1.00  0.00     0.121 C 
HETATM   10  N1  UNL     1     -15.972 -40.453 -12.971  1.00  0.00    -0.407 N 
HETATM   11  C20 UNL     1     -16.002 -41.729 -13.576  1.00  0.00     0.121 C 
HETATM   12  C21 UNL     1     -16.464 -42.790 -12.523  1.00  0.00     0.054 C 
BRANCH  10  13
HETATM   13  C15 UNL     1     -16.571 -39.407 -13.684  1.00  0.00     0.082 C 
HETATM   14  C16 UNL     1     -17.989 -39.588 -14.121  1.00  0.00     0.052 C 
HETATM   15  C17 UNL     1     -18.940 -38.856 -13.199  1.00  0.00     0.234 C 
HETATM   16  N2  UNL     1     -18.789 -37.433 -13.447  1.00  0.00    -0.075 N 
HETATM   17  C18 UNL     1     -17.422 -37.050 -13.674  1.00  0.00     0.234 C 
ATOM     18  H22 UNL     1     -19.386 -37.130 -14.218  1.00  0.00     0.277 HD
ATOM     19  H21 UNL     1     -19.203 -36.885 -12.693  1.00  0.00     0.277 HD
HETATM   20  C19 UNL     1     -16.508 -38.060 -12.981  1.00  0.00     0.052 C 
ENDBRANCH  10  13
ENDBRANCH   6   7
BRANCH   1  21
HETATM   21  O1  UNL     1     -15.317 -45.821 -11.691  1.00  0.00    -0.360 OA
ATOM     22  H1  UNL     1     -15.179 -45.311 -12.481  1.00  0.00     0.217 HD
ENDBRANCH   1  21
BRANCH   3  23
HETATM   23  O2  UNL     1     -14.794 -46.083  -7.037  1.00  0.00    -0.349 OA
BRANCH  23  24
HETATM   24  C4  UNL     1     -14.900 -46.769  -5.976  1.00  0.00     0.207 C 
BRANCH  24  25
HETATM   25  C5  UNL     1     -15.703 -48.083  -5.955  1.00  0.00     0.145 C 
HETATM   26  C6  UNL     1     -16.899 -48.010  -6.838  1.00  0.00     0.036 C 
HETATM   27  C7  UNL     1     -16.676 -48.961  -7.971  1.00  0.00     0.029 C 
HETATM   28  C8  UNL     1     -15.185 -49.235  -7.828  1.00  0.00     0.168 C 
HETATM   29  O3  UNL     1     -14.893 -49.028  -6.511  1.00  0.00    -0.384 OA
ENDBRANCH  24  25
ENDBRANCH  23  24
ENDBRANCH   3  23
TORSDOF 6
ENDMDL
MODEL 2
REMARK VINA RESULT: -7.596959010      1.077      1.224
REMARK  6 active torsions:
REMARK  status: ('A' for Active; 'I' for Inactive)
REMARK    1  A    between atoms: O1_1  and  C1_3 
REMARK    2  A    between atoms: C3_5  and  O2_6 
REMARK    3  A    between atoms: O2_6  and  C4_7 
REMARK    4  A    between atoms: C4_7  and  C5_8 
REMARK    5  A    between atoms: C11_15  and  C12_16 
REMARK    6  A    between atoms: N1_19  and  C15_20 
ROOT
HETATM    1  C1  UNL     1     -15.482 -44.920 -10.860  1.00  0.00     0.078 A 
HETATM    2  C2  UNL     1     -15.173 -45.708  -9.726  1.00  0.00     0.074 A 
HETATM    3  C3  UNL     1     -15.018 -45.178  -8.485  1.00  0.00     0.071 A 
HETATM    4  C9  UNL     1     -15.185 -43.767  -8.388  1.00  0.00     0.038 A 
HETATM    5  C10 UNL     1     -15.479 -43.021  -9.480  1.00  0.00     0.017 A 
HETATM    6  C11 UNL     1     -15.637 -43.587 -10.766  1.00  0.00    -0.000 A 
ENDROOT
BRANCH   6   7
HETATM    7  C12 UNL     1     -15.828 -42.636 -11.822  1.00  0.00    -0.064 C 
HETATM    8  C13 UNL     1     -14.462 -42.210 -12.333  1.00  0.00     0.054 C 
HETATM    9  C14 UNL     1     -14.442 -40.704 -12.537  1.00  0.00     0.121 C 
HETATM   10  N1  UNL     1     -15.443 -40.326 -13.460  1.00  0.00    -0.407 N 
HETATM   11  C20 UNL     1     -16.713 -40.900 -13.231  1.00  0.00     0.121 C 
HETATM   12  C21 UNL     1     -16.746 -41.527 -11.798  1.00  0.00     0.054 C 
BRANCH  10  13
HETATM   13  C15 UNL     1     -15.429 -39.033 -14.000  1.00  0.00     0.082 C 
HETATM   14  C16 UNL     1     -16.740 -38.424 -14.378  1.00  0.00     0.052 C 
HETATM   15  C17 UNL     1     -17.214 -37.452 -13.319  1.00  0.00     0.234 C 
HETATM   16  N2  UNL     1     -16.369 -36.273 -13.391  1.00  0.00    -0.075 N 
HETATM   17  C18 UNL     1     -14.990 -36.592 -13.641  1.00  0.00     0.234 C 
ATOM     18  H22 UNL     1     -16.722 -35.611 -14.082  1.00  0.00     0.277 HD
ATOM     19  H21 UNL     1     -16.466 -35.702 -12.551  1.00  0.00     0.277 HD
HETATM   20  C19 UNL     1     -14.713 -38.007 -13.135  1.00  0.00     0.052 C 
ENDBRANCH  10  13
ENDBRANCH   6   7
BRANCH   1  21
HETATM   21  O1  UNL     1     -15.615 -45.585 -12.029  1.00  0.00    -0.360 OA
ATOM     22  H1  UNL     1     -14.882 -46.133 -12.284  1.00  0.00     0.217 HD
ENDBRANCH   1  21
BRANCH   3  23
HETATM   23  O2  UNL     1     -14.736 -45.883  -7.431  1.00  0.00    -0.349 OA
BRANCH  23  24
HETATM   24  C4  UNL     1     -14.725 -46.532  -6.342  1.00  0.00     0.207 C 
BRANCH  24  25
HETATM   25  C5  UNL     1     -15.558 -47.816  -6.173  1.00  0.00     0.145 C 
HETATM   26  C6  UNL     1     -16.818 -47.762  -6.965  1.00  0.00     0.036 C 
HETATM   27  C7  UNL     1     -16.709 -48.790  -8.046  1.00  0.00     0.029 C 
HETATM   28  C8  UNL     1     -15.219 -49.100  -8.000  1.00  0.00     0.168 C 
HETATM   29  O3  UNL     1     -14.819 -48.819  -6.726  1.00  0.00    -0.384 OA
ENDBRANCH  24  25
ENDBRANCH  23  24
ENDBRANCH   3  23
TORSDOF 6
ENDMDL
MODEL 3
REMARK VINA RESULT: -7.570388436      1.465      1.923
REMARK  6 active torsions:
REMARK  status: ('A' for Active; 'I' for Inactive)
REMARK    1  A    between atoms: O1_1  and  C1_3 
REMARK    2  A    between atoms: C3_5  and  O2_6 
REMARK    3  A    between atoms: O2_6  and  C4_7 
REMARK    4  A    between atoms: C4_7  and  C5_8 
REMARK    5  A    between atoms: C11_15  and  C12_16 
REMARK    6  A    between atoms: N1_19  and  C15_20 
ROOT
HETATM    1  C1  UNL     1     -15.602 -44.430 -11.066  1.00  0.00     0.078 A 
HETATM    2  C2  UNL     1     -15.257 -45.451 -10.147  1.00  0.00     0.074 A 
HETATM    3  C3  UNL     1     -15.004 -45.201  -8.836  1.00  0.00     0.071 A 
HETATM    4  C9  UNL     1     -15.108 -43.840  -8.432  1.00  0.00     0.038 A 
HETATM    5  C10 UNL     1     -15.438 -42.870  -9.319  1.00  0.00     0.017 A 
HETATM    6  C11 UNL     1     -15.698 -43.145 -10.682  1.00  0.00    -0.000 A 
ENDROOT
BRANCH   6   7
HETATM    7  C12 UNL     1     -15.915 -41.986 -11.497  1.00  0.00    -0.064 C 
HETATM    8  C13 UNL     1     -14.603 -41.628 -12.177  1.00  0.00     0.054 C 
HETATM    9  C14 UNL     1     -14.391 -40.124 -12.113  1.00  0.00     0.121 C 
HETATM   10  N1  UNL     1     -15.462 -39.455 -12.746  1.00  0.00    -0.407 N 
HETATM   11  C20 UNL     1     -16.749 -39.911 -12.383  1.00  0.00     0.121 C 
HETATM   12  C21 UNL     1     -16.638 -40.804 -11.103  1.00  0.00     0.054 C 
BRANCH  10  13
HETATM   13  C15 UNL     1     -15.342 -38.091 -13.043  1.00  0.00     0.082 C 
HETATM   14  C16 UNL     1     -14.336 -37.691 -14.073  1.00  0.00     0.052 C 
HETATM   15  C17 UNL     1     -15.000 -37.425 -15.407  1.00  0.00     0.234 C 
HETATM   16  N2  UNL     1     -15.740 -36.181 -15.293  1.00  0.00    -0.075 N 
HETATM   17  C18 UNL     1     -16.390 -36.035 -14.019  1.00  0.00     0.234 C 
ATOM     18  H22 UNL     1     -15.140 -35.379 -15.491  1.00  0.00     0.277 HD
ATOM     19  H21 UNL     1     -16.407 -36.081 -16.058  1.00  0.00     0.277 HD
HETATM   20  C19 UNL     1     -16.650 -37.425 -13.439  1.00  0.00     0.052 C 
ENDBRANCH  10  13
ENDBRANCH   6   7
BRANCH   1  21
HETATM   21  O1  UNL     1     -15.834 -44.827 -12.336  1.00  0.00    -0.360 OA
ATOM     22  H1  UNL     1     -16.040 -44.139 -12.959  1.00  0.00     0.217 HD
ENDBRANCH   1  21
BRANCH   3  23
HETATM   23  O2  UNL     1     -14.686 -46.122  -7.976  1.00  0.00    -0.349 OA
BRANCH  23  24
HETATM   24  C4  UNL     1     -14.523 -46.867  -6.963  1.00  0.00     0.207 C 
BRANCH  24  25
HETATM   25  C5  UNL     1     -15.712 -47.270  -6.072  1.00  0.00     0.145 C 
HETATM   26  C6  UNL     1     -16.791 -47.926  -6.858  1.00  0.00     0.036 C 
HETATM   27  C7  UNL     1     -16.858 -49.355  -6.419  1.00  0.00     0.029 C 
HETATM   28  C8  UNL     1     -15.544 -49.485  -5.662  1.00  0.00     0.168 C 
HETATM   29  O3  UNL     1     -15.239 -48.228  -5.226  1.00  0.00    -0.384 OA
ENDBRANCH  24  25
ENDBRANCH  23  24
ENDBRANCH   3  23
TORSDOF 6
ENDMDL
MODEL 4
REMARK VINA RESULT: -7.519078183      0.802      1.053
REMARK  6 active torsions:
REMARK  status: ('A' for Active; 'I' for Inactive)
REMARK    1  A    between atoms: O1_1  and  C1_3 
REMARK    2  A    between atoms: C3_5  and  O2_6 
REMARK    3  A    between atoms: O2_6  and  C4_7 
REMARK    4  A    between atoms: C4_7  and  C5_8 
REMARK    5  A    between atoms: C11_15  and  C12_16 
REMARK    6  A    between atoms: N1_19  and  C15_20 
ROOT
HETATM    1  C1  UNL     1     -15.243 -45.116 -10.327  1.00  0.00     0.078 A 
HETATM    2  C2  UNL     1     -15.089 -46.018  -9.246  1.00  0.00     0.074 A 
HETATM    3  C3  UNL     1     -14.967 -45.604  -7.958  1.00  0.00     0.071 A 
HETATM    4  C9  UNL     1     -15.002 -44.195  -7.754  1.00  0.00     0.038 A 
HETATM    5  C10 UNL     1     -15.148 -43.340  -8.795  1.00  0.00     0.017 A 
HETATM    6  C11 UNL     1     -15.274 -43.787 -10.131  1.00  0.00    -0.000 A 
ENDROOT
BRANCH   6   7
HETATM    7  C12 UNL     1     -15.300 -42.742 -11.113  1.00  0.00    -0.064 C 
HETATM    8  C13 UNL     1     -14.825 -41.457 -10.455  1.00  0.00     0.054 C 
HETATM    9  C14 UNL     1     -15.721 -40.306 -10.882  1.00  0.00     0.121 C 
HETATM   10  N1  UNL     1     -15.697 -40.167 -12.288  1.00  0.00    -0.407 N 
HETATM   11  C20 UNL     1     -15.855 -41.371 -13.009  1.00  0.00     0.121 C 
HETATM   12  C21 UNL     1     -16.370 -42.488 -12.042  1.00  0.00     0.054 C 
BRANCH  10  13
HETATM   13  C15 UNL     1     -16.229 -39.011 -12.875  1.00  0.00     0.082 C 
HETATM   14  C16 UNL     1     -15.724 -38.624 -14.227  1.00  0.00     0.052 C 
HETATM   15  C17 UNL     1     -16.698 -39.035 -15.310  1.00  0.00     0.234 C 
HETATM   16  N2  UNL     1     -17.853 -38.159 -15.222  1.00  0.00    -0.075 N 
HETATM   17  C18 UNL     1     -18.225 -37.864 -13.864  1.00  0.00     0.234 C 
ATOM     18  H22 UNL     1     -17.704 -37.302 -15.754  1.00  0.00     0.277 HD
ATOM     19  H21 UNL     1     -18.642 -38.542 -15.742  1.00  0.00     0.277 HD
HETATM   20  C19 UNL     1     -17.747 -39.004 -12.966  1.00  0.00     0.052 C 
ENDBRANCH  10  13
ENDBRANCH   6   7
BRANCH   1  21
HETATM   21  O1  UNL     1     -15.362 -45.672 -11.553  1.00  0.00    -0.360 OA
ATOM     22  H1  UNL     1     -14.560 -45.995 -11.946  1.00  0.00     0.217 HD
ENDBRANCH   1  21
BRANCH   3  23
HETATM   23  O2  UNL     1     -14.826 -46.414  -6.952  1.00  0.00    -0.349 OA
BRANCH  23  24
HETATM   24  C4  UNL     1     -14.953 -47.150  -5.928  1.00  0.00     0.207 C 
BRANCH  24  25
HETATM   25  C5  UNL     1     -15.814 -48.426  -5.968  1.00  0.00     0.145 C 
HETATM   26  C6  UNL     1     -16.990 -48.269  -6.867  1.00  0.00     0.036 C 
HETATM   27  C7  UNL     1     -16.788 -49.188  -8.030  1.00  0.00     0.029 C 
HETATM   28  C8  UNL     1     -15.314 -49.532  -7.874  1.00  0.00     0.168 C 
HETATM   29  O3  UNL     1     -15.036 -49.385  -6.545  1.00  0.00    -0.384 OA
ENDBRANCH  24  25
ENDBRANCH  23  24
ENDBRANCH   3  23
TORSDOF 6
ENDMDL
MODEL 5
REMARK VINA RESULT: -7.504892404      1.254      1.533
REMARK  6 active torsions:
REMARK  status: ('A' for Active; 'I' for Inactive)
REMARK    1  A    between atoms: O1_1  and  C1_3 
REMARK    2  A    between atoms: C3_5  and  O2_6 
REMARK    3  A    between atoms: O2_6  and  C4_7 
REMARK    4  A    between atoms: C4_7  and  C5_8 
REMARK    5  A    between atoms: C11_15  and  C12_16 
REMARK    6  A    between atoms: N1_19  and  C15_20 
ROOT
HETATM    1  C1  UNL     1     -15.407 -44.057 -11.135  1.00  0.00     0.078 A 
HETATM    2  C2  UNL     1     -15.297 -45.295 -10.455  1.00  0.00     0.074 A 
HETATM    3  C3  UNL     1     -15.113 -45.378  -9.111  1.00  0.00     0.071 A 
HETATM    4  C9  UNL     1     -15.037 -44.137  -8.417  1.00  0.00     0.038 A 
HETATM    5  C10 UNL     1     -15.142 -42.959  -9.077  1.00  0.00     0.017 A 
HETATM    6  C11 UNL     1     -15.333 -42.887 -10.477  1.00  0.00    -0.000 A 
ENDROOT
BRANCH   6   7
HETATM    7  C12 UNL     1     -15.303 -41.560 -11.020  1.00  0.00    -0.064 C 
HETATM    8  C13 UNL     1     -16.723 -41.020 -11.039  1.00  0.00     0.054 C 
HETATM    9  C14 UNL     1     -16.981 -40.315 -12.361  1.00  0.00     0.121 C 
HETATM   10  N1  UNL     1     -16.059 -39.259 -12.536  1.00  0.00    -0.407 N 
HETATM   11  C20 UNL     1     -14.712 -39.591 -12.267  1.00  0.00     0.121 C 
HETATM   12  C21 UNL     1     -14.570 -41.147 -12.189  1.00  0.00     0.054 C 
BRANCH  10  13
HETATM   13  C15 UNL     1     -16.281 -38.312 -13.544  1.00  0.00     0.082 C 
HETATM   14  C16 UNL     1     -17.652 -38.233 -14.133  1.00  0.00     0.052 C 
HETATM   15  C17 UNL     1     -18.431 -37.075 -13.547  1.00  0.00     0.234 C 
HETATM   16  N2  UNL     1     -17.867 -35.848 -14.080  1.00  0.00    -0.075 N 
HETATM   17  C18 UNL     1     -16.433 -35.894 -14.183  1.00  0.00     0.234 C 
ATOM     18  H22 UNL     1     -18.290 -35.610 -14.977  1.00  0.00     0.277 HD
ATOM     19  H21 UNL     1     -18.169 -35.040 -13.536  1.00  0.00     0.277 HD
HETATM   20  C19 UNL     1     -15.899 -36.892 -13.157  1.00  0.00     0.052 C 
ENDBRANCH  10  13
ENDBRANCH   6   7
BRANCH   1  21
HETATM   21  O1  UNL     1     -15.596 -44.128 -12.471  1.00  0.00    -0.360 OA
ATOM     22  H1  UNL     1     -14.810 -44.158 -13.004  1.00  0.00     0.217 HD
ENDBRANCH   1  21
BRANCH   3  23
HETATM   23  O2  UNL     1     -15.010 -46.502  -8.467  1.00  0.00    -0.349 OA
BRANCH  23  24
HETATM   24  C4  UNL     1     -14.840 -47.437  -7.628  1.00  0.00     0.207 C 
BRANCH  24  25
HETATM   25  C5  UNL     1     -15.837 -47.665  -6.478  1.00  0.00     0.145 C 
HETATM   26  C6  UNL     1     -17.093 -48.304  -6.957  1.00  0.00     0.036 C 
HETATM   27  C7  UNL     1     -17.148 -49.678  -6.366  1.00  0.00     0.029 C 
HETATM   28  C8  UNL     1     -15.714 -49.840  -5.882  1.00  0.00     0.168 C 
HETATM   29  O3  UNL     1     -15.253 -48.576  -5.650  1.00  0.00    -0.384 OA
ENDBRANCH  24  25
ENDBRANCH  23  24
ENDBRANCH   3  23
TORSDOF 6
ENDMDL
