MODEL 1
REMARK VINA RESULT: -8.672777520      0.000      0.000
REMARK  5 active torsions:
REMARK  status: ('A' for Active; 'I' for Inactive)
REMARK    1  A    between atoms: N1_1  and  C1_4 
REMARK    2  A    between atoms: N3_9  and  O1_10 
REMARK    3  A    between atoms: C6_19  and  C7_20 
REMARK    4  A    between atoms: N6_21  and  N7_23 
REMARK    5  A    between atoms: N7_23  and  C8_25 
ROOT
HETATM    1  C1  UNL     1      29.916 -22.998 -18.693  1.00  0.00     0.115 A 
HETATM    2  C2  UNL     1      28.650 -23.556 -18.855  1.00  0.00     0.082 A 
HETATM    3  C3  UNL     1      27.989 -23.299 -20.037  1.00  0.00     0.083 A 
HETATM    4  N2  UNL     1      26.766 -23.817 -20.235  1.00  0.00    -0.271 N 
ATOM      5  H2  UNL     1      26.346 -24.394 -19.506  1.00  0.00     0.189 HD
HETATM    6  N3  UNL     1      26.087 -23.596 -21.362  1.00  0.00    -0.144 N 
HETATM    7  C4  UNL     1      26.594 -22.849 -22.343  1.00  0.00     0.180 A 
HETATM    8  N4  UNL     1      25.949 -22.598 -23.493  1.00  0.00    -0.279 N 
ATOM      9  H4  UNL     1      25.019 -22.995 -23.636  1.00  0.00     0.189 HD
HETATM   10  N5  UNL     1      26.479 -21.855 -24.442  1.00  0.00    -0.264 N 
ATOM     11  H5  UNL     1      25.937 -21.704 -25.293  1.00  0.00     0.190 HD
HETATM   12  C5  UNL     1      27.681 -21.291 -24.356  1.00  0.00     0.272 A 
HETATM   13  O2  UNL     1      28.126 -20.588 -25.314  1.00  0.00    -0.266 OA
HETATM   14  C6  UNL     1      28.440 -21.496 -23.183  1.00  0.00     0.067 A 
HETATM   15  C12 UNL     1      27.939 -22.259 -22.164  1.00  0.00     0.061 A 
HETATM   16  C13 UNL     1      28.610 -22.507 -20.991  1.00  0.00     0.091 A 
HETATM   17  N10 UNL     1      29.821 -22.015 -20.753  1.00  0.00    -0.296 N 
ATOM     18  H10 UNL     1      30.254 -21.436 -21.473  1.00  0.00     0.187 HD
HETATM   19  N11 UNL     1      30.496 -22.230 -19.643  1.00  0.00    -0.285 N 
ATOM     20  H11 UNL     1      31.425 -21.830 -19.504  1.00  0.00     0.188 HD
ENDROOT
BRANCH  14  21
HETATM   21  C7  UNL     1      29.733 -20.879 -23.111  1.00  0.00     0.126 C 
HETATM   22  N6  UNL     1      30.643 -21.299 -23.966  1.00  0.00    -0.297 N 
ATOM     23  H6  UNL     1      30.399 -22.032 -24.633  1.00  0.00     0.186 HD
BRANCH  22  24
HETATM   24  N7  UNL     1      31.925 -20.769 -23.981  1.00  0.00    -0.133 N 
ATOM     25  H7  UNL     1      32.292 -20.302 -24.810  1.00  0.00     0.205 HD
BRANCH  24  26
HETATM   26  C8  UNL     1      32.710 -20.899 -22.806  1.00  0.00     0.688 C 
HETATM   27  N8  UNL     1      33.005 -22.083 -22.396  1.00  0.00    -0.225 N 
HETATM   28  C9  UNL     1      33.803 -22.218 -21.201  1.00  0.00     0.139 C 
ATOM     29  H8  UNL     1      32.682 -22.906 -22.904  1.00  0.00     0.177 HD
HETATM   30  C10 UNL     1      34.953 -21.242 -21.297  1.00  0.00     0.040 C 
HETATM   31  C11 UNL     1      34.383 -19.833 -21.260  1.00  0.00     0.139 C 
HETATM   32  N9  UNL     1      33.178 -19.773 -22.072  1.00  0.00    -0.225 N 
ATOM     33  H9  UNL     1      32.653 -18.900 -22.116  1.00  0.00     0.177 HD
ENDBRANCH  24  26
ENDBRANCH  22  24
ENDBRANCH  14  21
BRANCH   6  34
HETATM   34  O1  UNL     1      24.821 -24.142 -21.548  1.00  0.00    -0.266 OA
ATOM     35  H1  UNL     1      24.608 -24.610 -22.346  1.00  0.00     0.247 HD
ENDBRANCH   6  34
BRANCH   1  36
HETATM   36  N1  UNL     1      30.520 -23.247 -17.584  1.00  0.00    -0.384 N 
ATOM     37  H12 UNL     1      30.480 -24.176 -17.162  1.00  0.00     0.157 HD
ATOM     38  H11 UNL     1      31.033 -22.475 -17.158  1.00  0.00     0.157 HD
ENDBRANCH   1  36
TORSDOF 5
ENDMDL
MODEL 2
REMARK VINA RESULT: -8.307740348      3.106      7.687
REMARK  5 active torsions:
REMARK  status: ('A' for Active; 'I' for Inactive)
REMARK    1  A    between atoms: N1_1  and  C1_4 
REMARK    2  A    between atoms: N3_9  and  O1_10 
REMARK    3  A    between atoms: C6_19  and  C7_20 
REMARK    4  A    between atoms: N6_21  and  N7_23 
REMARK    5  A    between atoms: N7_23  and  C8_25 
ROOT
HETATM    1  C1  UNL     1      25.842 -20.967 -25.991  1.00  0.00     0.115 A 
HETATM    2  C2  UNL     1      27.094 -20.391 -25.785  1.00  0.00     0.082 A 
HETATM    3  C3  UNL     1      27.771 -20.737 -24.635  1.00  0.00     0.083 A 
HETATM    4  N2  UNL     1      28.980 -20.205 -24.397  1.00  0.00    -0.271 N 
ATOM      5  H2  UNL     1      29.379 -19.553 -25.072  1.00  0.00     0.189 HD
HETATM    6  N3  UNL     1      29.673 -20.509 -23.297  1.00  0.00    -0.144 N 
HETATM    7  C4  UNL     1      29.194 -21.357 -22.386  1.00  0.00     0.180 A 
HETATM    8  N4  UNL     1      29.854 -21.692 -21.267  1.00  0.00    -0.279 N 
ATOM      9  H4  UNL     1      30.773 -21.283 -21.093  1.00  0.00     0.189 HD
HETATM   10  N5  UNL     1      29.350 -22.533 -20.387  1.00  0.00    -0.264 N 
ATOM     11  H5  UNL     1      29.903 -22.747 -19.557  1.00  0.00     0.190 HD
HETATM   12  C5  UNL     1      28.164 -23.119 -20.518  1.00  0.00     0.272 A 
HETATM   13  O2  UNL     1      27.745 -23.920 -19.627  1.00  0.00    -0.266 OA
HETATM   14  C6  UNL     1      27.391 -22.831 -21.665  1.00  0.00     0.067 A 
HETATM   15  C12 UNL     1      27.864 -21.964 -22.612  1.00  0.00     0.061 A 
HETATM   16  C13 UNL     1      27.177 -21.629 -23.754  1.00  0.00     0.091 A 
HETATM   17  N10 UNL     1      25.978 -22.131 -24.030  1.00  0.00    -0.296 N 
ATOM     18  H10 UNL     1      25.567 -22.785 -23.364  1.00  0.00     0.187 HD
HETATM   19  N11 UNL     1      25.290 -21.834 -25.113  1.00  0.00    -0.285 N 
ATOM     20  H11 UNL     1      24.372 -22.245 -25.283  1.00  0.00     0.188 HD
ENDROOT
BRANCH  14  21
HETATM   21  C7  UNL     1      26.115 -23.473 -21.786  1.00  0.00     0.126 C 
HETATM   22  N6  UNL     1      26.119 -24.781 -21.955  1.00  0.00    -0.297 N 
ATOM     23  H6  UNL     1      27.010 -25.275 -21.991  1.00  0.00     0.186 HD
BRANCH  22  24
HETATM   24  N7  UNL     1      24.940 -25.500 -22.083  1.00  0.00    -0.133 N 
ATOM     25  H7  UNL     1      24.032 -25.038 -22.024  1.00  0.00     0.205 HD
BRANCH  24  26
HETATM   26  C8  UNL     1      25.037 -26.899 -22.301  1.00  0.00     0.688 C 
HETATM   27  N8  UNL     1      23.993 -27.623 -22.095  1.00  0.00    -0.225 N 
HETATM   28  C9  UNL     1      24.088 -29.046 -22.315  1.00  0.00     0.139 C 
ATOM     29  H8  UNL     1      23.119 -27.200 -21.783  1.00  0.00     0.177 HD
HETATM   30  C10 UNL     1      24.800 -29.267 -23.629  1.00  0.00     0.040 C 
HETATM   31  C11 UNL     1      26.230 -28.771 -23.483  1.00  0.00     0.139 C 
HETATM   32  N9  UNL     1      26.239 -27.523 -22.737  1.00  0.00    -0.225 N 
ATOM     33  H9  UNL     1      27.133 -27.083 -22.519  1.00  0.00     0.177 HD
ENDBRANCH  24  26
ENDBRANCH  22  24
ENDBRANCH  14  21
BRANCH   6  34
HETATM   34  O1  UNL     1      30.925 -19.948 -23.069  1.00  0.00    -0.266 OA
ATOM     35  H1  UNL     1      31.711 -20.479 -23.117  1.00  0.00     0.247 HD
ENDBRANCH   6  34
BRANCH   1  36
HETATM   36  N1  UNL     1      25.223 -20.634 -27.069  1.00  0.00    -0.384 N 
ATOM     37  H12 UNL     1      24.229 -20.402 -27.054  1.00  0.00     0.157 HD
ATOM     38  H11 UNL     1      25.775 -20.615 -27.927  1.00  0.00     0.157 HD
ENDBRANCH   1  36
TORSDOF 5
ENDMDL
MODEL 3
REMARK VINA RESULT: -8.053122451      3.122      5.663
REMARK  5 active torsions:
REMARK  status: ('A' for Active; 'I' for Inactive)
REMARK    1  A    between atoms: N1_1  and  C1_4 
REMARK    2  A    between atoms: N3_9  and  O1_10 
REMARK    3  A    between atoms: C6_19  and  C7_20 
REMARK    4  A    between atoms: N6_21  and  N7_23 
REMARK    5  A    between atoms: N7_23  and  C8_25 
ROOT
HETATM    1  C1  UNL     1      28.825 -22.613 -18.913  1.00  0.00     0.115 A 
HETATM    2  C2  UNL     1      29.449 -23.706 -18.315  1.00  0.00     0.082 A 
HETATM    3  C3  UNL     1      30.710 -24.039 -18.760  1.00  0.00     0.083 A 
HETATM    4  N2  UNL     1      31.348 -25.086 -18.212  1.00  0.00    -0.271 N 
ATOM      5  H2  UNL     1      30.887 -25.618 -17.473  1.00  0.00     0.189 HD
HETATM    6  N3  UNL     1      32.569 -25.447 -18.609  1.00  0.00    -0.144 N 
HETATM    7  C4  UNL     1      33.212 -24.783 -19.570  1.00  0.00     0.180 A 
HETATM    8  N4  UNL     1      34.439 -25.109 -20.003  1.00  0.00    -0.279 N 
ATOM      9  H4  UNL     1      34.918 -25.906 -19.581  1.00  0.00     0.189 HD
HETATM   10  N5  UNL     1      35.045 -24.430 -20.956  1.00  0.00    -0.264 N 
ATOM     11  H5  UNL     1      35.979 -24.729 -21.238  1.00  0.00     0.190 HD
HETATM   12  C5  UNL     1      34.511 -23.378 -21.569  1.00  0.00     0.272 A 
HETATM   13  O2  UNL     1      35.158 -22.774 -22.479  1.00  0.00    -0.266 OA
HETATM   14  C6  UNL     1      33.220 -22.956 -21.184  1.00  0.00     0.067 A 
HETATM   15  C12 UNL     1      32.543 -23.623 -20.201  1.00  0.00     0.061 A 
HETATM   16  C13 UNL     1      31.285 -23.279 -19.767  1.00  0.00     0.091 A 
HETATM   17  N10 UNL     1      30.618 -22.252 -20.282  1.00  0.00    -0.296 N 
ATOM     18  H10 UNL     1      31.066 -21.710 -21.021  1.00  0.00     0.187 HD
HETATM   19  N11 UNL     1      29.413 -21.891 -19.893  1.00  0.00    -0.285 N 
ATOM     20  H11 UNL     1      28.938 -21.093 -20.318  1.00  0.00     0.188 HD
ENDROOT
BRANCH  14  21
HETATM   21  C7  UNL     1      32.662 -21.820 -21.859  1.00  0.00     0.126 C 
HETATM   22  N6  UNL     1      32.238 -22.008 -23.093  1.00  0.00    -0.297 N 
ATOM     23  H6  UNL     1      32.320 -22.935 -23.512  1.00  0.00     0.186 HD
BRANCH  22  24
HETATM   24  N7  UNL     1      31.683 -20.976 -23.836  1.00  0.00    -0.133 N 
ATOM     25  H7  UNL     1      32.267 -20.366 -24.408  1.00  0.00     0.205 HD
BRANCH  24  26
HETATM   26  C8  UNL     1      30.277 -20.796 -23.773  1.00  0.00     0.688 C 
HETATM   27  N8  UNL     1      29.813 -19.867 -23.013  1.00  0.00    -0.225 N 
HETATM   28  C9  UNL     1      28.384 -19.681 -22.947  1.00  0.00     0.139 C 
ATOM     29  H8  UNL     1      30.442 -19.275 -22.470  1.00  0.00     0.177 HD
HETATM   30  C10 UNL     1      27.844 -19.716 -24.358  1.00  0.00     0.040 C 
HETATM   31  C11 UNL     1      28.058 -21.115 -24.913  1.00  0.00     0.139 C 
HETATM   32  N9  UNL     1      29.369 -21.602 -24.517  1.00  0.00    -0.225 N 
ATOM     33  H9  UNL     1      29.647 -22.547 -24.779  1.00  0.00     0.177 HD
ENDBRANCH  24  26
ENDBRANCH  22  24
ENDBRANCH  14  21
BRANCH   6  34
HETATM   34  O1  UNL     1      33.213 -26.534 -18.028  1.00  0.00    -0.266 OA
ATOM     35  H1  UNL     1      33.516 -26.495 -17.129  1.00  0.00     0.247 HD
ENDBRANCH   6  34
BRANCH   1  36
HETATM   36  N1  UNL     1      27.648 -22.316 -18.487  1.00  0.00    -0.384 N 
ATOM     37  H12 UNL     1      27.246 -22.792 -17.678  1.00  0.00     0.157 HD
ATOM     38  H11 UNL     1      27.147 -21.587 -18.996  1.00  0.00     0.157 HD
ENDBRANCH   1  36
TORSDOF 5
ENDMDL
MODEL 4
REMARK VINA RESULT: -8.001976219      3.062      5.533
REMARK  5 active torsions:
REMARK  status: ('A' for Active; 'I' for Inactive)
REMARK    1  A    between atoms: N1_1  and  C1_4 
REMARK    2  A    between atoms: N3_9  and  O1_10 
REMARK    3  A    between atoms: C6_19  and  C7_20 
REMARK    4  A    between atoms: N6_21  and  N7_23 
REMARK    5  A    between atoms: N7_23  and  C8_25 
ROOT
HETATM    1  C1  UNL     1      28.890 -22.482 -18.870  1.00  0.00     0.115 A 
HETATM    2  C2  UNL     1      29.466 -23.609 -18.287  1.00  0.00     0.082 A 
HETATM    3  C3  UNL     1      30.703 -24.002 -18.752  1.00  0.00     0.083 A 
HETATM    4  N2  UNL     1      31.295 -25.082 -18.220  1.00  0.00    -0.271 N 
ATOM      5  H2  UNL     1      30.819 -25.596 -17.477  1.00  0.00     0.189 HD
HETATM    6  N3  UNL     1      32.491 -25.502 -18.637  1.00  0.00    -0.144 N 
HETATM    7  C4  UNL     1      33.152 -24.864 -19.604  1.00  0.00     0.180 A 
HETATM    8  N4  UNL     1      34.355 -25.248 -20.056  1.00  0.00    -0.279 N 
ATOM      9  H4  UNL     1      34.799 -26.071 -19.646  1.00  0.00     0.189 HD
HETATM   10  N5  UNL     1      34.981 -24.594 -21.014  1.00  0.00    -0.264 N 
ATOM     11  H5  UNL     1      35.894 -24.938 -21.312  1.00  0.00     0.190 HD
HETATM   12  C5  UNL     1      34.491 -23.513 -21.613  1.00  0.00     0.272 A 
HETATM   13  O2  UNL     1      35.154 -22.936 -22.529  1.00  0.00    -0.266 OA
HETATM   14  C6  UNL     1      33.228 -23.029 -21.207  1.00  0.00     0.067 A 
HETATM   15  C12 UNL     1      32.534 -23.668 -20.217  1.00  0.00     0.061 A 
HETATM   16  C13 UNL     1      31.301 -23.265 -19.763  1.00  0.00     0.091 A 
HETATM   17  N10 UNL     1      30.679 -22.202 -20.262  1.00  0.00    -0.296 N 
ATOM     18  H10 UNL     1      31.143 -21.678 -21.005  1.00  0.00     0.187 HD
HETATM   19  N11 UNL     1      29.499 -21.784 -19.854  1.00  0.00    -0.285 N 
ATOM     20  H11 UNL     1      29.059 -20.960 -20.266  1.00  0.00     0.188 HD
ENDROOT
BRANCH  14  21
HETATM   21  C7  UNL     1      32.719 -21.862 -21.867  1.00  0.00     0.126 C 
HETATM   22  N6  UNL     1      32.293 -22.015 -23.105  1.00  0.00    -0.297 N 
ATOM     23  H6  UNL     1      32.341 -22.938 -23.537  1.00  0.00     0.186 HD
BRANCH  22  24
HETATM   24  N7  UNL     1      31.783 -20.952 -23.834  1.00  0.00    -0.133 N 
ATOM     25  H7  UNL     1      32.396 -20.338 -24.371  1.00  0.00     0.205 HD
BRANCH  24  26
HETATM   26  C8  UNL     1      30.379 -20.743 -23.809  1.00  0.00     0.688 C 
HETATM   27  N8  UNL     1      29.630 -21.548 -24.478  1.00  0.00    -0.225 N 
HETATM   28  C9  UNL     1      28.202 -21.339 -24.454  1.00  0.00     0.139 C 
ATOM     29  H8  UNL     1      30.036 -22.316 -25.012  1.00  0.00     0.177 HD
HETATM   30  C10 UNL     1      27.793 -21.087 -23.022  1.00  0.00     0.040 C 
HETATM   31  C11 UNL     1      28.414 -19.773 -22.575  1.00  0.00     0.139 C 
HETATM   32  N9  UNL     1      29.777 -19.684 -23.074  1.00  0.00    -0.225 N 
ATOM     33  H9  UNL     1      30.316 -18.838 -22.892  1.00  0.00     0.177 HD
ENDBRANCH  24  26
ENDBRANCH  22  24
ENDBRANCH  14  21
BRANCH   6  34
HETATM   34  O1  UNL     1      33.088 -26.624 -18.072  1.00  0.00    -0.266 OA
ATOM     35  H1  UNL     1      32.628 -27.454 -18.041  1.00  0.00     0.247 HD
ENDBRANCH   6  34
BRANCH   1  36
HETATM   36  N1  UNL     1      27.735 -22.128 -18.424  1.00  0.00    -0.384 N 
ATOM     37  H12 UNL     1      27.650 -21.480 -17.641  1.00  0.00     0.157 HD
ATOM     38  H11 UNL     1      26.922 -22.529 -18.892  1.00  0.00     0.157 HD
ENDBRANCH   1  36
TORSDOF 5
ENDMDL
MODEL 5
REMARK VINA RESULT: -7.663827244      2.569      5.946
REMARK  5 active torsions:
REMARK  status: ('A' for Active; 'I' for Inactive)
REMARK    1  A    between atoms: N1_1  and  C1_4 
REMARK    2  A    between atoms: N3_9  and  O1_10 
REMARK    3  A    between atoms: C6_19  and  C7_20 
REMARK    4  A    between atoms: N6_21  and  N7_23 
REMARK    5  A    between atoms: N7_23  and  C8_25 
ROOT
HETATM    1  C1  UNL     1      33.690 -20.059 -21.797  1.00  0.00     0.115 A 
HETATM    2  C2  UNL     1      33.488 -20.403 -20.462  1.00  0.00     0.082 A 
HETATM    3  C3  UNL     1      32.212 -20.769 -20.087  1.00  0.00     0.083 A 
HETATM    4  N2  UNL     1      31.972 -21.107 -18.810  1.00  0.00    -0.271 N 
ATOM      5  H2  UNL     1      32.739 -21.087 -18.137  1.00  0.00     0.189 HD
HETATM    6  N3  UNL     1      30.754 -21.468 -18.400  1.00  0.00    -0.144 N 
HETATM    7  C4  UNL     1      29.721 -21.508 -19.242  1.00  0.00     0.180 A 
HETATM    8  N4  UNL     1      28.481 -21.864 -18.875  1.00  0.00    -0.279 N 
ATOM      9  H4  UNL     1      28.306 -22.119 -17.902  1.00  0.00     0.189 HD
HETATM   10  N5  UNL     1      27.482 -21.894 -19.734  1.00  0.00    -0.264 N 
ATOM     11  H5  UNL     1      26.563 -22.174 -19.391  1.00  0.00     0.190 HD
HETATM   12  C5  UNL     1      27.603 -21.579 -21.020  1.00  0.00     0.272 A 
HETATM   13  O2  UNL     1      26.593 -21.632 -21.788  1.00  0.00    -0.266 OA
HETATM   14  C6  UNL     1      28.872 -21.192 -21.504  1.00  0.00     0.067 A 
HETATM   15  C12 UNL     1      29.945 -21.143 -20.658  1.00  0.00     0.061 A 
HETATM   16  C13 UNL     1      31.211 -20.776 -21.046  1.00  0.00     0.091 A 
HETATM   17  N10 UNL     1      31.493 -20.434 -22.298  1.00  0.00    -0.296 N 
ATOM     18  H10 UNL     1      30.737 -20.448 -22.982  1.00  0.00     0.187 HD
HETATM   19  N11 UNL     1      32.693 -20.077 -22.709  1.00  0.00    -0.285 N 
ATOM     20  H11 UNL     1      32.863 -19.822 -23.682  1.00  0.00     0.188 HD
ENDROOT
BRANCH  14  21
HETATM   21  C7  UNL     1      28.979 -20.857 -22.895  1.00  0.00     0.126 C 
HETATM   22  N6  UNL     1      28.577 -21.766 -23.760  1.00  0.00    -0.297 N 
ATOM     23  H6  UNL     1      28.212 -22.654 -23.416  1.00  0.00     0.186 HD
BRANCH  22  24
HETATM   24  N7  UNL     1      28.639 -21.544 -25.128  1.00  0.00    -0.133 N 
ATOM     25  H7  UNL     1      29.515 -21.647 -25.640  1.00  0.00     0.205 HD
BRANCH  24  26
HETATM   26  C8  UNL     1      27.443 -21.168 -25.793  1.00  0.00     0.688 C 
HETATM   27  N8  UNL     1      27.022 -21.910 -26.758  1.00  0.00    -0.225 N 
HETATM   28  C9  UNL     1      25.806 -21.530 -27.436  1.00  0.00     0.139 C 
ATOM     29  H8  UNL     1      27.536 -22.745 -27.036  1.00  0.00     0.177 HD
HETATM   30  C10 UNL     1      24.783 -21.161 -26.387  1.00  0.00     0.040 C 
HETATM   31  C11 UNL     1      25.268 -19.911 -25.671  1.00  0.00     0.139 C 
HETATM   32  N9  UNL     1      26.699 -20.010 -25.433  1.00  0.00    -0.225 N 
ATOM     33  H9  UNL     1      27.183 -19.227 -24.995  1.00  0.00     0.177 HD
ENDBRANCH  24  26
ENDBRANCH  22  24
ENDBRANCH  14  21
BRANCH   6  34
HETATM   34  O1  UNL     1      30.526 -21.815 -17.072  1.00  0.00    -0.266 OA
ATOM     35  H1  UNL     1      29.762 -22.323 -16.828  1.00  0.00     0.247 HD
ENDBRANCH   6  34
BRANCH   1  36
HETATM   36  N1  UNL     1      34.886 -19.720 -22.130  1.00  0.00    -0.384 N 
ATOM     37  H12 UNL     1      35.698 -20.167 -21.703  1.00  0.00     0.157 HD
ATOM     38  H11 UNL     1      34.975 -18.988 -22.836  1.00  0.00     0.157 HD
ENDBRANCH   1  36
TORSDOF 5
ENDMDL
