MODEL 1
REMARK VINA RESULT: -7.102051988      0.000      0.000
REMARK  1 active torsions:
REMARK  status: ('A' for Active; 'I' for Inactive)
REMARK    1  A    between atoms: O1_2  and  C2_3 
ROOT
HETATM    1  C2  UNL     1      16.641   3.976  13.992  1.00  0.00     0.150 C 
HETATM    2  C3  UNL     1      15.342   4.511  14.438  1.00  0.00     0.034 C 
HETATM    3  C4  UNL     1      15.368   5.677  15.375  1.00  0.00     0.003 C 
HETATM    4  C5  UNL     1      14.883   6.966  14.818  1.00  0.00     0.005 C 
HETATM    5  C6  UNL     1      15.900   7.896  14.228  1.00  0.00    -0.004 C 
HETATM    6  C7  UNL     1      16.943   8.328  15.190  1.00  0.00     0.031 C 
HETATM    7  C8  UNL     1      18.153   8.926  14.669  1.00  0.00    -0.030 C 
HETATM    8  C9  UNL     1      18.927   8.649  13.646  1.00  0.00    -0.023 C 
HETATM    9  C10 UNL     1      18.837   7.608  12.640  1.00  0.00     0.044 C 
HETATM   10  C11 UNL     1      19.960   6.574  12.659  1.00  0.00     0.012 C 
HETATM   11  C12 UNL     1      19.301   5.545  11.717  1.00  0.00     0.018 C 
HETATM   12  C13 UNL     1      17.865   5.427  12.251  1.00  0.00     0.037 C 
HETATM   13  C14 UNL     1      16.891   5.112  11.202  1.00  0.00     0.138 C 
HETATM   14  N1  UNL     1      16.547   6.173  10.296  1.00  0.00    -0.360 N 
ATOM     15  H1  UNL     1      16.371   5.872   9.337  1.00  0.00     0.162 HD
HETATM   16  C15 UNL     1      16.410   7.577  10.513  1.00  0.00     0.218 C 
HETATM   17  O2  UNL     1      16.355   8.291   9.480  1.00  0.00    -0.274 OA
HETATM   18  C16 UNL     1      16.320   8.358  11.773  1.00  0.00     0.110 C 
HETATM   19  C17 UNL     1      16.366   7.352  12.917  1.00  0.00     0.035 C 
HETATM   20  C18 UNL     1      17.692   6.698  12.968  1.00  0.00     0.084 C 
HETATM   21  O3  UNL     1      17.918   6.050  14.152  1.00  0.00    -0.369 OA
HETATM   22  C19 UNL     1      17.760   4.802  13.601  1.00  0.00     0.164 C 
ENDROOT
BRANCH   1  23
HETATM   23  O1  UNL     1      17.075   3.081  15.010  1.00  0.00    -0.388 OA
HETATM   24  C1  UNL     1      16.669   1.790  14.799  1.00  0.00     0.202 C 
ENDBRANCH   1  23
TORSDOF 1
ENDMDL
MODEL 2
REMARK VINA RESULT: -6.890548140      1.037      1.058
REMARK  1 active torsions:
REMARK  status: ('A' for Active; 'I' for Inactive)
REMARK    1  A    between atoms: O1_2  and  C2_3 
ROOT
HETATM    1  C2  UNL     1      16.968   4.220  12.789  1.00  0.00     0.150 C 
HETATM    2  C3  UNL     1      15.746   4.690  13.465  1.00  0.00     0.034 C 
HETATM    3  C4  UNL     1      15.921   5.586  14.649  1.00  0.00     0.003 C 
HETATM    4  C5  UNL     1      15.485   6.995  14.465  1.00  0.00     0.005 C 
HETATM    5  C6  UNL     1      16.514   7.992  14.027  1.00  0.00    -0.004 C 
HETATM    6  C7  UNL     1      17.654   8.124  14.967  1.00  0.00     0.031 C 
HETATM    7  C8  UNL     1      18.859   8.774  14.499  1.00  0.00    -0.030 C 
HETATM    8  C9  UNL     1      19.533   8.721  13.374  1.00  0.00    -0.023 C 
HETATM    9  C10 UNL     1      19.297   7.965  12.160  1.00  0.00     0.044 C 
HETATM   10  C11 UNL     1      20.345   6.906  11.828  1.00  0.00     0.012 C 
HETATM   11  C12 UNL     1      19.548   6.172  10.729  1.00  0.00     0.018 C 
HETATM   12  C13 UNL     1      18.153   5.995  11.346  1.00  0.00     0.037 C 
HETATM   13  C14 UNL     1      17.082   5.994  10.343  1.00  0.00     0.138 C 
HETATM   14  N1  UNL     1      16.744   7.259   9.755  1.00  0.00    -0.360 N 
ATOM     15  H1  UNL     1      16.476   7.212   8.771  1.00  0.00     0.162 HD
HETATM   16  C15 UNL     1      16.719   8.572  10.315  1.00  0.00     0.218 C 
HETATM   17  O2  UNL     1      16.635   9.520   9.494  1.00  0.00    -0.274 OA
HETATM   18  C16 UNL     1      16.778   9.023  11.729  1.00  0.00     0.110 C 
HETATM   19  C17 UNL     1      16.841   7.765  12.588  1.00  0.00     0.035 C 
HETATM   20  C18 UNL     1      18.120   7.057  12.361  1.00  0.00     0.084 C 
HETATM   21  O3  UNL     1      18.391   6.128  13.328  1.00  0.00    -0.369 OA
HETATM   22  C19 UNL     1      18.107   5.062  12.509  1.00  0.00     0.164 C 
ENDROOT
BRANCH   1  23
HETATM   23  O1  UNL     1      17.416   3.082  13.517  1.00  0.00    -0.388 OA
HETATM   24  C1  UNL     1      16.922   1.902  13.029  1.00  0.00     0.202 C 
ENDBRANCH   1  23
TORSDOF 1
ENDMDL
MODEL 3
REMARK VINA RESULT: -6.492370171      1.536      1.848
REMARK  1 active torsions:
REMARK  status: ('A' for Active; 'I' for Inactive)
REMARK    1  A    between atoms: O1_2  and  C2_3 
ROOT
HETATM    1  C2  UNL     1      17.029   4.720  12.688  1.00  0.00     0.150 C 
HETATM    2  C3  UNL     1      16.247   5.351  13.767  1.00  0.00     0.034 C 
HETATM    3  C4  UNL     1      16.997   6.181  14.760  1.00  0.00     0.003 C 
HETATM    4  C5  UNL     1      16.737   7.643  14.709  1.00  0.00     0.005 C 
HETATM    5  C6  UNL     1      17.653   8.486  13.873  1.00  0.00    -0.004 C 
HETATM    6  C7  UNL     1      19.073   8.421  14.295  1.00  0.00     0.031 C 
HETATM    7  C8  UNL     1      20.085   8.894  13.377  1.00  0.00    -0.030 C 
HETATM    8  C9  UNL     1      20.256   8.769  12.081  1.00  0.00    -0.023 C 
HETATM    9  C10 UNL     1      19.460   8.088  11.079  1.00  0.00     0.044 C 
HETATM   10  C11 UNL     1      20.129   6.892  10.406  1.00  0.00     0.012 C 
HETATM   11  C12 UNL     1      18.870   6.314   9.725  1.00  0.00     0.018 C 
HETATM   12  C13 UNL     1      17.812   6.333  10.839  1.00  0.00     0.037 C 
HETATM   13  C14 UNL     1      16.450   6.518  10.328  1.00  0.00     0.138 C 
HETATM   14  N1  UNL     1      16.102   7.835   9.871  1.00  0.00    -0.360 N 
ATOM     15  H1  UNL     1      15.471   7.853   9.070  1.00  0.00     0.162 HD
HETATM   16  C15 UNL     1      16.491   9.121  10.352  1.00  0.00     0.218 C 
HETATM   17  O2  UNL     1      16.237  10.092   9.594  1.00  0.00    -0.274 OA
HETATM   18  C16 UNL     1      17.157   9.523  11.616  1.00  0.00     0.110 C 
HETATM   19  C17 UNL     1      17.361   8.249  12.428  1.00  0.00     0.035 C 
HETATM   20  C18 UNL     1      18.332   7.362  11.750  1.00  0.00     0.084 C 
HETATM   21  O3  UNL     1      18.815   6.379  12.570  1.00  0.00    -0.369 OA
HETATM   22  C19 UNL     1      18.082   5.389  11.961  1.00  0.00     0.164 C 
ENDROOT
BRANCH   1  23
HETATM   23  O1  UNL     1      17.550   3.510  13.227  1.00  0.00    -0.388 OA
HETATM   24  C1  UNL     1      16.844   2.402  12.840  1.00  0.00     0.202 C 
ENDBRANCH   1  23
TORSDOF 1
ENDMDL
MODEL 4
REMARK VINA RESULT: -6.089253357      2.108      4.767
REMARK  1 active torsions:
REMARK  status: ('A' for Active; 'I' for Inactive)
REMARK    1  A    between atoms: O1_2  and  C2_3 
ROOT
HETATM    1  C2  UNL     1      15.431   8.409  10.669  1.00  0.00     0.150 C 
HETATM    2  C3  UNL     1      16.305   8.922   9.598  1.00  0.00     0.034 C 
HETATM    3  C4  UNL     1      17.208  10.064   9.941  1.00  0.00     0.003 C 
HETATM    4  C5  UNL     1      18.661   9.751   9.978  1.00  0.00     0.005 C 
HETATM    5  C6  UNL     1      19.259   9.368  11.297  1.00  0.00    -0.004 C 
HETATM    6  C7  UNL     1      19.124  10.415  12.339  1.00  0.00     0.031 C 
HETATM    7  C8  UNL     1      19.337  10.042  13.720  1.00  0.00    -0.030 C 
HETATM    8  C9  UNL     1      18.984   9.000  14.437  1.00  0.00    -0.023 C 
HETATM    9  C10 UNL     1      18.229   7.814  14.083  1.00  0.00     0.044 C 
HETATM   10  C11 UNL     1      16.879   7.659  14.777  1.00  0.00     0.012 C 
HETATM   11  C12 UNL     1      16.324   6.526  13.888  1.00  0.00     0.018 C 
HETATM   12  C13 UNL     1      16.631   7.000  12.459  1.00  0.00     0.037 C 
HETATM   13  C14 UNL     1      16.863   5.890  11.529  1.00  0.00     0.138 C 
HETATM   14  N1  UNL     1      18.115   5.195  11.648  1.00  0.00    -0.360 N 
ATOM     15  H1  UNL     1      18.063   4.193  11.462  1.00  0.00     0.162 HD
HETATM   16  C15 UNL     1      19.418   5.672  11.982  1.00  0.00     0.218 C 
HETATM   17  O2  UNL     1      20.271   4.792  12.263  1.00  0.00    -0.274 OA
HETATM   18  C16 UNL     1      19.954   7.054  12.058  1.00  0.00     0.110 C 
HETATM   19  C17 UNL     1      18.817   7.988  11.659  1.00  0.00     0.035 C 
HETATM   20  C18 UNL     1      17.739   7.941  12.671  1.00  0.00     0.084 C 
HETATM   21  O3  UNL     1      16.861   8.984  12.559  1.00  0.00    -0.369 OA
HETATM   22  C19 UNL     1      15.863   8.204  12.031  1.00  0.00     0.164 C 
ENDROOT
BRANCH   1  23
HETATM   23  O1  UNL     1      14.280   9.247  10.681  1.00  0.00    -0.388 OA
HETATM   24  C1  UNL     1      13.646   9.308   9.468  1.00  0.00     0.202 C 
ENDBRANCH   1  23
TORSDOF 1
ENDMDL
MODEL 5
REMARK VINA RESULT: -6.041644494      3.520      6.267
REMARK  1 active torsions:
REMARK  status: ('A' for Active; 'I' for Inactive)
REMARK    1  A    between atoms: O1_2  and  C2_3 
ROOT
HETATM    1  C2  UNL     1      17.476   6.890   9.425  1.00  0.00     0.150 C 
HETATM    2  C3  UNL     1      17.968   7.160   8.062  1.00  0.00     0.034 C 
HETATM    3  C4  UNL     1      16.948   7.250   6.972  1.00  0.00     0.003 C 
HETATM    4  C5  UNL     1      16.749   8.599   6.382  1.00  0.00     0.005 C 
HETATM    5  C6  UNL     1      15.665   9.459   6.957  1.00  0.00    -0.004 C 
HETATM    6  C7  UNL     1      14.313   8.858   6.860  1.00  0.00     0.031 C 
HETATM    7  C8  UNL     1      13.254   9.411   7.676  1.00  0.00    -0.030 C 
HETATM    8  C9  UNL     1      13.199   9.828   8.919  1.00  0.00    -0.023 C 
HETATM    9  C10 UNL     1      14.217   9.882   9.950  1.00  0.00     0.044 C 
HETATM   10  C11 UNL     1      13.984   8.976  11.156  1.00  0.00     0.012 C 
HETATM   11  C12 UNL     1      15.394   9.096  11.773  1.00  0.00     0.018 C 
HETATM   12  C13 UNL     1      16.335   8.893  10.576  1.00  0.00     0.037 C 
HETATM   13  C14 UNL     1      17.599   9.622  10.715  1.00  0.00     0.138 C 
HETATM   14  N1  UNL     1      17.550  11.046  10.531  1.00  0.00    -0.360 N 
ATOM     15  H1  UNL     1      18.187  11.573  11.129  1.00  0.00     0.162 HD
HETATM   16  C15 UNL     1      16.760  11.846   9.651  1.00  0.00     0.218 C 
HETATM   17  O2  UNL     1      16.744  13.079   9.894  1.00  0.00    -0.274 OA
HETATM   18  C16 UNL     1      15.937  11.469   8.474  1.00  0.00     0.110 C 
HETATM   19  C17 UNL     1      16.091   9.963   8.297  1.00  0.00     0.035 C 
HETATM   20  C18 UNL     1      15.477   9.248   9.437  1.00  0.00     0.084 C 
HETATM   21  O3  UNL     1      15.276   7.919   9.185  1.00  0.00    -0.369 OA
HETATM   22  C19 UNL     1      16.308   7.518   9.998  1.00  0.00     0.164 C 
ENDROOT
BRANCH   1  23
HETATM   23  O1  UNL     1      17.324   5.479   9.523  1.00  0.00    -0.388 OA
HETATM   24  C1  UNL     1      16.948   5.064  10.773  1.00  0.00     0.202 C 
ENDBRANCH   1  23
TORSDOF 1
ENDMDL
