MODEL 1
REMARK VINA RESULT: -7.557432887      0.000      0.000
REMARK  3 active torsions:
REMARK  status: ('A' for Active; 'I' for Inactive)
REMARK    1  A    between atoms: C1_2  and  C2_3 
REMARK       I    between atoms: C1_2  and  N4_17 
REMARK    2  A    between atoms: C2_3  and  C3_4 
REMARK    3  A    between atoms: C3_4  and  N1_5 
ROOT
HETATM    1  C2  UNL     1      16.907   7.242  14.028  1.00  0.00     0.133 C 
ENDROOT
BRANCH   1   2
HETATM    2  C1  UNL     1      17.401   8.230  13.043  1.00  0.00     0.221 C 
HETATM    3  O1  UNL     1      16.709   8.365  11.975  1.00  0.00    -0.273 OA
HETATM    4  N4  UNL     1      18.571   8.992  13.255  1.00  0.00    -0.352 N 
HETATM    5  C10 UNL     1      19.013   9.936  12.278  1.00  0.00     0.126 C 
HETATM    6  C14 UNL     1      19.327   8.824  14.458  1.00  0.00     0.126 C 
HETATM    7  C11 UNL     1      19.307  11.300  12.859  1.00  0.00     0.030 C 
HETATM    8  C12 UNL     1      20.123  11.165  14.111  1.00  0.00    -0.033 C 
HETATM    9  C13 UNL     1      19.467  10.229  15.059  1.00  0.00     0.030 C 
HETATM   10  C15 UNL     1      21.533  10.689  13.715  1.00  0.00     0.014 C 
HETATM   11  C18 UNL     1      20.463  12.454  14.755  1.00  0.00    -0.005 C 
HETATM   12  C16 UNL     1      22.317  11.888  14.188  1.00  0.00    -0.013 C 
HETATM   13  C17 UNL     1      21.486  13.110  13.816  1.00  0.00     0.010 C 
HETATM   14  C19 UNL     1      21.706  12.095  15.583  1.00  0.00     0.010 C 
ENDBRANCH   1   2
BRANCH   1  15
HETATM   15  C3  UNL     1      17.156   5.859  13.485  1.00  0.00     0.281 C 
BRANCH  15  16
HETATM   16  N1  UNL     1      16.191   4.877  13.929  1.00  0.00     0.089 N 
HETATM   17  C4  UNL     1      16.954   3.778  14.497  1.00  0.00     0.277 C 
HETATM   18  C5  UNL     1      16.967   3.844  16.010  1.00  0.00     0.094 C 
HETATM   19  C6  UNL     1      15.547   3.573  16.473  1.00  0.00     0.165 C 
HETATM   20  C7  UNL     1      14.601   4.509  15.772  1.00  0.00     0.094 C 
HETATM   21  N2  UNL     1      15.418   3.630  17.894  1.00  0.00    -0.351 N 
HETATM   22  O2  UNL     1      15.210   2.277  16.120  1.00  0.00    -0.246 OA
HETATM   23  C8  UNL     1      15.350   5.508  14.928  1.00  0.00     0.277 C 
HETATM   24  C9  UNL     1      15.464   2.424  18.342  1.00  0.00     0.202 C 
ATOM     25  H2  UNL     1      15.310   4.476  18.453  1.00  0.00     0.163 HD
HETATM   26  N3  UNL     1      15.624   1.584  17.194  1.00  0.00    -0.260 N 
ATOM     27  H3  UNL     1      15.988   0.631  17.191  1.00  0.00     0.195 HD
ENDBRANCH  15  16
ENDBRANCH   1  15
TORSDOF 3
ENDMDL
MODEL 2
REMARK VINA RESULT: -7.482203400      3.929      6.143
REMARK  3 active torsions:
REMARK  status: ('A' for Active; 'I' for Inactive)
REMARK    1  A    between atoms: C1_2  and  C2_3 
REMARK       I    between atoms: C1_2  and  N4_17 
REMARK    2  A    between atoms: C2_3  and  C3_4 
REMARK    3  A    between atoms: C3_4  and  N1_5 
ROOT
HETATM    1  C2  UNL     1      17.795   8.081  13.330  1.00  0.00     0.133 C 
ENDROOT
BRANCH   1   2
HETATM    2  C1  UNL     1      17.949   9.053  12.223  1.00  0.00     0.221 C 
HETATM    3  O1  UNL     1      19.102   9.590  12.094  1.00  0.00    -0.273 OA
HETATM    4  N4  UNL     1      16.889   9.379  11.349  1.00  0.00    -0.352 N 
HETATM    5  C10 UNL     1      17.080  10.322  10.293  1.00  0.00     0.126 C 
HETATM    6  C14 UNL     1      15.608   8.763  11.513  1.00  0.00     0.126 C 
HETATM    7  C11 UNL     1      16.612   9.814   8.949  1.00  0.00     0.030 C 
HETATM    8  C12 UNL     1      15.257   9.183   9.077  1.00  0.00    -0.033 C 
HETATM    9  C13 UNL     1      15.263   8.154  10.148  1.00  0.00     0.030 C 
HETATM   10  C15 UNL     1      14.233  10.299   9.358  1.00  0.00     0.014 C 
HETATM   11  C18 UNL     1      14.712   8.654   7.807  1.00  0.00    -0.005 C 
HETATM   12  C16 UNL     1      13.394  10.153   8.113  1.00  0.00    -0.013 C 
HETATM   13  C17 UNL     1      14.370   9.896   6.972  1.00  0.00     0.010 C 
HETATM   14  C19 UNL     1      13.199   8.630   8.077  1.00  0.00     0.010 C 
ENDBRANCH   1   2
BRANCH   1  15
HETATM   15  C3  UNL     1      18.235   6.726  12.840  1.00  0.00     0.281 C 
BRANCH  15  16
HETATM   16  N1  UNL     1      17.144   5.799  12.633  1.00  0.00     0.089 N 
HETATM   17  C4  UNL     1      17.378   5.171  11.342  1.00  0.00     0.277 C 
HETATM   18  C5  UNL     1      17.976   3.789  11.506  1.00  0.00     0.094 C 
HETATM   19  C6  UNL     1      16.906   2.920  12.140  1.00  0.00     0.165 C 
HETATM   20  C7  UNL     1      16.398   3.579  13.393  1.00  0.00     0.094 C 
HETATM   21  N2  UNL     1      17.356   1.585  12.371  1.00  0.00    -0.351 N 
HETATM   22  O2  UNL     1      15.848   2.809  11.253  1.00  0.00    -0.246 OA
HETATM   23  C8  UNL     1      17.184   4.826  13.708  1.00  0.00     0.277 C 
HETATM   24  C9  UNL     1      16.934   0.854  11.398  1.00  0.00     0.202 C 
ATOM     25  H2  UNL     1      17.912   1.267  13.164  1.00  0.00     0.163 HD
HETATM   26  N3  UNL     1      16.205   1.732  10.534  1.00  0.00    -0.260 N 
ATOM     27  H3  UNL     1      15.995   1.571   9.549  1.00  0.00     0.195 HD
ENDBRANCH  15  16
ENDBRANCH   1  15
TORSDOF 3
ENDMDL
MODEL 3
REMARK VINA RESULT: -7.412071146      4.120      4.643
REMARK  3 active torsions:
REMARK  status: ('A' for Active; 'I' for Inactive)
REMARK    1  A    between atoms: C1_2  and  C2_3 
REMARK       I    between atoms: C1_2  and  N4_17 
REMARK    2  A    between atoms: C2_3  and  C3_4 
REMARK    3  A    between atoms: C3_4  and  N1_5 
ROOT
HETATM    1  C2  UNL     1      17.963   3.630  11.900  1.00  0.00     0.133 C 
ENDROOT
BRANCH   1   2
HETATM    2  C1  UNL     1      18.264   4.409  10.677  1.00  0.00     0.221 C 
HETATM    3  O1  UNL     1      17.261   4.758   9.963  1.00  0.00    -0.273 OA
HETATM    4  N4  UNL     1      19.581   4.757  10.306  1.00  0.00    -0.352 N 
HETATM    5  C10 UNL     1      19.827   5.511   9.117  1.00  0.00     0.126 C 
HETATM    6  C14 UNL     1      20.685   4.357  11.122  1.00  0.00     0.126 C 
HETATM    7  C11 UNL     1      20.719   6.710   9.347  1.00  0.00     0.030 C 
HETATM    8  C12 UNL     1      21.905   6.322  10.180  1.00  0.00    -0.033 C 
HETATM    9  C13 UNL     1      21.465   5.644  11.425  1.00  0.00     0.030 C 
HETATM   10  C15 UNL     1      22.816   5.420   9.325  1.00  0.00     0.014 C 
HETATM   11  C18 UNL     1      22.840   7.434  10.458  1.00  0.00    -0.005 C 
HETATM   12  C16 UNL     1      24.036   6.306   9.285  1.00  0.00    -0.013 C 
HETATM   13  C17 UNL     1      23.519   7.730   9.113  1.00  0.00     0.010 C 
HETATM   14  C19 UNL     1      24.153   6.698  10.765  1.00  0.00     0.010 C 
ENDBRANCH   1   2
BRANCH   1  15
HETATM   15  C3  UNL     1      17.293   4.542  12.895  1.00  0.00     0.281 C 
BRANCH  15  16
HETATM   16  N1  UNL     1      16.199   3.920  13.609  1.00  0.00     0.089 N 
HETATM   17  C4  UNL     1      16.773   2.820  14.366  1.00  0.00     0.277 C 
HETATM   18  C5  UNL     1      16.965   3.198  15.820  1.00  0.00     0.094 C 
HETATM   19  C6  UNL     1      15.579   3.359  16.417  1.00  0.00     0.165 C 
HETATM   20  C7  UNL     1      14.778   4.318  15.579  1.00  0.00     0.094 C 
HETATM   21  N2  UNL     1      15.620   3.741  17.792  1.00  0.00    -0.351 N 
HETATM   22  O2  UNL     1      14.942   2.130  16.390  1.00  0.00    -0.246 OA
HETATM   23  C8  UNL     1      15.622   4.921  14.486  1.00  0.00     0.277 C 
HETATM   24  C9  UNL     1      15.462   2.678  18.501  1.00  0.00     0.202 C 
ATOM     25  H2  UNL     1      15.752   4.687  18.150  1.00  0.00     0.163 HD
HETATM   26  N3  UNL     1      15.318   1.602  17.567  1.00  0.00    -0.260 N 
ATOM     27  H3  UNL     1      15.471   0.612  17.760  1.00  0.00     0.195 HD
ENDBRANCH  15  16
ENDBRANCH   1  15
TORSDOF 3
ENDMDL
MODEL 4
REMARK VINA RESULT: -7.348348572      4.038      6.492
REMARK  3 active torsions:
REMARK  status: ('A' for Active; 'I' for Inactive)
REMARK    1  A    between atoms: C1_2  and  C2_3 
REMARK       I    between atoms: C1_2  and  N4_17 
REMARK    2  A    between atoms: C2_3  and  C3_4 
REMARK    3  A    between atoms: C3_4  and  N1_5 
ROOT
HETATM    1  C2  UNL     1      18.533   8.091  12.719  1.00  0.00     0.133 C 
ENDROOT
BRANCH   1   2
HETATM    2  C1  UNL     1      18.102   9.303  11.985  1.00  0.00     0.221 C 
HETATM    3  O1  UNL     1      18.899  10.303  12.019  1.00  0.00    -0.273 OA
HETATM    4  N4  UNL     1      16.881   9.367  11.280  1.00  0.00    -0.352 N 
HETATM    5  C10 UNL     1      16.502  10.556  10.584  1.00  0.00     0.126 C 
HETATM    6  C14 UNL     1      16.007   8.235  11.256  1.00  0.00     0.126 C 
HETATM    7  C11 UNL     1      16.081  10.301   9.156  1.00  0.00     0.030 C 
HETATM    8  C12 UNL     1      15.141   9.133   9.093  1.00  0.00    -0.033 C 
HETATM    9  C13 UNL     1      15.733   7.954   9.772  1.00  0.00     0.030 C 
HETATM   10  C15 UNL     1      13.807   9.558   9.737  1.00  0.00     0.014 C 
HETATM   11  C18 UNL     1      14.670   8.806   7.729  1.00  0.00    -0.005 C 
HETATM   12  C16 UNL     1      12.919   9.421   8.525  1.00  0.00    -0.013 C 
HETATM   13  C17 UNL     1      13.725   9.955   7.347  1.00  0.00     0.010 C 
HETATM   14  C19 UNL     1      13.362   8.047   8.000  1.00  0.00     0.010 C 
ENDBRANCH   1   2
BRANCH   1  15
HETATM   15  C3  UNL     1      19.405   7.266  11.809  1.00  0.00     0.281 C 
BRANCH  15  16
HETATM   16  N1  UNL     1      19.486   5.872  12.187  1.00  0.00     0.089 N 
HETATM   17  C4  UNL     1      18.188   5.519  12.738  1.00  0.00     0.277 C 
HETATM   18  C5  UNL     1      17.349   4.768  11.724  1.00  0.00     0.094 C 
HETATM   19  C6  UNL     1      18.024   3.427  11.505  1.00  0.00     0.165 C 
HETATM   20  C7  UNL     1      19.469   3.641  11.146  1.00  0.00     0.094 C 
HETATM   21  N2  UNL     1      17.337   2.624  10.543  1.00  0.00    -0.351 N 
HETATM   22  O2  UNL     1      17.976   2.711  12.689  1.00  0.00    -0.246 OA
HETATM   23  C8  UNL     1      19.778   5.108  10.989  1.00  0.00     0.277 C 
HETATM   24  C9  UNL     1      16.591   1.794  11.184  1.00  0.00     0.202 C 
ATOM     25  H2  UNL     1      17.423   2.696   9.529  1.00  0.00     0.163 HD
HETATM   26  N3  UNL     1      16.803   2.068  12.574  1.00  0.00    -0.260 N 
ATOM     27  H3  UNL     1      16.175   1.820  13.339  1.00  0.00     0.195 HD
ENDBRANCH  15  16
ENDBRANCH   1  15
TORSDOF 3
ENDMDL
MODEL 5
REMARK VINA RESULT: -7.339313233      3.612      5.437
REMARK  3 active torsions:
REMARK  status: ('A' for Active; 'I' for Inactive)
REMARK    1  A    between atoms: C1_2  and  C2_3 
REMARK       I    between atoms: C1_2  and  N4_17 
REMARK    2  A    between atoms: C2_3  and  C3_4 
REMARK    3  A    between atoms: C3_4  and  N1_5 
ROOT
HETATM    1  C2  UNL     1      16.360   7.323  13.247  1.00  0.00     0.133 C 
ENDROOT
BRANCH   1   2
HETATM    2  C1  UNL     1      16.979   7.974  12.069  1.00  0.00     0.221 C 
HETATM    3  O1  UNL     1      18.224   7.748  11.882  1.00  0.00    -0.273 OA
HETATM    4  N4  UNL     1      16.247   8.802  11.190  1.00  0.00    -0.352 N 
HETATM    5  C10 UNL     1      16.882   9.411  10.065  1.00  0.00     0.126 C 
HETATM    6  C14 UNL     1      14.855   9.038  11.420  1.00  0.00     0.126 C 
HETATM    7  C11 UNL     1      16.134   9.193   8.770  1.00  0.00     0.030 C 
HETATM    8  C12 UNL     1      14.670   9.457   8.965  1.00  0.00    -0.033 C 
HETATM    9  C13 UNL     1      14.149   8.666  10.109  1.00  0.00     0.030 C 
HETATM   10  C15 UNL     1      14.481  10.971   9.180  1.00  0.00     0.014 C 
HETATM   11  C18 UNL     1      13.852   9.270   7.747  1.00  0.00    -0.005 C 
HETATM   12  C16 UNL     1      13.641  11.267   7.963  1.00  0.00    -0.013 C 
HETATM   13  C17 UNL     1      14.233  10.440   6.828  1.00  0.00     0.010 C 
HETATM   14  C19 UNL     1      12.612  10.129   8.042  1.00  0.00     0.010 C 
ENDBRANCH   1   2
BRANCH   1  15
HETATM   15  C3  UNL     1      16.961   5.951  13.405  1.00  0.00     0.281 C 
BRANCH  15  16
HETATM   16  N1  UNL     1      16.024   4.956  13.880  1.00  0.00     0.089 N 
HETATM   17  C4  UNL     1      16.819   3.849  14.385  1.00  0.00     0.277 C 
HETATM   18  C5  UNL     1      16.912   3.887  15.896  1.00  0.00     0.094 C 
HETATM   19  C6  UNL     1      15.520   3.601  16.428  1.00  0.00     0.165 C 
HETATM   20  C7  UNL     1      14.535   4.547  15.798  1.00  0.00     0.094 C 
HETATM   21  N2  UNL     1      15.467   3.630  17.855  1.00  0.00    -0.351 N 
HETATM   22  O2  UNL     1      15.168   2.311  16.069  1.00  0.00    -0.246 OA
HETATM   23  C8  UNL     1      15.235   5.565  14.934  1.00  0.00     0.277 C 
HETATM   24  C9  UNL     1      15.539   2.416  18.277  1.00  0.00     0.202 C 
ATOM     25  H2  UNL     1      15.385   4.465  18.436  1.00  0.00     0.163 HD
HETATM   26  N3  UNL     1      15.641   1.599  17.105  1.00  0.00    -0.260 N 
ATOM     27  H3  UNL     1      16.006   0.647  17.064  1.00  0.00     0.195 HD
ENDBRANCH  15  16
ENDBRANCH   1  15
TORSDOF 3
ENDMDL
