MODEL 1
REMARK VINA RESULT: -6.937771326      0.000      0.000
REMARK  4 active torsions:
REMARK  status: ('A' for Active; 'I' for Inactive)
REMARK    1  A    between atoms: C7_10  and  O1_11 
REMARK    2  A    between atoms: C10_16  and  C11_17 
REMARK    3  A    between atoms: C11_17  and  C12_18 
REMARK    4  A    between atoms: C16_23  and  O3_25 
ROOT
HETATM    1  C1  UNL     1      18.395   9.162  14.501  1.00  0.00     0.036 C 
HETATM    2  C2  UNL     1      17.656   7.926  14.748  1.00  0.00    -0.027 C 
HETATM    3  C3  UNL     1      17.325   6.938  13.958  1.00  0.00    -0.061 C 
HETATM    4  C4  UNL     1      16.559   5.931  14.786  1.00  0.00     0.077 C 
HETATM    5  C5  UNL     1      15.266   6.539  15.309  1.00  0.00     0.244 C 
HETATM    6  N1  UNL     1      14.673   5.329  15.914  1.00  0.00    -0.071 N 
ATOM      7  H11 UNL     1      13.738   5.432  16.310  1.00  0.00     0.277 HD
ATOM      8  H12 UNL     1      15.087   5.012  16.791  1.00  0.00     0.277 HD
HETATM    9  C6  UNL     1      14.798   4.440  14.787  1.00  0.00     0.271 C 
HETATM   10  C7  UNL     1      16.247   4.649  14.274  1.00  0.00     0.095 C 
HETATM   11  C8  UNL     1      16.243   4.237  12.884  1.00  0.00     0.084 C 
HETATM   12  C9  UNL     1      17.484   3.917  12.162  1.00  0.00     0.064 C 
HETATM   13  N2  UNL     1      18.359   4.875  11.711  1.00  0.00    -0.361 N 
HETATM   14  C10 UNL     1      19.115   4.660  10.511  1.00  0.00     0.223 C 
HETATM   15  O2  UNL     1      19.080   5.842   9.785  1.00  0.00    -0.361 OA
HETATM   16  C14 UNL     1      18.544   6.942  10.339  1.00  0.00     0.134 C 
HETATM   17  C15 UNL     1      17.044   7.012  10.285  1.00  0.00     0.071 C 
HETATM   18  C16 UNL     1      16.841   7.712  11.627  1.00  0.00     0.070 C 
HETATM   19  C17 UNL     1      17.293   9.129  11.312  1.00  0.00     0.047 C 
HETATM   20  C18 UNL     1      17.737   7.043  12.583  1.00  0.00     0.043 A 
HETATM   21  C19 UNL     1      18.933   7.220  11.812  1.00  0.00     0.057 A 
HETATM   22  C20 UNL     1      18.683   5.959  12.451  1.00  0.00     0.110 A 
ENDROOT
BRANCH  14  23
HETATM   23  C11 UNL     1      20.571   4.477  10.880  1.00  0.00     0.053 C 
BRANCH  23  24
HETATM   24  C12 UNL     1      21.506   5.224   9.976  1.00  0.00    -0.000 C 
HETATM   25  C13 UNL     1      22.528   5.991  10.813  1.00  0.00     0.005 C 
ENDBRANCH  23  24
ENDBRANCH  14  23
BRANCH  10  26
HETATM   26  O1  UNL     1      16.906   3.628  15.025  1.00  0.00    -0.387 OA
ATOM     27  H1  UNL     1      16.304   3.213  15.631  1.00  0.00     0.210 HD
ENDBRANCH  10  26
BRANCH  18  28
HETATM   28  O3  UNL     1      15.515   7.802  11.973  1.00  0.00    -0.389 OA
ATOM     29  H3  UNL     1      15.234   8.702  12.097  1.00  0.00     0.210 HD
ENDBRANCH  18  28
TORSDOF 4
ENDMDL
MODEL 2
REMARK VINA RESULT: -6.715106891      2.422      4.945
REMARK  4 active torsions:
REMARK  status: ('A' for Active; 'I' for Inactive)
REMARK    1  A    between atoms: C7_10  and  O1_11 
REMARK    2  A    between atoms: C10_16  and  C11_17 
REMARK    3  A    between atoms: C11_17  and  C12_18 
REMARK    4  A    between atoms: C16_23  and  O3_25 
ROOT
HETATM    1  C1  UNL     1      21.279   5.769   9.201  1.00  0.00     0.036 C 
HETATM    2  C2  UNL     1      20.158   4.993   9.726  1.00  0.00    -0.027 C 
HETATM    3  C3  UNL     1      19.218   5.294  10.584  1.00  0.00    -0.061 C 
HETATM    4  C4  UNL     1      18.332   4.078  10.732  1.00  0.00     0.077 C 
HETATM    5  C5  UNL     1      19.116   2.912  11.316  1.00  0.00     0.244 C 
HETATM    6  N1  UNL     1      18.003   1.957  11.497  1.00  0.00    -0.071 N 
ATOM      7  H11 UNL     1      18.235   1.069  11.941  1.00  0.00     0.277 HD
ATOM      8  H12 UNL     1      17.639   1.519  10.650  1.00  0.00     0.277 HD
HETATM    9  C6  UNL     1      17.095   2.816  12.217  1.00  0.00     0.271 C 
HETATM   10  C7  UNL     1      17.100   4.151  11.426  1.00  0.00     0.095 C 
HETATM   11  C8  UNL     1      16.681   5.173  12.365  1.00  0.00     0.084 C 
HETATM   12  C9  UNL     1      16.190   6.486  11.919  1.00  0.00     0.064 C 
HETATM   13  N2  UNL     1      17.015   7.478  11.450  1.00  0.00    -0.361 N 
HETATM   14  C10 UNL     1      16.689   8.858  11.670  1.00  0.00     0.223 C 
HETATM   15  O2  UNL     1      17.859   9.502  12.046  1.00  0.00    -0.361 OA
HETATM   16  C14 UNL     1      19.026   8.840  11.987  1.00  0.00     0.134 C 
HETATM   17  C15 UNL     1      19.300   7.933  13.154  1.00  0.00     0.071 C 
HETATM   18  C16 UNL     1      20.033   6.843  12.374  1.00  0.00     0.070 C 
HETATM   19  C17 UNL     1      21.372   7.505  12.093  1.00  0.00     0.047 C 
HETATM   20  C18 UNL     1      19.255   6.619  11.145  1.00  0.00     0.043 A 
HETATM   21  C19 UNL     1      19.260   7.987  10.716  1.00  0.00     0.057 A 
HETATM   22  C20 UNL     1      18.051   7.220  10.620  1.00  0.00     0.110 A 
ENDROOT
BRANCH  14  23
HETATM   23  C11 UNL     1      16.312   9.485  10.346  1.00  0.00     0.053 C 
BRANCH  23  24
HETATM   24  C12 UNL     1      15.050  10.295  10.415  1.00  0.00    -0.000 C 
HETATM   25  C13 UNL     1      14.001   9.545  11.232  1.00  0.00     0.005 C 
ENDBRANCH  23  24
ENDBRANCH  14  23
BRANCH  10  26
HETATM   26  O1  UNL     1      16.005   3.900  10.544  1.00  0.00    -0.387 OA
ATOM     27  H1  UNL     1      15.577   4.711  10.298  1.00  0.00     0.210 HD
ENDBRANCH  10  26
BRANCH  18  28
HETATM   28  O3  UNL     1      20.306   5.742  13.149  1.00  0.00    -0.389 OA
ATOM     29  H3  UNL     1      20.841   5.103  12.693  1.00  0.00     0.210 HD
ENDBRANCH  18  28
TORSDOF 4
ENDMDL
MODEL 3
REMARK VINA RESULT: -6.711812819      1.929      4.357
REMARK  4 active torsions:
REMARK  status: ('A' for Active; 'I' for Inactive)
REMARK    1  A    between atoms: C7_10  and  O1_11 
REMARK    2  A    between atoms: C10_16  and  C11_17 
REMARK    3  A    between atoms: C11_17  and  C12_18 
REMARK    4  A    between atoms: C16_23  and  O3_25 
ROOT
HETATM    1  C1  UNL     1      18.522   3.054  10.972  1.00  0.00     0.036 C 
HETATM    2  C2  UNL     1      17.634   3.333  12.099  1.00  0.00    -0.027 C 
HETATM    3  C3  UNL     1      17.332   4.447  12.713  1.00  0.00    -0.061 C 
HETATM    4  C4  UNL     1      16.349   4.108  13.810  1.00  0.00     0.077 C 
HETATM    5  C5  UNL     1      16.990   3.189  14.840  1.00  0.00     0.244 C 
HETATM    6  N1  UNL     1      15.899   3.165  15.835  1.00  0.00    -0.071 N 
ATOM      7  H11 UNL     1      16.081   2.647  16.695  1.00  0.00     0.277 HD
ATOM      8  H12 UNL     1      15.076   2.612  15.592  1.00  0.00     0.277 HD
HETATM    9  C6  UNL     1      15.699   4.586  15.973  1.00  0.00     0.271 C 
HETATM   10  C7  UNL     1      15.665   5.126  14.518  1.00  0.00     0.095 C 
HETATM   11  C8  UNL     1      16.023   6.528  14.604  1.00  0.00     0.084 C 
HETATM   12  C9  UNL     1      15.730   7.475  13.516  1.00  0.00     0.064 C 
HETATM   13  N2  UNL     1      16.452   7.524  12.349  1.00  0.00    -0.361 N 
HETATM   14  C10 UNL     1      16.634   8.770  11.661  1.00  0.00     0.223 C 
HETATM   15  O2  UNL     1      17.962   8.827  11.260  1.00  0.00    -0.361 OA
HETATM   16  C14 UNL     1      18.745   7.747  11.411  1.00  0.00     0.134 C 
HETATM   17  C15 UNL     1      19.303   7.559  12.794  1.00  0.00     0.071 C 
HETATM   18  C16 UNL     1      19.268   6.032  12.804  1.00  0.00     0.070 C 
HETATM   19  C17 UNL     1      20.427   5.687  11.882  1.00  0.00     0.047 C 
HETATM   20  C18 UNL     1      17.969   5.644  12.231  1.00  0.00     0.043 A 
HETATM   21  C19 UNL     1      18.116   6.389  11.014  1.00  0.00     0.057 A 
HETATM   22  C20 UNL     1      16.859   6.405  11.706  1.00  0.00     0.110 A 
ENDROOT
BRANCH  14  23
HETATM   23  C11 UNL     1      15.843   8.733  10.372  1.00  0.00     0.053 C 
BRANCH  23  24
HETATM   24  C12 UNL     1      14.835   9.840  10.268  1.00  0.00    -0.000 C 
HETATM   25  C13 UNL     1      13.685   9.583  11.240  1.00  0.00     0.005 C 
ENDBRANCH  23  24
ENDBRANCH  14  23
BRANCH  10  26
HETATM   26  O1  UNL     1      14.259   5.053  14.280  1.00  0.00    -0.387 OA
ATOM     27  H1  UNL     1      13.778   5.520  14.952  1.00  0.00     0.210 HD
ENDBRANCH  10  26
BRANCH  18  28
HETATM   28  O3  UNL     1      19.588   5.510  14.033  1.00  0.00    -0.389 OA
ATOM     29  H3  UNL     1      19.934   6.168  14.625  1.00  0.00     0.210 HD
ENDBRANCH  18  28
TORSDOF 4
ENDMDL
MODEL 4
REMARK VINA RESULT: -6.566372914      2.014      5.297
REMARK  4 active torsions:
REMARK  status: ('A' for Active; 'I' for Inactive)
REMARK    1  A    between atoms: C7_10  and  O1_11 
REMARK    2  A    between atoms: C10_16  and  C11_17 
REMARK    3  A    between atoms: C11_17  and  C12_18 
REMARK    4  A    between atoms: C16_23  and  O3_25 
ROOT
HETATM    1  C1  UNL     1      16.991   9.184  10.574  1.00  0.00     0.036 C 
HETATM    2  C2  UNL     1      18.105   8.402  10.043  1.00  0.00    -0.027 C 
HETATM    3  C3  UNL     1      18.679   7.306  10.467  1.00  0.00    -0.061 C 
HETATM    4  C4  UNL     1      19.786   6.967   9.494  1.00  0.00     0.077 C 
HETATM    5  C5  UNL     1      20.848   8.057   9.491  1.00  0.00     0.244 C 
HETATM    6  N1  UNL     1      21.842   7.404   8.614  1.00  0.00    -0.071 N 
ATOM      7  H11 UNL     1      22.720   7.903   8.472  1.00  0.00     0.277 HD
ATOM      8  H12 UNL     1      21.617   7.372   7.619  1.00  0.00     0.277 HD
HETATM    9  C6  UNL     1      21.929   6.135   9.293  1.00  0.00     0.271 C 
HETATM   10  C7  UNL     1      20.456   5.722   9.554  1.00  0.00     0.095 C 
HETATM   11  C8  UNL     1      20.493   4.798  10.672  1.00  0.00     0.084 C 
HETATM   12  C9  UNL     1      19.372   3.894  10.972  1.00  0.00     0.064 C 
HETATM   13  N2  UNL     1      18.205   4.314  11.562  1.00  0.00    -0.361 N 
HETATM   14  C10 UNL     1      17.474   3.436  12.430  1.00  0.00     0.223 C 
HETATM   15  O2  UNL     1      17.074   4.185  13.528  1.00  0.00    -0.361 OA
HETATM   16  C14 UNL     1      17.265   5.513  13.528  1.00  0.00     0.134 C 
HETATM   17  C15 UNL     1      18.655   5.953  13.894  1.00  0.00     0.071 C 
HETATM   18  C16 UNL     1      18.718   7.165  12.966  1.00  0.00     0.070 C 
HETATM   19  C17 UNL     1      17.812   8.154  13.681  1.00  0.00     0.047 C 
HETATM   20  C18 UNL     1      18.156   6.729  11.677  1.00  0.00     0.043 A 
HETATM   21  C19 UNL     1      16.915   6.251  12.212  1.00  0.00     0.057 A 
HETATM   22  C20 UNL     1      17.603   5.476  11.219  1.00  0.00     0.110 A 
ENDROOT
BRANCH  14  23
HETATM   23  C11 UNL     1      16.186   3.038  11.744  1.00  0.00     0.053 C 
BRANCH  23  24
HETATM   24  C12 UNL     1      16.337   1.836  10.859  1.00  0.00    -0.000 C 
HETATM   25  C13 UNL     1      17.063   0.726  11.615  1.00  0.00     0.005 C 
ENDBRANCH  23  24
ENDBRANCH  14  23
BRANCH  10  26
HETATM   26  O1  UNL     1      20.218   4.959   8.371  1.00  0.00    -0.387 OA
ATOM     27  H1  UNL     1      21.003   4.497   8.103  1.00  0.00     0.210 HD
ENDBRANCH  10  26
BRANCH  18  28
HETATM   28  O3  UNL     1      19.965   7.739  12.941  1.00  0.00    -0.389 OA
ATOM     29  H3  UNL     1      20.091   8.296  12.182  1.00  0.00     0.210 HD
ENDBRANCH  18  28
TORSDOF 4
ENDMDL
MODEL 5
REMARK VINA RESULT: -6.417395472      1.939      4.939
REMARK  4 active torsions:
REMARK  status: ('A' for Active; 'I' for Inactive)
REMARK    1  A    between atoms: C7_10  and  O1_11 
REMARK    2  A    between atoms: C10_16  and  C11_17 
REMARK    3  A    between atoms: C11_17  and  C12_18 
REMARK    4  A    between atoms: C16_23  and  O3_25 
ROOT
HETATM    1  C1  UNL     1      15.954   8.609  11.619  1.00  0.00     0.036 C 
HETATM    2  C2  UNL     1      17.278   8.154  11.200  1.00  0.00    -0.027 C 
HETATM    3  C3  UNL     1      17.984   7.105  11.535  1.00  0.00    -0.061 C 
HETATM    4  C4  UNL     1      19.285   7.170  10.767  1.00  0.00     0.077 C 
HETATM    5  C5  UNL     1      20.087   8.397  11.174  1.00  0.00     0.244 C 
HETATM    6  N1  UNL     1      21.327   8.120  10.420  1.00  0.00    -0.071 N 
ATOM      7  H11 UNL     1      22.095   8.777  10.552  1.00  0.00     0.277 HD
ATOM      8  H12 UNL     1      21.285   8.261   9.411  1.00  0.00     0.277 HD
HETATM    9  C6  UNL     1      21.556   6.769  10.870  1.00  0.00     0.271 C 
HETATM   10  C7  UNL     1      20.176   6.069  10.746  1.00  0.00     0.095 C 
HETATM   11  C8  UNL     1      20.211   4.950  11.667  1.00  0.00     0.084 C 
HETATM   12  C9  UNL     1      19.264   3.828  11.566  1.00  0.00     0.064 C 
HETATM   13  N2  UNL     1      17.953   3.913  11.967  1.00  0.00    -0.361 N 
HETATM   14  C10 UNL     1      17.281   2.763  12.498  1.00  0.00     0.223 C 
HETATM   15  O2  UNL     1      16.556   3.184  13.604  1.00  0.00    -0.361 OA
HETATM   16  C14 UNL     1      16.469   4.496  13.876  1.00  0.00     0.134 C 
HETATM   17  C15 UNL     1      17.656   5.075  14.592  1.00  0.00     0.071 C 
HETATM   18  C16 UNL     1      17.627   6.449  13.924  1.00  0.00     0.070 C 
HETATM   19  C17 UNL     1      16.429   7.098  14.599  1.00  0.00     0.047 C 
HETATM   20  C18 UNL     1      17.393   6.207  12.491  1.00  0.00     0.043 A 
HETATM   21  C19 UNL     1      16.203   5.425  12.666  1.00  0.00     0.057 A 
HETATM   22  C20 UNL     1      17.193   5.004  11.716  1.00  0.00     0.110 A 
ENDROOT
BRANCH  14  23
HETATM   23  C11 UNL     1      16.236   2.308  11.502  1.00  0.00     0.053 C 
BRANCH  23  24
HETATM   24  C12 UNL     1      16.707   1.184  10.627  1.00  0.00    -0.000 C 
HETATM   25  C13 UNL     1      17.656   0.281  11.411  1.00  0.00     0.005 C 
ENDBRANCH  23  24
ENDBRANCH  14  23
BRANCH  10  26
HETATM   26  O1  UNL     1      20.302   5.545   9.424  1.00  0.00    -0.387 OA
ATOM     27  H1  UNL     1      19.991   6.171   8.781  1.00  0.00     0.210 HD
ENDBRANCH  10  26
BRANCH  18  28
HETATM   28  O3  UNL     1      18.716   7.215  14.258  1.00  0.00    -0.389 OA
ATOM     29  H3  UNL     1      19.233   6.823  14.952  1.00  0.00     0.210 HD
ENDBRANCH  18  28
TORSDOF 4
ENDMDL
