MODEL 1
REMARK VINA RESULT: -7.212257162      0.000      0.000
REMARK  5 active torsions:
REMARK  status: ('A' for Active; 'I' for Inactive)
REMARK    1  A    between atoms: C9_9  and  C10_10 
REMARK    2  A    between atoms: C10_10  and  C11_11 
REMARK    3  A    between atoms: C12_13  and  O2_14 
REMARK    4  A    between atoms: C16_19  and  O3_20 
REMARK    5  A    between atoms: C18_23  and  O4_24 
ROOT
HETATM    1  C1  UNL     1      21.447   5.610  11.081  1.00  0.00     0.010 C 
HETATM    2  C2  UNL     1      20.143   6.370  11.477  1.00  0.00    -0.011 C 
HETATM    3  C3  UNL     1      20.383   7.302  12.618  1.00  0.00     0.010 C 
HETATM    4  C4  UNL     1      19.570   7.407  13.836  1.00  0.00    -0.002 C 
HETATM    5  C5  UNL     1      19.219   6.107  14.399  1.00  0.00     0.011 C 
HETATM    6  C6  UNL     1      17.999   5.639  13.560  1.00  0.00     0.009 C 
HETATM    7  C7  UNL     1      16.695   6.104  14.095  1.00  0.00     0.065 C 
HETATM    8  C8  UNL     1      17.128   7.319  14.700  1.00  0.00     0.025 C 
HETATM    9  C9  UNL     1      18.217   8.040  13.834  1.00  0.00    -0.003 C 
HETATM   10  C12 UNL     1      17.910   7.692  12.405  1.00  0.00     0.136 C 
HETATM   11  C13 UNL     1      17.968   6.183  12.208  1.00  0.00    -0.007 C 
HETATM   12  C14 UNL     1      16.956   6.140  11.187  1.00  0.00     0.019 C 
HETATM   13  C15 UNL     1      19.135   5.442  11.757  1.00  0.00     0.029 C 
HETATM   14  C16 UNL     1      18.569   4.263  11.068  1.00  0.00     0.126 C 
HETATM   15  C17 UNL     1      17.857   3.209  11.805  1.00  0.00     0.068 C 
HETATM   16  C18 UNL     1      16.645   3.139  12.612  1.00  0.00     0.146 C 
HETATM   17  C19 UNL     1      16.444   3.494  14.012  1.00  0.00     0.055 C 
HETATM   18  C20 UNL     1      16.207   4.847  14.579  1.00  0.00     0.152 C 
HETATM   19  O5  UNL     1      15.514   4.900  15.575  1.00  0.00    -0.293 OA
ENDROOT
BRANCH   9  20
HETATM   20  C10 UNL     1      18.303   9.451  14.181  1.00  0.00     0.081 C 
BRANCH  20  21
HETATM   21  C11 UNL     1      19.497   9.931  14.854  1.00  0.00     0.232 C 
HETATM   22  O1  UNL     1      19.419  10.532  15.905  1.00  0.00    -0.307 OA
ENDBRANCH  20  21
ENDBRANCH   9  20
BRANCH  10  23
HETATM   23  O2  UNL     1      18.393   8.484  11.443  1.00  0.00    -0.394 OA
ATOM     24  H2  UNL     1      17.777   8.989  10.925  1.00  0.00     0.210 HD
ENDBRANCH  10  23
BRANCH  14  25
HETATM   25  O3  UNL     1      19.745   3.571  10.580  1.00  0.00    -0.395 OA
ATOM     26  H3  UNL     1      19.542   2.658  10.745  1.00  0.00     0.210 HD
ENDBRANCH  14  25
BRANCH  16  27
HETATM   27  O4  UNL     1      16.393   1.705  12.641  1.00  0.00    -0.392 OA
ATOM     28  H4  UNL     1      17.271   1.359  12.753  1.00  0.00     0.210 HD
ENDBRANCH  16  27
TORSDOF 5
ENDMDL
MODEL 2
REMARK VINA RESULT: -6.877619712      1.570      4.243
REMARK  5 active torsions:
REMARK  status: ('A' for Active; 'I' for Inactive)
REMARK    1  A    between atoms: C9_9  and  C10_10 
REMARK    2  A    between atoms: C10_10  and  C11_11 
REMARK    3  A    between atoms: C12_13  and  O2_14 
REMARK    4  A    between atoms: C16_19  and  O3_20 
REMARK    5  A    between atoms: C18_23  and  O4_24 
ROOT
HETATM    1  C1  UNL     1      19.047   9.640  13.962  1.00  0.00     0.010 C 
HETATM    2  C2  UNL     1      17.963   8.619  13.492  1.00  0.00    -0.011 C 
HETATM    3  C3  UNL     1      17.360   7.897  14.651  1.00  0.00     0.010 C 
HETATM    4  C4  UNL     1      17.181   6.445  14.768  1.00  0.00    -0.002 C 
HETATM    5  C5  UNL     1      18.357   5.690  14.346  1.00  0.00     0.011 C 
HETATM    6  C6  UNL     1      18.246   5.634  12.799  1.00  0.00     0.009 C 
HETATM    7  C7  UNL     1      17.459   4.480  12.300  1.00  0.00     0.065 C 
HETATM    8  C8  UNL     1      16.574   4.325  13.405  1.00  0.00     0.025 C 
HETATM    9  C9  UNL     1      16.135   5.710  13.993  1.00  0.00    -0.003 C 
HETATM   10  C12 UNL     1      16.129   6.670  12.837  1.00  0.00     0.136 C 
HETATM   11  C13 UNL     1      17.517   6.755  12.217  1.00  0.00    -0.007 C 
HETATM   12  C14 UNL     1      17.054   6.998  10.878  1.00  0.00     0.019 C 
HETATM   13  C15 UNL     1      18.528   7.743  12.560  1.00  0.00     0.029 C 
HETATM   14  C16 UNL     1      19.322   7.891  11.323  1.00  0.00     0.126 C 
HETATM   15  C17 UNL     1      20.176   6.805  10.821  1.00  0.00     0.068 C 
HETATM   16  C18 UNL     1      19.958   5.444  10.346  1.00  0.00     0.146 C 
HETATM   17  C19 UNL     1      19.782   4.215  11.110  1.00  0.00     0.055 C 
HETATM   18  C20 UNL     1      18.537   3.713  11.747  1.00  0.00     0.152 C 
HETATM   19  O5  UNL     1      18.411   2.508  11.810  1.00  0.00    -0.293 OA
ENDROOT
BRANCH   9  20
HETATM   20  C10 UNL     1      14.910   5.579  14.767  1.00  0.00     0.081 C 
BRANCH  20  21
HETATM   21  C11 UNL     1      14.837   4.542  15.783  1.00  0.00     0.232 C 
HETATM   22  O1  UNL     1      14.187   4.708  16.793  1.00  0.00    -0.307 OA
ENDBRANCH  20  21
ENDBRANCH   9  20
BRANCH  10  23
HETATM   23  O2  UNL     1      15.406   7.788  12.947  1.00  0.00    -0.394 OA
ATOM     24  H2  UNL     1      14.544   7.807  12.547  1.00  0.00     0.210 HD
ENDBRANCH  10  23
BRANCH  14  25
HETATM   25  O3  UNL     1      20.284   8.917  11.670  1.00  0.00    -0.395 OA
ATOM     26  H3  UNL     1      20.228   8.955  12.617  1.00  0.00     0.210 HD
ENDBRANCH  14  25
BRANCH  16  27
HETATM   27  O4  UNL     1      21.208   5.172   9.651  1.00  0.00    -0.392 OA
ATOM     28  H4  UNL     1      21.259   5.908   9.053  1.00  0.00     0.210 HD
ENDBRANCH  16  27
TORSDOF 5
ENDMDL
MODEL 3
REMARK VINA RESULT: -6.645138782      1.978      4.720
REMARK  5 active torsions:
REMARK  status: ('A' for Active; 'I' for Inactive)
REMARK    1  A    between atoms: C9_9  and  C10_10 
REMARK    2  A    between atoms: C10_10  and  C11_11 
REMARK    3  A    between atoms: C12_13  and  O2_14 
REMARK    4  A    between atoms: C16_19  and  O3_20 
REMARK    5  A    between atoms: C18_23  and  O4_24 
ROOT
HETATM    1  C1  UNL     1      19.208   9.665  14.464  1.00  0.00     0.010 C 
HETATM    2  C2  UNL     1      18.027   8.649  14.362  1.00  0.00    -0.011 C 
HETATM    3  C3  UNL     1      18.307   7.413  15.150  1.00  0.00     0.010 C 
HETATM    4  C4  UNL     1      18.162   6.032  14.674  1.00  0.00    -0.002 C 
HETATM    5  C5  UNL     1      18.709   5.830  13.336  1.00  0.00     0.011 C 
HETATM    6  C6  UNL     1      17.592   6.334  12.383  1.00  0.00     0.009 C 
HETATM    7  C7  UNL     1      16.604   5.289  12.019  1.00  0.00     0.065 C 
HETATM    8  C8  UNL     1      16.673   4.501  13.204  1.00  0.00     0.025 C 
HETATM    9  C9  UNL     1      16.824   5.395  14.483  1.00  0.00    -0.003 C 
HETATM   10  C12 UNL     1      16.108   6.681  14.180  1.00  0.00     0.136 C 
HETATM   11  C13 UNL     1      16.732   7.356  12.966  1.00  0.00    -0.007 C 
HETATM   12  C14 UNL     1      15.510   7.953  12.499  1.00  0.00     0.019 C 
HETATM   13  C15 UNL     1      17.772   8.371  13.016  1.00  0.00     0.029 C 
HETATM   14  C16 UNL     1      17.547   9.178  11.799  1.00  0.00     0.126 C 
HETATM   15  C17 UNL     1      17.780   8.627  10.456  1.00  0.00     0.068 C 
HETATM   16  C18 UNL     1      17.219   7.540   9.664  1.00  0.00     0.146 C 
HETATM   17  C19 UNL     1      17.522   6.114   9.704  1.00  0.00     0.055 C 
HETATM   18  C20 UNL     1      16.990   5.100  10.652  1.00  0.00     0.152 C 
HETATM   19  O5  UNL     1      16.864   3.972  10.220  1.00  0.00    -0.293 OA
ENDROOT
BRANCH   9  20
HETATM   20  C10 UNL     1      16.421   4.663  15.675  1.00  0.00     0.081 C 
BRANCH  20  21
HETATM   21  C11 UNL     1      16.686   3.236  15.738  1.00  0.00     0.232 C 
HETATM   22  O1  UNL     1      17.687   2.814  16.277  1.00  0.00    -0.307 OA
ENDBRANCH  20  21
ENDBRANCH   9  20
BRANCH  10  23
HETATM   23  O2  UNL     1      15.712   7.441  15.205  1.00  0.00    -0.394 OA
ATOM     24  H2  UNL     1      16.376   7.806  15.777  1.00  0.00     0.210 HD
ENDBRANCH  10  23
BRANCH  14  25
HETATM   25  O3  UNL     1      18.556  10.213  11.898  1.00  0.00    -0.395 OA
ATOM     26  H3  UNL     1      18.205  10.793  12.564  1.00  0.00     0.210 HD
ENDBRANCH  14  25
BRANCH  16  27
HETATM   27  O4  UNL     1      17.668   7.890   8.324  1.00  0.00    -0.392 OA
ATOM     28  H4  UNL     1      17.491   8.823   8.300  1.00  0.00     0.210 HD
ENDBRANCH  16  27
TORSDOF 5
ENDMDL
MODEL 4
REMARK VINA RESULT: -6.551758206      2.317      4.297
REMARK  5 active torsions:
REMARK  status: ('A' for Active; 'I' for Inactive)
REMARK    1  A    between atoms: C9_9  and  C10_10 
REMARK    2  A    between atoms: C10_10  and  C11_11 
REMARK    3  A    between atoms: C12_13  and  O2_14 
REMARK    4  A    between atoms: C16_19  and  O3_20 
REMARK    5  A    between atoms: C18_23  and  O4_24 
ROOT
HETATM    1  C1  UNL     1      19.805   3.455  10.207  1.00  0.00     0.010 C 
HETATM    2  C2  UNL     1      19.445   4.528  11.282  1.00  0.00    -0.011 C 
HETATM    3  C3  UNL     1      18.610   3.944  12.373  1.00  0.00     0.010 C 
HETATM    4  C4  UNL     1      17.361   4.506  12.903  1.00  0.00    -0.002 C 
HETATM    5  C5  UNL     1      16.454   4.965  11.856  1.00  0.00     0.011 C 
HETATM    6  C6  UNL     1      16.988   6.371  11.472  1.00  0.00     0.009 C 
HETATM    7  C7  UNL     1      16.421   7.468  12.295  1.00  0.00     0.065 C 
HETATM    8  C8  UNL     1      16.196   6.743  13.500  1.00  0.00     0.025 C 
HETATM    9  C9  UNL     1      17.346   5.715  13.780  1.00  0.00    -0.003 C 
HETATM   10  C12 UNL     1      18.593   6.317  13.197  1.00  0.00     0.136 C 
HETATM   11  C13 UNL     1      18.417   6.545  11.702  1.00  0.00    -0.007 C 
HETATM   12  C14 UNL     1      19.257   7.710  11.642  1.00  0.00     0.019 C 
HETATM   13  C15 UNL     1      18.817   5.612  10.661  1.00  0.00     0.029 C 
HETATM   14  C16 UNL     1      19.114   6.475   9.498  1.00  0.00     0.126 C 
HETATM   15  C17 UNL     1      18.055   7.214   8.797  1.00  0.00     0.068 C 
HETATM   16  C18 UNL     1      17.107   8.264   9.151  1.00  0.00     0.146 C 
HETATM   17  C19 UNL     1      15.825   8.159   9.836  1.00  0.00     0.055 C 
HETATM   18  C20 UNL     1      15.583   8.068  11.299  1.00  0.00     0.152 C 
HETATM   19  O5  UNL     1      14.551   8.559  11.708  1.00  0.00    -0.293 OA
ENDROOT
BRANCH   9  20
HETATM   20  C10 UNL     1      17.372   5.339  15.186  1.00  0.00     0.081 C 
BRANCH  20  21
HETATM   21  C11 UNL     1      16.930   4.006  15.557  1.00  0.00     0.232 C 
HETATM   22  O1  UNL     1      17.638   3.280  16.223  1.00  0.00    -0.307 OA
ENDBRANCH  20  21
ENDBRANCH   9  20
BRANCH  10  23
HETATM   23  O2  UNL     1      19.774   5.883  13.646  1.00  0.00    -0.394 OA
ATOM     24  H2  UNL     1      20.553   6.101  13.146  1.00  0.00     0.210 HD
ENDBRANCH  10  23
BRANCH  14  25
HETATM   25  O3  UNL     1      19.564   5.533   8.494  1.00  0.00    -0.395 OA
ATOM     26  H3  UNL     1      19.501   6.030   7.688  1.00  0.00     0.210 HD
ENDBRANCH  14  25
BRANCH  16  27
HETATM   27  O4  UNL     1      16.693   8.740   7.839  1.00  0.00    -0.392 OA
ATOM     28  H4  UNL     1      16.555   9.665   8.005  1.00  0.00     0.210 HD
ENDBRANCH  16  27
TORSDOF 5
ENDMDL
MODEL 5
REMARK VINA RESULT: -6.526105786      1.120      1.171
REMARK  5 active torsions:
REMARK  status: ('A' for Active; 'I' for Inactive)
REMARK    1  A    between atoms: C9_9  and  C10_10 
REMARK    2  A    between atoms: C10_10  and  C11_11 
REMARK    3  A    between atoms: C12_13  and  O2_14 
REMARK    4  A    between atoms: C16_19  and  O3_20 
REMARK    5  A    between atoms: C18_23  and  O4_24 
ROOT
HETATM    1  C1  UNL     1      20.786   6.917  10.290  1.00  0.00     0.010 C 
HETATM    2  C2  UNL     1      19.616   7.539  11.114  1.00  0.00    -0.011 C 
HETATM    3  C3  UNL     1      20.092   8.041  12.437  1.00  0.00     0.010 C 
HETATM    4  C4  UNL     1      19.477   7.765  13.741  1.00  0.00    -0.002 C 
HETATM    5  C5  UNL     1      19.112   6.362  13.912  1.00  0.00     0.011 C 
HETATM    6  C6  UNL     1      17.751   6.224  13.179  1.00  0.00     0.009 C 
HETATM    7  C7  UNL     1      16.579   6.522  14.039  1.00  0.00     0.065 C 
HETATM    8  C8  UNL     1      17.188   7.462  14.920  1.00  0.00     0.025 C 
HETATM    9  C9  UNL     1      18.191   8.399  14.161  1.00  0.00    -0.003 C 
HETATM   10  C12 UNL     1      17.652   8.543  12.766  1.00  0.00     0.136 C 
HETATM   11  C13 UNL     1      17.564   7.180  12.094  1.00  0.00    -0.007 C 
HETATM   12  C14 UNL     1      16.413   7.498  11.292  1.00  0.00     0.019 C 
HETATM   13  C15 UNL     1      18.591   6.597  11.246  1.00  0.00     0.029 C 
HETATM   14  C16 UNL     1      17.842   5.721  10.321  1.00  0.00     0.126 C 
HETATM   15  C17 UNL     1      17.166   4.503  10.791  1.00  0.00     0.068 C 
HETATM   16  C18 UNL     1      16.083   4.205  11.721  1.00  0.00     0.146 C 
HETATM   17  C19 UNL     1      16.117   4.089  13.173  1.00  0.00     0.055 C 
HETATM   18  C20 UNL     1      16.071   5.189  14.172  1.00  0.00     0.152 C 
HETATM   19  O5  UNL     1      15.538   4.933  15.233  1.00  0.00    -0.293 OA
ENDROOT
BRANCH   9  20
HETATM   20  C10 UNL     1      18.435   9.616  14.920  1.00  0.00     0.081 C 
BRANCH  20  21
HETATM   21  C11 UNL     1      19.788  10.140  14.979  1.00  0.00     0.232 C 
HETATM   22  O1  UNL     1      20.099  10.967  15.810  1.00  0.00    -0.307 OA
ENDBRANCH  20  21
ENDBRANCH   9  20
BRANCH  10  23
HETATM   23  O2  UNL     1      18.048   9.592  12.041  1.00  0.00    -0.394 OA
ATOM     24  H2  UNL     1      17.403  10.037  11.503  1.00  0.00     0.210 HD
ENDBRANCH  10  23
BRANCH  14  25
HETATM   25  O3  UNL     1      18.876   5.197   9.453  1.00  0.00    -0.395 OA
ATOM     26  H3  UNL     1      19.658   5.645   9.753  1.00  0.00     0.210 HD
ENDBRANCH  14  25
BRANCH  16  27
HETATM   27  O4  UNL     1      15.729   2.847  11.333  1.00  0.00    -0.392 OA
ATOM     28  H4  UNL     1      15.372   2.504  12.144  1.00  0.00     0.210 HD
ENDBRANCH  16  27
TORSDOF 5
ENDMDL
