MODEL 1
REMARK VINA RESULT: -7.480481788      0.000      0.000
REMARK  3 active torsions:
REMARK  status: ('A' for Active; 'I' for Inactive)
REMARK    1  A    between atoms: C2_3  and  C3_4 
REMARK    2  A    between atoms: C2_3  and  C14_19 
REMARK       I    between atoms: C3_4  and  N2_6 
REMARK    3  A    between atoms: N2_6  and  C4_8 
ROOT
HETATM    1  N1  UNL     1     -23.292   0.346  20.078  1.00  0.00    -0.196 NA
HETATM    2  C1  UNL     1     -22.994  -0.761  19.945  1.00  0.00     0.080 C 
HETATM    3  C2  UNL     1     -22.631  -2.193  19.777  1.00  0.00     0.242 C 
ENDROOT
BRANCH   3   4
HETATM    4  C3  UNL     1     -23.350  -2.773  18.620  1.00  0.00     0.242 C 
HETATM    5  O1  UNL     1     -22.756  -3.695  18.000  1.00  0.00    -0.272 OA
HETATM    6  N2  UNL     1     -24.618  -2.301  18.262  1.00  0.00    -0.353 N 
ATOM      7  H2  UNL     1     -25.014  -1.553  18.829  1.00  0.00     0.163 HD
BRANCH   6   8
HETATM    8  C4  UNL     1     -25.414  -2.782  17.159  1.00  0.00     0.103 C 
HETATM    9  C5  UNL     1     -26.846  -2.494  17.473  1.00  0.00     0.085 C 
HETATM   10 BR1  UNL     1     -27.782  -4.042  18.151  1.00  0.00    -0.089 Br
HETATM   11  C6  UNL     1     -27.576  -1.923  16.269  1.00  0.00     0.003 C 
HETATM   12  C7  UNL     1     -27.665  -2.895  15.165  1.00  0.00     0.010 C 
HETATM   13  C11 UNL     1     -26.807  -0.660  15.936  1.00  0.00     0.011 C 
HETATM   14  C8  UNL     1     -26.538  -2.918  14.198  1.00  0.00    -0.013 C 
HETATM   15  C9  UNL     1     -26.015  -1.528  13.855  1.00  0.00     0.010 C 
HETATM   16  C13 UNL     1     -25.254  -3.478  14.831  1.00  0.00     0.011 C 
HETATM   17  C10 UNL     1     -25.539  -1.118  15.260  1.00  0.00    -0.008 C 
HETATM   18  C12 UNL     1     -24.955  -2.359  15.820  1.00  0.00     0.014 C 
ENDBRANCH   6   8
ENDBRANCH   3   4
BRANCH   3  19
HETATM   19  C14 UNL     1     -22.863  -2.918  21.049  1.00  0.00     0.117 C 
HETATM   20  N3  UNL     1     -23.690  -4.055  21.168  1.00  0.00    -0.092 NA
HETATM   21  S1  UNL     1     -22.131  -2.386  22.389  1.00  0.00    -0.067 SA
ENDBRANCH   3  19
TORSDOF 3
ENDMDL
MODEL 2
REMARK VINA RESULT: -7.419422822      0.997      1.001
REMARK  3 active torsions:
REMARK  status: ('A' for Active; 'I' for Inactive)
REMARK    1  A    between atoms: C2_3  and  C3_4 
REMARK    2  A    between atoms: C2_3  and  C14_19 
REMARK       I    between atoms: C3_4  and  N2_6 
REMARK    3  A    between atoms: N2_6  and  C4_8 
ROOT
HETATM    1  N1  UNL     1     -23.997   0.890  20.167  1.00  0.00    -0.196 NA
HETATM    2  C1  UNL     1     -23.427  -0.098  19.990  1.00  0.00     0.080 C 
HETATM    3  C2  UNL     1     -22.711  -1.381  19.767  1.00  0.00     0.242 C 
ENDROOT
BRANCH   3   4
HETATM    4  C3  UNL     1     -23.308  -2.110  18.624  1.00  0.00     0.242 C 
HETATM    5  O1  UNL     1     -22.697  -3.145  18.243  1.00  0.00    -0.272 OA
HETATM    6  N2  UNL     1     -24.484  -1.649  18.022  1.00  0.00    -0.353 N 
ATOM      7  H2  UNL     1     -24.902  -0.802  18.406  1.00  0.00     0.163 HD
BRANCH   6   8
HETATM    8  C4  UNL     1     -25.157  -2.267  16.906  1.00  0.00     0.103 C 
HETATM    9  C5  UNL     1     -26.626  -2.211  17.174  1.00  0.00     0.085 C 
HETATM   10 BR1  UNL     1     -27.320  -3.881  17.854  1.00  0.00    -0.089 Br
HETATM   11  C6  UNL     1     -27.401  -1.782  15.940  1.00  0.00     0.003 C 
HETATM   12  C7  UNL     1     -27.297  -2.770  14.852  1.00  0.00     0.010 C 
HETATM   13  C11 UNL     1     -26.836  -0.416  15.606  1.00  0.00     0.011 C 
HETATM   14  C8  UNL     1     -26.152  -2.623  13.918  1.00  0.00    -0.013 C 
HETATM   15  C9  UNL     1     -25.850  -1.172  13.564  1.00  0.00     0.010 C 
HETATM   16  C13 UNL     1     -24.814  -2.959  14.597  1.00  0.00     0.011 C 
HETATM   17  C10 UNL     1     -25.491  -0.671  14.974  1.00  0.00    -0.008 C 
HETATM   18  C12 UNL     1     -24.731  -1.793  15.574  1.00  0.00     0.014 C 
ENDBRANCH   6   8
ENDBRANCH   3   4
BRANCH   3  19
HETATM   19  C14 UNL     1     -22.686  -2.164  21.026  1.00  0.00     0.117 C 
HETATM   20  N3  UNL     1     -21.536  -2.329  21.827  1.00  0.00    -0.092 NA
HETATM   21  S1  UNL     1     -24.048  -2.876  21.523  1.00  0.00    -0.067 SA
ENDBRANCH   3  19
TORSDOF 3
ENDMDL
MODEL 3
REMARK VINA RESULT: -7.321438182      1.895      2.449
REMARK  3 active torsions:
REMARK  status: ('A' for Active; 'I' for Inactive)
REMARK    1  A    between atoms: C2_3  and  C3_4 
REMARK    2  A    between atoms: C2_3  and  C14_19 
REMARK       I    between atoms: C3_4  and  N2_6 
REMARK    3  A    between atoms: N2_6  and  C4_8 
ROOT
HETATM    1  N1  UNL     1     -24.183  -1.171  22.185  1.00  0.00    -0.196 NA
HETATM    2  C1  UNL     1     -23.724  -2.009  21.539  1.00  0.00     0.080 C 
HETATM    3  C2  UNL     1     -23.150  -3.090  20.695  1.00  0.00     0.242 C 
ENDROOT
BRANCH   3   4
HETATM    4  C3  UNL     1     -23.096  -2.663  19.278  1.00  0.00     0.242 C 
HETATM    5  O1  UNL     1     -21.947  -2.554  18.772  1.00  0.00    -0.272 OA
HETATM    6  N2  UNL     1     -24.275  -2.402  18.569  1.00  0.00    -0.353 N 
ATOM      7  H2  UNL     1     -25.155  -2.521  19.069  1.00  0.00     0.163 HD
BRANCH   6   8
HETATM    8  C4  UNL     1     -24.352  -1.979  17.193  1.00  0.00     0.103 C 
HETATM    9  C5  UNL     1     -24.629  -3.188  16.360  1.00  0.00     0.085 C 
HETATM   10 BR1  UNL     1     -23.038  -3.888  15.517  1.00  0.00    -0.089 Br
HETATM   11  C6  UNL     1     -25.699  -2.914  15.318  1.00  0.00     0.003 C 
HETATM   12  C7  UNL     1     -25.261  -1.918  14.325  1.00  0.00     0.010 C 
HETATM   13  C11 UNL     1     -26.910  -2.501  16.133  1.00  0.00     0.011 C 
HETATM   14  C8  UNL     1     -25.516  -0.491  14.647  1.00  0.00    -0.013 C 
HETATM   15  C9  UNL     1     -26.870  -0.259  15.307  1.00  0.00     0.010 C 
HETATM   16  C13 UNL     1     -24.629   0.001  15.801  1.00  0.00     0.011 C 
HETATM   17  C10 UNL     1     -26.639  -1.088  16.583  1.00  0.00    -0.008 C 
HETATM   18  C12 UNL     1     -25.227  -0.815  16.940  1.00  0.00     0.014 C 
ENDBRANCH   6   8
ENDBRANCH   3   4
BRANCH   3  19
HETATM   19  C14 UNL     1     -23.907  -4.346  20.911  1.00  0.00     0.117 C 
HETATM   20  N3  UNL     1     -24.930  -4.807  20.055  1.00  0.00    -0.092 NA
HETATM   21  S1  UNL     1     -23.552  -5.253  22.201  1.00  0.00    -0.067 SA
ENDBRANCH   3  19
TORSDOF 3
ENDMDL
MODEL 4
REMARK VINA RESULT: -7.159471379      2.588      3.388
REMARK  3 active torsions:
REMARK  status: ('A' for Active; 'I' for Inactive)
REMARK    1  A    between atoms: C2_3  and  C3_4 
REMARK    2  A    between atoms: C2_3  and  C14_19 
REMARK       I    between atoms: C3_4  and  N2_6 
REMARK    3  A    between atoms: N2_6  and  C4_8 
ROOT
HETATM    1  N1  UNL     1     -23.461  -4.401  22.681  1.00  0.00    -0.196 NA
HETATM    2  C1  UNL     1     -24.014  -4.622  21.693  1.00  0.00     0.080 C 
HETATM    3  C2  UNL     1     -24.739  -4.888  20.423  1.00  0.00     0.242 C 
ENDROOT
BRANCH   3   4
HETATM    4  C3  UNL     1     -24.478  -3.806  19.445  1.00  0.00     0.242 C 
HETATM    5  O1  UNL     1     -23.778  -2.842  19.855  1.00  0.00    -0.272 OA
HETATM    6  N2  UNL     1     -24.995  -3.880  18.147  1.00  0.00    -0.353 N 
ATOM      7  H2  UNL     1     -25.549  -4.704  17.913  1.00  0.00     0.163 HD
BRANCH   6   8
HETATM    8  C4  UNL     1     -24.813  -2.894  17.110  1.00  0.00     0.103 C 
HETATM    9  C5  UNL     1     -24.801  -3.609  15.799  1.00  0.00     0.085 C 
HETATM   10 BR1  UNL     1     -23.012  -3.895  15.127  1.00  0.00    -0.089 Br
HETATM   11  C6  UNL     1     -25.644  -2.887  14.762  1.00  0.00     0.003 C 
HETATM   12  C7  UNL     1     -25.090  -1.563  14.426  1.00  0.00     0.010 C 
HETATM   13  C11 UNL     1     -27.031  -2.853  15.373  1.00  0.00     0.011 C 
HETATM   14  C8  UNL     1     -25.529  -0.419  15.264  1.00  0.00    -0.013 C 
HETATM   15  C9  UNL     1     -27.008  -0.477  15.630  1.00  0.00     0.010 C 
HETATM   16  C13 UNL     1     -24.955  -0.500  16.687  1.00  0.00     0.011 C 
HETATM   17  C10 UNL     1     -26.984  -1.787  16.438  1.00  0.00    -0.008 C 
HETATM   18  C12 UNL     1     -25.710  -1.723  17.192  1.00  0.00     0.014 C 
ENDBRANCH   6   8
ENDBRANCH   3   4
BRANCH   3  19
HETATM   19  C14 UNL     1     -26.179  -5.100  20.705  1.00  0.00     0.117 C 
HETATM   20  N3  UNL     1     -27.223  -4.488  19.981  1.00  0.00    -0.092 NA
HETATM   21  S1  UNL     1     -26.593  -6.090  21.914  1.00  0.00    -0.067 SA
ENDBRANCH   3  19
TORSDOF 3
ENDMDL
MODEL 5
REMARK VINA RESULT: -7.148544236      1.367      2.064
REMARK  3 active torsions:
REMARK  status: ('A' for Active; 'I' for Inactive)
REMARK    1  A    between atoms: C2_3  and  C3_4 
REMARK    2  A    between atoms: C2_3  and  C14_19 
REMARK       I    between atoms: C3_4  and  N2_6 
REMARK    3  A    between atoms: N2_6  and  C4_8 
ROOT
HETATM    1  N1  UNL     1     -23.045  -4.902  22.250  1.00  0.00    -0.196 NA
HETATM    2  C1  UNL     1     -23.589  -4.035  21.718  1.00  0.00     0.080 C 
HETATM    3  C2  UNL     1     -24.277  -2.920  21.015  1.00  0.00     0.242 C 
ENDROOT
BRANCH   3   4
HETATM    4  C3  UNL     1     -24.913  -3.412  19.771  1.00  0.00     0.242 C 
HETATM    5  O1  UNL     1     -25.303  -4.610  19.780  1.00  0.00    -0.272 OA
HETATM    6  N2  UNL     1     -25.057  -2.567  18.664  1.00  0.00    -0.353 N 
ATOM      7  H2  UNL     1     -24.710  -1.613  18.758  1.00  0.00     0.163 HD
BRANCH   6   8
HETATM    8  C4  UNL     1     -25.654  -2.928  17.402  1.00  0.00     0.103 C 
HETATM    9  C5  UNL     1     -27.048  -2.390  17.387  1.00  0.00     0.085 C 
HETATM   10 BR1  UNL     1     -28.367  -3.737  17.810  1.00  0.00    -0.089 Br
HETATM   11  C6  UNL     1     -27.376  -1.730  16.060  1.00  0.00     0.003 C 
HETATM   12  C7  UNL     1     -27.381  -2.697  14.948  1.00  0.00     0.010 C 
HETATM   13  C11 UNL     1     -26.345  -0.627  15.931  1.00  0.00     0.011 C 
HETATM   14  C8  UNL     1     -26.086  -2.936  14.261  1.00  0.00    -0.013 C 
HETATM   15  C9  UNL     1     -25.266  -1.666  14.069  1.00  0.00     0.010 C 
HETATM   16  C13 UNL     1     -25.095  -3.695  15.159  1.00  0.00     0.011 C 
HETATM   17  C10 UNL     1     -25.056  -1.312  15.552  1.00  0.00    -0.008 C 
HETATM   18  C12 UNL     1     -24.838  -2.622  16.209  1.00  0.00     0.014 C 
ENDBRANCH   6   8
ENDBRANCH   3   4
BRANCH   3  19
HETATM   19  C14 UNL     1     -23.325  -1.805  20.797  1.00  0.00     0.117 C 
HETATM   20  N3  UNL     1     -22.316  -1.812  19.810  1.00  0.00    -0.092 NA
HETATM   21  S1  UNL     1     -23.435  -0.497  21.739  1.00  0.00    -0.067 SA
ENDBRANCH   3  19
TORSDOF 3
ENDMDL
