MODEL 1
REMARK VINA RESULT: -8.807685668      0.000      0.000
REMARK  5 active torsions:
REMARK  status: ('A' for Active; 'I' for Inactive)
REMARK    1  A    between atoms: C5_6  and  C6_7 
REMARK    2  A    between atoms: C6_7  and  N3_11 
REMARK    3  A    between atoms: N3_11  and  C7_12 
REMARK    4  A    between atoms: N3_11  and  C13_18 
REMARK    5  A    between atoms: C16_21  and  C17_22 
ROOT
HETATM    1  N1  UNL     1      21.728 -10.212  10.796  1.00  0.00    -0.191 NA
HETATM    2  C1  UNL     1      21.005  -9.412  10.396  1.00  0.00     0.099 C 
HETATM    3  C2  UNL     1      20.120  -8.392   9.896  1.00  0.00     0.044 A 
HETATM    4  C3  UNL     1      20.151  -7.109  10.403  1.00  0.00     0.023 A 
HETATM    5  C4  UNL     1      19.306  -6.142   9.919  1.00  0.00     0.017 A 
HETATM    6  C5  UNL     1      18.388  -6.403   8.909  1.00  0.00     0.008 A 
HETATM    7  C22 UNL     1      18.394  -7.695   8.437  1.00  0.00     0.017 A 
HETATM    8  C23 UNL     1      19.229  -8.692   8.899  1.00  0.00     0.023 A 
ENDROOT
BRANCH   6   9
HETATM    9  C6  UNL     1      17.510  -5.358   8.403  1.00  0.00     0.117 C 
HETATM   10  N2  UNL     1      16.779  -4.681   9.207  1.00  0.00    -0.384 N 
ATOM     11  H22 UNL     1      16.857  -4.910  10.198  1.00  0.00     0.157 HD
ATOM     12  H21 UNL     1      16.164  -3.949   8.852  1.00  0.00     0.157 HD
BRANCH   9  13
HETATM   13  N3  UNL     1      17.402  -5.040   7.028  1.00  0.00    -0.283 N 
BRANCH  13  14
HETATM   14  C7  UNL     1      16.341  -5.601   6.264  1.00  0.00     0.042 A 
HETATM   15  C8  UNL     1      15.222  -4.844   5.943  1.00  0.00     0.030 A 
HETATM   16  C9  UNL     1      14.229  -5.402   5.208  1.00  0.00     0.002 A 
HETATM   17  C10 UNL     1      14.316  -6.709   4.776  1.00  0.00     0.000 A 
HETATM   18  C11 UNL     1      15.409  -7.478   5.080  1.00  0.00     0.002 A 
HETATM   19  C12 UNL     1      16.418  -6.911   5.826  1.00  0.00     0.030 A 
ENDBRANCH  13  14
BRANCH  13  20
HETATM   20  C13 UNL     1      18.324  -4.157   6.444  1.00  0.00     0.114 A 
HETATM   21  C14 UNL     1      18.817  -4.252   5.146  1.00  0.00     0.051 A 
HETATM   22  C15 UNL     1      19.665  -3.200   4.998  1.00  0.00     0.036 A 
HETATM   23  C16 UNL     1      19.706  -2.461   6.172  1.00  0.00     0.062 A 
HETATM   24  N6  UNL     1      18.889  -3.058   7.025  1.00  0.00    -0.340 N 
ATOM     25  H6  UNL     1      18.708  -2.743   7.978  1.00  0.00     0.167 HD
BRANCH  23  26
HETATM   26  C17 UNL     1      20.523  -1.249   6.340  1.00  0.00     0.077 A 
HETATM   27  C18 UNL     1      21.762  -1.168   6.944  1.00  0.00     0.130 A 
HETATM   28  N4  UNL     1      22.218   0.133   6.924  1.00  0.00    -0.310 N 
HETATM   29  C19 UNL     1      23.281   0.776   7.333  1.00  0.00     0.106 A 
HETATM   30  C21 UNL     1      21.256   0.825   6.313  1.00  0.00     0.155 A 
HETATM   31  C20 UNL     1      23.343   2.128   7.108  1.00  0.00     0.071 A 
HETATM   32  S1  UNL     1      21.861   2.418   6.313  1.00  0.00    -0.064 SA
HETATM   33  N5  UNL     1      20.230  -0.002   5.958  1.00  0.00    -0.333 N 
ATOM     34  H5  UNL     1      19.377   0.286   5.478  1.00  0.00     0.168 HD
ENDBRANCH  23  26
ENDBRANCH  13  20
ENDBRANCH   9  13
ENDBRANCH   6   9
TORSDOF 5
ENDMDL
MODEL 2
REMARK VINA RESULT: -8.796346415      4.407      8.892
REMARK  5 active torsions:
REMARK  status: ('A' for Active; 'I' for Inactive)
REMARK    1  A    between atoms: C5_6  and  C6_7 
REMARK    2  A    between atoms: C6_7  and  N3_11 
REMARK    3  A    between atoms: N3_11  and  C7_12 
REMARK    4  A    between atoms: N3_11  and  C13_18 
REMARK    5  A    between atoms: C16_21  and  C17_22 
ROOT
HETATM    1  N1  UNL     1      21.686  -1.407   4.234  1.00  0.00    -0.191 NA
HETATM    2  C1  UNL     1      20.932  -1.997   4.873  1.00  0.00     0.099 C 
HETATM    3  C2  UNL     1      19.994  -2.757   5.656  1.00  0.00     0.044 A 
HETATM    4  C3  UNL     1      19.096  -3.618   5.058  1.00  0.00     0.023 A 
HETATM    5  C4  UNL     1      18.206  -4.340   5.812  1.00  0.00     0.017 A 
HETATM    6  C5  UNL     1      18.163  -4.242   7.198  1.00  0.00     0.008 A 
HETATM    7  C22 UNL     1      19.075  -3.372   7.748  1.00  0.00     0.017 A 
HETATM    8  C23 UNL     1      19.985  -2.629   7.020  1.00  0.00     0.023 A 
ENDROOT
BRANCH   6   9
HETATM    9  C6  UNL     1      17.219  -5.029   7.978  1.00  0.00     0.117 C 
HETATM   10  N2  UNL     1      16.802  -4.601   9.110  1.00  0.00    -0.384 N 
ATOM     11  H22 UNL     1      17.157  -3.695   9.416  1.00  0.00     0.157 HD
ATOM     12  H21 UNL     1      16.140  -5.152   9.657  1.00  0.00     0.157 HD
BRANCH   9  13
HETATM   13  N3  UNL     1      16.725  -6.285   7.554  1.00  0.00    -0.283 N 
BRANCH  13  14
HETATM   14  C7  UNL     1      15.789  -6.341   6.484  1.00  0.00     0.042 A 
HETATM   15  C8  UNL     1      14.836  -5.343   6.323  1.00  0.00     0.030 A 
HETATM   16  C9  UNL     1      13.961  -5.419   5.291  1.00  0.00     0.002 A 
HETATM   17  C10 UNL     1      14.004  -6.471   4.401  1.00  0.00     0.000 A 
HETATM   18  C11 UNL     1      14.933  -7.469   4.537  1.00  0.00     0.002 A 
HETATM   19  C12 UNL     1      15.823  -7.392   5.585  1.00  0.00     0.030 A 
ENDBRANCH  13  14
BRANCH  13  20
HETATM   20  C13 UNL     1      17.185  -7.458   8.172  1.00  0.00     0.114 A 
HETATM   21  C14 UNL     1      18.521  -7.822   8.311  1.00  0.00     0.051 A 
HETATM   22  C15 UNL     1      18.510  -9.013   8.969  1.00  0.00     0.036 A 
HETATM   23  C16 UNL     1      17.202  -9.389   9.237  1.00  0.00     0.062 A 
HETATM   24  N6  UNL     1      16.425  -8.436   8.747  1.00  0.00    -0.340 N 
ATOM     25  H6  UNL     1      15.406  -8.432   8.793  1.00  0.00     0.167 HD
BRANCH  23  26
HETATM   26  C17 UNL     1      16.842 -10.626   9.948  1.00  0.00     0.077 A 
HETATM   27  C18 UNL     1      17.483 -11.160  11.048  1.00  0.00     0.130 A 
HETATM   28  N4  UNL     1      16.869 -12.333  11.435  1.00  0.00    -0.310 N 
HETATM   29  C19 UNL     1      17.036 -13.232  12.369  1.00  0.00     0.106 A 
HETATM   30  C21 UNL     1      15.867 -12.496  10.570  1.00  0.00     0.155 A 
HETATM   31  C20 UNL     1      16.167 -14.292  12.406  1.00  0.00     0.071 A 
HETATM   32  S1  UNL     1      15.141 -13.950  11.086  1.00  0.00    -0.064 SA
HETATM   33  N5  UNL     1      15.844 -11.471   9.670  1.00  0.00    -0.333 N 
ATOM     34  H5  UNL     1      15.174 -11.367   8.908  1.00  0.00     0.168 HD
ENDBRANCH  23  26
ENDBRANCH  13  20
ENDBRANCH   9  13
ENDBRANCH   6   9
TORSDOF 5
ENDMDL
MODEL 3
REMARK VINA RESULT: -8.770578469      1.912      4.977
REMARK  5 active torsions:
REMARK  status: ('A' for Active; 'I' for Inactive)
REMARK    1  A    between atoms: C5_6  and  C6_7 
REMARK    2  A    between atoms: C6_7  and  N3_11 
REMARK    3  A    between atoms: N3_11  and  C7_12 
REMARK    4  A    between atoms: N3_11  and  C13_18 
REMARK    5  A    between atoms: C16_21  and  C17_22 
ROOT
HETATM    1  N1  UNL     1      13.078  -6.907   3.109  1.00  0.00    -0.191 NA
HETATM    2  C1  UNL     1      13.861  -6.775   3.942  1.00  0.00     0.099 C 
HETATM    3  C2  UNL     1      14.859  -6.614   4.967  1.00  0.00     0.044 A 
HETATM    4  C3  UNL     1      15.942  -7.467   5.048  1.00  0.00     0.023 A 
HETATM    5  C4  UNL     1      16.890  -7.305   6.026  1.00  0.00     0.017 A 
HETATM    6  C5  UNL     1      16.810  -6.291   6.973  1.00  0.00     0.008 A 
HETATM    7  C22 UNL     1      15.713  -5.470   6.852  1.00  0.00     0.017 A 
HETATM    8  C23 UNL     1      14.740  -5.601   5.881  1.00  0.00     0.023 A 
ENDROOT
BRANCH   6   9
HETATM    9  C6  UNL     1      17.835  -6.132   7.994  1.00  0.00     0.117 C 
HETATM   10  N2  UNL     1      18.352  -7.158   8.557  1.00  0.00    -0.384 N 
ATOM     11  H22 UNL     1      18.014  -8.070   8.246  1.00  0.00     0.157 HD
ATOM     12  H21 UNL     1      19.070  -7.047   9.273  1.00  0.00     0.157 HD
BRANCH   9  13
HETATM   13  N3  UNL     1      18.303  -4.868   8.426  1.00  0.00    -0.283 N 
BRANCH  13  14
HETATM   14  C7  UNL     1      18.167  -4.504   9.793  1.00  0.00     0.042 A 
HETATM   15  C8  UNL     1      19.261  -4.543  10.650  1.00  0.00     0.030 A 
HETATM   16  C9  UNL     1      19.104  -4.184  11.947  1.00  0.00     0.002 A 
HETATM   17  C10 UNL     1      17.875  -3.782  12.427  1.00  0.00     0.000 A 
HETATM   18  C11 UNL     1      16.780  -3.736  11.605  1.00  0.00     0.002 A 
HETATM   19  C12 UNL     1      16.940  -4.100  10.286  1.00  0.00     0.030 A 
ENDBRANCH  13  14
BRANCH  13  20
HETATM   20  C13 UNL     1      18.920  -4.004   7.507  1.00  0.00     0.114 A 
HETATM   21  C14 UNL     1      18.960  -4.193   6.129  1.00  0.00     0.051 A 
HETATM   22  C15 UNL     1      19.642  -3.125   5.632  1.00  0.00     0.036 A 
HETATM   23  C16 UNL     1      20.020  -2.286   6.670  1.00  0.00     0.062 A 
HETATM   24  N6  UNL     1      19.573  -2.838   7.787  1.00  0.00    -0.340 N 
ATOM     25  H6  UNL     1      19.698  -2.449   8.721  1.00  0.00     0.167 HD
BRANCH  23  26
HETATM   26  C17 UNL     1      20.766  -1.034   6.471  1.00  0.00     0.077 A 
HETATM   27  C18 UNL     1      22.138  -0.897   6.380  1.00  0.00     0.130 A 
HETATM   28  N4  UNL     1      22.474   0.428   6.202  1.00  0.00    -0.310 N 
HETATM   29  C19 UNL     1      23.574   1.121   6.060  1.00  0.00     0.106 A 
HETATM   30  C21 UNL     1      21.310   1.078   6.188  1.00  0.00     0.155 A 
HETATM   31  C20 UNL     1      23.465   2.479   5.902  1.00  0.00     0.071 A 
HETATM   32  S1  UNL     1      21.774   2.704   5.967  1.00  0.00    -0.064 SA
HETATM   33  N5  UNL     1      20.276   0.204   6.349  1.00  0.00    -0.333 N 
ATOM     34  H5  UNL     1      19.287   0.454   6.374  1.00  0.00     0.168 HD
ENDBRANCH  23  26
ENDBRANCH  13  20
ENDBRANCH   9  13
ENDBRANCH   6   9
TORSDOF 5
ENDMDL
MODEL 4
REMARK VINA RESULT: -8.757569878      1.499      1.969
REMARK  5 active torsions:
REMARK  status: ('A' for Active; 'I' for Inactive)
REMARK    1  A    between atoms: C5_6  and  C6_7 
REMARK    2  A    between atoms: C6_7  and  N3_11 
REMARK    3  A    between atoms: N3_11  and  C7_12 
REMARK    4  A    between atoms: N3_11  and  C13_18 
REMARK    5  A    between atoms: C16_21  and  C17_22 
ROOT
HETATM    1  N1  UNL     1      17.248 -11.596  10.095  1.00  0.00    -0.191 NA
HETATM    2  C1  UNL     1      17.347 -10.500   9.760  1.00  0.00     0.099 C 
HETATM    3  C2  UNL     1      17.462  -9.121   9.364  1.00  0.00     0.044 A 
HETATM    4  C3  UNL     1      16.444  -8.221   9.611  1.00  0.00     0.023 A 
HETATM    5  C4  UNL     1      16.561  -6.907   9.233  1.00  0.00     0.017 A 
HETATM    6  C5  UNL     1      17.694  -6.422   8.590  1.00  0.00     0.008 A 
HETATM    7  C22 UNL     1      18.679  -7.356   8.366  1.00  0.00     0.017 A 
HETATM    8  C23 UNL     1      18.596  -8.685   8.732  1.00  0.00     0.023 A 
ENDROOT
BRANCH   6   9
HETATM    9  C6  UNL     1      17.802  -5.021   8.210  1.00  0.00     0.117 C 
HETATM   10  N2  UNL     1      18.108  -4.136   9.082  1.00  0.00    -0.384 N 
ATOM     11  H22 UNL     1      18.276  -4.469  10.032  1.00  0.00     0.157 HD
ATOM     12  H21 UNL     1      18.184  -3.154   8.815  1.00  0.00     0.157 HD
BRANCH   9  13
HETATM   13  N3  UNL     1      17.569  -4.560   6.892  1.00  0.00    -0.283 N 
BRANCH  13  14
HETATM   14  C7  UNL     1      16.330  -4.854   6.260  1.00  0.00     0.042 A 
HETATM   15  C8  UNL     1      16.073  -6.123   5.756  1.00  0.00     0.030 A 
HETATM   16  C9  UNL     1      14.880  -6.376   5.165  1.00  0.00     0.002 A 
HETATM   17  C10 UNL     1      13.921  -5.392   5.056  1.00  0.00     0.000 A 
HETATM   18  C11 UNL     1      14.147  -4.133   5.543  1.00  0.00     0.002 A 
HETATM   19  C12 UNL     1      15.359  -3.875   6.145  1.00  0.00     0.030 A 
ENDBRANCH  13  14
BRANCH  13  20
HETATM   20  C13 UNL     1      18.550  -3.797   6.239  1.00  0.00     0.114 A 
HETATM   21  C14 UNL     1      19.168  -4.140   5.041  1.00  0.00     0.051 A 
HETATM   22  C15 UNL     1      20.035  -3.126   4.773  1.00  0.00     0.036 A 
HETATM   23  C16 UNL     1      19.963  -2.170   5.775  1.00  0.00     0.062 A 
HETATM   24  N6  UNL     1      19.062  -2.599   6.645  1.00  0.00    -0.340 N 
ATOM     25  H6  UNL     1      18.790  -2.104   7.494  1.00  0.00     0.167 HD
BRANCH  23  26
HETATM   26  C17 UNL     1      20.768  -0.938   5.781  1.00  0.00     0.077 A 
HETATM   27  C18 UNL     1      22.099  -0.821   5.430  1.00  0.00     0.130 A 
HETATM   28  N4  UNL     1      22.515   0.486   5.569  1.00  0.00    -0.310 N 
HETATM   29  C19 UNL     1      23.623   1.157   5.389  1.00  0.00     0.106 A 
HETATM   30  C21 UNL     1      21.439   1.145   6.000  1.00  0.00     0.155 A 
HETATM   31  C20 UNL     1      23.612   2.502   5.655  1.00  0.00     0.071 A 
HETATM   32  S1  UNL     1      21.999   2.747   6.155  1.00  0.00    -0.064 SA
HETATM   33  N5  UNL     1      20.381   0.293   6.131  1.00  0.00    -0.333 N 
ATOM     34  H5  UNL     1      19.446   0.553   6.445  1.00  0.00     0.168 HD
ENDBRANCH  23  26
ENDBRANCH  13  20
ENDBRANCH   9  13
ENDBRANCH   6   9
TORSDOF 5
ENDMDL
MODEL 5
REMARK VINA RESULT: -8.687625755      1.901      2.777
REMARK  5 active torsions:
REMARK  status: ('A' for Active; 'I' for Inactive)
REMARK    1  A    between atoms: C5_6  and  C6_7 
REMARK    2  A    between atoms: C6_7  and  N3_11 
REMARK    3  A    between atoms: N3_11  and  C7_12 
REMARK    4  A    between atoms: N3_11  and  C13_18 
REMARK    5  A    between atoms: C16_21  and  C17_22 
ROOT
HETATM    1  N1  UNL     1      18.438  -3.043  14.277  1.00  0.00    -0.191 NA
HETATM    2  C1  UNL     1      18.336  -3.453  13.207  1.00  0.00     0.099 C 
HETATM    3  C2  UNL     1      18.224  -3.987  11.875  1.00  0.00     0.044 A 
HETATM    4  C3  UNL     1      19.313  -4.542  11.234  1.00  0.00     0.023 A 
HETATM    5  C4  UNL     1      19.197  -5.051   9.965  1.00  0.00     0.017 A 
HETATM    6  C5  UNL     1      17.994  -5.034   9.270  1.00  0.00     0.008 A 
HETATM    7  C22 UNL     1      16.938  -4.470   9.949  1.00  0.00     0.017 A 
HETATM    8  C23 UNL     1      17.018  -3.949  11.225  1.00  0.00     0.023 A 
ENDROOT
BRANCH   6   9
HETATM    9  C6  UNL     1      17.891  -5.591   7.929  1.00  0.00     0.117 C 
HETATM   10  N2  UNL     1      18.088  -6.840   7.732  1.00  0.00    -0.384 N 
ATOM     11  H22 UNL     1      18.306  -7.405   8.553  1.00  0.00     0.157 HD
ATOM     12  H21 UNL     1      18.016  -7.231   6.792  1.00  0.00     0.157 HD
BRANCH   9  13
HETATM   13  N3  UNL     1      17.589  -4.809   6.789  1.00  0.00    -0.283 N 
BRANCH  13  14
HETATM   14  C7  UNL     1      16.300  -4.909   6.198  1.00  0.00     0.042 A 
HETATM   15  C8  UNL     1      15.480  -3.793   6.090  1.00  0.00     0.030 A 
HETATM   16  C9  UNL     1      14.259  -3.916   5.514  1.00  0.00     0.002 A 
HETATM   17  C10 UNL     1      13.821  -5.133   5.037  1.00  0.00     0.000 A 
HETATM   18  C11 UNL     1      14.609  -6.250   5.131  1.00  0.00     0.002 A 
HETATM   19  C12 UNL     1      15.849  -6.125   5.715  1.00  0.00     0.030 A 
ENDBRANCH  13  14
BRANCH  13  20
HETATM   20  C13 UNL     1      18.552  -3.925   6.277  1.00  0.00     0.114 A 
HETATM   21  C14 UNL     1      19.160  -4.034   5.030  1.00  0.00     0.051 A 
HETATM   22  C15 UNL     1      20.010  -2.976   4.943  1.00  0.00     0.036 A 
HETATM   23  C16 UNL     1      19.939  -2.220   6.104  1.00  0.00     0.062 A 
HETATM   24  N6  UNL     1      19.054  -2.813   6.889  1.00  0.00    -0.340 N 
ATOM     25  H6  UNL     1      18.785  -2.486   7.817  1.00  0.00     0.167 HD
BRANCH  23  26
HETATM   26  C17 UNL     1      20.727  -0.998   6.326  1.00  0.00     0.077 A 
HETATM   27  C18 UNL     1      22.008  -0.925   6.839  1.00  0.00     0.130 A 
HETATM   28  N4  UNL     1      22.418   0.389   6.911  1.00  0.00    -0.310 N 
HETATM   29  C19 UNL     1      23.489   1.032   7.299  1.00  0.00     0.106 A 
HETATM   30  C21 UNL     1      21.389   1.096   6.444  1.00  0.00     0.155 A 
HETATM   31  C20 UNL     1      23.490   2.400   7.201  1.00  0.00     0.071 A 
HETATM   32  S1  UNL     1      21.941   2.705   6.552  1.00  0.00    -0.064 SA
HETATM   33  N5  UNL     1      20.365   0.267   6.089  1.00  0.00    -0.333 N 
ATOM     34  H5  UNL     1      19.468   0.564   5.706  1.00  0.00     0.168 HD
ENDBRANCH  23  26
ENDBRANCH  13  20
ENDBRANCH   9  13
ENDBRANCH   6   9
TORSDOF 5
ENDMDL
