MODEL 1
REMARK VINA RESULT: -8.742990976      0.000      0.000
REMARK  6 active torsions:
REMARK  status: ('A' for Active; 'I' for Inactive)
REMARK    1  A    between atoms: O1_1  and  C1_3 
REMARK    2  A    between atoms: C6_8  and  N1_9 
REMARK    3  A    between atoms: C7_11  and  C8_12 
REMARK    4  A    between atoms: C13_18  and  O2_19 
REMARK    5  A    between atoms: C13_18  and  C14_21 
REMARK    6  A    between atoms: C20_27  and  C21_28 
ROOT
HETATM    1  C8  UNL     1      16.203  -5.889   7.037  1.00  0.00    -0.007 A 
HETATM    2  C9  UNL     1      15.489  -6.916   7.600  1.00  0.00     0.063 A 
HETATM    3  S1  UNL     1      16.473  -7.406   8.907  1.00  0.00    -0.104 SA
HETATM    4  C10 UNL     1      17.756  -6.314   8.718  1.00  0.00     0.002 A 
HETATM    5  C11 UNL     1      17.392  -5.583   7.634  1.00  0.00    -0.029 A 
HETATM    6  C12 UNL     1      18.519  -4.592   7.425  1.00  0.00     0.084 C 
HETATM    7  C13 UNL     1      19.086  -4.416   8.795  1.00  0.00     0.101 C 
HETATM    8  C20 UNL     1      19.081  -5.865   9.264  1.00  0.00     0.105 C 
ENDROOT
BRANCH   1   9
HETATM    9  C7  UNL     1      15.667  -5.182   5.837  1.00  0.00     0.101 C 
HETATM   10  N1  UNL     1      14.616  -5.586   5.219  1.00  0.00    -0.363 N 
ATOM     11  H1  UNL     1      14.117  -6.416   5.542  1.00  0.00     0.165 HD
BRANCH  10  12
HETATM   12  C6  UNL     1      14.158  -4.878   4.097  1.00  0.00     0.065 A 
HETATM   13  C1  UNL     1      13.449  -5.490   3.103  1.00  0.00     0.092 A 
HETATM   14  C2  UNL     1      13.018  -4.762   2.028  1.00  0.00     0.039 A 
HETATM   15  C3  UNL     1      13.321  -3.402   1.978  1.00  0.00     0.003 A 
HETATM   16  C4  UNL     1      14.030  -2.760   2.958  1.00  0.00     0.002 A 
HETATM   17  C5  UNL     1      14.460  -3.516   4.043  1.00  0.00     0.032 A 
BRANCH  13  18
HETATM   18  O1  UNL     1      13.165  -6.827   3.175  1.00  0.00    -0.358 OA
ATOM     19  H1  UNL     1      12.328  -7.113   3.521  1.00  0.00     0.217 HD
ENDBRANCH  13  18
ENDBRANCH  10  12
ENDBRANCH   1   9
BRANCH   8  20
HETATM   20  C21 UNL     1      19.098  -5.859  10.766  1.00  0.00    -0.005 A 
HETATM   21  C22 UNL     1      18.212  -5.261  11.618  1.00  0.00     0.016 A 
HETATM   22  C23 UNL     1      18.421  -5.397  12.932  1.00  0.00     0.008 A 
HETATM   23  C24 UNL     1      19.509  -6.125  13.328  1.00  0.00     0.050 A 
HETATM   24  S2  UNL     1      20.208  -6.599  11.847  1.00  0.00    -0.106 SA
ENDBRANCH   8  20
BRANCH   7  25
HETATM   25  O2  UNL     1      18.201  -3.629   9.531  1.00  0.00    -0.384 OA
ATOM     26  H2  UNL     1      18.675  -3.268  10.271  1.00  0.00     0.211 HD
ENDBRANCH   7  25
BRANCH   7  27
HETATM   27  C14 UNL     1      20.444  -3.838   8.813  1.00  0.00    -0.023 A 
HETATM   28  C15 UNL     1      20.950  -3.262   7.669  1.00  0.00     0.010 A 
HETATM   29  C16 UNL     1      22.231  -2.713   7.686  1.00  0.00     0.001 A 
HETATM   30  C17 UNL     1      23.018  -2.725   8.821  1.00  0.00     0.000 A 
HETATM   31  C18 UNL     1      22.503  -3.302   9.953  1.00  0.00     0.001 A 
HETATM   32  C19 UNL     1      21.239  -3.843   9.935  1.00  0.00     0.010 A 
ENDBRANCH   7  27
TORSDOF 6
ENDMDL
MODEL 2
REMARK VINA RESULT: -8.503667384      3.142      7.171
REMARK  6 active torsions:
REMARK  status: ('A' for Active; 'I' for Inactive)
REMARK    1  A    between atoms: O1_1  and  C1_3 
REMARK    2  A    between atoms: C6_8  and  N1_9 
REMARK    3  A    between atoms: C7_11  and  C8_12 
REMARK    4  A    between atoms: C13_18  and  O2_19 
REMARK    5  A    between atoms: C13_18  and  C14_21 
REMARK    6  A    between atoms: C20_27  and  C21_28 
ROOT
HETATM    1  C8  UNL     1      20.611  -3.260   7.872  1.00  0.00    -0.007 A 
HETATM    2  C9  UNL     1      21.235  -3.570   9.055  1.00  0.00     0.063 A 
HETATM    3  S1  UNL     1      20.102  -4.578   9.840  1.00  0.00    -0.104 SA
HETATM    4  C10 UNL     1      18.874  -4.589   8.672  1.00  0.00     0.002 A 
HETATM    5  C11 UNL     1      19.372  -3.802   7.684  1.00  0.00    -0.029 A 
HETATM    6  C12 UNL     1      18.301  -3.779   6.613  1.00  0.00     0.084 C 
HETATM    7  C13 UNL     1      17.592  -5.080   6.803  1.00  0.00     0.101 C 
HETATM    8  C20 UNL     1      17.509  -5.109   8.323  1.00  0.00     0.105 C 
ENDROOT
BRANCH   1   9
HETATM    9  C7  UNL     1      21.292  -2.373   6.884  1.00  0.00     0.101 C 
HETATM   10  N1  UNL     1      22.440  -2.663   6.384  1.00  0.00    -0.363 N 
ATOM     11  H1  UNL     1      22.918  -3.521   6.659  1.00  0.00     0.165 HD
BRANCH  10  12
HETATM   12  C6  UNL     1      23.030  -1.789   5.457  1.00  0.00     0.065 A 
HETATM   13  C1  UNL     1      22.974  -2.023   4.113  1.00  0.00     0.092 A 
HETATM   14  C2  UNL     1      23.559  -1.144   3.244  1.00  0.00     0.039 A 
HETATM   15  C3  UNL     1      24.203  -0.022   3.763  1.00  0.00     0.003 A 
HETATM   16  C4  UNL     1      24.276   0.242   5.105  1.00  0.00     0.002 A 
HETATM   17  C5  UNL     1      23.676  -0.663   5.973  1.00  0.00     0.032 A 
BRANCH  13  18
HETATM   18  O1  UNL     1      22.336  -3.133   3.629  1.00  0.00    -0.358 OA
ATOM     19  H1  UNL     1      22.606  -3.996   3.919  1.00  0.00     0.217 HD
ENDBRANCH  13  18
ENDBRANCH  10  12
ENDBRANCH   1   9
BRANCH   8  20
HETATM   20  C21 UNL     1      17.330  -6.540   8.744  1.00  0.00    -0.005 A 
HETATM   21  C22 UNL     1      16.178  -7.170   9.128  1.00  0.00     0.016 A 
HETATM   22  C23 UNL     1      16.254  -8.464   9.454  1.00  0.00     0.008 A 
HETATM   23  C24 UNL     1      17.480  -9.065   9.382  1.00  0.00     0.050 A 
HETATM   24  S2  UNL     1      18.494  -7.798   8.858  1.00  0.00    -0.106 SA
ENDBRANCH   8  20
BRANCH   7  25
HETATM   25  O2  UNL     1      18.411  -6.094   6.308  1.00  0.00    -0.384 OA
ATOM     26  H2  UNL     1      18.012  -6.928   6.527  1.00  0.00     0.211 HD
ENDBRANCH   7  25
BRANCH   7  27
HETATM   27  C14 UNL     1      16.255  -5.132   6.180  1.00  0.00    -0.023 A 
HETATM   28  C15 UNL     1      15.478  -3.995   6.148  1.00  0.00     0.010 A 
HETATM   29  C16 UNL     1      14.217  -4.042   5.557  1.00  0.00     0.001 A 
HETATM   30  C17 UNL     1      13.714  -5.200   4.996  1.00  0.00     0.000 A 
HETATM   31  C18 UNL     1      14.497  -6.325   5.035  1.00  0.00     0.001 A 
HETATM   32  C19 UNL     1      15.741  -6.277   5.618  1.00  0.00     0.010 A 
ENDBRANCH   7  27
TORSDOF 6
ENDMDL
MODEL 3
REMARK VINA RESULT: -8.491979558      1.450      1.836
REMARK  6 active torsions:
REMARK  status: ('A' for Active; 'I' for Inactive)
REMARK    1  A    between atoms: O1_1  and  C1_3 
REMARK    2  A    between atoms: C6_8  and  N1_9 
REMARK    3  A    between atoms: C7_11  and  C8_12 
REMARK    4  A    between atoms: C13_18  and  O2_19 
REMARK    5  A    between atoms: C13_18  and  C14_21 
REMARK    6  A    between atoms: C20_27  and  C21_28 
ROOT
HETATM    1  C8  UNL     1      16.574  -6.700   8.055  1.00  0.00    -0.007 A 
HETATM    2  C9  UNL     1      16.188  -7.596   9.020  1.00  0.00     0.063 A 
HETATM    3  S1  UNL     1      17.396  -7.426  10.216  1.00  0.00    -0.104 SA
HETATM    4  C10 UNL     1      18.355  -6.238   9.481  1.00  0.00     0.002 A 
HETATM    5  C11 UNL     1      17.713  -5.993   8.310  1.00  0.00    -0.029 A 
HETATM    6  C12 UNL     1      18.543  -4.933   7.614  1.00  0.00     0.084 C 
HETATM    7  C13 UNL     1      19.197  -4.207   8.744  1.00  0.00     0.101 C 
HETATM    8  C20 UNL     1      19.587  -5.389   9.620  1.00  0.00     0.105 C 
ENDROOT
BRANCH   1   9
HETATM    9  C7  UNL     1      15.759  -6.549   6.815  1.00  0.00     0.101 C 
HETATM   10  N1  UNL     1      15.436  -5.397   6.346  1.00  0.00    -0.363 N 
ATOM     11  H1  UNL     1      15.735  -4.546   6.823  1.00  0.00     0.165 HD
BRANCH  10  12
HETATM   12  C6  UNL     1      14.668  -5.319   5.173  1.00  0.00     0.065 A 
HETATM   13  C1  UNL     1      14.308  -4.118   4.630  1.00  0.00     0.092 A 
HETATM   14  C2  UNL     1      13.563  -4.087   3.483  1.00  0.00     0.039 A 
HETATM   15  C3  UNL     1      13.189  -5.295   2.897  1.00  0.00     0.003 A 
HETATM   16  C4  UNL     1      13.534  -6.514   3.417  1.00  0.00     0.002 A 
HETATM   17  C5  UNL     1      14.291  -6.527   4.583  1.00  0.00     0.032 A 
BRANCH  13  18
HETATM   18  O1  UNL     1      14.688  -2.946   5.225  1.00  0.00    -0.358 OA
ATOM     19  H1  UNL     1      14.718  -2.887   6.173  1.00  0.00     0.217 HD
ENDBRANCH  13  18
ENDBRANCH  10  12
ENDBRANCH   1   9
BRANCH   8  20
HETATM   20  C21 UNL     1      19.763  -4.881  11.022  1.00  0.00    -0.005 A 
HETATM   21  C22 UNL     1      18.841  -4.258  11.818  1.00  0.00     0.016 A 
HETATM   22  C23 UNL     1      19.221  -3.896  13.047  1.00  0.00     0.008 A 
HETATM   23  C24 UNL     1      20.507  -4.174  13.420  1.00  0.00     0.050 A 
HETATM   24  S2  UNL     1      21.148  -4.935  12.036  1.00  0.00    -0.106 SA
ENDBRANCH   8  20
BRANCH   7  25
HETATM   25  O2  UNL     1      18.235  -3.402   9.353  1.00  0.00    -0.384 OA
ATOM     26  H2  UNL     1      17.378  -3.733   9.111  1.00  0.00     0.211 HD
ENDBRANCH   7  25
BRANCH   7  27
HETATM   27  C14 UNL     1      20.373  -3.409   8.344  1.00  0.00    -0.023 A 
HETATM   28  C15 UNL     1      20.285  -2.573   7.253  1.00  0.00     0.010 A 
HETATM   29  C16 UNL     1      21.394  -1.817   6.877  1.00  0.00     0.001 A 
HETATM   30  C17 UNL     1      22.589  -1.876   7.566  1.00  0.00     0.000 A 
HETATM   31  C18 UNL     1      22.664  -2.713   8.651  1.00  0.00     0.001 A 
HETATM   32  C19 UNL     1      21.569  -3.458   9.021  1.00  0.00     0.010 A 
ENDBRANCH   7  27
TORSDOF 6
ENDMDL
MODEL 4
REMARK VINA RESULT: -8.448359491      1.294      1.637
REMARK  6 active torsions:
REMARK  status: ('A' for Active; 'I' for Inactive)
REMARK    1  A    between atoms: O1_1  and  C1_3 
REMARK    2  A    between atoms: C6_8  and  N1_9 
REMARK    3  A    between atoms: C7_11  and  C8_12 
REMARK    4  A    between atoms: C13_18  and  O2_19 
REMARK    5  A    between atoms: C13_18  and  C14_21 
REMARK    6  A    between atoms: C20_27  and  C21_28 
ROOT
HETATM    1  C8  UNL     1      16.296  -6.299   6.882  1.00  0.00    -0.007 A 
HETATM    2  C9  UNL     1      15.796  -7.277   7.703  1.00  0.00     0.063 A 
HETATM    3  S1  UNL     1      16.892  -7.288   9.013  1.00  0.00    -0.104 SA
HETATM    4  C10 UNL     1      17.952  -6.067   8.503  1.00  0.00     0.002 A 
HETATM    5  C11 UNL     1      17.429  -5.671   7.314  1.00  0.00    -0.029 A 
HETATM    6  C12 UNL     1      18.352  -4.577   6.817  1.00  0.00     0.084 C 
HETATM    7  C13 UNL     1      18.921  -4.005   8.073  1.00  0.00     0.101 C 
HETATM    8  C20 UNL     1      19.191  -5.290   8.844  1.00  0.00     0.105 C 
ENDROOT
BRANCH   1   9
HETATM    9  C7  UNL     1      15.605  -5.981   5.599  1.00  0.00     0.101 C 
HETATM   10  N1  UNL     1      14.908  -4.913   5.445  1.00  0.00    -0.363 N 
ATOM     11  H1  UNL     1      14.811  -4.248   6.213  1.00  0.00     0.165 HD
BRANCH  10  12
HETATM   12  C6  UNL     1      14.282  -4.667   4.213  1.00  0.00     0.065 A 
HETATM   13  C1  UNL     1      14.326  -3.439   3.617  1.00  0.00     0.092 A 
HETATM   14  C2  UNL     1      13.705  -3.244   2.414  1.00  0.00     0.039 A 
HETATM   15  C3  UNL     1      13.038  -4.317   1.825  1.00  0.00     0.003 A 
HETATM   16  C4  UNL     1      12.975  -5.560   2.398  1.00  0.00     0.002 A 
HETATM   17  C5  UNL     1      13.612  -5.740   3.620  1.00  0.00     0.032 A 
BRANCH  13  18
HETATM   18  O1  UNL     1      14.988  -2.402   4.216  1.00  0.00    -0.358 OA
ATOM     19  H1  UNL     1      14.577  -1.929   4.930  1.00  0.00     0.217 HD
ENDBRANCH  13  18
ENDBRANCH  10  12
ENDBRANCH   1   9
BRANCH   8  20
HETATM   20  C21 UNL     1      19.253  -4.944  10.304  1.00  0.00    -0.005 A 
HETATM   21  C22 UNL     1      18.305  -4.317  11.064  1.00  0.00     0.016 A 
HETATM   22  C23 UNL     1      18.575  -4.119  12.359  1.00  0.00     0.008 A 
HETATM   23  C24 UNL     1      19.782  -4.556  12.828  1.00  0.00     0.050 A 
HETATM   24  S2  UNL     1      20.506  -5.234  11.442  1.00  0.00    -0.106 SA
ENDBRANCH   8  20
BRANCH   7  25
HETATM   25  O2  UNL     1      17.933  -3.232   8.682  1.00  0.00    -0.384 OA
ATOM     26  H2  UNL     1      17.626  -3.699   9.451  1.00  0.00     0.211 HD
ENDBRANCH   7  25
BRANCH   7  27
HETATM   27  C14 UNL     1      20.153  -3.217   7.871  1.00  0.00    -0.023 A 
HETATM   28  C15 UNL     1      20.124  -2.115   7.045  1.00  0.00     0.010 A 
HETATM   29  C16 UNL     1      21.286  -1.369   6.856  1.00  0.00     0.001 A 
HETATM   30  C17 UNL     1      22.477  -1.698   7.473  1.00  0.00     0.000 A 
HETATM   31  C18 UNL     1      22.492  -2.798   8.293  1.00  0.00     0.001 A 
HETATM   32  C19 UNL     1      21.345  -3.533   8.479  1.00  0.00     0.010 A 
ENDBRANCH   7  27
TORSDOF 6
ENDMDL
MODEL 5
REMARK VINA RESULT: -8.278699252      1.469      1.996
REMARK  6 active torsions:
REMARK  status: ('A' for Active; 'I' for Inactive)
REMARK    1  A    between atoms: O1_1  and  C1_3 
REMARK    2  A    between atoms: C6_8  and  N1_9 
REMARK    3  A    between atoms: C7_11  and  C8_12 
REMARK    4  A    between atoms: C13_18  and  O2_19 
REMARK    5  A    between atoms: C13_18  and  C14_21 
REMARK    6  A    between atoms: C20_27  and  C21_28 
ROOT
HETATM    1  C8  UNL     1      16.551  -6.332   7.298  1.00  0.00    -0.007 A 
HETATM    2  C9  UNL     1      16.094  -7.279   8.180  1.00  0.00     0.063 A 
HETATM    3  S1  UNL     1      17.229  -7.206   9.454  1.00  0.00    -0.104 SA
HETATM    4  C10 UNL     1      18.250  -5.993   8.854  1.00  0.00     0.002 A 
HETATM    5  C11 UNL     1      17.684  -5.664   7.665  1.00  0.00    -0.029 A 
HETATM    6  C12 UNL     1      18.570  -4.579   7.088  1.00  0.00     0.084 C 
HETATM    7  C13 UNL     1      19.165  -3.937   8.298  1.00  0.00     0.101 C 
HETATM    8  C20 UNL     1      19.483  -5.178   9.120  1.00  0.00     0.105 C 
ENDROOT
BRANCH   1   9
HETATM    9  C7  UNL     1      15.816  -6.089   6.023  1.00  0.00     0.101 C 
HETATM   10  N1  UNL     1      15.084  -5.049   5.845  1.00  0.00    -0.363 N 
ATOM     11  H1  UNL     1      14.988  -4.355   6.586  1.00  0.00     0.165 HD
BRANCH  10  12
HETATM   12  C6  UNL     1      14.417  -4.874   4.622  1.00  0.00     0.065 A 
HETATM   13  C1  UNL     1      14.365  -3.660   3.999  1.00  0.00     0.092 A 
HETATM   14  C2  UNL     1      13.708  -3.534   2.806  1.00  0.00     0.039 A 
HETATM   15  C3  UNL     1      13.104  -4.663   2.255  1.00  0.00     0.003 A 
HETATM   16  C4  UNL     1      13.138  -5.894   2.854  1.00  0.00     0.002 A 
HETATM   17  C5  UNL     1      13.810  -6.003   4.066  1.00  0.00     0.032 A 
BRANCH  13  18
HETATM   18  O1  UNL     1      14.966  -2.566   4.562  1.00  0.00    -0.358 OA
ATOM     19  H1  UNL     1      15.067  -2.517   5.505  1.00  0.00     0.217 HD
ENDBRANCH  13  18
ENDBRANCH  10  12
ENDBRANCH   1   9
BRANCH   8  20
HETATM   20  C21 UNL     1      19.582  -4.761  10.559  1.00  0.00    -0.005 A 
HETATM   21  C22 UNL     1      20.699  -4.690  11.344  1.00  0.00     0.016 A 
HETATM   22  C23 UNL     1      20.549  -4.279  12.607  1.00  0.00     0.008 A 
HETATM   23  C24 UNL     1      19.287  -3.960  13.024  1.00  0.00     0.050 A 
HETATM   24  S2  UNL     1      18.344  -4.245  11.632  1.00  0.00    -0.106 SA
ENDBRANCH   8  20
BRANCH   7  25
HETATM   25  O2  UNL     1      18.180  -3.154   8.898  1.00  0.00    -0.384 OA
ATOM     26  H2  UNL     1      18.279  -2.263   8.583  1.00  0.00     0.211 HD
ENDBRANCH   7  25
BRANCH   7  27
HETATM   27  C14 UNL     1      20.375  -3.138   8.020  1.00  0.00    -0.023 A 
HETATM   28  C15 UNL     1      21.590  -3.555   8.518  1.00  0.00     0.010 A 
HETATM   29  C16 UNL     1      22.734  -2.804   8.254  1.00  0.00     0.001 A 
HETATM   30  C17 UNL     1      22.692  -1.646   7.502  1.00  0.00     0.000 A 
HETATM   31  C18 UNL     1      21.477  -1.242   7.011  1.00  0.00     0.001 A 
HETATM   32  C19 UNL     1      20.349  -1.984   7.273  1.00  0.00     0.010 A 
ENDBRANCH   7  27
TORSDOF 6
ENDMDL
