MODEL 1
REMARK VINA RESULT: -6.690762079      0.000      0.000
REMARK  7 active torsions:
REMARK  status: ('A' for Active; 'I' for Inactive)
REMARK    1  A    between atoms: C2_2  and  C3_3 
REMARK    2  A    between atoms: C3_3  and  O1_4 
REMARK    3  A    between atoms: O1_4  and  C4_5 
REMARK    4  A    between atoms: C4_5  and  O2_7 
REMARK    5  A    between atoms: C4_5  and  C6_9 
REMARK    6  A    between atoms: C17_21  and  C19_23 
REMARK    7  A    between atoms: C19_23  and  C20_24 
ROOT
HETATM    1  C6  UNL     1      -8.080 -21.497   4.263  1.00  0.00     0.056 C 
HETATM    2  C7  UNL     1      -8.264 -22.887   4.700  1.00  0.00     0.011 C 
HETATM    3  C8  UNL     1      -8.076 -22.755   6.195  1.00  0.00     0.007 C 
HETATM    4  C9  UNL     1      -8.561 -21.364   6.527  1.00  0.00     0.003 C 
HETATM    5  C10 UNL     1      -9.753 -21.483   7.373  1.00  0.00     0.024 C 
HETATM    6  C11 UNL     1      -9.333 -22.324   8.572  1.00  0.00    -0.077 C 
HETATM    7  C12 UNL     1      -9.933 -23.429   8.933  1.00  0.00     0.015 C 
HETATM    8  C13 UNL     1      -8.165 -21.740   9.312  1.00  0.00     0.111 C 
HETATM    9  C14 UNL     1      -8.365 -20.284   9.522  1.00  0.00     0.131 C 
HETATM   10  O3  UNL     1      -7.615 -19.699  10.277  1.00  0.00    -0.298 OA
HETATM   11  C15 UNL     1      -9.438 -19.481   8.863  1.00  0.00     0.084 C 
HETATM   12  C16 UNL     1     -10.337 -20.280   7.979  1.00  0.00     0.009 C 
HETATM   13  C17 UNL     1     -11.184 -19.396   7.066  1.00  0.00    -0.039 C 
HETATM   14  C18 UNL     1     -12.429 -20.175   6.625  1.00  0.00     0.015 C 
HETATM   15  C22 UNL     1     -10.472 -18.964   5.854  1.00  0.00     0.010 C 
HETATM   16  C23 UNL     1     -10.138 -20.217   5.023  1.00  0.00     0.011 C 
HETATM   17  C24 UNL     1      -8.735 -20.616   5.221  1.00  0.00    -0.031 C 
HETATM   18  C25 UNL     1      -7.855 -19.332   5.262  1.00  0.00     0.016 C 
ENDROOT
BRANCH   1  19
HETATM   19  C4  UNL     1      -8.238 -21.247   2.768  1.00  0.00     0.167 C 
HETATM   20  C5  UNL     1      -8.909 -22.437   2.143  1.00  0.00     0.080 C 
BRANCH  19  21
HETATM   21  O1  UNL     1      -6.956 -21.160   2.288  1.00  0.00    -0.326 OA
BRANCH  21  22
HETATM   22  C3  UNL     1      -6.652 -20.558   1.140  1.00  0.00     0.138 C 
BRANCH  22  23
HETATM   23  C2  UNL     1      -5.813 -19.362   1.078  1.00  0.00     0.014 C 
HETATM   24  C1  UNL     1      -5.517 -18.623   2.136  1.00  0.00     0.013 C 
ENDBRANCH  22  23
ENDBRANCH  21  22
ENDBRANCH  19  21
BRANCH  19  25
HETATM   25  O2  UNL     1      -8.845 -20.025   2.558  1.00  0.00    -0.365 OA
ATOM     26  H2  UNL     1      -9.192 -19.730   3.392  1.00  0.00     0.213 HD
ENDBRANCH  19  25
ENDBRANCH   1  19
BRANCH  13  27
HETATM   27  C19 UNL     1     -11.669 -18.288   7.928  1.00  0.00     0.009 C 
BRANCH  27  28
HETATM   28  C20 UNL     1     -12.820 -18.437   8.823  1.00  0.00    -0.004 C 
HETATM   29  C21 UNL     1     -12.664 -17.986  10.227  1.00  0.00     0.005 C 
ENDBRANCH  27  28
ENDBRANCH  13  27
TORSDOF 7
ENDMDL
MODEL 2
REMARK VINA RESULT: -6.688440987      2.094      3.956
REMARK  7 active torsions:
REMARK  status: ('A' for Active; 'I' for Inactive)
REMARK    1  A    between atoms: C2_2  and  C3_3 
REMARK    2  A    between atoms: C3_3  and  O1_4 
REMARK    3  A    between atoms: O1_4  and  C4_5 
REMARK    4  A    between atoms: C4_5  and  O2_7 
REMARK    5  A    between atoms: C4_5  and  C6_9 
REMARK    6  A    between atoms: C17_21  and  C19_23 
REMARK    7  A    between atoms: C19_23  and  C20_24 
ROOT
HETATM    1  C6  UNL     1      -7.782 -20.558   2.640  1.00  0.00     0.056 C 
HETATM    2  C7  UNL     1      -7.261 -19.238   3.019  1.00  0.00     0.011 C 
HETATM    3  C8  UNL     1      -8.358 -18.737   3.933  1.00  0.00     0.007 C 
HETATM    4  C9  UNL     1      -8.932 -19.981   4.569  1.00  0.00     0.003 C 
HETATM    5  C10 UNL     1      -8.647 -19.935   6.007  1.00  0.00     0.024 C 
HETATM    6  C11 UNL     1      -9.235 -18.622   6.509  1.00  0.00    -0.077 C 
HETATM    7  C12 UNL     1      -8.545 -17.710   7.143  1.00  0.00     0.015 C 
HETATM    8  C13 UNL     1     -10.701 -18.491   6.213  1.00  0.00     0.111 C 
HETATM    9  C14 UNL     1     -11.411 -19.747   6.563  1.00  0.00     0.131 C 
HETATM   10  O3  UNL     1     -12.625 -19.744   6.577  1.00  0.00    -0.298 OA
HETATM   11  C15 UNL     1     -10.726 -21.030   6.904  1.00  0.00     0.084 C 
HETATM   12  C16 UNL     1      -9.236 -20.944   6.897  1.00  0.00     0.009 C 
HETATM   13  C17 UNL     1      -8.576 -22.320   6.902  1.00  0.00    -0.039 C 
HETATM   14  C18 UNL     1      -7.151 -22.194   7.453  1.00  0.00     0.015 C 
HETATM   15  C22 UNL     1      -8.489 -22.927   5.565  1.00  0.00     0.010 C 
HETATM   16  C23 UNL     1      -7.582 -22.037   4.694  1.00  0.00     0.011 C 
HETATM   17  C24 UNL     1      -8.387 -21.176   3.813  1.00  0.00    -0.031 C 
HETATM   18  C25 UNL     1      -9.584 -22.006   3.265  1.00  0.00     0.016 C 
ENDROOT
BRANCH   1  19
HETATM   19  C4  UNL     1      -6.890 -21.382   1.720  1.00  0.00     0.167 C 
HETATM   20  C5  UNL     1      -5.817 -22.039   2.543  1.00  0.00     0.080 C 
BRANCH  19  21
HETATM   21  O1  UNL     1      -6.306 -20.466   0.882  1.00  0.00    -0.326 OA
BRANCH  21  22
HETATM   22  C3  UNL     1      -6.556 -20.419  -0.424  1.00  0.00     0.138 C 
BRANCH  22  23
HETATM   23  C2  UNL     1      -6.137 -19.297  -1.265  1.00  0.00     0.014 C 
HETATM   24  C1  UNL     1      -5.017 -18.618  -1.068  1.00  0.00     0.013 C 
ENDBRANCH  22  23
ENDBRANCH  21  22
ENDBRANCH  19  21
BRANCH  19  25
HETATM   25  O2  UNL     1      -7.664 -22.222   0.944  1.00  0.00    -0.365 OA
ATOM     26  H2  UNL     1      -7.107 -22.572   0.259  1.00  0.00     0.213 HD
ENDBRANCH  19  25
ENDBRANCH   1  19
BRANCH  13  27
HETATM   27  C19 UNL     1      -9.338 -23.119   7.896  1.00  0.00     0.009 C 
BRANCH  27  28
HETATM   28  C20 UNL     1      -9.166 -22.944   9.341  1.00  0.00    -0.004 C 
HETATM   29  C21 UNL     1     -10.283 -23.360  10.222  1.00  0.00     0.005 C 
ENDBRANCH  27  28
ENDBRANCH  13  27
TORSDOF 7
ENDMDL
MODEL 3
REMARK VINA RESULT: -6.268463521      1.088      1.276
REMARK  7 active torsions:
REMARK  status: ('A' for Active; 'I' for Inactive)
REMARK    1  A    between atoms: C2_2  and  C3_3 
REMARK    2  A    between atoms: C3_3  and  O1_4 
REMARK    3  A    between atoms: O1_4  and  C4_5 
REMARK    4  A    between atoms: C4_5  and  O2_7 
REMARK    5  A    between atoms: C4_5  and  C6_9 
REMARK    6  A    between atoms: C17_21  and  C19_23 
REMARK    7  A    between atoms: C19_23  and  C20_24 
ROOT
HETATM    1  C6  UNL     1      -8.732 -21.055   4.786  1.00  0.00     0.056 C 
HETATM    2  C7  UNL     1      -8.759 -22.460   5.213  1.00  0.00     0.011 C 
HETATM    3  C8  UNL     1      -8.333 -22.339   6.659  1.00  0.00     0.007 C 
HETATM    4  C9  UNL     1      -8.836 -20.985   7.101  1.00  0.00     0.003 C 
HETATM    5  C10 UNL     1      -9.862 -21.189   8.130  1.00  0.00     0.024 C 
HETATM    6  C11 UNL     1      -9.201 -22.020   9.222  1.00  0.00    -0.077 C 
HETATM    7  C12 UNL     1      -9.667 -23.165   9.649  1.00  0.00     0.015 C 
HETATM    8  C13 UNL     1      -7.961 -21.377   9.772  1.00  0.00     0.111 C 
HETATM    9  C14 UNL     1      -8.207 -19.939  10.049  1.00  0.00     0.131 C 
HETATM   10  O3  UNL     1      -7.378 -19.320  10.683  1.00  0.00    -0.298 OA
HETATM   11  C15 UNL     1      -9.419 -19.194   9.596  1.00  0.00     0.084 C 
HETATM   12  C16 UNL     1     -10.405 -20.032   8.853  1.00  0.00     0.009 C 
HETATM   13  C17 UNL     1     -11.442 -19.189   8.114  1.00  0.00    -0.039 C 
HETATM   14  C18 UNL     1     -12.697 -20.036   7.866  1.00  0.00     0.015 C 
HETATM   15  C22 UNL     1     -10.968 -18.696   6.812  1.00  0.00     0.010 C 
HETATM   16  C23 UNL     1     -10.705 -19.914   5.907  1.00  0.00     0.011 C 
HETATM   17  C24 UNL     1      -9.268 -20.229   5.861  1.00  0.00    -0.031 C 
HETATM   18  C25 UNL     1      -8.469 -18.895   5.787  1.00  0.00     0.016 C 
ENDROOT
BRANCH   1  19
HETATM   19  C4  UNL     1      -9.151 -20.793   3.345  1.00  0.00     0.167 C 
HETATM   20  C5  UNL     1      -9.281 -22.107   2.628  1.00  0.00     0.080 C 
BRANCH  19  21
HETATM   21  O1  UNL     1      -8.106 -20.092   2.796  1.00  0.00    -0.326 OA
BRANCH  21  22
HETATM   22  C3  UNL     1      -7.143 -20.671   2.082  1.00  0.00     0.138 C 
BRANCH  22  23
HETATM   23  C2  UNL     1      -5.831 -20.991   2.643  1.00  0.00     0.014 C 
HETATM   24  C1  UNL     1      -5.577 -22.106   3.311  1.00  0.00     0.013 C 
ENDBRANCH  22  23
ENDBRANCH  21  22
ENDBRANCH  19  21
BRANCH  19  25
HETATM   25  O2  UNL     1     -10.260 -19.971   3.319  1.00  0.00    -0.365 OA
ATOM     26  H2  UNL     1     -10.932 -20.413   2.813  1.00  0.00     0.213 HD
ENDBRANCH  19  25
ENDBRANCH   1  19
BRANCH  13  27
HETATM   27  C19 UNL     1     -11.840 -18.125   9.072  1.00  0.00     0.009 C 
BRANCH  27  28
HETATM   28  C20 UNL     1     -13.166 -18.087   9.694  1.00  0.00    -0.004 C 
HETATM   29  C21 UNL     1     -13.613 -16.802  10.284  1.00  0.00     0.005 C 
ENDBRANCH  27  28
ENDBRANCH  13  27
TORSDOF 7
ENDMDL
MODEL 4
REMARK VINA RESULT: -6.040107574      2.627      4.888
REMARK  7 active torsions:
REMARK  status: ('A' for Active; 'I' for Inactive)
REMARK    1  A    between atoms: C2_2  and  C3_3 
REMARK    2  A    between atoms: C3_3  and  O1_4 
REMARK    3  A    between atoms: O1_4  and  C4_5 
REMARK    4  A    between atoms: C4_5  and  O2_7 
REMARK    5  A    between atoms: C4_5  and  C6_9 
REMARK    6  A    between atoms: C17_21  and  C19_23 
REMARK    7  A    between atoms: C19_23  and  C20_24 
ROOT
HETATM    1  C6  UNL     1      -9.109 -22.407   6.965  1.00  0.00     0.056 C 
HETATM    2  C7  UNL     1      -9.095 -21.091   6.314  1.00  0.00     0.011 C 
HETATM    3  C8  UNL     1     -10.251 -20.404   7.009  1.00  0.00     0.007 C 
HETATM    4  C9  UNL     1     -10.290 -21.011   8.391  1.00  0.00     0.003 C 
HETATM    5  C10 UNL     1      -9.968 -19.961   9.363  1.00  0.00     0.024 C 
HETATM    6  C11 UNL     1     -10.974 -18.843   9.120  1.00  0.00    -0.077 C 
HETATM    7  C12 UNL     1     -10.639 -17.606   8.857  1.00  0.00     0.015 C 
HETATM    8  C13 UNL     1     -12.397 -19.307   9.231  1.00  0.00     0.111 C 
HETATM    9  C14 UNL     1     -12.572 -20.145  10.444  1.00  0.00     0.131 C 
HETATM   10  O3  UNL     1     -13.699 -20.433  10.793  1.00  0.00    -0.298 OA
HETATM   11  C15 UNL     1     -11.445 -20.663  11.275  1.00  0.00     0.084 C 
HETATM   12  C16 UNL     1     -10.095 -20.237  10.800  1.00  0.00     0.009 C 
HETATM   13  C17 UNL     1      -8.973 -21.050  11.442  1.00  0.00    -0.039 C 
HETATM   14  C18 UNL     1      -7.669 -20.245  11.380  1.00  0.00     0.015 C 
HETATM   15  C22 UNL     1      -8.736 -22.340  10.776  1.00  0.00     0.010 C 
HETATM   16  C23 UNL     1      -8.269 -22.056   9.336  1.00  0.00     0.011 C 
HETATM   17  C24 UNL     1      -9.380 -22.223   8.385  1.00  0.00    -0.031 C 
HETATM   18  C25 UNL     1     -10.211 -23.470   8.806  1.00  0.00     0.016 C 
ENDROOT
BRANCH   1  19
HETATM   19  C4  UNL     1      -8.024 -23.378   6.517  1.00  0.00     0.167 C 
HETATM   20  C5  UNL     1      -6.684 -22.712   6.660  1.00  0.00     0.080 C 
BRANCH  19  21
HETATM   21  O1  UNL     1      -8.271 -23.593   5.185  1.00  0.00    -0.326 OA
BRANCH  21  22
HETATM   22  C3  UNL     1      -7.374 -23.343   4.233  1.00  0.00     0.138 C 
BRANCH  22  23
HETATM   23  C2  UNL     1      -7.585 -22.329   3.201  1.00  0.00     0.014 C 
HETATM   24  C1  UNL     1      -8.767 -22.073   2.662  1.00  0.00     0.013 C 
ENDBRANCH  22  23
ENDBRANCH  21  22
ENDBRANCH  19  21
BRANCH  19  25
HETATM   25  O2  UNL     1      -8.176 -24.586   7.169  1.00  0.00    -0.365 OA
ATOM     26  H2  UNL     1      -8.783 -25.111   6.659  1.00  0.00     0.213 HD
ENDBRANCH  19  25
ENDBRANCH   1  19
BRANCH  13  27
HETATM   27  C19 UNL     1      -9.332 -21.151  12.880  1.00  0.00     0.009 C 
BRANCH  27  28
HETATM   28  C20 UNL     1      -9.168 -22.390  13.644  1.00  0.00    -0.004 C 
HETATM   29  C21 UNL     1     -10.388 -23.169  13.964  1.00  0.00     0.005 C 
ENDBRANCH  27  28
ENDBRANCH  13  27
TORSDOF 7
ENDMDL
MODEL 5
REMARK VINA RESULT: -6.032890813      1.959      3.256
REMARK  7 active torsions:
REMARK  status: ('A' for Active; 'I' for Inactive)
REMARK    1  A    between atoms: C2_2  and  C3_3 
REMARK    2  A    between atoms: C3_3  and  O1_4 
REMARK    3  A    between atoms: O1_4  and  C4_5 
REMARK    4  A    between atoms: C4_5  and  O2_7 
REMARK    5  A    between atoms: C4_5  and  C6_9 
REMARK    6  A    between atoms: C17_21  and  C19_23 
REMARK    7  A    between atoms: C19_23  and  C20_24 
ROOT
HETATM    1  C6  UNL     1      -6.224 -20.356   2.402  1.00  0.00     0.056 C 
HETATM    2  C7  UNL     1      -6.034 -21.807   2.278  1.00  0.00     0.011 C 
HETATM    3  C8  UNL     1      -6.222 -22.254   3.712  1.00  0.00     0.007 C 
HETATM    4  C9  UNL     1      -7.191 -21.260   4.306  1.00  0.00     0.003 C 
HETATM    5  C10 UNL     1      -8.431 -21.969   4.638  1.00  0.00     0.024 C 
HETATM    6  C11 UNL     1      -8.027 -23.109   5.564  1.00  0.00    -0.077 C 
HETATM    7  C12 UNL     1      -8.297 -24.368   5.332  1.00  0.00     0.015 C 
HETATM    8  C13 UNL     1      -7.296 -22.634   6.787  1.00  0.00     0.111 C 
HETATM    9  C14 UNL     1      -7.997 -21.471   7.385  1.00  0.00     0.131 C 
HETATM   10  O3  UNL     1      -7.657 -21.092   8.487  1.00  0.00    -0.298 OA
HETATM   11  C15 UNL     1      -9.107 -20.726   6.718  1.00  0.00     0.084 C 
HETATM   12  C16 UNL     1      -9.488 -21.274   5.383  1.00  0.00     0.009 C 
HETATM   13  C17 UNL     1     -10.361 -20.306   4.588  1.00  0.00    -0.039 C 
HETATM   14  C18 UNL     1     -11.163 -21.092   3.543  1.00  0.00     0.015 C 
HETATM   15  C22 UNL     1      -9.588 -19.275   3.879  1.00  0.00     0.010 C 
HETATM   16  C23 UNL     1      -8.697 -19.978   2.838  1.00  0.00     0.011 C 
HETATM   17  C24 UNL     1      -7.317 -20.105   3.333  1.00  0.00    -0.031 C 
HETATM   18  C25 UNL     1      -6.931 -18.789   4.070  1.00  0.00     0.016 C 
ENDROOT
BRANCH   1  19
HETATM   19  C4  UNL     1      -6.133 -19.563   1.104  1.00  0.00     0.167 C 
HETATM   20  C5  UNL     1      -7.059 -18.383   1.188  1.00  0.00     0.080 C 
BRANCH  19  21
HETATM   21  O1  UNL     1      -6.594 -20.420   0.136  1.00  0.00    -0.326 OA
BRANCH  21  22
HETATM   22  C3  UNL     1      -6.434 -20.193  -1.166  1.00  0.00     0.138 C 
BRANCH  22  23
HETATM   23  C2  UNL     1      -7.071 -21.018  -2.192  1.00  0.00     0.014 C 
HETATM   24  C1  UNL     1      -7.450 -20.551  -3.371  1.00  0.00     0.013 C 
ENDBRANCH  22  23
ENDBRANCH  21  22
ENDBRANCH  19  21
BRANCH  19  25
HETATM   25  O2  UNL     1      -4.812 -19.283   0.816  1.00  0.00    -0.365 OA
ATOM     26  H2  UNL     1      -4.308 -19.434   1.607  1.00  0.00     0.213 HD
ENDBRANCH  19  25
ENDBRANCH   1  19
BRANCH  13  27
HETATM   27  C19 UNL     1     -11.352 -19.778   5.562  1.00  0.00     0.009 C 
BRANCH  27  28
HETATM   28  C20 UNL     1     -11.724 -18.361   5.612  1.00  0.00    -0.004 C 
HETATM   29  C21 UNL     1     -11.109 -17.525   6.671  1.00  0.00     0.005 C 
ENDBRANCH  27  28
ENDBRANCH  13  27
TORSDOF 7
ENDMDL
