MODEL 1
REMARK VINA RESULT: -7.908218576      0.000      0.000
REMARK  12 active torsions:
REMARK  status: ('A' for Active; 'I' for Inactive)
REMARK    1  A    between atoms: O1_2  and  C2_3 
REMARK    2  A    between atoms: C2_3  and  C3_5 
REMARK    3  A    between atoms: C3_5  and  C4_6 
REMARK    4  A    between atoms: C3_5  and  C9_19 
REMARK    5  A    between atoms: C7_15  and  C8_16 
REMARK    6  A    between atoms: C11_26  and  N6_27 
REMARK    7  A    between atoms: N6_27  and  N7_29 
REMARK       I    between atoms: N7_29  and  C12_31 
REMARK    8  A    between atoms: C12_31  and  C13_33 
REMARK    9  A    between atoms: C13_33  and  N8_34 
REMARK   10  A    between atoms: C13_33  and  C14_38 
REMARK   11  A    between atoms: C14_38  and  C15_39 
REMARK   12  A    between atoms: C15_39  and  S1_40 
ROOT
HETATM    1  C9  UNL     1      17.316  21.396  51.156  1.00  0.00     0.098 A 
HETATM    2  N3  UNL     1      18.329  20.636  50.714  1.00  0.00    -0.298 N 
ATOM      3  H3  UNL     1      18.445  20.532  49.706  1.00  0.00     0.186 HD
HETATM    4  N4  UNL     1      19.174  20.023  51.492  1.00  0.00    -0.285 N 
ATOM      5  H4  UNL     1      19.926  19.458  51.097  1.00  0.00     0.188 HD
HETATM    6  C10 UNL     1      19.036  20.148  52.839  1.00  0.00     0.163 A 
HETATM    7  N5  UNL     1      19.984  19.462  53.675  1.00  0.00    -0.079 NA
HETATM    8  C11 UNL     1      18.033  20.902  53.352  1.00  0.00     0.143 A 
HETATM    9  C17 UNL     1      17.134  21.555  52.507  1.00  0.00     0.228 A 
HETATM   10  O8  UNL     1      16.193  22.264  53.001  1.00  0.00    -0.284 OA
ENDROOT
BRANCH   1  11
HETATM   11  C3  UNL     1      16.392  22.055  50.188  1.00  0.00     0.192 C 
BRANCH  11  12
HETATM   12  C2  UNL     1      17.145  22.655  49.062  1.00  0.00     0.274 C 
HETATM   13  O2  UNL     1      18.258  23.200  49.268  1.00  0.00    -0.264 OA
BRANCH  12  14
HETATM   14  O1  UNL     1      16.689  22.657  47.751  1.00  0.00    -0.326 OA
HETATM   15  C1  UNL     1      15.707  23.563  47.279  1.00  0.00     0.213 C 
ENDBRANCH  12  14
ENDBRANCH  11  12
BRANCH  11  16
HETATM   16  C4  UNL     1      15.419  21.084  49.632  1.00  0.00     0.056 A 
HETATM   17  N1  UNL     1      15.806  20.104  48.800  1.00  0.00    -0.310 N 
HETATM   18  C5  UNL     1      14.958  19.200  48.278  1.00  0.00     0.327 A 
ATOM     19  H1  UNL     1      16.792  20.041  48.551  1.00  0.00     0.170 HD
HETATM   20  O3  UNL     1      15.406  18.330  47.521  1.00  0.00    -0.247 OA
HETATM   21  N2  UNL     1      13.637  19.264  48.595  1.00  0.00    -0.275 N 
HETATM   22  C6  UNL     1      13.228  20.248  49.432  1.00  0.00     0.268 A 
ATOM     23  H2  UNL     1      12.973  18.590  48.213  1.00  0.00     0.173 HD
HETATM   24  O4  UNL     1      12.014  20.288  49.707  1.00  0.00    -0.267 OA
HETATM   25  C7  UNL     1      14.094  21.181  49.973  1.00  0.00     0.132 A 
BRANCH  25  26
HETATM   26  C8  UNL     1      13.554  22.202  50.861  1.00  0.00     0.217 C 
HETATM   27  O5  UNL     1      13.274  21.869  52.036  1.00  0.00    -0.644 OA
HETATM   28  O6  UNL     1      13.339  23.512  50.470  1.00  0.00    -0.644 OA
ENDBRANCH  25  26
ENDBRANCH  11  16
ENDBRANCH   1  11
BRANCH   8  29
HETATM   29  N6  UNL     1      17.844  21.052  54.744  1.00  0.00    -0.291 N 
ATOM     30  H6  UNL     1      18.671  21.137  55.336  1.00  0.00     0.187 HD
BRANCH  29  31
HETATM   31  N7  UNL     1      16.598  21.090  55.352  1.00  0.00    -0.268 N 
HETATM   32  C12 UNL     1      15.874  19.922  55.715  1.00  0.00     0.266 C 
HETATM   33  O7  UNL     1      16.333  18.763  55.500  1.00  0.00    -0.269 OA
ATOM     34  H7  UNL     1      16.182  22.000  55.548  1.00  0.00     0.190 HD
BRANCH  32  35
HETATM   35  C13 UNL     1      14.551  20.033  56.362  1.00  0.00     0.277 C 
BRANCH  35  36
HETATM   36  N8  UNL     1      14.106  18.740  56.777  1.00  0.00    -0.066 N 
ATOM     37  H83 UNL     1      13.110  18.604  56.604  1.00  0.00     0.275 HD
ATOM     38  H82 UNL     1      14.463  17.999  56.175  1.00  0.00     0.275 HD
ATOM     39  H81 UNL     1      14.349  18.589  57.756  1.00  0.00     0.275 HD
ENDBRANCH  35  36
BRANCH  35  40
HETATM   40  C14 UNL     1      13.547  20.741  55.474  1.00  0.00     0.053 C 
BRANCH  40  41
HETATM   41  C15 UNL     1      12.128  20.497  55.938  1.00  0.00     0.076 C 
BRANCH  41  42
HETATM   42  S1  UNL     1      10.910  21.114  54.772  1.00  0.00    -0.173 SA
HETATM   43  C16 UNL     1      10.682  22.891  54.822  1.00  0.00     0.089 C 
ENDBRANCH  41  42
ENDBRANCH  40  41
ENDBRANCH  35  40
ENDBRANCH  32  35
ENDBRANCH  29  31
ENDBRANCH   8  29
TORSDOF 12
ENDMDL
MODEL 2
REMARK VINA RESULT: -7.580453701      3.920      7.449
REMARK  12 active torsions:
REMARK  status: ('A' for Active; 'I' for Inactive)
REMARK    1  A    between atoms: O1_2  and  C2_3 
REMARK    2  A    between atoms: C2_3  and  C3_5 
REMARK    3  A    between atoms: C3_5  and  C4_6 
REMARK    4  A    between atoms: C3_5  and  C9_19 
REMARK    5  A    between atoms: C7_15  and  C8_16 
REMARK    6  A    between atoms: C11_26  and  N6_27 
REMARK    7  A    between atoms: N6_27  and  N7_29 
REMARK       I    between atoms: N7_29  and  C12_31 
REMARK    8  A    between atoms: C12_31  and  C13_33 
REMARK    9  A    between atoms: C13_33  and  N8_34 
REMARK   10  A    between atoms: C13_33  and  C14_38 
REMARK   11  A    between atoms: C14_38  and  C15_39 
REMARK   12  A    between atoms: C15_39  and  S1_40 
ROOT
HETATM    1  C9  UNL     1      11.207  20.652  55.362  1.00  0.00     0.098 A 
HETATM    2  N3  UNL     1      10.510  19.857  56.188  1.00  0.00    -0.298 N 
ATOM      3  H3  UNL     1       9.512  19.745  56.014  1.00  0.00     0.186 HD
HETATM    4  N4  UNL     1      11.030  19.220  57.197  1.00  0.00    -0.285 N 
ATOM      5  H4  UNL     1      10.450  18.627  57.791  1.00  0.00     0.188 HD
HETATM    6  C10 UNL     1      12.360  19.358  57.446  1.00  0.00     0.163 A 
HETATM    7  N5  UNL     1      12.909  18.641  58.565  1.00  0.00    -0.079 NA
HETATM    8  C11 UNL     1      13.122  20.147  56.649  1.00  0.00     0.143 A 
HETATM    9  C17 UNL     1      12.552  20.825  55.570  1.00  0.00     0.228 A 
HETATM   10  O8  UNL     1      13.279  21.565  54.825  1.00  0.00    -0.284 OA
ENDROOT
BRANCH   1  11
HETATM   11  C3  UNL     1      10.522  21.350  54.234  1.00  0.00     0.192 C 
BRANCH  11  12
HETATM   12  C2  UNL     1       9.162  20.804  54.023  1.00  0.00     0.274 C 
HETATM   13  O2  UNL     1       8.166  21.382  54.526  1.00  0.00    -0.264 OA
BRANCH  12  14
HETATM   14  O1  UNL     1       8.902  19.659  53.282  1.00  0.00    -0.326 OA
HETATM   15  C1  UNL     1       9.709  19.251  52.190  1.00  0.00     0.213 C 
ENDBRANCH  12  14
ENDBRANCH  11  12
BRANCH  11  16
HETATM   16  C4  UNL     1      10.405  22.804  54.497  1.00  0.00     0.056 A 
HETATM   17  N1  UNL     1       9.972  23.270  55.680  1.00  0.00    -0.310 N 
HETATM   18  C5  UNL     1       9.857  24.579  55.961  1.00  0.00     0.327 A 
ATOM     19  H1  UNL     1       9.718  22.596  56.401  1.00  0.00     0.170 HD
HETATM   20  O3  UNL     1       9.450  24.915  57.080  1.00  0.00    -0.247 OA
HETATM   21  N2  UNL     1      10.189  25.497  55.014  1.00  0.00    -0.275 N 
HETATM   22  C6  UNL     1      10.626  25.046  53.813  1.00  0.00     0.268 A 
ATOM     23  H2  UNL     1      10.111  26.497  55.202  1.00  0.00     0.173 HD
HETATM   24  O4  UNL     1      10.923  25.904  52.961  1.00  0.00    -0.267 OA
HETATM   25  C7  UNL     1      10.748  23.701  53.517  1.00  0.00     0.132 A 
BRANCH  25  26
HETATM   26  C8  UNL     1      11.226  23.318  52.195  1.00  0.00     0.217 C 
HETATM   27  O5  UNL     1      10.373  23.091  51.305  1.00  0.00    -0.644 OA
HETATM   28  O6  UNL     1      12.568  23.194  51.879  1.00  0.00    -0.644 OA
ENDBRANCH  25  26
ENDBRANCH  11  16
ENDBRANCH   1  11
BRANCH   8  29
HETATM   29  N6  UNL     1      14.505  20.329  56.876  1.00  0.00    -0.291 N 
ATOM     30  H6  UNL     1      14.792  20.863  57.697  1.00  0.00     0.187 HD
BRANCH  29  31
HETATM   31  N7  UNL     1      15.494  19.824  56.045  1.00  0.00    -0.268 N 
HETATM   32  C12 UNL     1      16.431  20.646  55.364  1.00  0.00     0.266 C 
HETATM   33  O7  UNL     1      16.416  21.906  55.478  1.00  0.00    -0.269 OA
ATOM     34  H7  UNL     1      15.551  18.814  55.919  1.00  0.00     0.190 HD
BRANCH  32  35
HETATM   35  C13 UNL     1      17.462  20.043  54.494  1.00  0.00     0.277 C 
BRANCH  35  36
HETATM   36  N8  UNL     1      18.754  20.226  55.077  1.00  0.00    -0.066 N 
ATOM     37  H83 UNL     1      19.393  19.469  54.836  1.00  0.00     0.275 HD
ATOM     38  H82 UNL     1      19.265  20.994  54.643  1.00  0.00     0.275 HD
ATOM     39  H81 UNL     1      18.665  20.346  56.085  1.00  0.00     0.275 HD
ENDBRANCH  35  36
BRANCH  35  40
HETATM   40  C14 UNL     1      17.379  20.568  53.075  1.00  0.00     0.053 C 
BRANCH  40  41
HETATM   41  C15 UNL     1      18.712  21.106  52.604  1.00  0.00     0.076 C 
BRANCH  41  42
HETATM   42  S1  UNL     1      18.663  22.871  52.276  1.00  0.00    -0.173 SA
HETATM   43  C16 UNL     1      19.049  23.312  50.583  1.00  0.00     0.089 C 
ENDBRANCH  41  42
ENDBRANCH  40  41
ENDBRANCH  35  40
ENDBRANCH  32  35
ENDBRANCH  29  31
ENDBRANCH   8  29
TORSDOF 12
ENDMDL
MODEL 3
REMARK VINA RESULT: -7.487546067      1.591      2.588
REMARK  12 active torsions:
REMARK  status: ('A' for Active; 'I' for Inactive)
REMARK    1  A    between atoms: O1_2  and  C2_3 
REMARK    2  A    between atoms: C2_3  and  C3_5 
REMARK    3  A    between atoms: C3_5  and  C4_6 
REMARK    4  A    between atoms: C3_5  and  C9_19 
REMARK    5  A    between atoms: C7_15  and  C8_16 
REMARK    6  A    between atoms: C11_26  and  N6_27 
REMARK    7  A    between atoms: N6_27  and  N7_29 
REMARK       I    between atoms: N7_29  and  C12_31 
REMARK    8  A    between atoms: C12_31  and  C13_33 
REMARK    9  A    between atoms: C13_33  and  N8_34 
REMARK   10  A    between atoms: C13_33  and  C14_38 
REMARK   11  A    between atoms: C14_38  and  C15_39 
REMARK   12  A    between atoms: C15_39  and  S1_40 
ROOT
HETATM    1  C9  UNL     1      17.084  21.335  51.016  1.00  0.00     0.098 A 
HETATM    2  N3  UNL     1      18.060  20.507  50.614  1.00  0.00    -0.298 N 
ATOM      3  H3  UNL     1      18.150  20.324  49.615  1.00  0.00     0.186 HD
HETATM    4  N4  UNL     1      18.898  19.923  51.420  1.00  0.00    -0.285 N 
ATOM      5  H4  UNL     1      19.622  19.303  51.056  1.00  0.00     0.188 HD
HETATM    6  C10 UNL     1      18.793  20.153  52.756  1.00  0.00     0.163 A 
HETATM    7  N5  UNL     1      19.734  19.497  53.625  1.00  0.00    -0.079 NA
HETATM    8  C11 UNL     1      17.829  20.980  53.230  1.00  0.00     0.143 A 
HETATM    9  C17 UNL     1      16.936  21.601  52.354  1.00  0.00     0.228 A 
HETATM   10  O8  UNL     1      16.031  22.379  52.811  1.00  0.00    -0.284 OA
ENDROOT
BRANCH   1  11
HETATM   11  C3  UNL     1      16.163  21.953  50.018  1.00  0.00     0.192 C 
BRANCH  11  12
HETATM   12  C2  UNL     1      16.007  21.080  48.832  1.00  0.00     0.274 C 
HETATM   13  O2  UNL     1      16.064  21.571  47.677  1.00  0.00    -0.264 OA
BRANCH  12  14
HETATM   14  O1  UNL     1      15.793  19.710  48.912  1.00  0.00    -0.326 OA
HETATM   15  C1  UNL     1      14.997  19.000  47.979  1.00  0.00     0.213 C 
ENDBRANCH  12  14
ENDBRANCH  11  12
BRANCH  11  16
HETATM   16  C4  UNL     1      14.821  22.189  50.602  1.00  0.00     0.056 A 
HETATM   17  N1  UNL     1      14.110  21.190  51.150  1.00  0.00    -0.310 N 
HETATM   18  C5  UNL     1      12.893  21.362  51.695  1.00  0.00     0.327 A 
ATOM     19  H1  UNL     1      14.513  20.254  51.152  1.00  0.00     0.170 HD
HETATM   20  O3  UNL     1      12.312  20.382  52.178  1.00  0.00    -0.247 OA
HETATM   21  N2  UNL     1      12.334  22.602  51.703  1.00  0.00    -0.275 N 
HETATM   22  C6  UNL     1      13.037  23.622  51.153  1.00  0.00     0.268 A 
ATOM     23  H2  UNL     1      11.412  22.759  52.111  1.00  0.00     0.173 HD
HETATM   24  O4  UNL     1      12.505  24.748  51.171  1.00  0.00    -0.267 OA
HETATM   25  C7  UNL     1      14.288  23.453  50.591  1.00  0.00     0.132 A 
BRANCH  25  26
HETATM   26  C8  UNL     1      14.961  24.615  50.024  1.00  0.00     0.217 C 
HETATM   27  O5  UNL     1      14.811  24.841  48.801  1.00  0.00    -0.644 OA
HETATM   28  O6  UNL     1      15.753  25.472  50.768  1.00  0.00    -0.644 OA
ENDBRANCH  25  26
ENDBRANCH  11  16
ENDBRANCH   1  11
BRANCH   8  29
HETATM   29  N6  UNL     1      17.675  21.241  54.610  1.00  0.00    -0.291 N 
ATOM     30  H6  UNL     1      18.510  21.456  55.155  1.00  0.00     0.187 HD
BRANCH  29  31
HETATM   31  N7  UNL     1      16.453  21.220  55.265  1.00  0.00    -0.268 N 
HETATM   32  C12 UNL     1      15.810  20.021  55.673  1.00  0.00     0.266 C 
HETATM   33  O7  UNL     1      16.325  18.885  55.459  1.00  0.00    -0.269 OA
ATOM     34  H7  UNL     1      15.994  22.109  55.464  1.00  0.00     0.190 HD
BRANCH  32  35
HETATM   35  C13 UNL     1      14.508  20.069  56.370  1.00  0.00     0.277 C 
BRANCH  35  36
HETATM   36  N8  UNL     1      14.134  18.755  56.788  1.00  0.00    -0.066 N 
ATOM     37  H83 UNL     1      13.216  18.486  56.432  1.00  0.00     0.275 HD
ATOM     38  H82 UNL     1      14.688  18.033  56.327  1.00  0.00     0.275 HD
ATOM     39  H81 UNL     1      14.185  18.687  57.804  1.00  0.00     0.275 HD
ENDBRANCH  35  36
BRANCH  35  40
HETATM   40  C14 UNL     1      13.443  20.742  55.527  1.00  0.00     0.053 C 
BRANCH  40  41
HETATM   41  C15 UNL     1      12.052  20.373  55.994  1.00  0.00     0.076 C 
BRANCH  41  42
HETATM   42  S1  UNL     1      10.783  21.407  55.256  1.00  0.00    -0.173 SA
HETATM   43  C16 UNL     1       9.109  20.903  55.646  1.00  0.00     0.089 C 
ENDBRANCH  41  42
ENDBRANCH  40  41
ENDBRANCH  35  40
ENDBRANCH  32  35
ENDBRANCH  29  31
ENDBRANCH   8  29
TORSDOF 12
ENDMDL
MODEL 4
REMARK VINA RESULT: -7.455865003      3.371      5.784
REMARK  12 active torsions:
REMARK  status: ('A' for Active; 'I' for Inactive)
REMARK    1  A    between atoms: O1_2  and  C2_3 
REMARK    2  A    between atoms: C2_3  and  C3_5 
REMARK    3  A    between atoms: C3_5  and  C4_6 
REMARK    4  A    between atoms: C3_5  and  C9_19 
REMARK    5  A    between atoms: C7_15  and  C8_16 
REMARK    6  A    between atoms: C11_26  and  N6_27 
REMARK    7  A    between atoms: N6_27  and  N7_29 
REMARK       I    between atoms: N7_29  and  C12_31 
REMARK    8  A    between atoms: C12_31  and  C13_33 
REMARK    9  A    between atoms: C13_33  and  N8_34 
REMARK   10  A    between atoms: C13_33  and  C14_38 
REMARK   11  A    between atoms: C14_38  and  C15_39 
REMARK   12  A    between atoms: C15_39  and  S1_40 
ROOT
HETATM    1  C9  UNL     1      13.596  22.512  51.950  1.00  0.00     0.098 A 
HETATM    2  N3  UNL     1      13.384  23.616  51.217  1.00  0.00    -0.298 N 
ATOM      3  H3  UNL     1      13.976  23.770  50.401  1.00  0.00     0.186 HD
HETATM    4  N4  UNL     1      12.469  24.502  51.483  1.00  0.00    -0.285 N 
ATOM      5  H4  UNL     1      12.352  25.323  50.888  1.00  0.00     0.188 HD
HETATM    6  C10 UNL     1      11.670  24.316  52.568  1.00  0.00     0.163 A 
HETATM    7  N5  UNL     1      10.665  25.310  52.838  1.00  0.00    -0.079 NA
HETATM    8  C11 UNL     1      11.831  23.222  53.351  1.00  0.00     0.143 A 
HETATM    9  C17 UNL     1      12.817  22.278  53.054  1.00  0.00     0.228 A 
HETATM   10  O8  UNL     1      12.960  21.249  53.799  1.00  0.00    -0.284 OA
ENDROOT
BRANCH   1  11
HETATM   11  C3  UNL     1      14.676  21.555  51.572  1.00  0.00     0.192 C 
BRANCH  11  12
HETATM   12  C2  UNL     1      14.485  21.061  50.189  1.00  0.00     0.274 C 
HETATM   13  O2  UNL     1      13.379  21.212  49.613  1.00  0.00    -0.264 OA
BRANCH  12  14
HETATM   14  O1  UNL     1      15.480  20.422  49.460  1.00  0.00    -0.326 OA
HETATM   15  C1  UNL     1      15.218  19.709  48.264  1.00  0.00     0.213 C 
ENDBRANCH  12  14
ENDBRANCH  11  12
BRANCH  11  16
HETATM   16  C4  UNL     1      16.011  22.194  51.658  1.00  0.00     0.056 A 
HETATM   17  N1  UNL     1      16.458  23.016  50.695  1.00  0.00    -0.310 N 
HETATM   18  C5  UNL     1      17.659  23.620  50.736  1.00  0.00     0.327 A 
ATOM     19  H1  UNL     1      15.856  23.191  49.891  1.00  0.00     0.170 HD
HETATM   20  O3  UNL     1      17.985  24.363  49.802  1.00  0.00    -0.247 OA
HETATM   21  N2  UNL     1      18.480  23.400  51.798  1.00  0.00    -0.275 N 
HETATM   22  C6  UNL     1      18.046  22.572  52.780  1.00  0.00     0.268 A 
ATOM     23  H2  UNL     1      19.395  23.847  51.854  1.00  0.00     0.173 HD
HETATM   24  O4  UNL     1      18.815  22.385  53.742  1.00  0.00    -0.267 OA
HETATM   25  C7  UNL     1      16.813  21.948  52.744  1.00  0.00     0.132 A 
BRANCH  25  26
HETATM   26  C8  UNL     1      16.441  21.074  53.849  1.00  0.00     0.217 C 
HETATM   27  O5  UNL     1      16.664  19.847  53.727  1.00  0.00    -0.644 OA
HETATM   28  O6  UNL     1      15.857  21.533  55.017  1.00  0.00    -0.644 OA
ENDBRANCH  25  26
ENDBRANCH  11  16
ENDBRANCH   1  11
BRANCH   8  29
HETATM   29  N6  UNL     1      11.033  22.992  54.494  1.00  0.00    -0.291 N 
ATOM     30  H6  UNL     1      10.919  23.755  55.162  1.00  0.00     0.187 HD
BRANCH  29  31
HETATM   31  N7  UNL     1      10.396  21.789  54.758  1.00  0.00    -0.268 N 
HETATM   32  C12 UNL     1       9.304  21.670  55.660  1.00  0.00     0.266 C 
HETATM   33  O7  UNL     1       8.843  22.671  56.281  1.00  0.00    -0.269 OA
ATOM     34  H7  UNL     1      10.727  20.950  54.282  1.00  0.00     0.190 HD
BRANCH  32  35
HETATM   35  C13 UNL     1       8.668  20.357  55.895  1.00  0.00     0.277 C 
BRANCH  35  36
HETATM   36  N8  UNL     1       8.102  20.322  57.207  1.00  0.00    -0.066 N 
ATOM     37  H83 UNL     1       8.772  20.604  57.921  1.00  0.00     0.275 HD
ATOM     38  H82 UNL     1       7.415  21.063  57.348  1.00  0.00     0.275 HD
ATOM     39  H81 UNL     1       7.712  19.398  57.391  1.00  0.00     0.275 HD
ENDBRANCH  35  36
BRANCH  35  40
HETATM   40  C14 UNL     1       9.628  19.212  55.640  1.00  0.00     0.053 C 
BRANCH  40  41
HETATM   41  C15 UNL     1      10.402  18.850  56.888  1.00  0.00     0.076 C 
BRANCH  41  42
HETATM   42  S1  UNL     1      12.146  19.257  56.756  1.00  0.00    -0.173 SA
HETATM   43  C16 UNL     1      12.986  19.398  58.332  1.00  0.00     0.089 C 
ENDBRANCH  41  42
ENDBRANCH  40  41
ENDBRANCH  35  40
ENDBRANCH  32  35
ENDBRANCH  29  31
ENDBRANCH   8  29
TORSDOF 12
ENDMDL
MODEL 5
REMARK VINA RESULT: -7.442808367      3.369      7.119
REMARK  12 active torsions:
REMARK  status: ('A' for Active; 'I' for Inactive)
REMARK    1  A    between atoms: O1_2  and  C2_3 
REMARK    2  A    between atoms: C2_3  and  C3_5 
REMARK    3  A    between atoms: C3_5  and  C4_6 
REMARK    4  A    between atoms: C3_5  and  C9_19 
REMARK    5  A    between atoms: C7_15  and  C8_16 
REMARK    6  A    between atoms: C11_26  and  N6_27 
REMARK    7  A    between atoms: N6_27  and  N7_29 
REMARK       I    between atoms: N7_29  and  C12_31 
REMARK    8  A    between atoms: C12_31  and  C13_33 
REMARK    9  A    between atoms: C13_33  and  N8_34 
REMARK   10  A    between atoms: C13_33  and  C14_38 
REMARK   11  A    between atoms: C14_38  and  C15_39 
REMARK   12  A    between atoms: C15_39  and  S1_40 
ROOT
HETATM    1  C9  UNL     1      16.251  21.860  51.088  1.00  0.00     0.098 A 
HETATM    2  N3  UNL     1      15.376  22.127  52.070  1.00  0.00    -0.298 N 
ATOM      3  H3  UNL     1      15.733  22.554  52.925  1.00  0.00     0.186 HD
HETATM    4  N4  UNL     1      14.101  21.876  51.999  1.00  0.00    -0.285 N 
ATOM      5  H4  UNL     1      13.483  22.103  52.778  1.00  0.00     0.188 HD
HETATM    6  C10 UNL     1      13.607  21.306  50.868  1.00  0.00     0.163 A 
HETATM    7  N5  UNL     1      12.194  21.041  50.814  1.00  0.00    -0.079 NA
HETATM    8  C11 UNL     1      14.436  21.010  49.837  1.00  0.00     0.143 A 
HETATM    9  C17 UNL     1      15.802  21.285  49.926  1.00  0.00     0.228 A 
HETATM   10  O8  UNL     1      16.575  21.003  48.949  1.00  0.00    -0.284 OA
ENDROOT
BRANCH   1  11
HETATM   11  C3  UNL     1      17.698  22.176  51.264  1.00  0.00     0.192 C 
BRANCH  11  12
HETATM   12  C2  UNL     1      17.880  23.554  51.776  1.00  0.00     0.274 C 
HETATM   13  O2  UNL     1      18.777  23.799  52.621  1.00  0.00    -0.264 OA
BRANCH  12  14
HETATM   14  O1  UNL     1      17.101  24.630  51.372  1.00  0.00    -0.326 OA
HETATM   15  C1  UNL     1      16.933  24.990  50.012  1.00  0.00     0.213 C 
ENDBRANCH  12  14
ENDBRANCH  11  12
BRANCH  11  16
HETATM   16  C4  UNL     1      18.340  21.237  52.215  1.00  0.00     0.056 A 
HETATM   17  N1  UNL     1      17.910  21.121  53.481  1.00  0.00    -0.310 N 
HETATM   18  C5  UNL     1      18.459  20.279  54.375  1.00  0.00     0.327 A 
ATOM     19  H1  UNL     1      17.127  21.701  53.782  1.00  0.00     0.170 HD
HETATM   20  O3  UNL     1      17.994  20.239  55.521  1.00  0.00    -0.247 OA
HETATM   21  N2  UNL     1      19.505  19.495  53.997  1.00  0.00    -0.275 N 
HETATM   22  C6  UNL     1      19.954  19.600  52.722  1.00  0.00     0.268 A 
ATOM     23  H2  UNL     1      19.939  18.847  54.655  1.00  0.00     0.173 HD
HETATM   24  O4  UNL     1      20.913  18.875  52.400  1.00  0.00    -0.267 OA
HETATM   25  C7  UNL     1      19.394  20.464  51.799  1.00  0.00     0.132 A 
BRANCH  25  26
HETATM   26  C8  UNL     1      19.951  20.504  50.454  1.00  0.00     0.217 C 
HETATM   27  O5  UNL     1      19.298  19.963  49.531  1.00  0.00    -0.644 OA
HETATM   28  O6  UNL     1      21.160  21.107  50.150  1.00  0.00    -0.644 OA
ENDBRANCH  25  26
ENDBRANCH  11  16
ENDBRANCH   1  11
BRANCH   8  29
HETATM   29  N6  UNL     1      13.970  20.407  48.647  1.00  0.00    -0.291 N 
ATOM     30  H6  UNL     1      13.245  20.890  48.116  1.00  0.00     0.187 HD
BRANCH  29  31
HETATM   31  N7  UNL     1      14.442  19.198  48.161  1.00  0.00    -0.268 N 
HETATM   32  C12 UNL     1      13.614  18.057  47.978  1.00  0.00     0.266 C 
HETATM   33  O7  UNL     1      12.379  18.082  48.253  1.00  0.00    -0.269 OA
ATOM     34  H7  UNL     1      15.431  19.123  47.923  1.00  0.00     0.190 HD
BRANCH  32  35
HETATM   35  C13 UNL     1      14.180  16.797  47.453  1.00  0.00     0.277 C 
BRANCH  35  36
HETATM   36  N8  UNL     1      15.580  16.742  47.735  1.00  0.00    -0.066 N 
ATOM     37  H83 UNL     1      15.914  15.782  47.826  1.00  0.00     0.275 HD
ATOM     38  H82 UNL     1      16.144  17.019  46.932  1.00  0.00     0.275 HD
ATOM     39  H81 UNL     1      15.789  17.301  48.562  1.00  0.00     0.275 HD
ENDBRANCH  35  36
BRANCH  35  40
HETATM   40  C14 UNL     1      13.870  16.610  45.982  1.00  0.00     0.053 C 
BRANCH  40  41
HETATM   41  C15 UNL     1      12.735  15.631  45.775  1.00  0.00     0.076 C 
BRANCH  41  42
HETATM   42  S1  UNL     1      11.272  16.411  45.087  1.00  0.00    -0.173 SA
HETATM   43  C16 UNL     1      11.489  18.141  44.674  1.00  0.00     0.089 C 
ENDBRANCH  41  42
ENDBRANCH  40  41
ENDBRANCH  35  40
ENDBRANCH  32  35
ENDBRANCH  29  31
ENDBRANCH   8  29
TORSDOF 12
ENDMDL
