MODEL 1
REMARK VINA RESULT: -8.881778562      0.000      0.000
REMARK  13 active torsions:
REMARK  status: ('A' for Active; 'I' for Inactive)
REMARK       I    between atoms: C2_2  and  N1_4 
REMARK    1  A    between atoms: N1_4  and  C3_6 
REMARK    2  A    between atoms: C3_6  and  C4_7 
REMARK    3  A    between atoms: C3_6  and  C7_16 
REMARK    4  A    between atoms: C6_10  and  N2_11 
REMARK    5  A    between atoms: C7_16  and  C8_17 
REMARK    6  A    between atoms: C7_16  and  N8_29 
REMARK    7  A    between atoms: C7_16  and  C16_43 
REMARK    8  A    between atoms: C8_17  and  O2_18 
REMARK    9  A    between atoms: O2_18  and  C9_19 
REMARK   10  A    between atoms: C9_19  and  C10_21 
REMARK   11  A    between atoms: C10_21  and  N4_22 
REMARK   12  A    between atoms: N8_29  and  C12_31 
REMARK   13  A    between atoms: C14_35  and  N10_36 
ROOT
HETATM    1  C7  UNL     1      15.639  22.596  48.490  1.00  0.00     0.158 C 
ENDROOT
BRANCH   1   2
HETATM    2  C3  UNL     1      14.690  21.745  49.244  1.00  0.00     0.174 C 
BRANCH   2   3
HETATM    3  N1  UNL     1      15.181  21.597  50.625  1.00  0.00    -0.348 N 
HETATM    4  C2  UNL     1      14.346  21.780  51.742  1.00  0.00     0.214 C 
HETATM    5  C1  UNL     1      14.855  21.616  53.114  1.00  0.00     0.117 C 
HETATM    6  O1  UNL     1      13.147  22.085  51.562  1.00  0.00    -0.274 OA
ATOM      7  H1  UNL     1      16.160  21.353  50.777  1.00  0.00     0.163 HD
ENDBRANCH   2   3
BRANCH   2   8
HETATM    8  C4  UNL     1      14.411  20.350  48.736  1.00  0.00     0.043 A 
HETATM    9  C5  UNL     1      13.113  19.909  48.644  1.00  0.00     0.080 A 
HETATM   10  S1  UNL     1      13.281  18.313  48.069  1.00  0.00    -0.064 SA
HETATM   11  C6  UNL     1      14.979  18.277  47.971  1.00  0.00     0.142 A 
HETATM   12  N3  UNL     1      15.348  19.486  48.383  1.00  0.00    -0.338 N 
ATOM     13  H3  UNL     1      16.334  19.742  48.425  1.00  0.00     0.168 HD
BRANCH  11  14
HETATM   14  N2  UNL     1      15.776  17.295  47.585  1.00  0.00    -0.380 N 
ATOM     15  H22 UNL     1      15.898  16.945  46.634  1.00  0.00     0.158 HD
ATOM     16  H21 UNL     1      16.405  16.715  48.142  1.00  0.00     0.158 HD
ENDBRANCH  11  14
ENDBRANCH   2   8
ENDBRANCH   1   2
BRANCH   1  17
HETATM   17  C8  UNL     1      17.062  22.619  48.931  1.00  0.00     0.222 C 
BRANCH  17  18
HETATM   18  O2  UNL     1      17.669  21.417  49.253  1.00  0.00    -0.317 OA
BRANCH  18  19
HETATM   19  C9  UNL     1      18.677  21.349  50.174  1.00  0.00     0.278 C 
HETATM   20  O3  UNL     1      19.574  20.481  50.000  1.00  0.00    -0.263 OA
BRANCH  19  21
HETATM   21  C10 UNL     1      18.792  22.220  51.359  1.00  0.00     0.261 C 
BRANCH  21  22
HETATM   22  N4  UNL     1      18.503  21.535  52.585  1.00  0.00    -0.265 N 
HETATM   23  C11 UNL     1      18.446  22.103  53.798  1.00  0.00     0.217 A 
HETATM   24  N5  UNL     1      18.148  21.136  54.715  1.00  0.00    -0.278 N 
HETATM   25  N6  UNL     1      18.034  20.014  54.029  1.00  0.00    -0.006 NA
ATOM     26  H5  UNL     1      18.038  21.256  55.723  1.00  0.00     0.185 HD
HETATM   27  N7  UNL     1      18.252  20.260  52.727  1.00  0.00    -0.223 N 
ATOM     28  H7  UNL     1      18.225  19.570  51.976  1.00  0.00     0.206 HD
ENDBRANCH  21  22
ENDBRANCH  19  21
ENDBRANCH  18  19
ENDBRANCH  17  18
ENDBRANCH   1  17
BRANCH   1  29
HETATM   29  N8  UNL     1      15.447  22.745  47.082  1.00  0.00    -0.363 N 
ATOM     30  H8  UNL     1      14.642  22.207  46.760  1.00  0.00     0.161 HD
BRANCH  29  31
HETATM   31  C12 UNL     1      16.043  23.410  46.042  1.00  0.00     0.114 A 
HETATM   32  C13 UNL     1      17.353  23.373  45.690  1.00  0.00     0.141 A 
HETATM   33  N9  UNL     1      17.861  24.096  44.665  1.00  0.00    -0.200 N 
HETATM   34  C14 UNL     1      17.089  24.899  43.931  1.00  0.00     0.678 A 
ATOM     35  H9  UNL     1      18.855  24.025  44.449  1.00  0.00     0.183 HD
HETATM   36  N11 UNL     1      15.786  24.979  44.228  1.00  0.00    -0.154 N 
HETATM   37  C15 UNL     1      15.270  24.273  45.236  1.00  0.00     0.287 A 
ATOM     38  H11 UNL     1      15.181  25.588  43.678  1.00  0.00     0.187 HD
HETATM   39  O4  UNL     1      14.064  24.388  45.461  1.00  0.00    -0.265 OA
BRANCH  34  40
HETATM   40  N10 UNL     1      17.580  25.594  42.941  1.00  0.00    -0.234 N 
ATOM     41 2H10 UNL     1      18.497  26.032  43.028  1.00  0.00     0.174 HD
ATOM     42 1H10 UNL     1      17.064  25.715  42.070  1.00  0.00     0.174 HD
ENDBRANCH  34  40
ENDBRANCH  29  31
ENDBRANCH   1  29
BRANCH   1  43
HETATM   43  C16 UNL     1      15.163  24.011  49.007  1.00  0.00     0.264 C 
HETATM   44  N12 UNL     1      16.032  24.808  49.769  1.00  0.00    -0.060 NA
HETATM   45  O5  UNL     1      14.021  24.417  48.732  1.00  0.00    -0.274 OA
ENDBRANCH   1  43
TORSDOF 13
ENDMDL
MODEL 2
REMARK VINA RESULT: -8.247027246      2.331      5.792
REMARK  13 active torsions:
REMARK  status: ('A' for Active; 'I' for Inactive)
REMARK       I    between atoms: C2_2  and  N1_4 
REMARK    1  A    between atoms: N1_4  and  C3_6 
REMARK    2  A    between atoms: C3_6  and  C4_7 
REMARK    3  A    between atoms: C3_6  and  C7_16 
REMARK    4  A    between atoms: C6_10  and  N2_11 
REMARK    5  A    between atoms: C7_16  and  C8_17 
REMARK    6  A    between atoms: C7_16  and  N8_29 
REMARK    7  A    between atoms: C7_16  and  C16_43 
REMARK    8  A    between atoms: C8_17  and  O2_18 
REMARK    9  A    between atoms: O2_18  and  C9_19 
REMARK   10  A    between atoms: C9_19  and  C10_21 
REMARK   11  A    between atoms: C10_21  and  N4_22 
REMARK   12  A    between atoms: N8_29  and  C12_31 
REMARK   13  A    between atoms: C14_35  and  N10_36 
ROOT
HETATM    1  C7  UNL     1      15.854  22.451  50.126  1.00  0.00     0.158 C 
ENDROOT
BRANCH   1   2
HETATM    2  C3  UNL     1      15.838  21.957  48.731  1.00  0.00     0.174 C 
BRANCH   2   3
HETATM    3  N1  UNL     1      15.204  22.975  47.874  1.00  0.00    -0.348 N 
HETATM    4  C2  UNL     1      15.671  23.263  46.579  1.00  0.00     0.214 C 
HETATM    5  C1  UNL     1      15.014  24.276  45.736  1.00  0.00     0.117 C 
HETATM    6  O1  UNL     1      16.662  22.642  46.137  1.00  0.00    -0.274 OA
ATOM      7  H1  UNL     1      14.399  23.488  48.233  1.00  0.00     0.163 HD
ENDBRANCH   2   3
BRANCH   2   8
HETATM    8  C4  UNL     1      15.140  20.652  48.435  1.00  0.00     0.043 A 
HETATM    9  C5  UNL     1      13.785  20.643  48.205  1.00  0.00     0.080 A 
HETATM   10  S1  UNL     1      13.440  18.993  47.953  1.00  0.00    -0.064 SA
HETATM   11  C6  UNL     1      15.019  18.391  48.149  1.00  0.00     0.142 A 
HETATM   12  N3  UNL     1      15.745  19.476  48.399  1.00  0.00    -0.338 N 
ATOM     13  H3  UNL     1      16.749  19.403  48.561  1.00  0.00     0.168 HD
BRANCH  11  14
HETATM   14  N2  UNL     1      15.456  17.145  48.079  1.00  0.00    -0.380 N 
ATOM     15  H22 UNL     1      15.921  16.704  47.286  1.00  0.00     0.158 HD
ATOM     16  H21 UNL     1      15.415  16.405  48.781  1.00  0.00     0.158 HD
ENDBRANCH  11  14
ENDBRANCH   2   8
ENDBRANCH   1   2
BRANCH   1  17
HETATM   17  C8  UNL     1      14.738  23.335  50.569  1.00  0.00     0.222 C 
BRANCH  17  18
HETATM   18  O2  UNL     1      13.485  22.771  50.745  1.00  0.00    -0.317 OA
BRANCH  18  19
HETATM   19  C9  UNL     1      13.203  21.978  51.821  1.00  0.00     0.278 C 
HETATM   20  O3  UNL     1      13.423  20.742  51.714  1.00  0.00    -0.263 OA
BRANCH  19  21
HETATM   21  C10 UNL     1      12.659  22.463  53.103  1.00  0.00     0.261 C 
BRANCH  21  22
HETATM   22  N4  UNL     1      13.011  21.625  54.213  1.00  0.00    -0.265 N 
HETATM   23  C11 UNL     1      12.153  21.134  55.119  1.00  0.00     0.217 A 
HETATM   24  N5  UNL     1      12.856  20.386  56.020  1.00  0.00    -0.278 N 
HETATM   25  N6  UNL     1      14.116  20.446  55.629  1.00  0.00    -0.006 NA
ATOM     26  H5  UNL     1      12.485  19.884  56.827  1.00  0.00     0.185 HD
HETATM   27  N7  UNL     1      14.208  21.204  54.525  1.00  0.00    -0.223 N 
ATOM     28  H7  UNL     1      15.067  21.416  54.015  1.00  0.00     0.206 HD
ENDBRANCH  21  22
ENDBRANCH  19  21
ENDBRANCH  18  19
ENDBRANCH  17  18
ENDBRANCH   1  17
BRANCH   1  29
HETATM   29  N8  UNL     1      16.380  21.598  51.144  1.00  0.00    -0.363 N 
ATOM     30  H8  UNL     1      15.678  21.396  51.856  1.00  0.00     0.161 HD
BRANCH  29  31
HETATM   31  C12 UNL     1      17.566  20.974  51.430  1.00  0.00     0.114 A 
HETATM   32  C13 UNL     1      18.624  20.804  50.598  1.00  0.00     0.141 A 
HETATM   33  N9  UNL     1      19.746  20.140  50.958  1.00  0.00    -0.200 N 
HETATM   34  C14 UNL     1      19.878  19.606  52.174  1.00  0.00     0.678 A 
ATOM     35  H9  UNL     1      20.508  20.045  50.286  1.00  0.00     0.183 HD
HETATM   36  N11 UNL     1      18.868  19.740  53.042  1.00  0.00    -0.154 N 
HETATM   37  C15 UNL     1      17.755  20.392  52.702  1.00  0.00     0.287 A 
ATOM     38  H11 UNL     1      18.950  19.338  53.976  1.00  0.00     0.187 HD
HETATM   39  O4  UNL     1      16.861  20.483  53.545  1.00  0.00    -0.265 OA
BRANCH  34  40
HETATM   40  N10 UNL     1      20.961  18.966  52.520  1.00  0.00    -0.234 N 
ATOM     41 2H10 UNL     1      21.225  18.106  52.040  1.00  0.00     0.174 HD
ATOM     42 1H10 UNL     1      21.561  19.307  53.272  1.00  0.00     0.174 HD
ENDBRANCH  34  40
ENDBRANCH  29  31
ENDBRANCH   1  29
BRANCH   1  43
HETATM   43  C16 UNL     1      17.016  23.514  49.998  1.00  0.00     0.264 C 
HETATM   44  N12 UNL     1      17.135  24.543  50.945  1.00  0.00    -0.060 NA
HETATM   45  O5  UNL     1      17.827  23.431  49.059  1.00  0.00    -0.274 OA
ENDBRANCH   1  43
TORSDOF 13
ENDMDL
MODEL 3
REMARK VINA RESULT: -8.041109547      2.489      6.666
REMARK  13 active torsions:
REMARK  status: ('A' for Active; 'I' for Inactive)
REMARK       I    between atoms: C2_2  and  N1_4 
REMARK    1  A    between atoms: N1_4  and  C3_6 
REMARK    2  A    between atoms: C3_6  and  C4_7 
REMARK    3  A    between atoms: C3_6  and  C7_16 
REMARK    4  A    between atoms: C6_10  and  N2_11 
REMARK    5  A    between atoms: C7_16  and  C8_17 
REMARK    6  A    between atoms: C7_16  and  N8_29 
REMARK    7  A    between atoms: C7_16  and  C16_43 
REMARK    8  A    between atoms: C8_17  and  O2_18 
REMARK    9  A    between atoms: O2_18  and  C9_19 
REMARK   10  A    between atoms: C9_19  and  C10_21 
REMARK   11  A    between atoms: C10_21  and  N4_22 
REMARK   12  A    between atoms: N8_29  and  C12_31 
REMARK   13  A    between atoms: C14_35  and  N10_36 
ROOT
HETATM    1  C7  UNL     1      16.486  21.523  50.506  1.00  0.00     0.158 C 
ENDROOT
BRANCH   1   2
HETATM    2  C3  UNL     1      16.149  21.311  49.079  1.00  0.00     0.174 C 
BRANCH   2   3
HETATM    3  N1  UNL     1      15.424  22.493  48.582  1.00  0.00    -0.348 N 
HETATM    4  C2  UNL     1      15.591  22.980  47.273  1.00  0.00     0.214 C 
HETATM    5  C1  UNL     1      14.847  24.157  46.794  1.00  0.00     0.117 C 
HETATM    6  O1  UNL     1      16.385  22.398  46.504  1.00  0.00    -0.274 OA
ATOM      7  H1  UNL     1      14.779  22.975  49.209  1.00  0.00     0.163 HD
ENDBRANCH   2   3
BRANCH   2   8
HETATM    8  C4  UNL     1      15.317  20.108  48.705  1.00  0.00     0.043 A 
HETATM    9  C5  UNL     1      13.946  20.194  48.739  1.00  0.00     0.080 A 
HETATM   10  S1  UNL     1      13.443  18.631  48.282  1.00  0.00    -0.064 SA
HETATM   11  C6  UNL     1      14.984  17.942  48.071  1.00  0.00     0.142 A 
HETATM   12  N3  UNL     1      15.820  18.935  48.358  1.00  0.00    -0.338 N 
ATOM     13  H3  UNL     1      16.829  18.794  48.312  1.00  0.00     0.168 HD
BRANCH  11  14
HETATM   14  N2  UNL     1      15.310  16.712  47.710  1.00  0.00    -0.380 N 
ATOM     15  H22 UNL     1      14.740  15.872  47.817  1.00  0.00     0.158 HD
ATOM     16  H21 UNL     1      16.165  16.373  47.268  1.00  0.00     0.158 HD
ENDBRANCH  11  14
ENDBRANCH   2   8
ENDBRANCH   1   2
BRANCH   1  17
HETATM   17  C8  UNL     1      15.416  22.034  51.409  1.00  0.00     0.222 C 
BRANCH  17  18
HETATM   18  O2  UNL     1      14.579  21.116  52.020  1.00  0.00    -0.317 OA
BRANCH  18  19
HETATM   19  C9  UNL     1      13.347  21.474  52.490  1.00  0.00     0.278 C 
HETATM   20  O3  UNL     1      12.988  21.015  53.607  1.00  0.00    -0.263 OA
BRANCH  19  21
HETATM   21  C10 UNL     1      12.403  22.361  51.783  1.00  0.00     0.261 C 
BRANCH  21  22
HETATM   22  N4  UNL     1      12.045  23.519  52.548  1.00  0.00    -0.265 N 
HETATM   23  C11 UNL     1      11.845  24.748  52.051  1.00  0.00     0.217 A 
HETATM   24  N5  UNL     1      11.522  25.584  53.082  1.00  0.00    -0.278 N 
HETATM   25  N6  UNL     1      11.535  24.835  54.168  1.00  0.00    -0.006 NA
ATOM     26  H5  UNL     1      11.315  26.582  53.024  1.00  0.00     0.185 HD
HETATM   27  N7  UNL     1      11.855  23.573  53.840  1.00  0.00    -0.223 N 
ATOM     28  H7  UNL     1      11.936  22.789  54.489  1.00  0.00     0.206 HD
ENDBRANCH  21  22
ENDBRANCH  19  21
ENDBRANCH  18  19
ENDBRANCH  17  18
ENDBRANCH   1  17
BRANCH   1  29
HETATM   29  N8  UNL     1      17.416  20.632  51.125  1.00  0.00    -0.363 N 
ATOM     30  H8  UNL     1      17.699  19.891  50.484  1.00  0.00     0.161 HD
BRANCH  29  31
HETATM   31  C12 UNL     1      18.035  20.497  52.340  1.00  0.00     0.114 A 
HETATM   32  C13 UNL     1      17.541  20.849  53.554  1.00  0.00     0.141 A 
HETATM   33  N9  UNL     1      18.242  20.711  54.703  1.00  0.00    -0.200 N 
HETATM   34  C14 UNL     1      19.480  20.212  54.706  1.00  0.00     0.678 A 
ATOM     35  H9  UNL     1      17.816  20.994  55.585  1.00  0.00     0.183 HD
HETATM   36  N11 UNL     1      20.023  19.845  53.539  1.00  0.00    -0.154 N 
HETATM   37  C15 UNL     1      19.345  19.975  52.398  1.00  0.00     0.287 A 
ATOM     38  H11 UNL     1      20.968  19.462  53.522  1.00  0.00     0.187 HD
HETATM   39  O4  UNL     1      19.897  19.620  51.356  1.00  0.00    -0.265 OA
BRANCH  34  40
HETATM   40  N10 UNL     1      20.155  20.078  55.816  1.00  0.00    -0.234 N 
ATOM     41 2H10 UNL     1      19.749  20.377  56.702  1.00  0.00     0.174 HD
ATOM     42 1H10 UNL     1      21.092  19.676  55.821  1.00  0.00     0.174 HD
ENDBRANCH  34  40
ENDBRANCH  29  31
ENDBRANCH   1  29
BRANCH   1  43
HETATM   43  C16 UNL     1      17.371  22.823  50.358  1.00  0.00     0.264 C 
HETATM   44  N12 UNL     1      17.055  23.976  51.094  1.00  0.00    -0.060 NA
HETATM   45  O5  UNL     1      18.351  22.819  49.592  1.00  0.00    -0.274 OA
ENDBRANCH   1  43
TORSDOF 13
ENDMDL
MODEL 4
REMARK VINA RESULT: -8.014488813      3.194      7.031
REMARK  13 active torsions:
REMARK  status: ('A' for Active; 'I' for Inactive)
REMARK       I    between atoms: C2_2  and  N1_4 
REMARK    1  A    between atoms: N1_4  and  C3_6 
REMARK    2  A    between atoms: C3_6  and  C4_7 
REMARK    3  A    between atoms: C3_6  and  C7_16 
REMARK    4  A    between atoms: C6_10  and  N2_11 
REMARK    5  A    between atoms: C7_16  and  C8_17 
REMARK    6  A    between atoms: C7_16  and  N8_29 
REMARK    7  A    between atoms: C7_16  and  C16_43 
REMARK    8  A    between atoms: C8_17  and  O2_18 
REMARK    9  A    between atoms: O2_18  and  C9_19 
REMARK   10  A    between atoms: C9_19  and  C10_21 
REMARK   11  A    between atoms: C10_21  and  N4_22 
REMARK   12  A    between atoms: N8_29  and  C12_31 
REMARK   13  A    between atoms: C14_35  and  N10_36 
ROOT
HETATM    1  C7  UNL     1      15.261  23.220  49.796  1.00  0.00     0.158 C 
ENDROOT
BRANCH   1   2
HETATM    2  C3  UNL     1      15.499  22.528  48.508  1.00  0.00     0.174 C 
BRANCH   2   3
HETATM    3  N1  UNL     1      14.975  23.366  47.416  1.00  0.00    -0.348 N 
HETATM    4  C2  UNL     1      15.698  23.592  46.230  1.00  0.00     0.214 C 
HETATM    5  C1  UNL     1      15.149  24.425  45.146  1.00  0.00     0.117 C 
HETATM    6  O1  UNL     1      16.826  23.072  46.097  1.00  0.00    -0.274 OA
ATOM      7  H1  UNL     1      14.057  23.798  47.523  1.00  0.00     0.163 HD
ENDBRANCH   2   3
BRANCH   2   8
HETATM    8  C4  UNL     1      14.914  21.151  48.310  1.00  0.00     0.043 A 
HETATM    9  C5  UNL     1      13.550  20.995  48.242  1.00  0.00     0.080 A 
HETATM   10  S1  UNL     1      13.356  19.312  48.050  1.00  0.00    -0.064 SA
HETATM   11  C6  UNL     1      15.003  18.884  48.064  1.00  0.00     0.142 A 
HETATM   12  N3  UNL     1      15.633  20.044  48.215  1.00  0.00    -0.338 N 
ATOM     13  H3  UNL     1      16.651  20.080  48.258  1.00  0.00     0.168 HD
BRANCH  11  14
HETATM   14  N2  UNL     1      15.559  17.689  47.956  1.00  0.00    -0.380 N 
ATOM     15  H22 UNL     1      15.879  17.092  48.718  1.00  0.00     0.158 HD
ATOM     16  H21 UNL     1      15.768  17.147  47.116  1.00  0.00     0.158 HD
ENDBRANCH  11  14
ENDBRANCH   2   8
ENDBRANCH   1   2
BRANCH   1  17
HETATM   17  C8  UNL     1      14.127  24.183  49.874  1.00  0.00     0.222 C 
BRANCH  17  18
HETATM   18  O2  UNL     1      13.177  23.999  50.865  1.00  0.00    -0.317 OA
BRANCH  18  19
HETATM   19  C9  UNL     1      12.381  25.025  51.291  1.00  0.00     0.278 C 
HETATM   20  O3  UNL     1      12.858  26.191  51.261  1.00  0.00    -0.263 OA
BRANCH  19  21
HETATM   21  C10 UNL     1      11.000  24.867  51.784  1.00  0.00     0.261 C 
BRANCH  21  22
HETATM   22  N4  UNL     1      10.036  25.560  50.978  1.00  0.00    -0.265 N 
HETATM   23  C11 UNL     1       8.770  25.822  51.333  1.00  0.00     0.217 A 
HETATM   24  N5  UNL     1       8.163  26.492  50.310  1.00  0.00    -0.278 N 
HETATM   25  N6  UNL     1       9.081  26.615  49.369  1.00  0.00    -0.006 NA
ATOM     26  H5  UNL     1       7.200  26.827  50.278  1.00  0.00     0.185 HD
HETATM   27  N7  UNL     1      10.225  26.045  49.779  1.00  0.00    -0.223 N 
ATOM     28  H7  UNL     1      11.094  25.998  49.246  1.00  0.00     0.206 HD
ENDBRANCH  21  22
ENDBRANCH  19  21
ENDBRANCH  18  19
ENDBRANCH  17  18
ENDBRANCH   1  17
BRANCH   1  29
HETATM   29  N8  UNL     1      15.529  22.512  51.008  1.00  0.00    -0.363 N 
ATOM     30  H8  UNL     1      14.727  22.541  51.636  1.00  0.00     0.161 HD
BRANCH  29  31
HETATM   31  C12 UNL     1      16.564  21.805  51.561  1.00  0.00     0.114 A 
HETATM   32  C13 UNL     1      17.566  21.168  50.902  1.00  0.00     0.141 A 
HETATM   33  N9  UNL     1      18.530  20.460  51.533  1.00  0.00    -0.200 N 
HETATM   34  C14 UNL     1      18.551  20.346  52.863  1.00  0.00     0.678 A 
ATOM     35  H9  UNL     1      19.256  20.004  50.982  1.00  0.00     0.183 HD
HETATM   36  N11 UNL     1      17.589  20.952  53.570  1.00  0.00    -0.154 N 
HETATM   37  C15 UNL     1      16.632  21.654  52.963  1.00  0.00     0.287 A 
ATOM     38  H11 UNL     1      17.589  20.876  54.587  1.00  0.00     0.187 HD
HETATM   39  O4  UNL     1      15.774  22.189  53.667  1.00  0.00    -0.265 OA
BRANCH  34  40
HETATM   40  N10 UNL     1      19.482  19.663  53.471  1.00  0.00    -0.234 N 
ATOM     41 2H10 UNL     1      19.234  18.990  54.196  1.00  0.00     0.174 HD
ATOM     42 1H10 UNL     1      20.467  19.787  53.238  1.00  0.00     0.174 HD
ENDBRANCH  34  40
ENDBRANCH  29  31
ENDBRANCH   1  29
BRANCH   1  43
HETATM   43  C16 UNL     1      16.480  24.225  49.763  1.00  0.00     0.264 C 
HETATM   44  N12 UNL     1      16.362  25.490  50.360  1.00  0.00    -0.060 NA
HETATM   45  O5  UNL     1      17.542  23.890  49.210  1.00  0.00    -0.274 OA
ENDBRANCH   1  43
TORSDOF 13
ENDMDL
MODEL 5
REMARK VINA RESULT: -8.002745230      2.427      5.788
REMARK  13 active torsions:
REMARK  status: ('A' for Active; 'I' for Inactive)
REMARK       I    between atoms: C2_2  and  N1_4 
REMARK    1  A    between atoms: N1_4  and  C3_6 
REMARK    2  A    between atoms: C3_6  and  C4_7 
REMARK    3  A    between atoms: C3_6  and  C7_16 
REMARK    4  A    between atoms: C6_10  and  N2_11 
REMARK    5  A    between atoms: C7_16  and  C8_17 
REMARK    6  A    between atoms: C7_16  and  N8_29 
REMARK    7  A    between atoms: C7_16  and  C16_43 
REMARK    8  A    between atoms: C8_17  and  O2_18 
REMARK    9  A    between atoms: O2_18  and  C9_19 
REMARK   10  A    between atoms: C9_19  and  C10_21 
REMARK   11  A    between atoms: C10_21  and  N4_22 
REMARK   12  A    between atoms: N8_29  and  C12_31 
REMARK   13  A    between atoms: C14_35  and  N10_36 
ROOT
HETATM    1  C7  UNL     1      15.641  22.960  50.231  1.00  0.00     0.158 C 
ENDROOT
BRANCH   1   2
HETATM    2  C3  UNL     1      15.734  22.354  48.883  1.00  0.00     0.174 C 
BRANCH   2   3
HETATM    3  N1  UNL     1      15.214  23.315  47.895  1.00  0.00    -0.348 N 
HETATM    4  C2  UNL     1      15.730  23.402  46.589  1.00  0.00     0.214 C 
HETATM    5  C1  UNL     1      15.186  24.363  45.614  1.00  0.00     0.117 C 
HETATM    6  O1  UNL     1      16.666  22.646  46.253  1.00  0.00    -0.274 OA
ATOM      7  H1  UNL     1      14.453  23.939  48.167  1.00  0.00     0.163 HD
ENDBRANCH   2   3
BRANCH   2   8
HETATM    8  C4  UNL     1      15.022  21.048  48.628  1.00  0.00     0.043 A 
HETATM    9  C5  UNL     1      15.753  19.894  48.479  1.00  0.00     0.080 A 
HETATM   10  S1  UNL     1      14.561  18.710  48.185  1.00  0.00    -0.064 SA
HETATM   11  C6  UNL     1      13.198  19.726  48.263  1.00  0.00     0.142 A 
HETATM   12  N3  UNL     1      13.709  20.927  48.511  1.00  0.00    -0.338 N 
ATOM     13  H3  UNL     1      13.102  21.740  48.608  1.00  0.00     0.168 HD
BRANCH  11  14
HETATM   14  N2  UNL     1      11.919  19.424  48.115  1.00  0.00    -0.380 N 
ATOM     15  H22 UNL     1      11.340  19.602  47.294  1.00  0.00     0.158 HD
ATOM     16  H21 UNL     1      11.282  18.969  48.770  1.00  0.00     0.158 HD
ENDBRANCH  11  14
ENDBRANCH   2   8
ENDBRANCH   1   2
BRANCH   1  17
HETATM   17  C8  UNL     1      14.352  23.596  50.626  1.00  0.00     0.222 C 
BRANCH  17  18
HETATM   18  O2  UNL     1      13.247  22.783  50.807  1.00  0.00    -0.317 OA
BRANCH  18  19
HETATM   19  C9  UNL     1      13.135  21.962  51.894  1.00  0.00     0.278 C 
HETATM   20  O3  UNL     1      13.581  20.788  51.793  1.00  0.00    -0.263 OA
BRANCH  19  21
HETATM   21  C10 UNL     1      12.527  22.351  53.181  1.00  0.00     0.261 C 
BRANCH  21  22
HETATM   22  N4  UNL     1      12.974  21.540  54.277  1.00  0.00    -0.265 N 
HETATM   23  C11 UNL     1      12.183  20.989  55.209  1.00  0.00     0.217 A 
HETATM   24  N5  UNL     1      12.967  20.293  56.085  1.00  0.00    -0.278 N 
HETATM   25  N6  UNL     1      14.206  20.444  55.655  1.00  0.00    -0.006 NA
ATOM     26  H5  UNL     1      12.659  19.767  56.903  1.00  0.00     0.185 HD
HETATM   27  N7  UNL     1      14.208  21.207  54.549  1.00  0.00    -0.223 N 
ATOM     28  H7  UNL     1      15.032  21.479  54.014  1.00  0.00     0.206 HD
ENDBRANCH  21  22
ENDBRANCH  19  21
ENDBRANCH  18  19
ENDBRANCH  17  18
ENDBRANCH   1  17
BRANCH   1  29
HETATM   29  N8  UNL     1      16.357  22.344  51.304  1.00  0.00    -0.363 N 
ATOM     30  H8  UNL     1      15.926  22.558  52.204  1.00  0.00     0.161 HD
BRANCH  29  31
HETATM   31  C12 UNL     1      17.460  21.547  51.461  1.00  0.00     0.114 A 
HETATM   32  C13 UNL     1      18.365  21.205  50.509  1.00  0.00     0.141 A 
HETATM   33  N9  UNL     1      19.409  20.379  50.748  1.00  0.00    -0.200 N 
HETATM   34  C14 UNL     1      19.611  19.845  51.955  1.00  0.00     0.678 A 
ATOM     35  H9  UNL     1      20.055  20.159  49.991  1.00  0.00     0.183 HD
HETATM   36  N11 UNL     1      18.752  20.144  52.937  1.00  0.00    -0.154 N 
HETATM   37  C15 UNL     1      17.718  20.957  52.717  1.00  0.00     0.287 A 
ATOM     38  H11 UNL     1      18.890  19.745  53.865  1.00  0.00     0.187 HD
HETATM   39  O4  UNL     1      16.962  21.196  53.660  1.00  0.00    -0.265 OA
BRANCH  34  40
HETATM   40  N10 UNL     1      20.619  19.048  52.185  1.00  0.00    -0.234 N 
ATOM     41 2H10 UNL     1      21.398  19.004  51.528  1.00  0.00     0.174 HD
ATOM     42 1H10 UNL     1      20.650  18.458  53.016  1.00  0.00     0.174 HD
ENDBRANCH  34  40
ENDBRANCH  29  31
ENDBRANCH   1  29
BRANCH   1  43
HETATM   43  C16 UNL     1      16.524  24.246  49.984  1.00  0.00     0.264 C 
HETATM   44  N12 UNL     1      16.019  25.517  50.304  1.00  0.00    -0.060 NA
HETATM   45  O5  UNL     1      17.667  24.129  49.510  1.00  0.00    -0.274 OA
ENDBRANCH   1  43
TORSDOF 13
ENDMDL
