MODEL 1
REMARK VINA RESULT: -8.178408867      0.000      0.000
REMARK  17 active torsions:
REMARK  status: ('A' for Active; 'I' for Inactive)
REMARK    1  A    between atoms: S1_2  and  C2_3 
REMARK    2  A    between atoms: C3_4  and  C4_5 
REMARK    3  A    between atoms: C4_5  and  C5_6 
REMARK    4  A    between atoms: C5_6  and  C6_7 
REMARK    5  A    between atoms: C6_7  and  O1_8 
REMARK    6  A    between atoms: C6_7  and  C7_10 
REMARK    7  A    between atoms: C7_10  and  O2_11 
REMARK    8  A    between atoms: C7_10  and  C8_13 
REMARK    9  A    between atoms: C8_13  and  C9_15 
REMARK   10  A    between atoms: C9_15  and  O4_16 
REMARK   11  A    between atoms: C9_15  and  C10_18 
REMARK   12  A    between atoms: C10_18  and  O5_19 
REMARK   13  A    between atoms: C11_22  and  C12_23 
REMARK   14  A    between atoms: C12_23  and  N1_24 
REMARK   15  A    between atoms: N1_24  and  C13_26 
REMARK   16  A    between atoms: C16_33  and  C17_34 
REMARK       I    between atoms: C17_34  and  N4_36 
REMARK   17  A    between atoms: N4_36  and  C18_38 
ROOT
HETATM    1  C2  UNL     1      15.243  22.878  49.865  1.00  0.00     0.048 A 
HETATM    2  C3  UNL     1      15.342  21.871  50.809  1.00  0.00     0.071 A 
HETATM    3  O6  UNL     1      15.365  20.720  50.182  1.00  0.00    -0.315 OA
HETATM    4  C11 UNL     1      15.287  20.869  48.892  1.00  0.00     0.088 A 
HETATM    5  C16 UNL     1      15.208  22.237  48.649  1.00  0.00     0.083 A 
ENDROOT
BRANCH   2   6
HETATM    6  C4  UNL     1      15.415  22.025  52.308  1.00  0.00     0.069 C 
BRANCH   6   7
HETATM    7  C5  UNL     1      16.245  20.911  52.895  1.00  0.00     0.041 C 
BRANCH   7   8
HETATM    8  C6  UNL     1      17.212  21.326  53.938  1.00  0.00     0.154 C 
BRANCH   8   9
HETATM    9  O1  UNL     1      16.879  22.533  54.499  1.00  0.00    -0.393 OA
ATOM     10  H1  UNL     1      17.089  22.565  55.425  1.00  0.00     0.210 HD
ENDBRANCH   8   9
BRANCH   8  11
HETATM   11  C7  UNL     1      18.676  21.245  53.526  1.00  0.00     0.219 C 
BRANCH  11  12
HETATM   12  O2  UNL     1      19.136  19.968  53.457  1.00  0.00    -0.385 OA
ATOM     13  H2  UNL     1      19.700  19.819  52.708  1.00  0.00     0.210 HD
ENDBRANCH  11  12
BRANCH  11  14
HETATM   14  C8  UNL     1      18.825  22.092  52.347  1.00  0.00     0.188 C 
HETATM   15  O3  UNL     1      18.603  23.304  52.577  1.00  0.00    -0.292 OA
BRANCH  14  16
HETATM   16  C9  UNL     1      19.181  21.767  50.975  1.00  0.00     0.213 C 
BRANCH  16  17
HETATM   17  O4  UNL     1      18.485  20.618  50.518  1.00  0.00    -0.386 OA
ATOM     18  H4  UNL     1      18.181  20.730  49.625  1.00  0.00     0.210 HD
ENDBRANCH  16  17
BRANCH  16  19
HETATM   19  C10 UNL     1      18.909  22.818  49.934  1.00  0.00     0.203 C 
BRANCH  19  20
HETATM   20  O5  UNL     1      19.910  23.713  49.703  1.00  0.00    -0.398 OA
ATOM     21  H5  UNL     1      19.995  24.028  48.811  1.00  0.00     0.209 HD
ENDBRANCH  19  20
ENDBRANCH  16  19
ENDBRANCH  14  16
ENDBRANCH  11  14
ENDBRANCH   8  11
ENDBRANCH   7   8
ENDBRANCH   6   7
ENDBRANCH   2   6
BRANCH   1  22
HETATM   22  S1  UNL     1      15.184  24.584  50.278  1.00  0.00    -0.131 SA
HETATM   23  C1  UNL     1      13.551  25.242  50.566  1.00  0.00     0.095 C 
ENDBRANCH   1  22
BRANCH   5  24
HETATM   24  C17 UNL     1      15.107  22.849  47.334  1.00  0.00     0.273 C 
HETATM   25  O7  UNL     1      13.997  23.030  46.781  1.00  0.00    -0.267 OA
HETATM   26  N4  UNL     1      16.283  23.245  46.673  1.00  0.00    -0.153 N 
ATOM     27  H4  UNL     1      17.138  23.210  47.228  1.00  0.00     0.187 HD
BRANCH  26  28
HETATM   28  C18 UNL     1      16.415  23.639  45.480  1.00  0.00     0.710 A 
HETATM   29  N5  UNL     1      17.641  23.786  44.908  1.00  0.00    -0.117 N 
HETATM   30  N6  UNL     1      17.495  24.206  43.665  1.00  0.00     0.006 NA
ATOM     31  H5  UNL     1      18.533  23.600  45.366  1.00  0.00     0.202 HD
HETATM   32  N7  UNL     1      16.200  24.330  43.437  1.00  0.00     0.006 NA
HETATM   33  N8  UNL     1      15.536  23.986  44.538  1.00  0.00    -0.117 N 
ATOM     34  H8  UNL     1      14.521  23.987  44.644  1.00  0.00     0.202 HD
ENDBRANCH  26  28
ENDBRANCH   5  24
BRANCH   4  35
HETATM   35  C12 UNL     1      15.283  19.796  47.878  1.00  0.00     0.189 C 
BRANCH  35  36
HETATM   36  N1  UNL     1      15.410  18.505  48.506  1.00  0.00    -0.356 N 
ATOM     37  H1  UNL     1      16.076  18.385  49.268  1.00  0.00     0.162 HD
BRANCH  36  38
HETATM   38  C13 UNL     1      14.632  17.399  48.089  1.00  0.00     0.171 C 
HETATM   39  N2  UNL     1      14.006  16.651  48.958  1.00  0.00    -0.361 N 
HETATM   40  C14 UNL     1      13.284  15.593  48.311  1.00  0.00     0.142 C 
ATOM     41  H2  UNL     1      14.028  16.799  49.967  1.00  0.00     0.162 HD
HETATM   42  C15 UNL     1      13.323  15.952  46.854  1.00  0.00     0.142 C 
HETATM   43  N3  UNL     1      14.393  16.922  46.780  1.00  0.00    -0.361 N 
ATOM     44  H3  UNL     1      14.886  17.210  45.936  1.00  0.00     0.162 HD
ENDBRANCH  36  38
ENDBRANCH  35  36
ENDBRANCH   4  35
TORSDOF 17
ENDMDL
MODEL 2
REMARK VINA RESULT: -8.054176742      3.394      5.739
REMARK  17 active torsions:
REMARK  status: ('A' for Active; 'I' for Inactive)
REMARK    1  A    between atoms: S1_2  and  C2_3 
REMARK    2  A    between atoms: C3_4  and  C4_5 
REMARK    3  A    between atoms: C4_5  and  C5_6 
REMARK    4  A    between atoms: C5_6  and  C6_7 
REMARK    5  A    between atoms: C6_7  and  O1_8 
REMARK    6  A    between atoms: C6_7  and  C7_10 
REMARK    7  A    between atoms: C7_10  and  O2_11 
REMARK    8  A    between atoms: C7_10  and  C8_13 
REMARK    9  A    between atoms: C8_13  and  C9_15 
REMARK   10  A    between atoms: C9_15  and  O4_16 
REMARK   11  A    between atoms: C9_15  and  C10_18 
REMARK   12  A    between atoms: C10_18  and  O5_19 
REMARK   13  A    between atoms: C11_22  and  C12_23 
REMARK   14  A    between atoms: C12_23  and  N1_24 
REMARK   15  A    between atoms: N1_24  and  C13_26 
REMARK   16  A    between atoms: C16_33  and  C17_34 
REMARK       I    between atoms: C17_34  and  N4_36 
REMARK   17  A    between atoms: N4_36  and  C18_38 
ROOT
HETATM    1  C2  UNL     1      17.378  22.202  50.783  1.00  0.00     0.048 A 
HETATM    2  C3  UNL     1      17.060  21.395  51.861  1.00  0.00     0.071 A 
HETATM    3  O6  UNL     1      15.756  21.270  51.911  1.00  0.00    -0.315 OA
HETATM    4  C11 UNL     1      15.169  21.930  50.955  1.00  0.00     0.088 A 
HETATM    5  C16 UNL     1      16.175  22.541  50.211  1.00  0.00     0.083 A 
ENDROOT
BRANCH   2   6
HETATM    6  C4  UNL     1      18.013  20.748  52.834  1.00  0.00     0.069 C 
BRANCH   6   7
HETATM    7  C5  UNL     1      17.863  21.383  54.194  1.00  0.00     0.041 C 
BRANCH   7   8
HETATM    8  C6  UNL     1      16.478  21.426  54.722  1.00  0.00     0.154 C 
BRANCH   8   9
HETATM    9  O1  UNL     1      16.250  22.549  55.476  1.00  0.00    -0.393 OA
ATOM     10  H1  UNL     1      15.371  22.889  55.352  1.00  0.00     0.210 HD
ENDBRANCH   8   9
BRANCH   8  11
HETATM   11  C7  UNL     1      16.010  20.147  55.402  1.00  0.00     0.219 C 
BRANCH  11  12
HETATM   12  O2  UNL     1      16.780  19.801  56.466  1.00  0.00    -0.385 OA
ATOM     13  H2  UNL     1      16.480  20.187  57.280  1.00  0.00     0.210 HD
ENDBRANCH  11  12
BRANCH  11  14
HETATM   14  C8  UNL     1      14.572  20.288  55.612  1.00  0.00     0.188 C 
HETATM   15  O3  UNL     1      14.024  21.057  54.787  1.00  0.00    -0.292 OA
BRANCH  14  16
HETATM   16  C9  UNL     1      13.689  19.697  56.604  1.00  0.00     0.213 C 
BRANCH  16  17
HETATM   17  O4  UNL     1      14.034  18.345  56.864  1.00  0.00    -0.386 OA
ATOM     18  H4  UNL     1      13.266  17.787  56.876  1.00  0.00     0.210 HD
ENDBRANCH  16  17
BRANCH  16  19
HETATM   19  C10 UNL     1      13.653  20.349  57.959  1.00  0.00     0.203 C 
BRANCH  19  20
HETATM   20  O5  UNL     1      13.291  19.553  59.004  1.00  0.00    -0.398 OA
ATOM     21  H5  UNL     1      12.731  19.949  59.660  1.00  0.00     0.209 HD
ENDBRANCH  19  20
ENDBRANCH  16  19
ENDBRANCH  14  16
ENDBRANCH  11  14
ENDBRANCH   8  11
ENDBRANCH   7   8
ENDBRANCH   6   7
ENDBRANCH   2   6
BRANCH   1  22
HETATM   22  S1  UNL     1      19.026  22.626  50.351  1.00  0.00    -0.131 SA
HETATM   23  C1  UNL     1      20.119  21.246  50.067  1.00  0.00     0.095 C 
ENDBRANCH   1  22
BRANCH   5  24
HETATM   24  C17 UNL     1      15.960  23.380  49.044  1.00  0.00     0.273 C 
HETATM   25  O7  UNL     1      15.511  24.545  49.150  1.00  0.00    -0.267 OA
HETATM   26  N4  UNL     1      16.265  22.869  47.770  1.00  0.00    -0.153 N 
ATOM     27  H4  UNL     1      16.763  21.979  47.756  1.00  0.00     0.187 HD
BRANCH  26  28
HETATM   28  C18 UNL     1      16.003  23.373  46.641  1.00  0.00     0.710 A 
HETATM   29  N5  UNL     1      14.740  23.754  46.305  1.00  0.00    -0.117 N 
HETATM   30  N6  UNL     1      14.744  24.244  45.079  1.00  0.00     0.006 NA
ATOM     31  H5  UNL     1      13.919  23.674  46.906  1.00  0.00     0.202 HD
HETATM   32  N7  UNL     1      15.985  24.181  44.630  1.00  0.00     0.006 NA
HETATM   33  N8  UNL     1      16.757  23.651  45.577  1.00  0.00    -0.117 N 
ATOM     34  H8  UNL     1      17.761  23.486  45.500  1.00  0.00     0.202 HD
ENDBRANCH  26  28
ENDBRANCH   5  24
BRANCH   4  35
HETATM   35  C12 UNL     1      13.717  22.018  50.705  1.00  0.00     0.189 C 
BRANCH  35  36
HETATM   36  N1  UNL     1      12.985  21.989  51.947  1.00  0.00    -0.356 N 
ATOM     37  H1  UNL     1      12.958  21.126  52.488  1.00  0.00     0.162 HD
BRANCH  36  38
HETATM   38  C13 UNL     1      12.304  23.130  52.432  1.00  0.00     0.171 C 
HETATM   39  N2  UNL     1      11.904  23.197  53.673  1.00  0.00    -0.361 N 
HETATM   40  C14 UNL     1      11.239  24.440  53.941  1.00  0.00     0.142 C 
ATOM     41  H2  UNL     1      12.046  22.461  54.365  1.00  0.00     0.162 HD
HETATM   42  C15 UNL     1      11.523  25.283  52.731  1.00  0.00     0.142 C 
HETATM   43  N3  UNL     1      11.950  24.314  51.746  1.00  0.00    -0.361 N 
ATOM     44  H3  UNL     1      11.989  24.460  50.738  1.00  0.00     0.162 HD
ENDBRANCH  36  38
ENDBRANCH  35  36
ENDBRANCH   4  35
TORSDOF 17
ENDMDL
MODEL 3
REMARK VINA RESULT: -8.031486535      4.638      8.465
REMARK  17 active torsions:
REMARK  status: ('A' for Active; 'I' for Inactive)
REMARK    1  A    between atoms: S1_2  and  C2_3 
REMARK    2  A    between atoms: C3_4  and  C4_5 
REMARK    3  A    between atoms: C4_5  and  C5_6 
REMARK    4  A    between atoms: C5_6  and  C6_7 
REMARK    5  A    between atoms: C6_7  and  O1_8 
REMARK    6  A    between atoms: C6_7  and  C7_10 
REMARK    7  A    between atoms: C7_10  and  O2_11 
REMARK    8  A    between atoms: C7_10  and  C8_13 
REMARK    9  A    between atoms: C8_13  and  C9_15 
REMARK   10  A    between atoms: C9_15  and  O4_16 
REMARK   11  A    between atoms: C9_15  and  C10_18 
REMARK   12  A    between atoms: C10_18  and  O5_19 
REMARK   13  A    between atoms: C11_22  and  C12_23 
REMARK   14  A    between atoms: C12_23  and  N1_24 
REMARK   15  A    between atoms: N1_24  and  C13_26 
REMARK   16  A    between atoms: C16_33  and  C17_34 
REMARK       I    between atoms: C17_34  and  N4_36 
REMARK   17  A    between atoms: N4_36  and  C18_38 
ROOT
HETATM    1  C2  UNL     1      17.305  21.110  53.900  1.00  0.00     0.048 A 
HETATM    2  C3  UNL     1      17.236  22.009  52.851  1.00  0.00     0.071 A 
HETATM    3  O6  UNL     1      15.976  22.308  52.647  1.00  0.00    -0.315 OA
HETATM    4  C11 UNL     1      15.190  21.681  53.473  1.00  0.00     0.088 A 
HETATM    5  C16 UNL     1      16.004  20.903  54.292  1.00  0.00     0.083 A 
ENDROOT
BRANCH   2   6
HETATM    6  C4  UNL     1      18.384  22.575  52.053  1.00  0.00     0.069 C 
BRANCH   6   7
HETATM    7  C5  UNL     1      17.874  23.632  51.105  1.00  0.00     0.041 C 
BRANCH   7   8
HETATM    8  C6  UNL     1      17.513  23.146  49.752  1.00  0.00     0.154 C 
BRANCH   8   9
HETATM    9  O1  UNL     1      18.386  23.595  48.794  1.00  0.00    -0.393 OA
ATOM     10  H1  UNL     1      17.953  23.758  47.965  1.00  0.00     0.210 HD
ENDBRANCH   8   9
BRANCH   8  11
HETATM   11  C7  UNL     1      16.053  23.345  49.366  1.00  0.00     0.219 C 
BRANCH  11  12
HETATM   12  O2  UNL     1      15.682  24.651  49.356  1.00  0.00    -0.385 OA
ATOM     13  H2  UNL     1      14.746  24.769  49.241  1.00  0.00     0.210 HD
ENDBRANCH  11  12
BRANCH  11  14
HETATM   14  C8  UNL     1      15.830  22.559  48.157  1.00  0.00     0.188 C 
HETATM   15  O3  UNL     1      16.280  21.391  48.235  1.00  0.00    -0.292 OA
BRANCH  14  16
HETATM   16  C9  UNL     1      15.186  22.902  46.900  1.00  0.00     0.213 C 
BRANCH  16  17
HETATM   17  O4  UNL     1      14.079  23.766  47.104  1.00  0.00    -0.386 OA
ATOM     18  H4  UNL     1      13.256  23.294  47.048  1.00  0.00     0.210 HD
ENDBRANCH  16  17
BRANCH  16  19
HETATM   19  C10 UNL     1      16.031  23.601  45.870  1.00  0.00     0.203 C 
BRANCH  19  20
HETATM   20  O5  UNL     1      17.379  23.445  45.988  1.00  0.00    -0.398 OA
ATOM     21  H5  UNL     1      17.833  23.112  45.223  1.00  0.00     0.209 HD
ENDBRANCH  19  20
ENDBRANCH  16  19
ENDBRANCH  14  16
ENDBRANCH  11  14
ENDBRANCH   8  11
ENDBRANCH   7   8
ENDBRANCH   6   7
ENDBRANCH   2   6
BRANCH   1  22
HETATM   22  S1  UNL     1      18.815  20.447  54.504  1.00  0.00    -0.131 SA
HETATM   23  C1  UNL     1      19.801  19.577  53.299  1.00  0.00     0.095 C 
ENDBRANCH   1  22
BRANCH   5  24
HETATM   24  C17 UNL     1      15.532  20.038  55.360  1.00  0.00     0.273 C 
HETATM   25  O7  UNL     1      15.976  18.875  55.504  1.00  0.00    -0.267 OA
HETATM   26  N4  UNL     1      14.557  20.521  56.250  1.00  0.00    -0.153 N 
ATOM     27  H4  UNL     1      14.342  21.516  56.177  1.00  0.00     0.187 HD
BRANCH  26  28
HETATM   28  C18 UNL     1      13.912  19.881  57.128  1.00  0.00     0.710 A 
HETATM   29  N5  UNL     1      13.835  20.315  58.416  1.00  0.00    -0.117 N 
HETATM   30  N6  UNL     1      13.107  19.467  59.119  1.00  0.00     0.006 NA
ATOM     31  H5  UNL     1      14.270  21.163  58.781  1.00  0.00     0.202 HD
HETATM   32  N7  UNL     1      12.721  18.503  58.303  1.00  0.00     0.006 NA
HETATM   33  N8  UNL     1      13.208  18.748  57.089  1.00  0.00    -0.117 N 
ATOM     34  H8  UNL     1      13.065  18.166  56.263  1.00  0.00     0.202 HD
ENDBRANCH  26  28
ENDBRANCH   5  24
BRANCH   4  35
HETATM   35  C12 UNL     1      13.718  21.773  53.533  1.00  0.00     0.189 C 
BRANCH  35  36
HETATM   36  N1  UNL     1      13.181  22.156  52.251  1.00  0.00    -0.356 N 
ATOM     37  H1  UNL     1      13.149  21.468  51.499  1.00  0.00     0.162 HD
BRANCH  36  38
HETATM   38  C13 UNL     1      12.699  23.464  52.010  1.00  0.00     0.171 C 
HETATM   39  N2  UNL     1      11.808  24.008  52.796  1.00  0.00    -0.361 N 
HETATM   40  C14 UNL     1      11.469  25.333  52.362  1.00  0.00     0.142 C 
ATOM     41  H2  UNL     1      11.406  23.551  53.615  1.00  0.00     0.162 HD
HETATM   42  C15 UNL     1      12.498  25.658  51.319  1.00  0.00     0.142 C 
HETATM   43  N3  UNL     1      13.044  24.364  50.977  1.00  0.00    -0.361 N 
ATOM     44  H3  UNL     1      13.581  24.141  50.139  1.00  0.00     0.162 HD
ENDBRANCH  36  38
ENDBRANCH  35  36
ENDBRANCH   4  35
TORSDOF 17
ENDMDL
MODEL 4
REMARK VINA RESULT: -7.972605092      2.807      4.860
REMARK  17 active torsions:
REMARK  status: ('A' for Active; 'I' for Inactive)
REMARK    1  A    between atoms: S1_2  and  C2_3 
REMARK    2  A    between atoms: C3_4  and  C4_5 
REMARK    3  A    between atoms: C4_5  and  C5_6 
REMARK    4  A    between atoms: C5_6  and  C6_7 
REMARK    5  A    between atoms: C6_7  and  O1_8 
REMARK    6  A    between atoms: C6_7  and  C7_10 
REMARK    7  A    between atoms: C7_10  and  O2_11 
REMARK    8  A    between atoms: C7_10  and  C8_13 
REMARK    9  A    between atoms: C8_13  and  C9_15 
REMARK   10  A    between atoms: C9_15  and  O4_16 
REMARK   11  A    between atoms: C9_15  and  C10_18 
REMARK   12  A    between atoms: C10_18  and  O5_19 
REMARK   13  A    between atoms: C11_22  and  C12_23 
REMARK   14  A    between atoms: C12_23  and  N1_24 
REMARK   15  A    between atoms: N1_24  and  C13_26 
REMARK   16  A    between atoms: C16_33  and  C17_34 
REMARK       I    between atoms: C17_34  and  N4_36 
REMARK   17  A    between atoms: N4_36  and  C18_38 
ROOT
HETATM    1  C2  UNL     1      14.518  21.805  49.091  1.00  0.00     0.048 A 
HETATM    2  C3  UNL     1      14.113  21.989  50.401  1.00  0.00     0.071 A 
HETATM    3  O6  UNL     1      14.591  23.135  50.823  1.00  0.00    -0.315 OA
HETATM    4  C11 UNL     1      15.286  23.737  49.903  1.00  0.00     0.088 A 
HETATM    5  C16 UNL     1      15.263  22.917  48.779  1.00  0.00     0.083 A 
ENDROOT
BRANCH   2   6
HETATM    6  C4  UNL     1      13.269  21.061  51.238  1.00  0.00     0.069 C 
BRANCH   6   7
HETATM    7  C5  UNL     1      13.369  21.451  52.691  1.00  0.00     0.041 C 
BRANCH   7   8
HETATM    8  C6  UNL     1      14.748  21.614  53.209  1.00  0.00     0.154 C 
BRANCH   8   9
HETATM    9  O1  UNL     1      15.658  20.885  52.487  1.00  0.00    -0.393 OA
ATOM     10  H1  UNL     1      15.719  21.182  51.586  1.00  0.00     0.210 HD
ENDBRANCH   8   9
BRANCH   8  11
HETATM   11  C7  UNL     1      14.896  21.429  54.713  1.00  0.00     0.219 C 
BRANCH  11  12
HETATM   12  O2  UNL     1      14.124  20.422  55.201  1.00  0.00    -0.385 OA
ATOM     13  H2  UNL     1      14.528  19.967  55.929  1.00  0.00     0.210 HD
ENDBRANCH  11  12
BRANCH  11  14
HETATM   14  C8  UNL     1      16.328  21.390  54.990  1.00  0.00     0.188 C 
HETATM   15  O3  UNL     1      16.939  22.407  54.585  1.00  0.00    -0.292 OA
BRANCH  14  16
HETATM   16  C9  UNL     1      17.148  20.384  55.646  1.00  0.00     0.213 C 
BRANCH  16  17
HETATM   17  O4  UNL     1      16.446  19.160  55.793  1.00  0.00    -0.386 OA
ATOM     18  H4  UNL     1      16.238  18.776  54.950  1.00  0.00     0.210 HD
ENDBRANCH  16  17
BRANCH  16  19
HETATM   19  C10 UNL     1      18.435  20.006  54.965  1.00  0.00     0.203 C 
BRANCH  19  20
HETATM   20  O5  UNL     1      18.373  19.819  53.616  1.00  0.00    -0.398 OA
ATOM     21  H5  UNL     1      19.200  19.841  53.150  1.00  0.00     0.209 HD
ENDBRANCH  19  20
ENDBRANCH  16  19
ENDBRANCH  14  16
ENDBRANCH  11  14
ENDBRANCH   8  11
ENDBRANCH   7   8
ENDBRANCH   6   7
ENDBRANCH   2   6
BRANCH   1  22
HETATM   22  S1  UNL     1      14.093  20.391  48.141  1.00  0.00    -0.131 SA
HETATM   23  C1  UNL     1      15.270  19.052  48.200  1.00  0.00     0.095 C 
ENDBRANCH   1  22
BRANCH   5  24
HETATM   24  C17 UNL     1      15.919  23.211  47.516  1.00  0.00     0.273 C 
HETATM   25  O7  UNL     1      17.159  23.090  47.379  1.00  0.00    -0.267 OA
HETATM   26  N4  UNL     1      15.141  23.639  46.426  1.00  0.00    -0.153 N 
ATOM     27  H4  UNL     1      14.131  23.577  46.549  1.00  0.00     0.187 HD
BRANCH  26  28
HETATM   28  C18 UNL     1      15.534  24.090  45.313  1.00  0.00     0.710 A 
HETATM   29  N5  UNL     1      14.664  24.616  44.407  1.00  0.00    -0.117 N 
HETATM   30  N6  UNL     1      15.332  25.011  43.339  1.00  0.00     0.006 NA
ATOM     31  H5  UNL     1      13.655  24.694  44.534  1.00  0.00     0.202 HD
HETATM   32  N7  UNL     1      16.609  24.745  43.548  1.00  0.00     0.006 NA
HETATM   33  N8  UNL     1      16.740  24.184  44.748  1.00  0.00    -0.117 N 
ATOM     34  H8  UNL     1      17.618  23.877  45.168  1.00  0.00     0.202 HD
ENDBRANCH  26  28
ENDBRANCH   5  24
BRANCH   4  35
HETATM   35  C12 UNL     1      15.970  25.040  50.025  1.00  0.00     0.189 C 
BRANCH  35  36
HETATM   36  N1  UNL     1      17.108  24.936  50.903  1.00  0.00    -0.356 N 
ATOM     37  H1  UNL     1      17.231  25.627  51.643  1.00  0.00     0.162 HD
BRANCH  36  38
HETATM   38  C13 UNL     1      18.059  23.898  50.764  1.00  0.00     0.171 C 
HETATM   39  N2  UNL     1      18.097  22.902  51.608  1.00  0.00    -0.361 N 
HETATM   40  C14 UNL     1      19.137  21.972  51.273  1.00  0.00     0.142 C 
ATOM     41  H2  UNL     1      17.466  22.797  52.404  1.00  0.00     0.162 HD
HETATM   42  C15 UNL     1      19.587  22.394  49.905  1.00  0.00     0.142 C 
HETATM   43  N3  UNL     1      19.064  23.738  49.784  1.00  0.00    -0.361 N 
ATOM     44  H3  UNL     1      19.367  24.442  49.112  1.00  0.00     0.162 HD
ENDBRANCH  36  38
ENDBRANCH  35  36
ENDBRANCH   4  35
TORSDOF 17
ENDMDL
MODEL 5
REMARK VINA RESULT: -7.910877954      0.933      1.364
REMARK  17 active torsions:
REMARK  status: ('A' for Active; 'I' for Inactive)
REMARK    1  A    between atoms: S1_2  and  C2_3 
REMARK    2  A    between atoms: C3_4  and  C4_5 
REMARK    3  A    between atoms: C4_5  and  C5_6 
REMARK    4  A    between atoms: C5_6  and  C6_7 
REMARK    5  A    between atoms: C6_7  and  O1_8 
REMARK    6  A    between atoms: C6_7  and  C7_10 
REMARK    7  A    between atoms: C7_10  and  O2_11 
REMARK    8  A    between atoms: C7_10  and  C8_13 
REMARK    9  A    between atoms: C8_13  and  C9_15 
REMARK   10  A    between atoms: C9_15  and  O4_16 
REMARK   11  A    between atoms: C9_15  and  C10_18 
REMARK   12  A    between atoms: C10_18  and  O5_19 
REMARK   13  A    between atoms: C11_22  and  C12_23 
REMARK   14  A    between atoms: C12_23  and  N1_24 
REMARK   15  A    between atoms: N1_24  and  C13_26 
REMARK   16  A    between atoms: C16_33  and  C17_34 
REMARK       I    between atoms: C17_34  and  N4_36 
REMARK   17  A    between atoms: N4_36  and  C18_38 
ROOT
HETATM    1  C2  UNL     1      14.671  22.958  49.848  1.00  0.00     0.048 A 
HETATM    2  C3  UNL     1      14.694  21.947  50.792  1.00  0.00     0.071 A 
HETATM    3  O6  UNL     1      14.876  20.807  50.170  1.00  0.00    -0.315 OA
HETATM    4  C11 UNL     1      14.975  20.968  48.883  1.00  0.00     0.088 A 
HETATM    5  C16 UNL     1      14.848  22.333  48.637  1.00  0.00     0.083 A 
ENDROOT
BRANCH   2   6
HETATM    6  C4  UNL     1      14.542  22.084  52.286  1.00  0.00     0.069 C 
BRANCH   6   7
HETATM    7  C5  UNL     1      15.717  21.441  52.980  1.00  0.00     0.041 C 
BRANCH   7   8
HETATM    8  C6  UNL     1      16.959  21.358  52.175  1.00  0.00     0.154 C 
BRANCH   8   9
HETATM    9  O1  UNL     1      17.442  20.077  52.105  1.00  0.00    -0.393 OA
ATOM     10  H1  UNL     1      18.313  20.045  51.725  1.00  0.00     0.210 HD
ENDBRANCH   8   9
BRANCH   8  11
HETATM   11  C7  UNL     1      18.028  22.379  52.538  1.00  0.00     0.219 C 
BRANCH  11  12
HETATM   12  O2  UNL     1      19.050  21.843  53.255  1.00  0.00    -0.385 OA
ATOM     13  H2  UNL     1      19.330  22.399  53.972  1.00  0.00     0.210 HD
ENDBRANCH  11  12
BRANCH  11  14
HETATM   14  C8  UNL     1      18.355  23.096  51.309  1.00  0.00     0.188 C 
HETATM   15  O3  UNL     1      17.932  24.276  51.297  1.00  0.00    -0.292 OA
BRANCH  14  16
HETATM   16  C9  UNL     1      19.076  22.674  50.119  1.00  0.00     0.213 C 
BRANCH  16  17
HETATM   17  O4  UNL     1      19.967  23.683  49.669  1.00  0.00    -0.386 OA
ATOM     18  H4  UNL     1      20.562  23.953  50.358  1.00  0.00     0.210 HD
ENDBRANCH  16  17
BRANCH  16  19
HETATM   19  C10 UNL     1      19.928  21.441  50.242  1.00  0.00     0.203 C 
BRANCH  19  20
HETATM   20  O5  UNL     1      19.351  20.267  49.860  1.00  0.00    -0.398 OA
ATOM     21  H5  UNL     1      19.805  19.472  50.113  1.00  0.00     0.209 HD
ENDBRANCH  19  20
ENDBRANCH  16  19
ENDBRANCH  14  16
ENDBRANCH  11  14
ENDBRANCH   8  11
ENDBRANCH   7   8
ENDBRANCH   6   7
ENDBRANCH   2   6
BRANCH   1  22
HETATM   22  S1  UNL     1      14.449  24.652  50.256  1.00  0.00    -0.131 SA
HETATM   23  C1  UNL     1      12.851  25.071  50.928  1.00  0.00     0.095 C 
ENDBRANCH   1  22
BRANCH   5  24
HETATM   24  C17 UNL     1      14.899  22.954  47.324  1.00  0.00     0.273 C 
HETATM   25  O7  UNL     1      13.855  23.278  46.713  1.00  0.00    -0.267 OA
HETATM   26  N4  UNL     1      16.151  23.197  46.731  1.00  0.00    -0.153 N 
ATOM     27  H4  UNL     1      16.963  23.051  47.332  1.00  0.00     0.187 HD
BRANCH  26  28
HETATM   28  C18 UNL     1      16.398  23.572  45.551  1.00  0.00     0.710 A 
HETATM   29  N5  UNL     1      17.674  23.695  45.093  1.00  0.00    -0.117 N 
HETATM   30  N6  UNL     1      17.650  24.101  43.836  1.00  0.00     0.006 NA
ATOM     31  H5  UNL     1      18.517  23.504  45.634  1.00  0.00     0.202 HD
HETATM   32  N7  UNL     1      16.383  24.238  43.488  1.00  0.00     0.006 NA
HETATM   33  N8  UNL     1      15.615  23.918  44.527  1.00  0.00    -0.117 N 
ATOM     34  H8  UNL     1      14.595  23.933  44.539  1.00  0.00     0.202 HD
ENDBRANCH  26  28
ENDBRANCH   5  24
BRANCH   4  35
HETATM   35  C12 UNL     1      15.181  19.911  47.874  1.00  0.00     0.189 C 
BRANCH  35  36
HETATM   36  N1  UNL     1      15.246  18.616  48.502  1.00  0.00    -0.356 N 
ATOM     37  H1  UNL     1      15.967  18.438  49.202  1.00  0.00     0.162 HD
BRANCH  36  38
HETATM   38  C13 UNL     1      14.336  17.585  48.173  1.00  0.00     0.171 C 
HETATM   39  N2  UNL     1      14.327  16.458  48.834  1.00  0.00    -0.361 N 
HETATM   40  C14 UNL     1      13.324  15.565  48.329  1.00  0.00     0.142 C 
ATOM     41  H2  UNL     1      14.953  16.241  49.610  1.00  0.00     0.162 HD
HETATM   42  C15 UNL     1      12.498  16.414  47.408  1.00  0.00     0.142 C 
HETATM   43  N3  UNL     1      13.345  17.561  47.165  1.00  0.00    -0.361 N 
ATOM     44  H3  UNL     1      13.245  18.231  46.404  1.00  0.00     0.162 HD
ENDBRANCH  36  38
ENDBRANCH  35  36
ENDBRANCH   4  35
TORSDOF 17
ENDMDL
