MODEL 1
REMARK VINA RESULT: -7.050101256      0.000      0.000
REMARK  14 active torsions:
REMARK  status: ('A' for Active; 'I' for Inactive)
REMARK    1  A    between atoms: C2_2  and  C5_5 
REMARK    2  A    between atoms: C6_10  and  N3_11 
REMARK    3  A    between atoms: N3_11  and  C7_14 
REMARK    4  A    between atoms: C7_14  and  O1_15 
REMARK    5  A    between atoms: C7_14  and  C8_17 
REMARK    6  A    between atoms: C8_17  and  N4_18 
REMARK    7  A    between atoms: C8_17  and  C13_34 
REMARK       I    between atoms: N4_18  and  C9_20 
REMARK    8  A    between atoms: C9_20  and  C10_22 
REMARK    9  A    between atoms: C10_22  and  O3_23 
REMARK   10  A    between atoms: C10_22  and  C11_25 
REMARK   11  A    between atoms: C11_25  and  O4_26 
REMARK   12  A    between atoms: C11_25  and  C12_28 
REMARK   13  A    between atoms: C12_28  and  O5_29 
REMARK   14  A    between atoms: O5_29  and  S1_30 
ROOT
HETATM    1  C8  UNL     1      16.536  23.571  49.074  1.00  0.00     0.242 C 
ENDROOT
BRANCH   1   2
HETATM    2  C7  UNL     1      15.804  24.160  50.275  1.00  0.00     0.355 C 
BRANCH   2   3
HETATM    3  N3  UNL     1      14.493  23.593  50.289  1.00  0.00    -0.014 N 
ATOM      4  H32 UNL     1      14.303  23.119  49.406  1.00  0.00     0.283 HD
ATOM      5  H31 UNL     1      13.789  24.330  50.249  1.00  0.00     0.283 HD
BRANCH   3   6
HETATM    6  C6  UNL     1      14.229  22.712  51.394  1.00  0.00     0.376 C 
HETATM    7  N2  UNL     1      14.633  21.403  51.040  1.00  0.00    -0.296 N 
HETATM    8  N1  UNL     1      13.973  20.594  50.140  1.00  0.00    -0.299 N 
ATOM      9  H2  UNL     1      15.473  21.031  51.482  1.00  0.00     0.183 HD
HETATM   10  C5  UNL     1      12.727  20.283  50.251  1.00  0.00     0.080 C 
ATOM     11  H1  UNL     1      14.497  20.224  49.348  1.00  0.00     0.187 HD
HETATM   12  S3  UNL     1      11.823  20.916  51.613  1.00  0.00    -0.038 SA
HETATM   13  S2  UNL     1      12.467  22.938  51.762  1.00  0.00    -0.036 SA
BRANCH  10  14
HETATM   14  C2  UNL     1      12.079  19.437  49.288  1.00  0.00    -0.000 C 
HETATM   15  C1  UNL     1      12.589  19.748  47.898  1.00  0.00     0.021 C 
HETATM   16  C3  UNL     1      12.293  17.952  49.524  1.00  0.00     0.021 C 
HETATM   17  C4  UNL     1      10.569  19.653  49.351  1.00  0.00     0.021 C 
ENDBRANCH  10  14
ENDBRANCH   3   6
ENDBRANCH   2   3
BRANCH   2  18
HETATM   18  O1  UNL     1      15.647  25.530  49.989  1.00  0.00    -0.368 OA
ATOM     19  H1  UNL     1      16.517  25.910  49.995  1.00  0.00     0.212 HD
ENDBRANCH   2  18
ENDBRANCH   1   2
BRANCH   1  20
HETATM   20  N4  UNL     1      17.336  22.474  49.579  1.00  0.00    -0.341 N 
HETATM   21  C9  UNL     1      18.696  22.652  49.934  1.00  0.00     0.249 C 
HETATM   22  O2  UNL     1      19.238  23.771  49.815  1.00  0.00    -0.271 OA
ATOM     23  H4  UNL     1      16.911  21.552  49.680  1.00  0.00     0.163 HD
BRANCH  21  24
HETATM   24  C10 UNL     1      19.478  21.510  50.445  1.00  0.00     0.240 C 
BRANCH  24  25
HETATM   25  O3  UNL     1      19.030  20.348  49.868  1.00  0.00    -0.383 OA
ATOM     26  H3  UNL     1      19.770  19.842  49.554  1.00  0.00     0.210 HD
ENDBRANCH  24  25
BRANCH  24  27
HETATM   27  C11 UNL     1      19.301  21.504  51.959  1.00  0.00     0.181 C 
BRANCH  27  28
HETATM   28  O4  UNL     1      18.708  22.689  52.380  1.00  0.00    -0.390 OA
ATOM     29  H4  UNL     1      18.234  22.551  53.192  1.00  0.00     0.210 HD
ENDBRANCH  27  28
BRANCH  27  30
HETATM   30  C12 UNL     1      18.436  20.314  52.359  1.00  0.00     0.227 C 
BRANCH  30  31
HETATM   31  O5  UNL     1      17.110  20.732  52.448  1.00  0.00    -0.254 OA
BRANCH  31  32
HETATM   32  S1  UNL     1      16.571  20.822  54.014  1.00  0.00     0.251 S 
HETATM   33  O6  UNL     1      15.061  20.679  53.982  1.00  0.00    -0.572 OA
HETATM   34  O7  UNL     1      17.089  19.696  54.858  1.00  0.00    -0.572 OA
HETATM   35  O8  UNL     1      16.915  22.277  54.743  1.00  0.00    -0.572 OA
ENDBRANCH  31  32
ENDBRANCH  30  31
ENDBRANCH  27  30
ENDBRANCH  24  27
ENDBRANCH  21  24
ENDBRANCH   1  20
BRANCH   1  36
HETATM   36  C13 UNL     1      15.653  23.169  47.981  1.00  0.00     0.201 C 
HETATM   37  O9  UNL     1      15.351  21.970  47.771  1.00  0.00    -0.646 OA
HETATM   38  O10 UNL     1      15.120  24.131  47.136  1.00  0.00    -0.646 OA
ENDBRANCH   1  36
TORSDOF 14
ENDMDL
MODEL 2
REMARK VINA RESULT: -6.785961004      3.543      5.615
REMARK  14 active torsions:
REMARK  status: ('A' for Active; 'I' for Inactive)
REMARK    1  A    between atoms: C2_2  and  C5_5 
REMARK    2  A    between atoms: C6_10  and  N3_11 
REMARK    3  A    between atoms: N3_11  and  C7_14 
REMARK    4  A    between atoms: C7_14  and  O1_15 
REMARK    5  A    between atoms: C7_14  and  C8_17 
REMARK    6  A    between atoms: C8_17  and  N4_18 
REMARK    7  A    between atoms: C8_17  and  C13_34 
REMARK       I    between atoms: N4_18  and  C9_20 
REMARK    8  A    between atoms: C9_20  and  C10_22 
REMARK    9  A    between atoms: C10_22  and  O3_23 
REMARK   10  A    between atoms: C10_22  and  C11_25 
REMARK   11  A    between atoms: C11_25  and  O4_26 
REMARK   12  A    between atoms: C11_25  and  C12_28 
REMARK   13  A    between atoms: C12_28  and  O5_29 
REMARK   14  A    between atoms: O5_29  and  S1_30 
ROOT
HETATM    1  C8  UNL     1      15.569  21.202  53.171  1.00  0.00     0.242 C 
ENDROOT
BRANCH   1   2
HETATM    2  C7  UNL     1      14.279  21.820  52.641  1.00  0.00     0.355 C 
BRANCH   2   3
HETATM    3  N3  UNL     1      13.390  21.957  53.751  1.00  0.00    -0.014 N 
ATOM      4  H32 UNL     1      13.218  22.943  53.947  1.00  0.00     0.283 HD
ATOM      5  H31 UNL     1      13.859  21.685  54.615  1.00  0.00     0.283 HD
BRANCH   3   6
HETATM    6  C6  UNL     1      12.145  21.252  53.618  1.00  0.00     0.376 C 
HETATM    7  N2  UNL     1      11.247  22.050  52.867  1.00  0.00    -0.296 N 
HETATM    8  N1  UNL     1      10.636  23.193  53.334  1.00  0.00    -0.299 N 
ATOM      9  H2  UNL     1      11.038  21.757  51.913  1.00  0.00     0.183 HD
HETATM   10  C5  UNL     1       9.920  23.226  54.405  1.00  0.00     0.080 C 
ATOM     11  H1  UNL     1      10.756  24.056  52.805  1.00  0.00     0.187 HD
HETATM   12  S3  UNL     1       9.708  21.743  55.317  1.00  0.00    -0.038 SA
HETATM   13  S2  UNL     1      11.644  20.860  55.316  1.00  0.00    -0.036 SA
BRANCH  10  14
HETATM   14  C2  UNL     1       9.301  24.441  54.855  1.00  0.00    -0.000 C 
HETATM   15  C1  UNL     1       7.800  24.265  54.920  1.00  0.00     0.021 C 
HETATM   16  C3  UNL     1       9.761  24.900  56.228  1.00  0.00     0.021 C 
HETATM   17  C4  UNL     1       9.653  25.579  53.899  1.00  0.00     0.021 C 
ENDBRANCH  10  14
ENDBRANCH   3   6
ENDBRANCH   2   3
BRANCH   2  18
HETATM   18  O1  UNL     1      13.713  20.848  51.792  1.00  0.00    -0.368 OA
ATOM     19  H1  UNL     1      14.412  20.544  51.225  1.00  0.00     0.212 HD
ENDBRANCH   2  18
ENDBRANCH   1   2
BRANCH   1  20
HETATM   20  N4  UNL     1      16.657  21.905  52.522  1.00  0.00    -0.341 N 
HETATM   21  C9  UNL     1      17.866  21.248  52.186  1.00  0.00     0.249 C 
HETATM   22  O2  UNL     1      18.019  20.036  52.446  1.00  0.00    -0.271 OA
ATOM     23  H4  UNL     1      16.550  22.896  52.303  1.00  0.00     0.163 HD
BRANCH  21  24
HETATM   24  C10 UNL     1      18.950  21.998  51.525  1.00  0.00     0.240 C 
BRANCH  24  25
HETATM   25  O3  UNL     1      18.854  23.328  51.846  1.00  0.00    -0.383 OA
ATOM     26  H3  UNL     1      18.914  23.853  51.057  1.00  0.00     0.210 HD
ENDBRANCH  24  25
BRANCH  24  27
HETATM   27  C11 UNL     1      18.797  21.757  50.028  1.00  0.00     0.181 C 
BRANCH  27  28
HETATM   28  O4  UNL     1      17.801  20.816  49.789  1.00  0.00    -0.390 OA
ATOM     29  H4  UNL     1      17.435  20.937  48.921  1.00  0.00     0.210 HD
ENDBRANCH  27  28
BRANCH  27  30
HETATM   30  C12 UNL     1      18.451  23.072  49.339  1.00  0.00     0.227 C 
BRANCH  30  31
HETATM   31  O5  UNL     1      17.332  22.878  48.534  1.00  0.00    -0.254 OA
BRANCH  31  32
HETATM   32  S1  UNL     1      15.935  23.435  49.235  1.00  0.00     0.251 S 
HETATM   33  O6  UNL     1      15.087  22.225  49.578  1.00  0.00    -0.572 OA
HETATM   34  O7  UNL     1      16.196  24.154  50.525  1.00  0.00    -0.572 OA
HETATM   35  O8  UNL     1      15.034  24.401  48.224  1.00  0.00    -0.572 OA
ENDBRANCH  31  32
ENDBRANCH  30  31
ENDBRANCH  27  30
ENDBRANCH  24  27
ENDBRANCH  21  24
ENDBRANCH   1  20
BRANCH   1  36
HETATM   36  C13 UNL     1      15.677  21.216  54.628  1.00  0.00     0.201 C 
HETATM   37  O9  UNL     1      15.210  20.297  55.343  1.00  0.00    -0.646 OA
HETATM   38  O10 UNL     1      16.313  22.272  55.263  1.00  0.00    -0.646 OA
ENDBRANCH   1  36
TORSDOF 14
ENDMDL
MODEL 3
REMARK VINA RESULT: -6.753622077      2.666      5.307
REMARK  14 active torsions:
REMARK  status: ('A' for Active; 'I' for Inactive)
REMARK    1  A    between atoms: C2_2  and  C5_5 
REMARK    2  A    between atoms: C6_10  and  N3_11 
REMARK    3  A    between atoms: N3_11  and  C7_14 
REMARK    4  A    between atoms: C7_14  and  O1_15 
REMARK    5  A    between atoms: C7_14  and  C8_17 
REMARK    6  A    between atoms: C8_17  and  N4_18 
REMARK    7  A    between atoms: C8_17  and  C13_34 
REMARK       I    between atoms: N4_18  and  C9_20 
REMARK    8  A    between atoms: C9_20  and  C10_22 
REMARK    9  A    between atoms: C10_22  and  O3_23 
REMARK   10  A    between atoms: C10_22  and  C11_25 
REMARK   11  A    between atoms: C11_25  and  O4_26 
REMARK   12  A    between atoms: C11_25  and  C12_28 
REMARK   13  A    between atoms: C12_28  and  O5_29 
REMARK   14  A    between atoms: O5_29  and  S1_30 
ROOT
HETATM    1  C8  UNL     1      17.072  20.710  53.942  1.00  0.00     0.242 C 
ENDROOT
BRANCH   1   2
HETATM    2  C7  UNL     1      15.762  21.351  54.391  1.00  0.00     0.355 C 
BRANCH   2   3
HETATM    3  N3  UNL     1      15.143  21.903  53.228  1.00  0.00    -0.014 N 
ATOM      4  H32 UNL     1      15.806  21.929  52.453  1.00  0.00     0.283 HD
ATOM      5  H31 UNL     1      14.979  22.901  53.355  1.00  0.00     0.283 HD
BRANCH   3   6
HETATM    6  C6  UNL     1      13.930  21.247  52.823  1.00  0.00     0.376 C 
HETATM    7  N2  UNL     1      13.451  21.863  51.641  1.00  0.00    -0.296 N 
HETATM    8  N1  UNL     1      12.881  23.116  51.585  1.00  0.00    -0.299 N 
ATOM      9  H2  UNL     1      13.535  21.342  50.768  1.00  0.00     0.183 HD
HETATM   10  C5  UNL     1      11.860  23.460  52.293  1.00  0.00     0.080 C 
ATOM     11  H1  UNL     1      13.287  23.805  50.953  1.00  0.00     0.187 HD
HETATM   12  S3  UNL     1      11.157  22.279  53.381  1.00  0.00    -0.038 SA
HETATM   13  S2  UNL     1      12.843  21.335  54.272  1.00  0.00    -0.036 SA
BRANCH  10  14
HETATM   14  C2  UNL     1      11.298  24.779  52.203  1.00  0.00    -0.000 C 
HETATM   15  C1  UNL     1      10.001  24.738  51.424  1.00  0.00     0.021 C 
HETATM   16  C3  UNL     1      10.997  25.418  53.547  1.00  0.00     0.021 C 
HETATM   17  C4  UNL     1      12.291  25.713  51.515  1.00  0.00     0.021 C 
ENDBRANCH  10  14
ENDBRANCH   3   6
ENDBRANCH   2   3
BRANCH   2  18
HETATM   18  O1  UNL     1      16.132  22.440  55.204  1.00  0.00    -0.368 OA
ATOM     19  H1  UNL     1      15.387  23.028  55.225  1.00  0.00     0.212 HD
ENDBRANCH   2  18
ENDBRANCH   1   2
BRANCH   1  20
HETATM   20  N4  UNL     1      17.739  21.683  53.103  1.00  0.00    -0.341 N 
HETATM   21  C9  UNL     1      18.614  21.287  52.062  1.00  0.00     0.249 C 
HETATM   22  O2  UNL     1      18.830  20.075  51.846  1.00  0.00    -0.271 OA
ATOM     23  H4  UNL     1      17.576  22.677  53.266  1.00  0.00     0.163 HD
BRANCH  21  24
HETATM   24  C10 UNL     1      19.274  22.309  51.228  1.00  0.00     0.240 C 
BRANCH  24  25
HETATM   25  O3  UNL     1      19.088  23.549  51.784  1.00  0.00    -0.383 OA
ATOM     26  H3  UNL     1      19.884  24.061  51.698  1.00  0.00     0.210 HD
ENDBRANCH  24  25
BRANCH  24  27
HETATM   27  C11 UNL     1      18.656  22.203  49.839  1.00  0.00     0.181 C 
BRANCH  27  28
HETATM   28  O4  UNL     1      17.540  21.374  49.868  1.00  0.00    -0.390 OA
ATOM     29  H4  UNL     1      17.114  21.364  49.019  1.00  0.00     0.210 HD
ENDBRANCH  27  28
BRANCH  27  30
HETATM   30  C12 UNL     1      18.263  23.594  49.356  1.00  0.00     0.227 C 
BRANCH  30  31
HETATM   31  O5  UNL     1      16.973  23.542  48.836  1.00  0.00    -0.254 OA
BRANCH  31  32
HETATM   32  S1  UNL     1      15.851  24.248  49.833  1.00  0.00     0.251 S 
HETATM   33  O6  UNL     1      15.979  23.592  51.195  1.00  0.00    -0.572 OA
HETATM   34  O7  UNL     1      16.116  25.711  50.037  1.00  0.00    -0.572 OA
HETATM   35  O8  UNL     1      14.285  24.025  49.321  1.00  0.00    -0.572 OA
ENDBRANCH  31  32
ENDBRANCH  30  31
ENDBRANCH  27  30
ENDBRANCH  24  27
ENDBRANCH  21  24
ENDBRANCH   1  20
BRANCH   1  36
HETATM   36  C13 UNL     1      17.911  20.244  55.045  1.00  0.00     0.201 C 
HETATM   37  O9  UNL     1      19.162  20.214  54.966  1.00  0.00    -0.646 OA
HETATM   38  O10 UNL     1      17.324  19.818  56.226  1.00  0.00    -0.646 OA
ENDBRANCH   1  36
TORSDOF 14
ENDMDL
MODEL 4
REMARK VINA RESULT: -6.727031348      2.963      6.336
REMARK  14 active torsions:
REMARK  status: ('A' for Active; 'I' for Inactive)
REMARK    1  A    between atoms: C2_2  and  C5_5 
REMARK    2  A    between atoms: C6_10  and  N3_11 
REMARK    3  A    between atoms: N3_11  and  C7_14 
REMARK    4  A    between atoms: C7_14  and  O1_15 
REMARK    5  A    between atoms: C7_14  and  C8_17 
REMARK    6  A    between atoms: C8_17  and  N4_18 
REMARK    7  A    between atoms: C8_17  and  C13_34 
REMARK       I    between atoms: N4_18  and  C9_20 
REMARK    8  A    between atoms: C9_20  and  C10_22 
REMARK    9  A    between atoms: C10_22  and  O3_23 
REMARK   10  A    between atoms: C10_22  and  C11_25 
REMARK   11  A    between atoms: C11_25  and  O4_26 
REMARK   12  A    between atoms: C11_25  and  C12_28 
REMARK   13  A    between atoms: C12_28  and  O5_29 
REMARK   14  A    between atoms: O5_29  and  S1_30 
ROOT
HETATM    1  C8  UNL     1      17.866  21.596  50.527  1.00  0.00     0.242 C 
ENDROOT
BRANCH   1   2
HETATM    2  C7  UNL     1      17.557  21.802  52.007  1.00  0.00     0.355 C 
BRANCH   2   3
HETATM    3  N3  UNL     1      16.253  22.379  52.089  1.00  0.00    -0.014 N 
ATOM      4  H32 UNL     1      16.074  22.965  51.273  1.00  0.00     0.283 HD
ATOM      5  H31 UNL     1      16.225  23.086  52.824  1.00  0.00     0.283 HD
BRANCH   3   6
HETATM    6  C6  UNL     1      15.185  21.434  52.265  1.00  0.00     0.376 C 
HETATM    7  N2  UNL     1      14.188  21.683  51.291  1.00  0.00    -0.296 N 
HETATM    8  N1  UNL     1      13.334  22.764  51.303  1.00  0.00    -0.299 N 
ATOM      9  H2  UNL     1      14.096  21.016  50.526  1.00  0.00     0.183 HD
HETATM   10  C5  UNL     1      12.567  23.049  52.299  1.00  0.00     0.080 C 
ATOM     11  H1  UNL     1      13.307  23.369  50.482  1.00  0.00     0.187 HD
HETATM   12  S3  UNL     1      12.608  22.012  53.712  1.00  0.00    -0.038 SA
HETATM   13  S2  UNL     1      14.679  21.617  53.998  1.00  0.00    -0.036 SA
BRANCH  10  14
HETATM   14  C2  UNL     1      11.692  24.188  52.268  1.00  0.00    -0.000 C 
HETATM   15  C1  UNL     1      12.302  25.287  51.426  1.00  0.00     0.021 C 
HETATM   16  C3  UNL     1      10.314  23.896  51.698  1.00  0.00     0.021 C 
HETATM   17  C4  UNL     1      11.454  24.689  53.690  1.00  0.00     0.021 C 
ENDBRANCH  10  14
ENDBRANCH   3   6
ENDBRANCH   2   3
BRANCH   2  18
HETATM   18  O1  UNL     1      18.461  22.787  52.450  1.00  0.00    -0.368 OA
ATOM     19  H1  UNL     1      18.719  22.541  53.331  1.00  0.00     0.212 HD
ENDBRANCH   2  18
ENDBRANCH   1   2
BRANCH   1  20
HETATM   20  N4  UNL     1      17.194  22.664  49.815  1.00  0.00    -0.341 N 
HETATM   21  C9  UNL     1      16.232  22.393  48.812  1.00  0.00     0.249 C 
HETATM   22  O2  UNL     1      15.943  21.214  48.516  1.00  0.00    -0.271 OA
ATOM     23  H4  UNL     1      17.419  23.633  50.042  1.00  0.00     0.163 HD
BRANCH  21  24
HETATM   24  C10 UNL     1      15.569  23.508  48.110  1.00  0.00     0.240 C 
BRANCH  24  25
HETATM   25  O3  UNL     1      14.299  23.673  48.602  1.00  0.00    -0.383 OA
ATOM     26  H3  UNL     1      14.285  24.402  49.212  1.00  0.00     0.210 HD
ENDBRANCH  24  25
BRANCH  24  27
HETATM   27  C11 UNL     1      15.568  23.151  46.628  1.00  0.00     0.181 C 
BRANCH  27  28
HETATM   28  O4  UNL     1      14.554  23.836  45.967  1.00  0.00    -0.390 OA
ATOM     29  H4  UNL     1      14.125  23.266  45.340  1.00  0.00     0.210 HD
ENDBRANCH  27  28
BRANCH  27  30
HETATM   30  C12 UNL     1      16.921  23.506  46.024  1.00  0.00     0.227 C 
BRANCH  30  31
HETATM   31  O5  UNL     1      17.044  22.872  44.791  1.00  0.00    -0.254 OA
BRANCH  31  32
HETATM   32  S1  UNL     1      16.857  23.914  43.514  1.00  0.00     0.251 S 
HETATM   33  O6  UNL     1      17.421  25.257  43.939  1.00  0.00    -0.572 OA
HETATM   34  O7  UNL     1      17.642  23.483  42.310  1.00  0.00    -0.572 OA
HETATM   35  O8  UNL     1      15.266  24.156  43.092  1.00  0.00    -0.572 OA
ENDBRANCH  31  32
ENDBRANCH  30  31
ENDBRANCH  27  30
ENDBRANCH  24  27
ENDBRANCH  21  24
ENDBRANCH   1  20
BRANCH   1  36
HETATM   36  C13 UNL     1      19.294  21.528  50.225  1.00  0.00     0.201 C 
HETATM   37  O9  UNL     1      19.946  20.460  50.312  1.00  0.00    -0.646 OA
HETATM   38  O10 UNL     1      19.971  22.671  49.828  1.00  0.00    -0.646 OA
ENDBRANCH   1  36
TORSDOF 14
ENDMDL
MODEL 5
REMARK VINA RESULT: -6.686291244      2.900      3.582
REMARK  14 active torsions:
REMARK  status: ('A' for Active; 'I' for Inactive)
REMARK    1  A    between atoms: C2_2  and  C5_5 
REMARK    2  A    between atoms: C6_10  and  N3_11 
REMARK    3  A    between atoms: N3_11  and  C7_14 
REMARK    4  A    between atoms: C7_14  and  O1_15 
REMARK    5  A    between atoms: C7_14  and  C8_17 
REMARK    6  A    between atoms: C8_17  and  N4_18 
REMARK    7  A    between atoms: C8_17  and  C13_34 
REMARK       I    between atoms: N4_18  and  C9_20 
REMARK    8  A    between atoms: C9_20  and  C10_22 
REMARK    9  A    between atoms: C10_22  and  O3_23 
REMARK   10  A    between atoms: C10_22  and  C11_25 
REMARK   11  A    between atoms: C11_25  and  O4_26 
REMARK   12  A    between atoms: C11_25  and  C12_28 
REMARK   13  A    between atoms: C12_28  and  O5_29 
REMARK   14  A    between atoms: O5_29  and  S1_30 
ROOT
HETATM    1  C8  UNL     1      14.330  21.939  50.180  1.00  0.00     0.242 C 
ENDROOT
BRANCH   1   2
HETATM    2  C7  UNL     1      13.940  23.193  50.956  1.00  0.00     0.355 C 
BRANCH   2   3
HETATM    3  N3  UNL     1      12.734  22.894  51.661  1.00  0.00    -0.014 N 
ATOM      4  H32 UNL     1      12.541  21.893  51.624  1.00  0.00     0.283 HD
ATOM      5  H31 UNL     1      11.927  23.248  51.147  1.00  0.00     0.283 HD
BRANCH   3   6
HETATM    6  C6  UNL     1      12.700  23.356  53.022  1.00  0.00     0.376 C 
HETATM    7  N2  UNL     1      13.195  22.332  53.864  1.00  0.00    -0.296 N 
HETATM    8  N1  UNL     1      12.521  21.169  54.164  1.00  0.00    -0.299 N 
ATOM      9  H2  UNL     1      14.117  22.465  54.279  1.00  0.00     0.183 HD
HETATM   10  C5  UNL     1      11.338  21.149  54.675  1.00  0.00     0.080 C 
ATOM     11  H1  UNL     1      12.981  20.280  53.973  1.00  0.00     0.187 HD
HETATM   12  S3  UNL     1      10.542  22.675  55.008  1.00  0.00    -0.038 SA
HETATM   13  S2  UNL     1      10.981  23.866  53.300  1.00  0.00    -0.036 SA
BRANCH  10  14
HETATM   14  C2  UNL     1      10.672  19.911  54.972  1.00  0.00    -0.000 C 
HETATM   15  C1  UNL     1      10.367  19.167  53.690  1.00  0.00     0.021 C 
HETATM   16  C3  UNL     1      11.472  18.973  55.858  1.00  0.00     0.021 C 
HETATM   17  C4  UNL     1       9.378  20.195  55.731  1.00  0.00     0.021 C 
ENDBRANCH  10  14
ENDBRANCH   3   6
ENDBRANCH   2   3
BRANCH   2  18
HETATM   18  O1  UNL     1      13.608  24.155  49.982  1.00  0.00    -0.368 OA
ATOM     19  H1  UNL     1      14.188  24.893  50.123  1.00  0.00     0.212 HD
ENDBRANCH   2  18
ENDBRANCH   1   2
BRANCH   1  20
HETATM   20  N4  UNL     1      15.634  21.542  50.669  1.00  0.00    -0.341 N 
HETATM   21  C9  UNL     1      16.776  21.558  49.830  1.00  0.00     0.249 C 
HETATM   22  O2  UNL     1      16.677  21.917  48.637  1.00  0.00    -0.271 OA
ATOM     23  H4  UNL     1      15.733  21.244  51.640  1.00  0.00     0.163 HD
BRANCH  21  24
HETATM   24  C10 UNL     1      18.087  21.147  50.366  1.00  0.00     0.240 C 
BRANCH  24  25
HETATM   25  O3  UNL     1      17.914  20.166  51.309  1.00  0.00    -0.383 OA
ATOM     26  H3  UNL     1      18.597  19.512  51.218  1.00  0.00     0.210 HD
ENDBRANCH  24  25
BRANCH  24  27
HETATM   27  C11 UNL     1      18.729  22.399  50.952  1.00  0.00     0.181 C 
BRANCH  27  28
HETATM   28  O4  UNL     1      18.033  23.533  50.548  1.00  0.00    -0.390 OA
ATOM     29  H4  UNL     1      18.313  24.289  51.051  1.00  0.00     0.210 HD
ENDBRANCH  27  28
BRANCH  27  30
HETATM   30  C12 UNL     1      18.730  22.299  52.473  1.00  0.00     0.227 C 
BRANCH  30  31
HETATM   31  O5  UNL     1      17.472  22.662  52.948  1.00  0.00    -0.254 OA
BRANCH  31  32
HETATM   32  S1  UNL     1      16.839  21.545  53.999  1.00  0.00     0.251 S 
HETATM   33  O6  UNL     1      16.314  22.304  55.204  1.00  0.00    -0.572 OA
HETATM   34  O7  UNL     1      15.668  20.814  53.412  1.00  0.00    -0.572 OA
HETATM   35  O8  UNL     1      17.965  20.453  54.553  1.00  0.00    -0.572 OA
ENDBRANCH  31  32
ENDBRANCH  30  31
ENDBRANCH  27  30
ENDBRANCH  24  27
ENDBRANCH  21  24
ENDBRANCH   1  20
BRANCH   1  36
HETATM   36  C13 UNL     1      13.345  20.862  50.260  1.00  0.00     0.201 C 
HETATM   37  O9  UNL     1      12.609  20.555  49.293  1.00  0.00    -0.646 OA
HETATM   38  O10 UNL     1      13.204  20.143  51.437  1.00  0.00    -0.646 OA
ENDBRANCH   1  36
TORSDOF 14
ENDMDL
