MODEL 1
REMARK VINA RESULT: -8.099844299      0.000      0.000
REMARK  6 active torsions:
REMARK  status: ('A' for Active; 'I' for Inactive)
REMARK    1  A    between atoms: N1_1  and  C1_4 
REMARK    2  A    between atoms: C3_8  and  C4_9 
REMARK    3  A    between atoms: C4_9  and  S1_10 
REMARK    4  A    between atoms: S1_10  and  C5_11 
REMARK    5  A    between atoms: C6_20  and  C7_21 
REMARK       I    between atoms: C7_21  and  N7_23 
REMARK    6  A    between atoms: N7_23  and  N8_25 
ROOT
HETATM    1  C1  UNL     1     -16.568 -26.856  19.873  1.00  0.00     0.115 A 
HETATM    2  C2  UNL     1     -15.483 -26.620  20.666  1.00  0.00     0.136 A 
HETATM    3  N2  UNL     1     -14.308 -27.011  20.216  1.00  0.00    -0.363 N 
ATOM      4  H2  UNL     1     -13.507 -26.827  20.821  1.00  0.00     0.165 HD
HETATM    5  C3  UNL     1     -14.049 -27.622  19.058  1.00  0.00     0.051 A 
HETATM    6  C6  UNL     1     -15.163 -27.873  18.229  1.00  0.00     0.127 A 
HETATM    7  N9  UNL     1     -16.356 -27.453  18.721  1.00  0.00    -0.336 N 
ATOM      8  H9  UNL     1     -17.175 -27.619  18.136  1.00  0.00     0.168 HD
ENDROOT
BRANCH   5   9
HETATM    9  C4  UNL     1     -12.727 -28.149  18.725  1.00  0.00     0.142 C 
BRANCH   9  10
HETATM   10  S1  UNL     1     -11.462 -27.676  19.963  1.00  0.00    -0.085 SA
BRANCH  10  11
HETATM   11  C5  UNL     1     -10.453 -26.423  19.193  1.00  0.00     0.176 A 
HETATM   12  N3  UNL     1      -9.974 -25.343  19.733  1.00  0.00    -0.263 N 
HETATM   13  N4  UNL     1      -9.268 -24.658  18.844  1.00  0.00    -0.226 N 
ATOM     14  H3  UNL     1     -10.119 -25.062  20.703  1.00  0.00     0.190 HD
HETATM   15  N5  UNL     1      -9.298 -25.304  17.700  1.00  0.00    -0.226 N 
ATOM     16  H4  UNL     1      -8.782 -23.778  19.018  1.00  0.00     0.210 HD
HETATM   17  N6  UNL     1     -10.039 -26.411  17.901  1.00  0.00    -0.263 N 
ATOM     18  H5  UNL     1      -8.848 -25.022  16.829  1.00  0.00     0.210 HD
ATOM     19  H6  UNL     1     -10.251 -27.121  17.200  1.00  0.00     0.190 HD
ENDBRANCH  10  11
ENDBRANCH   9  10
ENDBRANCH   5   9
BRANCH   6  20
HETATM   20  C7  UNL     1     -15.018 -28.515  16.960  1.00  0.00     0.288 C 
HETATM   21  O1  UNL     1     -14.823 -27.858  15.871  1.00  0.00    -0.264 OA
HETATM   22  N7  UNL     1     -15.094 -29.887  16.734  1.00  0.00    -0.271 N 
ATOM     23  H7  UNL     1     -15.260 -30.500  17.532  1.00  0.00     0.189 HD
BRANCH  22  24
HETATM   24  N8  UNL     1     -14.956 -30.466  15.472  1.00  0.00    -0.342 N 
ATOM     25  H82 UNL     1     -15.806 -30.606  14.927  1.00  0.00     0.176 HD
ATOM     26  H81 UNL     1     -14.059 -30.750  15.080  1.00  0.00     0.176 HD
ENDBRANCH  22  24
ENDBRANCH   6  20
BRANCH   1  27
HETATM   27  N1  UNL     1     -17.779 -26.457  20.262  1.00  0.00    -0.384 N 
ATOM     28  H12 UNL     1     -17.976 -26.152  21.215  1.00  0.00     0.157 HD
ATOM     29  H11 UNL     1     -18.558 -26.473  19.604  1.00  0.00     0.157 HD
ENDBRANCH   1  27
TORSDOF 6
ENDMDL
MODEL 2
REMARK VINA RESULT: -7.976349860      0.551      1.016
REMARK  6 active torsions:
REMARK  status: ('A' for Active; 'I' for Inactive)
REMARK    1  A    between atoms: N1_1  and  C1_4 
REMARK    2  A    between atoms: C3_8  and  C4_9 
REMARK    3  A    between atoms: C4_9  and  S1_10 
REMARK    4  A    between atoms: S1_10  and  C5_11 
REMARK    5  A    between atoms: C6_20  and  C7_21 
REMARK       I    between atoms: C7_21  and  N7_23 
REMARK    6  A    between atoms: N7_23  and  N8_25 
ROOT
HETATM    1  C1  UNL     1     -16.570 -26.832  19.891  1.00  0.00     0.115 A 
HETATM    2  C2  UNL     1     -15.493 -26.573  20.687  1.00  0.00     0.136 A 
HETATM    3  N2  UNL     1     -14.309 -26.944  20.244  1.00  0.00    -0.363 N 
ATOM      4  H2  UNL     1     -13.514 -26.742  20.850  1.00  0.00     0.165 HD
HETATM    5  C3  UNL     1     -14.034 -27.555  19.089  1.00  0.00     0.051 A 
HETATM    6  C6  UNL     1     -15.139 -27.830  18.257  1.00  0.00     0.127 A 
HETATM    7  N9  UNL     1     -16.342 -27.431  18.742  1.00  0.00    -0.336 N 
ATOM      8  H9  UNL     1     -17.155 -27.614  18.154  1.00  0.00     0.168 HD
ENDROOT
BRANCH   5   9
HETATM    9  C4  UNL     1     -12.701 -28.059  18.764  1.00  0.00     0.142 C 
BRANCH   9  10
HETATM   10  S1  UNL     1     -11.517 -27.824  20.143  1.00  0.00    -0.085 SA
BRANCH  10  11
HETATM   11  C5  UNL     1     -10.719 -26.256  19.855  1.00  0.00     0.176 A 
HETATM   12  N3  UNL     1      -9.777 -25.986  19.002  1.00  0.00    -0.263 N 
HETATM   13  N4  UNL     1      -9.441 -24.705  19.078  1.00  0.00    -0.226 N 
ATOM     14  H3  UNL     1      -9.356 -26.662  18.366  1.00  0.00     0.190 HD
HETATM   15  N5  UNL     1     -10.176 -24.135  20.007  1.00  0.00    -0.226 N 
ATOM     16  H4  UNL     1      -8.732 -24.240  18.512  1.00  0.00     0.210 HD
HETATM   17  N6  UNL     1     -10.981 -25.093  20.505  1.00  0.00    -0.263 N 
ATOM     18  H5  UNL     1     -10.143 -23.157  20.295  1.00  0.00     0.210 HD
ATOM     19  H6  UNL     1     -11.671 -24.966  21.245  1.00  0.00     0.190 HD
ENDBRANCH  10  11
ENDBRANCH   9  10
ENDBRANCH   5   9
BRANCH   6  20
HETATM   20  C7  UNL     1     -14.977 -28.475  16.991  1.00  0.00     0.288 C 
HETATM   21  O1  UNL     1     -14.717 -27.825  15.913  1.00  0.00    -0.264 OA
HETATM   22  N7  UNL     1     -15.104 -29.842  16.758  1.00  0.00    -0.271 N 
ATOM     23  H7  UNL     1     -15.323 -30.449  17.548  1.00  0.00     0.189 HD
BRANCH  22  24
HETATM   24  N8  UNL     1     -14.946 -30.424  15.500  1.00  0.00    -0.342 N 
ATOM     25  H82 UNL     1     -15.585 -30.125  14.764  1.00  0.00     0.176 HD
ATOM     26  H81 UNL     1     -14.233 -31.122  15.290  1.00  0.00     0.176 HD
ENDBRANCH  22  24
ENDBRANCH   6  20
BRANCH   1  27
HETATM   27  N1  UNL     1     -17.789 -26.454  20.272  1.00  0.00    -0.384 N 
ATOM     28  H12 UNL     1     -18.088 -26.469  21.247  1.00  0.00     0.157 HD
ATOM     29  H11 UNL     1     -18.474 -26.158  19.577  1.00  0.00     0.157 HD
ENDBRANCH   1  27
TORSDOF 6
ENDMDL
MODEL 3
REMARK VINA RESULT: -7.840472798      3.060      4.578
REMARK  6 active torsions:
REMARK  status: ('A' for Active; 'I' for Inactive)
REMARK    1  A    between atoms: N1_1  and  C1_4 
REMARK    2  A    between atoms: C3_8  and  C4_9 
REMARK    3  A    between atoms: C4_9  and  S1_10 
REMARK    4  A    between atoms: S1_10  and  C5_11 
REMARK    5  A    between atoms: C6_20  and  C7_21 
REMARK       I    between atoms: C7_21  and  N7_23 
REMARK    6  A    between atoms: N7_23  and  N8_25 
ROOT
HETATM    1  C1  UNL     1     -15.215 -27.436  23.537  1.00  0.00     0.115 A 
HETATM    2  C2  UNL     1     -13.874 -27.583  23.333  1.00  0.00     0.136 A 
HETATM    3  N2  UNL     1     -13.417 -27.348  22.120  1.00  0.00    -0.363 N 
ATOM      4  H2  UNL     1     -12.413 -27.462  21.983  1.00  0.00     0.165 HD
HETATM    5  C3  UNL     1     -14.122 -26.976  21.049  1.00  0.00     0.051 A 
HETATM    6  C6  UNL     1     -15.511 -26.821  21.246  1.00  0.00     0.127 A 
HETATM    7  N9  UNL     1     -15.946 -27.068  22.508  1.00  0.00    -0.336 N 
ATOM      8  H9  UNL     1     -16.946 -26.956  22.676  1.00  0.00     0.168 HD
ENDROOT
BRANCH   5   9
HETATM    9  C4  UNL     1     -13.537 -26.889  19.713  1.00  0.00     0.142 C 
BRANCH   9  10
HETATM   10  S1  UNL     1     -12.824 -28.486  19.165  1.00  0.00    -0.085 SA
BRANCH  10  11
HETATM   11  C5  UNL     1     -13.722 -28.956  17.698  1.00  0.00     0.176 A 
HETATM   12  N3  UNL     1     -14.841 -29.613  17.625  1.00  0.00    -0.263 N 
HETATM   13  N4  UNL     1     -15.200 -29.771  16.358  1.00  0.00    -0.226 N 
ATOM     14  H3  UNL     1     -15.368 -29.958  18.427  1.00  0.00     0.190 HD
HETATM   15  N5  UNL     1     -14.289 -29.212  15.593  1.00  0.00    -0.226 N 
ATOM     16  H4  UNL     1     -16.041 -30.246  16.031  1.00  0.00     0.210 HD
HETATM   17  N6  UNL     1     -13.355 -28.698  16.417  1.00  0.00    -0.263 N 
ATOM     18  H5  UNL     1     -14.289 -29.173  14.574  1.00  0.00     0.210 HD
ATOM     19  H6  UNL     1     -12.514 -28.200  16.127  1.00  0.00     0.190 HD
ENDBRANCH  10  11
ENDBRANCH   9  10
ENDBRANCH   5   9
BRANCH   6  20
HETATM   20  C7  UNL     1     -16.375 -26.421  20.180  1.00  0.00     0.288 C 
HETATM   21  O1  UNL     1     -17.070 -25.339  20.223  1.00  0.00    -0.264 OA
HETATM   22  N7  UNL     1     -16.597 -27.136  19.007  1.00  0.00    -0.271 N 
ATOM     23  H7  UNL     1     -16.103 -28.020  18.878  1.00  0.00     0.189 HD
BRANCH  22  24
HETATM   24  N8  UNL     1     -17.460 -26.709  17.998  1.00  0.00    -0.342 N 
ATOM     25  H82 UNL     1     -17.946 -25.824  18.143  1.00  0.00     0.176 HD
ATOM     26  H81 UNL     1     -17.622 -27.232  17.138  1.00  0.00     0.176 HD
ENDBRANCH  22  24
ENDBRANCH   6  20
BRANCH   1  27
HETATM   27  N1  UNL     1     -15.732 -27.632  24.750  1.00  0.00    -0.384 N 
ATOM     28  H12 UNL     1     -15.757 -28.550  25.193  1.00  0.00     0.157 HD
ATOM     29  H11 UNL     1     -16.145 -26.853  25.262  1.00  0.00     0.157 HD
ENDBRANCH   1  27
TORSDOF 6
ENDMDL
MODEL 4
REMARK VINA RESULT: -7.775414412      2.854      4.561
REMARK  6 active torsions:
REMARK  status: ('A' for Active; 'I' for Inactive)
REMARK    1  A    between atoms: N1_1  and  C1_4 
REMARK    2  A    between atoms: C3_8  and  C4_9 
REMARK    3  A    between atoms: C4_9  and  S1_10 
REMARK    4  A    between atoms: S1_10  and  C5_11 
REMARK    5  A    between atoms: C6_20  and  C7_21 
REMARK       I    between atoms: C7_21  and  N7_23 
REMARK    6  A    between atoms: N7_23  and  N8_25 
ROOT
HETATM    1  C1  UNL     1     -14.529 -25.100  22.160  1.00  0.00     0.115 A 
HETATM    2  C2  UNL     1     -13.282 -25.635  22.015  1.00  0.00     0.136 A 
HETATM    3  N2  UNL     1     -13.120 -26.551  21.082  1.00  0.00    -0.363 N 
ATOM      4  H2  UNL     1     -12.182 -26.941  20.986  1.00  0.00     0.165 HD
HETATM    5  C3  UNL     1     -14.047 -27.025  20.247  1.00  0.00     0.051 A 
HETATM    6  C6  UNL     1     -15.342 -26.482  20.386  1.00  0.00     0.127 A 
HETATM    7  N9  UNL     1     -15.471 -25.539  21.354  1.00  0.00    -0.336 N 
ATOM      8  H9  UNL     1     -16.397 -25.127  21.469  1.00  0.00     0.168 HD
ENDROOT
BRANCH   5   9
HETATM    9  C4  UNL     1     -13.796 -28.151  19.350  1.00  0.00     0.142 C 
BRANCH   9  10
HETATM   10  S1  UNL     1     -13.099 -27.613  17.743  1.00  0.00    -0.085 SA
BRANCH  10  11
HETATM   11  C5  UNL     1     -13.749 -28.731  16.516  1.00  0.00     0.176 A 
HETATM   12  N3  UNL     1     -13.293 -28.955  15.320  1.00  0.00    -0.263 N 
HETATM   13  N4  UNL     1     -14.043 -29.858  14.703  1.00  0.00    -0.226 N 
ATOM     14  H3  UNL     1     -12.475 -28.501  14.914  1.00  0.00     0.190 HD
HETATM   15  N5  UNL     1     -15.012 -30.220  15.514  1.00  0.00    -0.226 N 
ATOM     16  H4  UNL     1     -13.894 -30.212  13.758  1.00  0.00     0.210 HD
HETATM   17  N6  UNL     1     -14.844 -29.522  16.653  1.00  0.00    -0.263 N 
ATOM     18  H5  UNL     1     -15.749 -30.898  15.318  1.00  0.00     0.210 HD
ATOM     19  H6  UNL     1     -15.438 -29.578  17.480  1.00  0.00     0.190 HD
ENDBRANCH  10  11
ENDBRANCH   9  10
ENDBRANCH   5   9
BRANCH   6  20
HETATM   20  C7  UNL     1     -16.421 -26.902  19.548  1.00  0.00     0.288 C 
HETATM   21  O1  UNL     1     -17.446 -27.530  20.005  1.00  0.00    -0.264 OA
HETATM   22  N7  UNL     1     -16.493 -26.721  18.170  1.00  0.00    -0.271 N 
ATOM     23  H7  UNL     1     -15.721 -26.243  17.704  1.00  0.00     0.189 HD
BRANCH  22  24
HETATM   24  N8  UNL     1     -17.565 -27.159  17.392  1.00  0.00    -0.342 N 
ATOM     25  H82 UNL     1     -18.079 -27.974  17.724  1.00  0.00     0.176 HD
ATOM     26  H81 UNL     1     -17.850 -26.707  16.524  1.00  0.00     0.176 HD
ENDBRANCH  22  24
ENDBRANCH   6  20
BRANCH   1  27
HETATM   27  N1  UNL     1     -14.747 -24.150  23.068  1.00  0.00    -0.384 N 
ATOM     28  H12 UNL     1     -14.001 -23.758  23.642  1.00  0.00     0.157 HD
ATOM     29  H11 UNL     1     -15.693 -23.803  23.228  1.00  0.00     0.157 HD
ENDBRANCH   1  27
TORSDOF 6
ENDMDL
MODEL 5
REMARK VINA RESULT: -7.739464018      3.568      6.357
REMARK  6 active torsions:
REMARK  status: ('A' for Active; 'I' for Inactive)
REMARK    1  A    between atoms: N1_1  and  C1_4 
REMARK    2  A    between atoms: C3_8  and  C4_9 
REMARK    3  A    between atoms: C4_9  and  S1_10 
REMARK    4  A    between atoms: S1_10  and  C5_11 
REMARK    5  A    between atoms: C6_20  and  C7_21 
REMARK       I    between atoms: C7_21  and  N7_23 
REMARK    6  A    between atoms: N7_23  and  N8_25 
ROOT
HETATM    1  C1  UNL     1     -16.665 -26.579  19.164  1.00  0.00     0.115 A 
HETATM    2  C2  UNL     1     -17.225 -26.034  20.283  1.00  0.00     0.136 A 
HETATM    3  N2  UNL     1     -16.449 -25.882  21.336  1.00  0.00    -0.363 N 
ATOM      4  H2  UNL     1     -16.882 -25.474  22.164  1.00  0.00     0.165 HD
HETATM    5  C3  UNL     1     -15.157 -26.203  21.441  1.00  0.00     0.051 A 
HETATM    6  C6  UNL     1     -14.566 -26.769  20.291  1.00  0.00     0.127 A 
HETATM    7  N9  UNL     1     -15.393 -26.907  19.224  1.00  0.00    -0.336 N 
ATOM      8  H9  UNL     1     -14.985 -27.307  18.379  1.00  0.00     0.168 HD
ENDROOT
BRANCH   5   9
HETATM    9  C4  UNL     1     -14.429 -26.133  22.705  1.00  0.00     0.142 C 
BRANCH   9  10
HETATM   10  S1  UNL     1     -15.490 -25.554  24.083  1.00  0.00    -0.085 SA
BRANCH  10  11
HETATM   11  C5  UNL     1     -16.257 -27.010  24.768  1.00  0.00     0.176 A 
HETATM   12  N3  UNL     1     -16.047 -28.250  24.442  1.00  0.00    -0.263 N 
HETATM   13  N4  UNL     1     -16.805 -29.054  25.176  1.00  0.00    -0.226 N 
ATOM     14  H3  UNL     1     -15.393 -28.561  23.724  1.00  0.00     0.190 HD
HETATM   15  N5  UNL     1     -17.528 -28.317  25.989  1.00  0.00    -0.226 N 
ATOM     16  H4  UNL     1     -16.823 -30.072  25.120  1.00  0.00     0.210 HD
HETATM   17  N6  UNL     1     -17.199 -27.035  25.746  1.00  0.00    -0.263 N 
ATOM     18  H5  UNL     1     -18.207 -28.653  26.673  1.00  0.00     0.210 HD
ATOM     19  H6  UNL     1     -17.591 -26.219  26.216  1.00  0.00     0.190 HD
ENDBRANCH  10  11
ENDBRANCH   9  10
ENDBRANCH   5   9
BRANCH   6  20
HETATM   20  C7  UNL     1     -13.188 -27.150  20.272  1.00  0.00     0.288 C 
HETATM   21  O1  UNL     1     -12.799 -28.348  20.533  1.00  0.00    -0.264 OA
HETATM   22  N7  UNL     1     -12.117 -26.300  20.007  1.00  0.00    -0.271 N 
ATOM     23  H7  UNL     1     -12.316 -25.321  19.800  1.00  0.00     0.189 HD
BRANCH  22  24
HETATM   24  N8  UNL     1     -10.786 -26.718  20.011  1.00  0.00    -0.342 N 
ATOM     25  H82 UNL     1     -10.178 -26.331  20.733  1.00  0.00     0.176 HD
ATOM     26  H81 UNL     1     -10.404 -27.380  19.337  1.00  0.00     0.176 HD
ENDBRANCH  22  24
ENDBRANCH   6  20
BRANCH   1  27
HETATM   27  N1  UNL     1     -17.393 -26.730  18.058  1.00  0.00    -0.384 N 
ATOM     28  H12 UNL     1     -18.340 -26.360  17.970  1.00  0.00     0.157 HD
ATOM     29  H11 UNL     1     -17.019 -27.254  17.267  1.00  0.00     0.157 HD
ENDBRANCH   1  27
TORSDOF 6
ENDMDL
