MODEL 1
REMARK VINA RESULT: -7.161380493      0.000      0.000
REMARK  7 active torsions:
REMARK  status: ('A' for Active; 'I' for Inactive)
REMARK    1  A    between atoms: C3_3  and  N1_4 
REMARK    2  A    between atoms: N1_4  and  C4_5 
REMARK    3  A    between atoms: N1_4  and  C10_14 
REMARK    4  A    between atoms: C4_5  and  C5_6 
REMARK       I    between atoms: C5_6  and  N2_8 
REMARK    5  A    between atoms: N2_8  and  C6_10 
REMARK    6  A    between atoms: C14_18  and  C16_20 
REMARK    7  A    between atoms: C22_30  and  C23_31 
ROOT
HETATM    1  N1  UNL     1       6.754   2.394 -27.349  1.00  0.00    -0.323 N 
ENDROOT
BRANCH   1   2
HETATM    2  C3  UNL     1       7.551   1.998 -28.465  1.00  0.00     0.048 A 
HETATM    3  C2  UNL     1       7.029   1.331 -29.558  1.00  0.00    -0.006 A 
HETATM    4  C1  UNL     1       5.585   0.952 -29.669  1.00  0.00     0.053 C 
HETATM    5  C26 UNL     1       7.809   0.953 -30.645  1.00  0.00     0.070 A 
HETATM    6  C21 UNL     1       9.144   1.262 -30.612  1.00  0.00     0.083 A 
HETATM    7  N4  UNL     1       7.545   0.309 -31.806  1.00  0.00    -0.343 N 
HETATM    8  C20 UNL     1       9.682   1.927 -29.528  1.00  0.00     0.065 A 
HETATM    9  N3  UNL     1       9.656   0.785 -31.780  1.00  0.00    -0.342 N 
HETATM   10  C19 UNL     1       8.891   2.284 -28.479  1.00  0.00     0.057 A 
HETATM   11 CL2  UNL     1      11.410   2.288 -29.562  1.00  0.00    -0.082 Cl
HETATM   12  C22 UNL     1       8.702   0.209 -32.505  1.00  0.00     0.086 A 
ATOM     13  H3  UNL     1      10.634   0.858 -32.058  1.00  0.00     0.167 HD
ATOM     14  H4  UNL     1       6.634  -0.040 -32.103  1.00  0.00     0.167 HD
BRANCH  12  15
HETATM   15  C23 UNL     1       8.888  -0.429 -33.850  1.00  0.00     0.053 A 
HETATM   16  C24 UNL     1       9.226  -1.949 -33.809  1.00  0.00     0.013 A 
HETATM   17  C25 UNL     1      10.288  -0.959 -34.100  1.00  0.00     0.013 A 
ENDBRANCH  12  15
ENDBRANCH   1   2
BRANCH   1  18
HETATM   18  C4  UNL     1       6.591   1.375 -26.348  1.00  0.00     0.171 C 
BRANCH  18  19
HETATM   19  C5  UNL     1       7.377   1.360 -25.160  1.00  0.00     0.257 C 
HETATM   20  O1  UNL     1       8.549   1.773 -25.071  1.00  0.00    -0.267 OA
HETATM   21  N2  UNL     1       6.844   0.841 -23.923  1.00  0.00    -0.348 N 
ATOM     22  H2  UNL     1       5.886   0.489 -23.920  1.00  0.00     0.163 HD
BRANCH  21  23
HETATM   23  C6  UNL     1       7.582   0.793 -22.702  1.00  0.00     0.022 C 
HETATM   24  C7  UNL     1       8.686   1.823 -22.612  1.00  0.00     0.037 C 
HETATM   25  C8  UNL     1       6.637   1.074 -21.529  1.00  0.00     0.037 C 
HETATM   26  C9  UNL     1       8.163  -0.568 -22.435  1.00  0.00     0.037 C 
ENDBRANCH  21  23
ENDBRANCH  18  19
ENDBRANCH   1  18
BRANCH   1  27
HETATM   27  C10 UNL     1       6.110   3.629 -27.144  1.00  0.00     0.004 C 
HETATM   28  C11 UNL     1       4.576   3.531 -27.239  1.00  0.00     0.054 C 
HETATM   29  C12 UNL     1       4.287   5.024 -27.392  1.00  0.00     0.007 C 
HETATM   30  C13 UNL     1       5.502   5.781 -26.997  1.00  0.00     0.017 C 
HETATM   31  C14 UNL     1       6.338   4.686 -26.226  1.00  0.00     0.016 C 
HETATM   32  C15 UNL     1       7.773   5.227 -26.381  1.00  0.00     0.023 C 
BRANCH  31  33
HETATM   33  C16 UNL     1       5.961   4.841 -24.848  1.00  0.00     0.042 C 
HETATM   34  C17 UNL     1       7.130   4.856 -23.899  1.00  0.00     0.033 C 
HETATM   35  C18 UNL     1       5.352   6.245 -24.590  1.00  0.00     0.033 C 
HETATM   36 CL1  UNL     1       4.757   3.753 -24.173  1.00  0.00    -0.119 Cl
ENDBRANCH  31  33
ENDBRANCH   1  27
TORSDOF 7
ENDMDL
MODEL 2
REMARK VINA RESULT: -6.858124682      3.773      5.670
REMARK  7 active torsions:
REMARK  status: ('A' for Active; 'I' for Inactive)
REMARK    1  A    between atoms: C3_3  and  N1_4 
REMARK    2  A    between atoms: N1_4  and  C4_5 
REMARK    3  A    between atoms: N1_4  and  C10_14 
REMARK    4  A    between atoms: C4_5  and  C5_6 
REMARK       I    between atoms: C5_6  and  N2_8 
REMARK    5  A    between atoms: N2_8  and  C6_10 
REMARK    6  A    between atoms: C14_18  and  C16_20 
REMARK    7  A    between atoms: C22_30  and  C23_31 
ROOT
HETATM    1  N1  UNL     1       6.950   2.775 -25.713  1.00  0.00    -0.323 N 
ENDROOT
BRANCH   1   2
HETATM    2  C3  UNL     1       8.346   3.063 -25.656  1.00  0.00     0.048 A 
HETATM    3  C2  UNL     1       9.052   3.562 -26.736  1.00  0.00    -0.006 A 
HETATM    4  C1  UNL     1       8.422   3.835 -28.066  1.00  0.00     0.053 C 
HETATM    5  C26 UNL     1      10.411   3.846 -26.673  1.00  0.00     0.070 A 
HETATM    6  C21 UNL     1      11.058   3.615 -25.487  1.00  0.00     0.083 A 
HETATM    7  N4  UNL     1      11.307   4.329 -27.565  1.00  0.00    -0.343 N 
HETATM    8  C20 UNL     1      10.369   3.117 -24.399  1.00  0.00     0.065 A 
HETATM    9  N3  UNL     1      12.353   3.974 -25.704  1.00  0.00    -0.342 N 
HETATM   10  C19 UNL     1       9.037   2.849 -24.493  1.00  0.00     0.057 A 
HETATM   11 CL2  UNL     1      11.275   2.846 -22.907  1.00  0.00    -0.082 Cl
HETATM   12  C22 UNL     1      12.514   4.404 -26.952  1.00  0.00     0.086 A 
ATOM     13  H3  UNL     1      13.096   3.920 -25.007  1.00  0.00     0.167 HD
ATOM     14  H4  UNL     1      11.109   4.590 -28.530  1.00  0.00     0.167 HD
BRANCH  12  15
HETATM   15  C23 UNL     1      13.802   4.884 -27.555  1.00  0.00     0.053 A 
HETATM   16  C24 UNL     1      14.270   6.285 -27.060  1.00  0.00     0.013 A 
HETATM   17  C25 UNL     1      13.665   6.134 -28.403  1.00  0.00     0.013 A 
ENDBRANCH  12  15
ENDBRANCH   1   2
BRANCH   1  18
HETATM   18  C4  UNL     1       6.634   1.477 -26.246  1.00  0.00     0.171 C 
BRANCH  18  19
HETATM   19  C5  UNL     1       5.773   1.319 -27.370  1.00  0.00     0.257 C 
HETATM   20  O1  UNL     1       6.152   1.133 -28.542  1.00  0.00    -0.267 OA
HETATM   21  N2  UNL     1       4.338   1.368 -27.219  1.00  0.00    -0.348 N 
ATOM     22  H2  UNL     1       3.956   1.514 -26.284  1.00  0.00     0.163 HD
BRANCH  21  23
HETATM   23  C6  UNL     1       3.423   1.223 -28.305  1.00  0.00     0.022 C 
HETATM   24  C7  UNL     1       3.645  -0.026 -29.131  1.00  0.00     0.037 C 
HETATM   25  C8  UNL     1       1.997   1.125 -27.754  1.00  0.00     0.037 C 
HETATM   26  C9  UNL     1       3.422   2.417 -29.218  1.00  0.00     0.037 C 
ENDBRANCH  21  23
ENDBRANCH  18  19
ENDBRANCH   1  18
BRANCH   1  27
HETATM   27  C10 UNL     1       5.881   3.611 -25.338  1.00  0.00     0.004 C 
HETATM   28  C11 UNL     1       5.569   3.552 -23.831  1.00  0.00     0.054 C 
HETATM   29  C12 UNL     1       4.184   4.195 -23.885  1.00  0.00     0.007 C 
HETATM   30  C13 UNL     1       4.027   4.862 -25.202  1.00  0.00     0.017 C 
HETATM   31  C14 UNL     1       5.516   4.928 -25.720  1.00  0.00     0.016 C 
HETATM   32  C15 UNL     1       5.310   5.002 -27.246  1.00  0.00     0.023 C 
BRANCH  31  33
HETATM   33  C16 UNL     1       6.000   6.208 -25.283  1.00  0.00     0.042 C 
HETATM   34  C17 UNL     1       7.190   6.123 -24.364  1.00  0.00     0.033 C 
HETATM   35  C18 UNL     1       6.598   7.013 -26.468  1.00  0.00     0.033 C 
HETATM   36 CL1  UNL     1       4.865   7.341 -24.563  1.00  0.00    -0.119 Cl
ENDBRANCH  31  33
ENDBRANCH   1  27
TORSDOF 7
ENDMDL
MODEL 3
REMARK VINA RESULT: -6.789441492      3.572      7.923
REMARK  7 active torsions:
REMARK  status: ('A' for Active; 'I' for Inactive)
REMARK    1  A    between atoms: C3_3  and  N1_4 
REMARK    2  A    between atoms: N1_4  and  C4_5 
REMARK    3  A    between atoms: N1_4  and  C10_14 
REMARK    4  A    between atoms: C4_5  and  C5_6 
REMARK       I    between atoms: C5_6  and  N2_8 
REMARK    5  A    between atoms: N2_8  and  C6_10 
REMARK    6  A    between atoms: C14_18  and  C16_20 
REMARK    7  A    between atoms: C22_30  and  C23_31 
ROOT
HETATM    1  N1  UNL     1       9.773   4.229 -28.226  1.00  0.00    -0.323 N 
ENDROOT
BRANCH   1   2
HETATM    2  C3  UNL     1       8.957   3.307 -27.506  1.00  0.00     0.048 A 
HETATM    3  C2  UNL     1       9.181   2.987 -26.179  1.00  0.00    -0.006 A 
HETATM    4  C1  UNL     1      10.304   3.568 -25.378  1.00  0.00     0.053 C 
HETATM    5  C26 UNL     1       8.378   2.092 -25.481  1.00  0.00     0.070 A 
HETATM    6  C21 UNL     1       7.332   1.515 -26.151  1.00  0.00     0.083 A 
HETATM    7  N4  UNL     1       8.387   1.624 -24.211  1.00  0.00    -0.343 N 
HETATM    8  C20 UNL     1       7.094   1.822 -27.476  1.00  0.00     0.065 A 
HETATM    9  N3  UNL     1       6.727   0.698 -25.245  1.00  0.00    -0.342 N 
HETATM   10  C19 UNL     1       7.898   2.704 -28.132  1.00  0.00     0.057 A 
HETATM   11 CL2  UNL     1       5.726   1.035 -28.268  1.00  0.00    -0.082 Cl
HETATM   12  C22 UNL     1       7.355   0.756 -24.074  1.00  0.00     0.086 A 
ATOM     13  H3  UNL     1       5.908   0.123 -25.438  1.00  0.00     0.167 HD
ATOM     14  H4  UNL     1       9.054   1.879 -23.483  1.00  0.00     0.167 HD
BRANCH  12  15
HETATM   15  C23 UNL     1       6.976  -0.005 -22.838  1.00  0.00     0.053 A 
HETATM   16  C24 UNL     1       6.946   0.846 -21.533  1.00  0.00     0.013 A 
HETATM   17  C25 UNL     1       8.072  -0.081 -21.792  1.00  0.00     0.013 A 
ENDBRANCH  12  15
ENDBRANCH   1   2
BRANCH   1  18
HETATM   18  C4  UNL     1       9.752   5.570 -27.706  1.00  0.00     0.171 C 
BRANCH  18  19
HETATM   19  C5  UNL     1      10.734   6.532 -28.076  1.00  0.00     0.257 C 
HETATM   20  O1  UNL     1      10.510   7.572 -28.724  1.00  0.00    -0.267 OA
HETATM   21  N2  UNL     1      12.120   6.357 -27.711  1.00  0.00    -0.348 N 
ATOM     22  H2  UNL     1      12.377   5.527 -27.176  1.00  0.00     0.163 HD
BRANCH  21  23
HETATM   23  C6  UNL     1      13.152   7.281 -28.057  1.00  0.00     0.022 C 
HETATM   24  C7  UNL     1      12.860   8.708 -27.648  1.00  0.00     0.037 C 
HETATM   25  C8  UNL     1      14.446   6.885 -27.339  1.00  0.00     0.037 C 
HETATM   26  C9  UNL     1      13.479   7.253 -29.524  1.00  0.00     0.037 C 
ENDBRANCH  21  23
ENDBRANCH  18  19
ENDBRANCH   1  18
BRANCH   1  27
HETATM   27  C10 UNL     1      10.552   3.980 -29.372  1.00  0.00     0.004 C 
HETATM   28  C11 UNL     1      11.693   2.976 -29.118  1.00  0.00     0.054 C 
HETATM   29  C12 UNL     1      12.515   3.282 -30.371  1.00  0.00     0.007 C 
HETATM   30  C13 UNL     1      11.659   4.038 -31.320  1.00  0.00     0.017 C 
HETATM   31  C14 UNL     1      10.214   3.788 -30.736  1.00  0.00     0.016 C 
HETATM   32  C15 UNL     1       9.447   5.012 -31.273  1.00  0.00     0.023 C 
BRANCH  31  33
HETATM   33  C16 UNL     1       9.731   2.630 -31.438  1.00  0.00     0.042 C 
HETATM   34  C17 UNL     1       8.349   2.803 -32.009  1.00  0.00     0.033 C 
HETATM   35  C18 UNL     1      10.555   2.375 -32.728  1.00  0.00     0.033 C 
HETATM   36 CL1  UNL     1       9.768   1.072 -30.625  1.00  0.00    -0.119 Cl
ENDBRANCH  31  33
ENDBRANCH   1  27
TORSDOF 7
ENDMDL
MODEL 4
REMARK VINA RESULT: -6.720288690      3.889      7.971
REMARK  7 active torsions:
REMARK  status: ('A' for Active; 'I' for Inactive)
REMARK    1  A    between atoms: C3_3  and  N1_4 
REMARK    2  A    between atoms: N1_4  and  C4_5 
REMARK    3  A    between atoms: N1_4  and  C10_14 
REMARK    4  A    between atoms: C4_5  and  C5_6 
REMARK       I    between atoms: C5_6  and  N2_8 
REMARK    5  A    between atoms: N2_8  and  C6_10 
REMARK    6  A    between atoms: C14_18  and  C16_20 
REMARK    7  A    between atoms: C22_30  and  C23_31 
ROOT
HETATM    1  N1  UNL     1      10.078   4.887 -28.338  1.00  0.00    -0.323 N 
ENDROOT
BRANCH   1   2
HETATM    2  C3  UNL     1       9.817   4.178 -27.127  1.00  0.00     0.048 A 
HETATM    3  C2  UNL     1       8.572   3.663 -26.814  1.00  0.00    -0.006 A 
HETATM    4  C1  UNL     1       7.380   3.811 -27.708  1.00  0.00     0.053 C 
HETATM    5  C26 UNL     1       8.325   2.967 -25.637  1.00  0.00     0.070 A 
HETATM    6  C21 UNL     1       9.369   2.796 -24.766  1.00  0.00     0.083 A 
HETATM    7  N4  UNL     1       7.225   2.380 -25.111  1.00  0.00    -0.343 N 
HETATM    8  C20 UNL     1      10.619   3.304 -25.062  1.00  0.00     0.065 A 
HETATM    9  N3  UNL     1       8.856   2.095 -23.717  1.00  0.00    -0.342 N 
HETATM   10  C19 UNL     1      10.828   3.980 -26.224  1.00  0.00     0.057 A 
HETATM   11 CL2  UNL     1      11.910   3.041 -23.886  1.00  0.00    -0.082 Cl
HETATM   12  C22 UNL     1       7.566   1.840 -23.916  1.00  0.00     0.086 A 
ATOM     13  H3  UNL     1       9.386   1.806 -22.896  1.00  0.00     0.167 HD
ATOM     14  H4  UNL     1       6.300   2.349 -25.540  1.00  0.00     0.167 HD
BRANCH  12  15
HETATM   15  C23 UNL     1       6.667   1.089 -22.978  1.00  0.00     0.053 A 
HETATM   16  C24 UNL     1       6.994   1.282 -21.467  1.00  0.00     0.013 A 
HETATM   17  C25 UNL     1       7.372   0.027 -22.155  1.00  0.00     0.013 A 
ENDBRANCH  12  15
ENDBRANCH   1   2
BRANCH   1  18
HETATM   18  C4  UNL     1       9.866   6.307 -28.248  1.00  0.00     0.171 C 
BRANCH  18  19
HETATM   19  C5  UNL     1      10.944   7.232 -28.359  1.00  0.00     0.257 C 
HETATM   20  O1  UNL     1      10.875   8.350 -28.905  1.00  0.00    -0.267 OA
HETATM   21  N2  UNL     1      12.248   6.921 -27.824  1.00  0.00    -0.348 N 
ATOM     22  H2  UNL     1      12.377   6.023 -27.358  1.00  0.00     0.163 HD
BRANCH  21  23
HETATM   23  C6  UNL     1      13.367   7.802 -27.908  1.00  0.00     0.022 C 
HETATM   24  C7  UNL     1      13.159   9.128 -27.209  1.00  0.00     0.037 C 
HETATM   25  C8  UNL     1      14.577   7.148 -27.234  1.00  0.00     0.037 C 
HETATM   26  C9  UNL     1      13.788   8.062 -29.328  1.00  0.00     0.037 C 
ENDBRANCH  21  23
ENDBRANCH  18  19
ENDBRANCH   1  18
BRANCH   1  27
HETATM   27  C10 UNL     1      10.482   4.358 -29.578  1.00  0.00     0.004 C 
HETATM   28  C11 UNL     1      11.886   3.727 -29.535  1.00  0.00     0.054 C 
HETATM   29  C12 UNL     1      12.130   3.670 -31.043  1.00  0.00     0.007 C 
HETATM   30  C13 UNL     1      10.830   3.862 -31.736  1.00  0.00     0.017 C 
HETATM   31  C14 UNL     1       9.794   3.614 -30.571  1.00  0.00     0.016 C 
HETATM   32  C15 UNL     1       8.568   4.402 -31.074  1.00  0.00     0.023 C 
BRANCH  31  33
HETATM   33  C16 UNL     1       9.476   2.215 -30.656  1.00  0.00     0.042 C 
HETATM   34  C17 UNL     1       9.769   1.451 -29.391  1.00  0.00     0.033 C 
HETATM   35  C18 UNL     1       7.945   1.997 -30.785  1.00  0.00     0.033 C 
HETATM   36 CL1  UNL     1      10.127   1.279 -31.993  1.00  0.00    -0.119 Cl
ENDBRANCH  31  33
ENDBRANCH   1  27
TORSDOF 7
ENDMDL
MODEL 5
REMARK VINA RESULT: -6.677809084      3.265      8.099
REMARK  7 active torsions:
REMARK  status: ('A' for Active; 'I' for Inactive)
REMARK    1  A    between atoms: C3_3  and  N1_4 
REMARK    2  A    between atoms: N1_4  and  C4_5 
REMARK    3  A    between atoms: N1_4  and  C10_14 
REMARK    4  A    between atoms: C4_5  and  C5_6 
REMARK       I    between atoms: C5_6  and  N2_8 
REMARK    5  A    between atoms: N2_8  and  C6_10 
REMARK    6  A    between atoms: C14_18  and  C16_20 
REMARK    7  A    between atoms: C22_30  and  C23_31 
ROOT
HETATM    1  N1  UNL     1      10.725   3.420 -28.393  1.00  0.00    -0.323 N 
ENDROOT
BRANCH   1   2
HETATM    2  C3  UNL     1       9.780   2.976 -27.420  1.00  0.00     0.048 A 
HETATM    3  C2  UNL     1      10.005   3.077 -26.059  1.00  0.00    -0.006 A 
HETATM    4  C1  UNL     1      11.261   3.650 -25.480  1.00  0.00     0.053 C 
HETATM    5  C26 UNL     1       9.079   2.649 -25.115  1.00  0.00     0.070 A 
HETATM    6  C21 UNL     1       7.905   2.109 -25.571  1.00  0.00     0.083 A 
HETATM    7  N4  UNL     1       9.060   2.639 -23.761  1.00  0.00    -0.343 N 
HETATM    8  C20 UNL     1       7.665   2.000 -26.926  1.00  0.00     0.065 A 
HETATM    9  N3  UNL     1       7.199   1.781 -24.454  1.00  0.00    -0.342 N 
HETATM   10  C19 UNL     1       8.592   2.429 -27.825  1.00  0.00     0.057 A 
HETATM   11 CL2  UNL     1       6.128   1.290 -27.432  1.00  0.00    -0.082 Cl
HETATM   12  C22 UNL     1       7.886   2.096 -23.360  1.00  0.00     0.086 A 
ATOM     13  H3  UNL     1       6.273   1.354 -24.457  1.00  0.00     0.167 HD
ATOM     14  H4  UNL     1       9.802   2.980 -23.150  1.00  0.00     0.167 HD
BRANCH  12  15
HETATM   15  C23 UNL     1       7.428   1.884 -21.946  1.00  0.00     0.053 A 
HETATM   16  C24 UNL     1       7.755   0.478 -21.360  1.00  0.00     0.013 A 
HETATM   17  C25 UNL     1       6.375   0.803 -21.788  1.00  0.00     0.013 A 
ENDBRANCH  12  15
ENDBRANCH   1   2
BRANCH   1  18
HETATM   18  C4  UNL     1      11.003   2.460 -29.428  1.00  0.00     0.171 C 
BRANCH  18  19
HETATM   19  C5  UNL     1      10.219   2.392 -30.615  1.00  0.00     0.257 C 
HETATM   20  O1  UNL     1       9.494   3.306 -31.049  1.00  0.00    -0.267 OA
HETATM   21  N2  UNL     1      10.211   1.201 -31.432  1.00  0.00    -0.348 N 
ATOM     22  H2  UNL     1      10.787   0.411 -31.139  1.00  0.00     0.163 HD
BRANCH  21  23
HETATM   23  C6  UNL     1       9.444   1.068 -32.628  1.00  0.00     0.022 C 
HETATM   24  C7  UNL     1       9.759   2.110 -33.679  1.00  0.00     0.037 C 
HETATM   25  C8  UNL     1       9.741  -0.291 -33.270  1.00  0.00     0.037 C 
HETATM   26  C9  UNL     1       7.964   1.074 -32.364  1.00  0.00     0.037 C 
ENDBRANCH  21  23
ENDBRANCH  18  19
ENDBRANCH   1  18
BRANCH   1  27
HETATM   27  C10 UNL     1      11.410   4.649 -28.433  1.00  0.00     0.004 C 
HETATM   28  C11 UNL     1      12.933   4.484 -28.598  1.00  0.00     0.054 C 
HETATM   29  C12 UNL     1      13.336   5.899 -28.182  1.00  0.00     0.007 C 
HETATM   30  C13 UNL     1      12.127   6.761 -28.219  1.00  0.00     0.017 C 
HETATM   31  C14 UNL     1      11.121   5.886 -29.064  1.00  0.00     0.016 C 
HETATM   32  C15 UNL     1       9.761   6.426 -28.581  1.00  0.00     0.023 C 
BRANCH  31  33
HETATM   33  C16 UNL     1      11.306   6.323 -30.421  1.00  0.00     0.042 C 
HETATM   34  C17 UNL     1      10.020   6.667 -31.125  1.00  0.00     0.033 C 
HETATM   35  C18 UNL     1      12.046   7.686 -30.473  1.00  0.00     0.033 C 
HETATM   36 CL1  UNL     1      12.245   5.316 -31.513  1.00  0.00    -0.119 Cl
ENDBRANCH  31  33
ENDBRANCH   1  27
TORSDOF 7
ENDMDL
