MODEL 1
REMARK VINA RESULT: -8.642304491      0.000      0.000
REMARK  18 active torsions:
REMARK  status: ('A' for Active; 'I' for Inactive)
REMARK    1  A    between atoms: C2_2  and  O2_4 
REMARK    2  A    between atoms: O2_4  and  C3_5 
REMARK    3  A    between atoms: C6_9  and  C7_10 
REMARK    4  A    between atoms: C7_10  and  C8_11 
REMARK    5  A    between atoms: C8_11  and  N1_12 
REMARK    6  A    between atoms: C8_11  and  C19_28 
REMARK       I    between atoms: N1_12  and  C9_14 
REMARK       I    between atoms: C9_14  and  N2_16 
REMARK    7  A    between atoms: N3_19  and  C12_20 
REMARK    8  A    between atoms: C12_20  and  C13_21 
REMARK    9  A    between atoms: C19_28  and  C20_29 
REMARK   10  A    between atoms: C19_28  and  C25_34 
REMARK   11  A    between atoms: C20_29  and  C21_30 
REMARK   12  A    between atoms: C25_34  and  C26_36 
REMARK   13  A    between atoms: C26_36  and  O7_37 
REMARK   14  A    between atoms: C26_36  and  N4_39 
REMARK   15  A    between atoms: N4_39  and  C27_40 
REMARK   16  A    between atoms: N4_39  and  C34_47 
REMARK   17  A    between atoms: C27_40  and  C28_41 
REMARK   18  A    between atoms: C34_47  and  C35_48 
ROOT
HETATM    1  C8  UNL     1      17.767  22.800  17.155  1.00  0.00     0.125 C 
ENDROOT
BRANCH   1   2
HETATM    2  C7  UNL     1      18.615  22.068  18.200  1.00  0.00     0.064 C 
BRANCH   2   3
HETATM    3  C6  UNL     1      18.429  22.581  19.596  1.00  0.00     0.153 C 
HETATM    4  C3  UNL     1      19.574  23.466  20.042  1.00  0.00     0.163 C 
HETATM    5  C4  UNL     1      18.913  24.735  20.492  1.00  0.00     0.061 C 
HETATM    6  C5  UNL     1      17.461  24.340  20.564  1.00  0.00     0.171 C 
HETATM    7  O3  UNL     1      17.283  23.338  19.648  1.00  0.00    -0.383 OA
BRANCH   4   8
HETATM    8  O2  UNL     1      20.551  23.677  19.058  1.00  0.00    -0.314 OA
BRANCH   8   9
HETATM    9  C2  UNL     1      21.465  24.712  19.122  1.00  0.00     0.255 C 
HETATM   10  C1  UNL     1      22.555  24.814  20.125  1.00  0.00     0.126 C 
HETATM   11  O1  UNL     1      21.363  25.630  18.265  1.00  0.00    -0.266 OA
ENDBRANCH   8   9
ENDBRANCH   4   8
ENDBRANCH   2   3
ENDBRANCH   1   2
BRANCH   1  12
HETATM   12  N1  UNL     1      18.730  23.523  16.375  1.00  0.00    -0.334 N 
HETATM   13  C9  UNL     1      18.717  24.946  16.312  1.00  0.00     0.319 C 
HETATM   14  O4  UNL     1      17.803  25.552  16.980  1.00  0.00    -0.247 OA
HETATM   15  N2  UNL     1      19.613  25.751  15.587  1.00  0.00    -0.328 N 
HETATM   16  C10 UNL     1      20.714  25.270  14.792  1.00  0.00     0.148 C 
HETATM   17  C18 UNL     1      19.409  27.200  15.632  1.00  0.00     0.172 C 
HETATM   18  C11 UNL     1      21.879  26.235  14.710  1.00  0.00     0.147 C 
HETATM   19  N3  UNL     1      21.442  27.608  14.478  1.00  0.00    -0.370 N 
HETATM   20  C17 UNL     1      20.054  27.723  14.358  1.00  0.00     0.083 C 
ATOM     21  H1  UNL     1      19.439  23.007  15.854  1.00  0.00     0.165 HD
BRANCH  19  22
HETATM   22  C12 UNL     1      22.246  28.469  15.211  1.00  0.00     0.070 C 
BRANCH  22  23
HETATM   23  C13 UNL     1      23.608  28.130  15.636  1.00  0.00     0.050 C 
HETATM   24  C14 UNL     1      24.709  29.035  15.158  1.00  0.00     0.038 C 
HETATM   25  C15 UNL     1      25.763  28.820  16.236  1.00  0.00     0.168 C 
HETATM   26  O5  UNL     1      25.344  27.707  16.967  1.00  0.00    -0.390 OA
HETATM   27  C16 UNL     1      23.927  27.860  17.047  1.00  0.00     0.177 C 
ENDBRANCH  22  23
ENDBRANCH  19  22
ENDBRANCH   1  12
BRANCH   1  28
HETATM   28  C19 UNL     1      16.871  21.871  16.385  1.00  0.00     0.012 C 
BRANCH  28  29
HETATM   29  C20 UNL     1      16.294  22.431  15.174  1.00  0.00    -0.005 C 
BRANCH  29  30
HETATM   30  C21 UNL     1      15.272  21.778  14.370  1.00  0.00    -0.033 C 
HETATM   31  C22 UNL     1      15.552  21.927  12.848  1.00  0.00     0.018 C 
HETATM   32  C23 UNL     1      14.843  20.396  14.551  1.00  0.00     0.018 C 
HETATM   33  C24 UNL     1      13.979  22.643  14.523  1.00  0.00     0.018 C 
ENDBRANCH  29  30
ENDBRANCH  28  29
BRANCH  28  34
HETATM   34  C25 UNL     1      16.078  21.136  17.373  1.00  0.00     0.216 C 
HETATM   35  O6  UNL     1      16.587  20.020  17.716  1.00  0.00    -0.288 OA
BRANCH  34  36
HETATM   36  C26 UNL     1      14.823  21.427  18.047  1.00  0.00     0.432 C 
BRANCH  36  37
HETATM   37  O7  UNL     1      15.074  21.661  19.427  1.00  0.00    -0.362 OA
ATOM     38  H7  UNL     1      14.638  20.994  19.943  1.00  0.00     0.212 HD
ENDBRANCH  36  37
BRANCH  36  39
HETATM   39  N4  UNL     1      13.883  20.240  18.102  1.00  0.00     0.125 N 
BRANCH  39  40
HETATM   40  C27 UNL     1      12.784  20.496  17.256  1.00  0.00     0.281 C 
BRANCH  40  41
HETATM   41  C28 UNL     1      11.723  19.434  17.276  1.00  0.00     0.014 C 
HETATM   42  C29 UNL     1      12.170  18.254  16.406  1.00  0.00     0.006 C 
HETATM   43  C30 UNL     1      11.311  17.079  16.848  1.00  0.00     0.000 C 
HETATM   44  C31 UNL     1       9.973  17.567  17.382  1.00  0.00     0.000 C 
HETATM   45  C32 UNL     1       9.479  18.766  16.576  1.00  0.00     0.000 C 
HETATM   46  C33 UNL     1      10.388  19.965  16.766  1.00  0.00     0.006 C 
ENDBRANCH  40  41
ENDBRANCH  39  40
BRANCH  39  47
HETATM   47  C34 UNL     1      13.642  20.005  19.488  1.00  0.00     0.281 C 
BRANCH  47  48
HETATM   48  C35 UNL     1      13.511  18.605  19.928  1.00  0.00     0.014 C 
HETATM   49  C36 UNL     1      13.804  18.459  21.452  1.00  0.00     0.006 C 
HETATM   50  C37 UNL     1      12.629  17.559  21.554  1.00  0.00     0.001 C 
HETATM   51  C38 UNL     1      12.075  18.201  20.321  1.00  0.00     0.006 C 
ENDBRANCH  47  48
ENDBRANCH  39  47
ENDBRANCH  36  39
ENDBRANCH  34  36
ENDBRANCH  28  34
ENDBRANCH   1  28
TORSDOF 18
ENDMDL
MODEL 2
REMARK VINA RESULT: -8.581217417      2.400      4.371
REMARK  18 active torsions:
REMARK  status: ('A' for Active; 'I' for Inactive)
REMARK    1  A    between atoms: C2_2  and  O2_4 
REMARK    2  A    between atoms: O2_4  and  C3_5 
REMARK    3  A    between atoms: C6_9  and  C7_10 
REMARK    4  A    between atoms: C7_10  and  C8_11 
REMARK    5  A    between atoms: C8_11  and  N1_12 
REMARK    6  A    between atoms: C8_11  and  C19_28 
REMARK       I    between atoms: N1_12  and  C9_14 
REMARK       I    between atoms: C9_14  and  N2_16 
REMARK    7  A    between atoms: N3_19  and  C12_20 
REMARK    8  A    between atoms: C12_20  and  C13_21 
REMARK    9  A    between atoms: C19_28  and  C20_29 
REMARK   10  A    between atoms: C19_28  and  C25_34 
REMARK   11  A    between atoms: C20_29  and  C21_30 
REMARK   12  A    between atoms: C25_34  and  C26_36 
REMARK   13  A    between atoms: C26_36  and  O7_37 
REMARK   14  A    between atoms: C26_36  and  N4_39 
REMARK   15  A    between atoms: N4_39  and  C27_40 
REMARK   16  A    between atoms: N4_39  and  C34_47 
REMARK   17  A    between atoms: C27_40  and  C28_41 
REMARK   18  A    between atoms: C34_47  and  C35_48 
ROOT
HETATM    1  C8  UNL     1      20.141  25.304  18.549  1.00  0.00     0.125 C 
ENDROOT
BRANCH   1   2
HETATM    2  C7  UNL     1      20.711  24.360  19.610  1.00  0.00     0.064 C 
BRANCH   2   3
HETATM    3  C6  UNL     1      21.131  25.052  20.872  1.00  0.00     0.153 C 
HETATM    4  C3  UNL     1      22.630  25.261  20.943  1.00  0.00     0.163 C 
HETATM    5  C4  UNL     1      22.791  26.730  21.195  1.00  0.00     0.061 C 
HETATM    6  C5  UNL     1      21.392  27.155  21.561  1.00  0.00     0.171 C 
HETATM    7  O3  UNL     1      20.542  26.293  20.922  1.00  0.00    -0.383 OA
BRANCH   4   8
HETATM    8  O2  UNL     1      23.324  24.821  19.807  1.00  0.00    -0.314 OA
BRANCH   8   9
HETATM    9  C2  UNL     1      24.698  24.683  19.777  1.00  0.00     0.255 C 
HETATM   10  C1  UNL     1      25.513  24.613  18.538  1.00  0.00     0.126 C 
HETATM   11  O1  UNL     1      25.298  24.613  20.883  1.00  0.00    -0.266 OA
ENDBRANCH   8   9
ENDBRANCH   4   8
ENDBRANCH   2   3
ENDBRANCH   1   2
BRANCH   1  12
HETATM   12  N1  UNL     1      21.271  25.618  17.722  1.00  0.00    -0.334 N 
HETATM   13  C9  UNL     1      21.592  26.964  17.381  1.00  0.00     0.319 C 
HETATM   14  O4  UNL     1      20.821  27.882  17.841  1.00  0.00    -0.247 OA
HETATM   15  N2  UNL     1      22.674  27.382  16.588  1.00  0.00    -0.328 N 
HETATM   16  C10 UNL     1      23.660  26.515  15.995  1.00  0.00     0.148 C 
HETATM   17  C18 UNL     1      22.811  28.817  16.332  1.00  0.00     0.172 C 
HETATM   18  C11 UNL     1      25.020  27.159  15.820  1.00  0.00     0.147 C 
HETATM   19  N3  UNL     1      24.921  28.516  15.289  1.00  0.00    -0.370 N 
HETATM   20  C17 UNL     1      23.603  28.906  15.037  1.00  0.00     0.083 C 
ATOM     21  H1  UNL     1      21.859  24.861  17.372  1.00  0.00     0.165 HD
BRANCH  19  22
HETATM   22  C12 UNL     1      25.878  29.312  15.902  1.00  0.00     0.070 C 
BRANCH  22  23
HETATM   23  C13 UNL     1      26.124  30.708  15.523  1.00  0.00     0.050 C 
HETATM   24  C14 UNL     1      25.279  31.750  16.202  1.00  0.00     0.038 C 
HETATM   25  C15 UNL     1      26.178  32.975  16.106  1.00  0.00     0.168 C 
HETATM   26  O5  UNL     1      27.194  32.637  15.208  1.00  0.00    -0.390 OA
HETATM   27  C16 UNL     1      27.483  31.273  15.513  1.00  0.00     0.177 C 
ENDBRANCH  22  23
ENDBRANCH  19  22
ENDBRANCH   1  12
BRANCH   1  28
HETATM   28  C19 UNL     1      18.954  24.722  17.834  1.00  0.00     0.012 C 
BRANCH  28  29
HETATM   29  C20 UNL     1      18.272  25.629  16.926  1.00  0.00    -0.005 C 
BRANCH  29  30
HETATM   30  C21 UNL     1      18.481  25.666  15.486  1.00  0.00    -0.033 C 
HETATM   31  C22 UNL     1      17.139  25.590  14.706  1.00  0.00     0.018 C 
HETATM   32  C23 UNL     1      19.273  26.678  14.797  1.00  0.00     0.018 C 
HETATM   33  C24 UNL     1      19.127  24.294  15.105  1.00  0.00     0.018 C 
ENDBRANCH  29  30
ENDBRANCH  28  29
BRANCH  28  34
HETATM   34  C25 UNL     1      18.242  23.892  18.807  1.00  0.00     0.216 C 
HETATM   35  O6  UNL     1      17.707  24.552  19.756  1.00  0.00    -0.288 OA
BRANCH  34  36
HETATM   36  C26 UNL     1      18.016  22.459  18.906  1.00  0.00     0.432 C 
BRANCH  36  37
HETATM   37  O7  UNL     1      19.000  21.774  18.142  1.00  0.00    -0.362 OA
ATOM     38  H7  UNL     1      19.185  22.267  17.352  1.00  0.00     0.212 HD
ENDBRANCH  36  37
BRANCH  36  39
HETATM   39  N4  UNL     1      16.736  22.006  18.234  1.00  0.00     0.125 N 
BRANCH  39  40
HETATM   40  C27 UNL     1      16.368  22.970  17.270  1.00  0.00     0.281 C 
BRANCH  40  41
HETATM   41  C28 UNL     1      15.377  22.485  16.254  1.00  0.00     0.014 C 
HETATM   42  C29 UNL     1      16.110  22.142  14.952  1.00  0.00     0.006 C 
HETATM   43  C30 UNL     1      15.159  21.243  14.177  1.00  0.00     0.000 C 
HETATM   44  C31 UNL     1      13.716  21.555  14.539  1.00  0.00     0.000 C 
HETATM   45  C32 UNL     1      13.530  23.055  14.758  1.00  0.00     0.000 C 
HETATM   46  C33 UNL     1      14.305  23.531  15.971  1.00  0.00     0.006 C 
ENDBRANCH  40  41
ENDBRANCH  39  40
BRANCH  39  47
HETATM   47  C34 UNL     1      15.827  21.716  19.294  1.00  0.00     0.281 C 
BRANCH  47  48
HETATM   48  C35 UNL     1      15.164  20.400  19.281  1.00  0.00     0.014 C 
HETATM   49  C36 UNL     1      13.775  20.471  18.578  1.00  0.00     0.006 C 
HETATM   50  C37 UNL     1      14.104  19.203  17.882  1.00  0.00     0.001 C 
HETATM   51  C38 UNL     1      15.555  19.511  18.083  1.00  0.00     0.006 C 
ENDBRANCH  47  48
ENDBRANCH  39  47
ENDBRANCH  36  39
ENDBRANCH  34  36
ENDBRANCH  28  34
ENDBRANCH   1  28
TORSDOF 18
ENDMDL
MODEL 3
REMARK VINA RESULT: -8.488420596      2.256      4.675
REMARK  18 active torsions:
REMARK  status: ('A' for Active; 'I' for Inactive)
REMARK    1  A    between atoms: C2_2  and  O2_4 
REMARK    2  A    between atoms: O2_4  and  C3_5 
REMARK    3  A    between atoms: C6_9  and  C7_10 
REMARK    4  A    between atoms: C7_10  and  C8_11 
REMARK    5  A    between atoms: C8_11  and  N1_12 
REMARK    6  A    between atoms: C8_11  and  C19_28 
REMARK       I    between atoms: N1_12  and  C9_14 
REMARK       I    between atoms: C9_14  and  N2_16 
REMARK    7  A    between atoms: N3_19  and  C12_20 
REMARK    8  A    between atoms: C12_20  and  C13_21 
REMARK    9  A    between atoms: C19_28  and  C20_29 
REMARK   10  A    between atoms: C19_28  and  C25_34 
REMARK   11  A    between atoms: C20_29  and  C21_30 
REMARK   12  A    between atoms: C25_34  and  C26_36 
REMARK   13  A    between atoms: C26_36  and  O7_37 
REMARK   14  A    between atoms: C26_36  and  N4_39 
REMARK   15  A    between atoms: N4_39  and  C27_40 
REMARK   16  A    between atoms: N4_39  and  C34_47 
REMARK   17  A    between atoms: C27_40  and  C28_41 
REMARK   18  A    between atoms: C34_47  and  C35_48 
ROOT
HETATM    1  C8  UNL     1      20.370  25.334  18.583  1.00  0.00     0.125 C 
ENDROOT
BRANCH   1   2
HETATM    2  C7  UNL     1      20.962  24.396  19.638  1.00  0.00     0.064 C 
BRANCH   2   3
HETATM    3  C6  UNL     1      21.416  25.097  20.882  1.00  0.00     0.153 C 
HETATM    4  C3  UNL     1      22.915  25.320  20.904  1.00  0.00     0.163 C 
HETATM    5  C4  UNL     1      23.070  26.792  21.145  1.00  0.00     0.061 C 
HETATM    6  C5  UNL     1      21.680  27.205  21.555  1.00  0.00     0.171 C 
HETATM    7  O3  UNL     1      20.818  26.333  20.948  1.00  0.00    -0.383 OA
BRANCH   4   8
HETATM    8  O2  UNL     1      23.575  24.883  19.747  1.00  0.00    -0.314 OA
BRANCH   8   9
HETATM    9  C2  UNL     1      24.940  24.672  19.699  1.00  0.00     0.255 C 
HETATM   10  C1  UNL     1      25.736  24.582  18.449  1.00  0.00     0.126 C 
HETATM   11  O1  UNL     1      25.547  24.551  20.796  1.00  0.00    -0.266 OA
ENDBRANCH   8   9
ENDBRANCH   4   8
ENDBRANCH   2   3
ENDBRANCH   1   2
BRANCH   1  12
HETATM   12  N1  UNL     1      21.488  25.660  17.744  1.00  0.00    -0.334 N 
HETATM   13  C9  UNL     1      21.788  27.008  17.395  1.00  0.00     0.319 C 
HETATM   14  O4  UNL     1      21.010  27.918  17.860  1.00  0.00    -0.247 OA
HETATM   15  N2  UNL     1      22.856  27.437  16.590  1.00  0.00    -0.328 N 
HETATM   16  C10 UNL     1      23.846  26.581  15.988  1.00  0.00     0.148 C 
HETATM   17  C18 UNL     1      22.972  28.873  16.328  1.00  0.00     0.172 C 
HETATM   18  C11 UNL     1      25.196  27.242  15.798  1.00  0.00     0.147 C 
HETATM   19  N3  UNL     1      25.075  28.596  15.264  1.00  0.00    -0.370 N 
HETATM   20  C17 UNL     1      23.749  28.968  15.024  1.00  0.00     0.083 C 
ATOM     21  H1  UNL     1      22.081  24.909  17.389  1.00  0.00     0.165 HD
BRANCH  19  22
HETATM   22  C12 UNL     1      26.028  29.406  15.864  1.00  0.00     0.070 C 
BRANCH  22  23
HETATM   23  C13 UNL     1      25.791  30.815  16.195  1.00  0.00     0.050 C 
HETATM   24  C14 UNL     1      26.129  31.245  17.595  1.00  0.00     0.038 C 
HETATM   25  C15 UNL     1      26.393  32.732  17.397  1.00  0.00     0.168 C 
HETATM   26  O5  UNL     1      25.925  33.038  16.117  1.00  0.00    -0.390 OA
HETATM   27  C16 UNL     1      26.291  31.900  15.336  1.00  0.00     0.177 C 
ENDBRANCH  22  23
ENDBRANCH  19  22
ENDBRANCH   1  12
BRANCH   1  28
HETATM   28  C19 UNL     1      19.181  24.739  17.882  1.00  0.00     0.012 C 
BRANCH  28  29
HETATM   29  C20 UNL     1      18.558  25.595  16.885  1.00  0.00    -0.005 C 
BRANCH  29  30
HETATM   30  C21 UNL     1      18.868  25.565  15.464  1.00  0.00    -0.033 C 
HETATM   31  C22 UNL     1      17.590  25.391  14.597  1.00  0.00     0.018 C 
HETATM   32  C23 UNL     1      19.668  26.572  14.776  1.00  0.00     0.018 C 
HETATM   33  C24 UNL     1      19.593  24.204  15.205  1.00  0.00     0.018 C 
ENDBRANCH  29  30
ENDBRANCH  28  29
BRANCH  28  34
HETATM   34  C25 UNL     1      18.412  24.016  18.896  1.00  0.00     0.216 C 
HETATM   35  O6  UNL     1      17.873  24.769  19.770  1.00  0.00    -0.288 OA
BRANCH  34  36
HETATM   36  C26 UNL     1      18.134  22.604  19.104  1.00  0.00     0.432 C 
BRANCH  36  37
HETATM   37  O7  UNL     1      19.015  21.828  18.302  1.00  0.00    -0.362 OA
ATOM     38  H7  UNL     1      18.931  22.094  17.395  1.00  0.00     0.212 HD
ENDBRANCH  36  37
BRANCH  36  39
HETATM   39  N4  UNL     1      16.780  22.176  18.575  1.00  0.00     0.125 N 
BRANCH  39  40
HETATM   40  C27 UNL     1      16.094  21.488  19.598  1.00  0.00     0.281 C 
BRANCH  40  41
HETATM   41  C28 UNL     1      15.078  20.498  19.109  1.00  0.00     0.014 C 
HETATM   42  C29 UNL     1      13.886  21.250  18.504  1.00  0.00     0.006 C 
HETATM   43  C30 UNL     1      13.165  20.231  17.635  1.00  0.00     0.000 C 
HETATM   44  C31 UNL     1      13.380  18.825  18.172  1.00  0.00     0.000 C 
HETATM   45  C32 UNL     1      13.393  18.829  19.698  1.00  0.00     0.000 C 
HETATM   46  C33 UNL     1      14.589  19.593  20.233  1.00  0.00     0.006 C 
ENDBRANCH  40  41
ENDBRANCH  39  40
BRANCH  39  47
HETATM   47  C34 UNL     1      17.044  21.497  17.350  1.00  0.00     0.281 C 
BRANCH  47  48
HETATM   48  C35 UNL     1      16.713  22.199  16.097  1.00  0.00     0.014 C 
HETATM   49  C36 UNL     1      15.718  21.372  15.228  1.00  0.00     0.006 C 
HETATM   50  C37 UNL     1      14.967  22.624  14.963  1.00  0.00     0.001 C 
HETATM   51  C38 UNL     1      15.539  23.192  16.224  1.00  0.00     0.006 C 
ENDBRANCH  47  48
ENDBRANCH  39  47
ENDBRANCH  36  39
ENDBRANCH  34  36
ENDBRANCH  28  34
ENDBRANCH   1  28
TORSDOF 18
ENDMDL
MODEL 4
REMARK VINA RESULT: -8.462357646      2.363      4.206
REMARK  18 active torsions:
REMARK  status: ('A' for Active; 'I' for Inactive)
REMARK    1  A    between atoms: C2_2  and  O2_4 
REMARK    2  A    between atoms: O2_4  and  C3_5 
REMARK    3  A    between atoms: C6_9  and  C7_10 
REMARK    4  A    between atoms: C7_10  and  C8_11 
REMARK    5  A    between atoms: C8_11  and  N1_12 
REMARK    6  A    between atoms: C8_11  and  C19_28 
REMARK       I    between atoms: N1_12  and  C9_14 
REMARK       I    between atoms: C9_14  and  N2_16 
REMARK    7  A    between atoms: N3_19  and  C12_20 
REMARK    8  A    between atoms: C12_20  and  C13_21 
REMARK    9  A    between atoms: C19_28  and  C20_29 
REMARK   10  A    between atoms: C19_28  and  C25_34 
REMARK   11  A    between atoms: C20_29  and  C21_30 
REMARK   12  A    between atoms: C25_34  and  C26_36 
REMARK   13  A    between atoms: C26_36  and  O7_37 
REMARK   14  A    between atoms: C26_36  and  N4_39 
REMARK   15  A    between atoms: N4_39  and  C27_40 
REMARK   16  A    between atoms: N4_39  and  C34_47 
REMARK   17  A    between atoms: C27_40  and  C28_41 
REMARK   18  A    between atoms: C34_47  and  C35_48 
ROOT
HETATM    1  C8  UNL     1      20.139  25.308  18.555  1.00  0.00     0.125 C 
ENDROOT
BRANCH   1   2
HETATM    2  C7  UNL     1      20.743  24.357  19.591  1.00  0.00     0.064 C 
BRANCH   2   3
HETATM    3  C6  UNL     1      21.169  25.034  20.858  1.00  0.00     0.153 C 
HETATM    4  C3  UNL     1      22.672  25.200  20.945  1.00  0.00     0.163 C 
HETATM    5  C4  UNL     1      22.872  26.665  21.200  1.00  0.00     0.061 C 
HETATM    6  C5  UNL     1      21.483  27.128  21.554  1.00  0.00     0.171 C 
HETATM    7  O3  UNL     1      20.615  26.291  20.905  1.00  0.00    -0.383 OA
BRANCH   4   8
HETATM    8  O2  UNL     1      23.365  24.743  19.814  1.00  0.00    -0.314 OA
BRANCH   8   9
HETATM    9  C2  UNL     1      24.736  24.856  19.681  1.00  0.00     0.255 C 
HETATM   10  C1  UNL     1      25.718  24.514  20.741  1.00  0.00     0.126 C 
HETATM   11  O1  UNL     1      25.179  25.277  18.579  1.00  0.00    -0.266 OA
ENDBRANCH   8   9
ENDBRANCH   4   8
ENDBRANCH   2   3
ENDBRANCH   1   2
BRANCH   1  12
HETATM   12  N1  UNL     1      21.241  25.622  17.691  1.00  0.00    -0.334 N 
HETATM   13  C9  UNL     1      21.569  26.970  17.365  1.00  0.00     0.319 C 
HETATM   14  O4  UNL     1      20.831  27.890  17.874  1.00  0.00    -0.247 OA
HETATM   15  N2  UNL     1      22.625  27.388  16.539  1.00  0.00    -0.328 N 
HETATM   16  C10 UNL     1      23.573  26.519  15.888  1.00  0.00     0.148 C 
HETATM   17  C18 UNL     1      22.775  28.825  16.307  1.00  0.00     0.172 C 
HETATM   18  C11 UNL     1      24.935  27.146  15.673  1.00  0.00     0.147 C 
HETATM   19  N3  UNL     1      24.837  28.515  15.175  1.00  0.00    -0.370 N 
HETATM   20  C17 UNL     1      23.517  28.930  14.983  1.00  0.00     0.083 C 
ATOM     21  H1  UNL     1      21.801  24.864  17.302  1.00  0.00     0.165 HD
BRANCH  19  22
HETATM   22  C12 UNL     1      25.830  29.284  15.765  1.00  0.00     0.070 C 
BRANCH  22  23
HETATM   23  C13 UNL     1      26.681  28.797  16.857  1.00  0.00     0.050 C 
HETATM   24  C14 UNL     1      28.161  28.778  16.601  1.00  0.00     0.038 C 
HETATM   25  C15 UNL     1      28.712  28.876  18.017  1.00  0.00     0.168 C 
HETATM   26  O5  UNL     1      27.628  28.647  18.868  1.00  0.00    -0.390 OA
HETATM   27  C16 UNL     1      26.541  29.314  18.228  1.00  0.00     0.177 C 
ENDBRANCH  22  23
ENDBRANCH  19  22
ENDBRANCH   1  12
BRANCH   1  28
HETATM   28  C19 UNL     1      18.925  24.733  17.880  1.00  0.00     0.012 C 
BRANCH  28  29
HETATM   29  C20 UNL     1      18.247  25.629  16.957  1.00  0.00    -0.005 C 
BRANCH  29  30
HETATM   30  C21 UNL     1      18.262  25.486  15.510  1.00  0.00    -0.033 C 
HETATM   31  C22 UNL     1      19.072  24.238  15.061  1.00  0.00     0.018 C 
HETATM   32  C23 UNL     1      17.068  25.495  14.671  1.00  0.00     0.018 C 
HETATM   33  C24 UNL     1      19.165  26.641  14.967  1.00  0.00     0.018 C 
ENDBRANCH  29  30
ENDBRANCH  28  29
BRANCH  28  34
HETATM   34  C25 UNL     1      18.212  23.950  18.890  1.00  0.00     0.216 C 
HETATM   35  O6  UNL     1      17.674  24.654  19.804  1.00  0.00    -0.288 OA
BRANCH  34  36
HETATM   36  C26 UNL     1      17.989  22.523  19.058  1.00  0.00     0.432 C 
BRANCH  36  37
HETATM   37  O7  UNL     1      19.000  21.804  18.362  1.00  0.00    -0.362 OA
ATOM     38  H7  UNL     1      19.210  21.012  18.842  1.00  0.00     0.212 HD
ENDBRANCH  36  37
BRANCH  36  39
HETATM   39  N4  UNL     1      16.732  22.028  18.371  1.00  0.00     0.125 N 
BRANCH  39  40
HETATM   40  C27 UNL     1      16.321  22.998  17.433  1.00  0.00     0.281 C 
BRANCH  40  41
HETATM   41  C28 UNL     1      15.342  22.498  16.411  1.00  0.00     0.014 C 
HETATM   42  C29 UNL     1      16.100  22.049  15.157  1.00  0.00     0.006 C 
HETATM   43  C30 UNL     1      15.135  21.149  14.402  1.00  0.00     0.000 C 
HETATM   44  C31 UNL     1      13.696  21.543  14.696  1.00  0.00     0.000 C 
HETATM   45  C32 UNL     1      13.570  23.059  14.823  1.00  0.00     0.000 C 
HETATM   46  C33 UNL     1      14.327  23.571  16.034  1.00  0.00     0.006 C 
ENDBRANCH  40  41
ENDBRANCH  39  40
BRANCH  39  47
HETATM   47  C34 UNL     1      15.838  21.668  19.422  1.00  0.00     0.281 C 
BRANCH  47  48
HETATM   48  C35 UNL     1      15.207  20.338  19.353  1.00  0.00     0.014 C 
HETATM   49  C36 UNL     1      13.819  20.404  18.646  1.00  0.00     0.006 C 
HETATM   50  C37 UNL     1      14.181  19.173  17.901  1.00  0.00     0.001 C 
HETATM   51  C38 UNL     1      15.624  19.508  18.121  1.00  0.00     0.006 C 
ENDBRANCH  47  48
ENDBRANCH  39  47
ENDBRANCH  36  39
ENDBRANCH  34  36
ENDBRANCH  28  34
ENDBRANCH   1  28
TORSDOF 18
ENDMDL
MODEL 5
REMARK VINA RESULT: -8.432546246      3.931     12.231
REMARK  18 active torsions:
REMARK  status: ('A' for Active; 'I' for Inactive)
REMARK    1  A    between atoms: C2_2  and  O2_4 
REMARK    2  A    between atoms: O2_4  and  C3_5 
REMARK    3  A    between atoms: C6_9  and  C7_10 
REMARK    4  A    between atoms: C7_10  and  C8_11 
REMARK    5  A    between atoms: C8_11  and  N1_12 
REMARK    6  A    between atoms: C8_11  and  C19_28 
REMARK       I    between atoms: N1_12  and  C9_14 
REMARK       I    between atoms: C9_14  and  N2_16 
REMARK    7  A    between atoms: N3_19  and  C12_20 
REMARK    8  A    between atoms: C12_20  and  C13_21 
REMARK    9  A    between atoms: C19_28  and  C20_29 
REMARK   10  A    between atoms: C19_28  and  C25_34 
REMARK   11  A    between atoms: C20_29  and  C21_30 
REMARK   12  A    between atoms: C25_34  and  C26_36 
REMARK   13  A    between atoms: C26_36  and  O7_37 
REMARK   14  A    between atoms: C26_36  and  N4_39 
REMARK   15  A    between atoms: N4_39  and  C27_40 
REMARK   16  A    between atoms: N4_39  and  C34_47 
REMARK   17  A    between atoms: C27_40  and  C28_41 
REMARK   18  A    between atoms: C34_47  and  C35_48 
ROOT
HETATM    1  C8  UNL     1      12.686  20.041  15.626  1.00  0.00     0.125 C 
ENDROOT
BRANCH   1   2
HETATM    2  C7  UNL     1      13.101  19.960  14.155  1.00  0.00     0.064 C 
BRANCH   2   3
HETATM    3  C6  UNL     1      12.027  20.384  13.200  1.00  0.00     0.153 C 
HETATM    4  C3  UNL     1      11.367  19.206  12.514  1.00  0.00     0.163 C 
HETATM    5  C4  UNL     1       9.902  19.392  12.777  1.00  0.00     0.061 C 
HETATM    6  C5  UNL     1       9.841  20.805  13.297  1.00  0.00     0.171 C 
HETATM    7  O3  UNL     1      11.048  21.055  13.893  1.00  0.00    -0.383 OA
BRANCH   4   8
HETATM    8  O2  UNL     1      11.844  17.956  12.937  1.00  0.00    -0.314 OA
BRANCH   8   9
HETATM    9  C2  UNL     1      11.624  16.792  12.227  1.00  0.00     0.255 C 
HETATM   10  C1  UNL     1      11.450  15.450  12.839  1.00  0.00     0.126 C 
HETATM   11  O1  UNL     1      11.566  16.881  10.971  1.00  0.00    -0.266 OA
ENDBRANCH   8   9
ENDBRANCH   4   8
ENDBRANCH   2   3
ENDBRANCH   1   2
BRANCH   1  12
HETATM   12  N1  UNL     1      12.342  18.689  15.962  1.00  0.00    -0.334 N 
HETATM   13  C9  UNL     1      11.012  18.330  16.327  1.00  0.00     0.319 C 
HETATM   14  O4  UNL     1      10.138  19.270  16.347  1.00  0.00    -0.247 OA
HETATM   15  N2  UNL     1      10.566  17.042  16.667  1.00  0.00    -0.328 N 
HETATM   16  C10 UNL     1      11.380  15.853  16.689  1.00  0.00     0.148 C 
HETATM   17  C18 UNL     1       9.159  16.889  17.040  1.00  0.00     0.172 C 
HETATM   18  C11 UNL     1      10.617  14.580  16.388  1.00  0.00     0.147 C 
HETATM   19  N3  UNL     1       9.340  14.524  17.095  1.00  0.00    -0.370 N 
HETATM   20  C17 UNL     1       9.120  15.640  17.906  1.00  0.00     0.083 C 
ATOM     21  H1  UNL     1      13.064  17.969  15.940  1.00  0.00     0.165 HD
BRANCH  19  22
HETATM   22  C12 UNL     1       8.388  13.950  16.264  1.00  0.00     0.070 C 
BRANCH  22  23
HETATM   23  C13 UNL     1       8.458  14.010  14.800  1.00  0.00     0.050 C 
HETATM   24  C14 UNL     1       8.290  12.711  14.063  1.00  0.00     0.038 C 
HETATM   25  C15 UNL     1       7.774  13.195  12.715  1.00  0.00     0.168 C 
HETATM   26  O5  UNL     1       7.975  14.577  12.700  1.00  0.00    -0.390 OA
HETATM   27  C16 UNL     1       7.666  14.984  14.033  1.00  0.00     0.177 C 
ENDBRANCH  22  23
ENDBRANCH  19  22
ENDBRANCH   1  12
BRANCH   1  28
HETATM   28  C19 UNL     1      13.739  20.678  16.489  1.00  0.00     0.012 C 
BRANCH  28  29
HETATM   29  C20 UNL     1      13.466  20.655  17.917  1.00  0.00    -0.005 C 
BRANCH  29  30
HETATM   30  C21 UNL     1      14.184  19.833  18.880  1.00  0.00    -0.033 C 
HETATM   31  C22 UNL     1      15.260  18.947  18.193  1.00  0.00     0.018 C 
HETATM   32  C23 UNL     1      14.819  20.349  20.087  1.00  0.00     0.018 C 
HETATM   33  C24 UNL     1      13.169  18.749  19.368  1.00  0.00     0.018 C 
ENDBRANCH  29  30
ENDBRANCH  28  29
BRANCH  28  34
HETATM   34  C25 UNL     1      14.186  21.884  15.789  1.00  0.00     0.216 C 
HETATM   35  O6  UNL     1      13.266  22.743  15.601  1.00  0.00    -0.288 OA
BRANCH  34  36
HETATM   36  C26 UNL     1      15.477  22.301  15.266  1.00  0.00     0.432 C 
BRANCH  36  37
HETATM   37  O7  UNL     1      16.306  21.158  15.092  1.00  0.00    -0.362 OA
ATOM     38  H7  UNL     1      16.756  20.970  15.907  1.00  0.00     0.212 HD
ENDBRANCH  36  37
BRANCH  36  39
HETATM   39  N4  UNL     1      16.285  23.120  16.251  1.00  0.00     0.125 N 
BRANCH  39  40
HETATM   40  C27 UNL     1      16.508  24.399  15.697  1.00  0.00     0.281 C 
BRANCH  40  41
HETATM   41  C28 UNL     1      17.943  24.836  15.700  1.00  0.00     0.014 C 
HETATM   42  C29 UNL     1      18.214  25.683  16.949  1.00  0.00     0.006 C 
HETATM   43  C30 UNL     1      19.725  25.677  17.121  1.00  0.00     0.000 C 
HETATM   44  C31 UNL     1      20.414  25.506  15.777  1.00  0.00     0.000 C 
HETATM   45  C32 UNL     1      19.655  26.255  14.686  1.00  0.00     0.000 C 
HETATM   46  C33 UNL     1      18.286  25.646  14.455  1.00  0.00     0.006 C 
ENDBRANCH  40  41
ENDBRANCH  39  40
BRANCH  39  47
HETATM   47  C34 UNL     1      17.412  22.313  16.587  1.00  0.00     0.281 C 
BRANCH  47  48
HETATM   48  C35 UNL     1      17.559  21.903  17.995  1.00  0.00     0.014 C 
HETATM   49  C36 UNL     1      18.912  22.397  18.592  1.00  0.00     0.006 C 
HETATM   50  C37 UNL     1      18.182  22.795  19.821  1.00  0.00     0.001 C 
HETATM   51  C38 UNL     1      16.930  22.885  19.005  1.00  0.00     0.006 C 
ENDBRANCH  47  48
ENDBRANCH  39  47
ENDBRANCH  36  39
ENDBRANCH  34  36
ENDBRANCH  28  34
ENDBRANCH   1  28
TORSDOF 18
ENDMDL
