MODEL 1
REMARK VINA RESULT: -6.348412914      0.000      0.000
REMARK  4 active torsions:
REMARK  status: ('A' for Active; 'I' for Inactive)
REMARK    1  A    between atoms: C4_4  and  N1_5 
REMARK    2  A    between atoms: N1_5  and  N2_7 
REMARK    3  A    between atoms: N3_9  and  N4_11 
REMARK    4  A    between atoms: N4_11  and  N5_13 
ROOT
HETATM    1  N1  UNL     1     -48.828 -63.965 -41.801  1.00  0.00    -0.269 N 
ATOM      2  H1  UNL     1     -49.119 -64.313 -40.887  1.00  0.00     0.190 HD
ENDROOT
BRANCH   1   3
HETATM    3  C4  UNL     1     -49.464 -64.321 -42.885  1.00  0.00     0.137 A 
HETATM    4  C3  UNL     1     -50.610 -63.760 -43.409  1.00  0.00     0.077 A 
HETATM    5  C2  UNL     1     -50.943 -64.438 -44.562  1.00  0.00     0.025 A 
HETATM    6  C1  UNL     1     -52.114 -64.178 -45.472  1.00  0.00     0.070 C 
HETATM    7  N7  UNL     1     -50.009 -65.390 -44.720  1.00  0.00    -0.304 N 
HETATM    8  N6  UNL     1     -49.136 -65.318 -43.727  1.00  0.00    -0.284 N 
ATOM      9  H7  UNL     1     -49.977 -66.063 -45.486  1.00  0.00     0.186 HD
ATOM     10  H6  UNL     1     -48.329 -65.932 -43.615  1.00  0.00     0.188 HD
ENDBRANCH   1   3
BRANCH   1  11
HETATM   11  N2  UNL     1     -47.740 -63.095 -41.922  1.00  0.00    -0.225 N 
HETATM   12  N3  UNL     1     -47.881 -61.859 -42.062  1.00  0.00    -0.214 N 
ATOM     13  H3  UNL     1     -47.068 -61.249 -42.149  1.00  0.00     0.211 HD
ATOM     14  H2  UNL     1     -46.796 -63.481 -41.895  1.00  0.00     0.210 HD
BRANCH  12  15
HETATM   15  N4  UNL     1     -49.166 -61.334 -42.099  1.00  0.00    -0.234 N 
ATOM     16  H4  UNL     1     -49.960 -61.933 -42.329  1.00  0.00     0.209 HD
BRANCH  15  17
HETATM   17  N5  UNL     1     -49.362 -59.989 -41.821  1.00  0.00    -0.330 N 
ATOM     18  H52 UNL     1     -48.652 -59.312 -42.103  1.00  0.00     0.178 HD
ATOM     19  H51 UNL     1     -50.212 -59.695 -41.340  1.00  0.00     0.178 HD
ENDBRANCH  15  17
ENDBRANCH  12  15
ENDBRANCH   1  11
TORSDOF 4
ENDMDL
MODEL 2
REMARK VINA RESULT: -5.563453795      2.103      4.279
REMARK  4 active torsions:
REMARK  status: ('A' for Active; 'I' for Inactive)
REMARK    1  A    between atoms: C4_4  and  N1_5 
REMARK    2  A    between atoms: N1_5  and  N2_7 
REMARK    3  A    between atoms: N3_9  and  N4_11 
REMARK    4  A    between atoms: N4_11  and  N5_13 
ROOT
HETATM    1  N1  UNL     1     -50.068 -64.902 -43.066  1.00  0.00    -0.269 N 
ATOM      2  H1  UNL     1     -50.500 -65.497 -42.359  1.00  0.00     0.190 HD
ENDROOT
BRANCH   1   3
HETATM    3  C4  UNL     1     -49.498 -63.775 -42.733  1.00  0.00     0.137 A 
HETATM    4  C3  UNL     1     -50.050 -62.511 -42.771  1.00  0.00     0.077 A 
HETATM    5  C2  UNL     1     -49.107 -61.607 -42.336  1.00  0.00     0.025 A 
HETATM    6  C1  UNL     1     -49.258 -60.114 -42.207  1.00  0.00     0.070 C 
HETATM    7  N7  UNL     1     -48.008 -62.322 -42.043  1.00  0.00    -0.304 N 
HETATM    8  N6  UNL     1     -48.243 -63.604 -42.279  1.00  0.00    -0.284 N 
ATOM      9  H7  UNL     1     -47.129 -61.939 -41.694  1.00  0.00     0.186 HD
ATOM     10  H6  UNL     1     -47.568 -64.355 -42.138  1.00  0.00     0.188 HD
ENDBRANCH   1   3
BRANCH   1  11
HETATM   11  N2  UNL     1     -50.072 -65.274 -44.414  1.00  0.00    -0.225 N 
HETATM   12  N3  UNL     1     -51.006 -64.972 -45.191  1.00  0.00    -0.214 N 
ATOM     13  H3  UNL     1     -50.981 -65.257 -46.170  1.00  0.00     0.211 HD
ATOM     14  H2  UNL     1     -49.285 -65.811 -44.778  1.00  0.00     0.210 HD
BRANCH  12  15
HETATM   15  N4  UNL     1     -52.077 -64.240 -44.695  1.00  0.00    -0.234 N 
ATOM     16  H4  UNL     1     -51.927 -63.539 -43.969  1.00  0.00     0.209 HD
BRANCH  15  17
HETATM   17  N5  UNL     1     -53.351 -64.471 -45.193  1.00  0.00    -0.330 N 
ATOM     18  H52 UNL     1     -53.696 -65.429 -45.257  1.00  0.00     0.178 HD
ATOM     19  H51 UNL     1     -53.924 -63.681 -45.489  1.00  0.00     0.178 HD
ENDBRANCH  15  17
ENDBRANCH  12  15
ENDBRANCH   1  11
TORSDOF 4
ENDMDL
MODEL 3
REMARK VINA RESULT: -5.361900403      1.115      1.253
REMARK  4 active torsions:
REMARK  status: ('A' for Active; 'I' for Inactive)
REMARK    1  A    between atoms: C4_4  and  N1_5 
REMARK    2  A    between atoms: N1_5  and  N2_7 
REMARK    3  A    between atoms: N3_9  and  N4_11 
REMARK    4  A    between atoms: N4_11  and  N5_13 
ROOT
HETATM    1  N1  UNL     1     -47.993 -64.311 -43.521  1.00  0.00    -0.269 N 
ATOM      2  H1  UNL     1     -47.345 -64.602 -44.253  1.00  0.00     0.190 HD
ENDROOT
BRANCH   1   3
HETATM    3  C4  UNL     1     -49.284 -64.362 -43.712  1.00  0.00     0.137 A 
HETATM    4  C3  UNL     1     -49.974 -64.065 -44.869  1.00  0.00     0.077 A 
HETATM    5  C2  UNL     1     -51.320 -64.250 -44.637  1.00  0.00     0.025 A 
HETATM    6  C1  UNL     1     -52.453 -64.048 -45.608  1.00  0.00     0.070 C 
HETATM    7  N7  UNL     1     -51.429 -64.651 -43.360  1.00  0.00    -0.304 N 
HETATM    8  N6  UNL     1     -50.223 -64.716 -42.816  1.00  0.00    -0.284 N 
ATOM      9  H7  UNL     1     -52.304 -64.872 -42.883  1.00  0.00     0.186 HD
ATOM     10  H6  UNL     1     -50.033 -64.995 -41.853  1.00  0.00     0.188 HD
ENDBRANCH   1   3
BRANCH   1  11
HETATM   11  N2  UNL     1     -47.519 -63.849 -42.288  1.00  0.00    -0.225 N 
HETATM   12  N3  UNL     1     -47.836 -62.731 -41.824  1.00  0.00    -0.214 N 
ATOM     13  H3  UNL     1     -47.474 -62.421 -40.922  1.00  0.00     0.211 HD
ATOM     14  H2  UNL     1     -46.892 -64.445 -41.748  1.00  0.00     0.210 HD
BRANCH  12  15
HETATM   15  N4  UNL     1     -48.690 -61.920 -42.560  1.00  0.00    -0.234 N 
ATOM     16  H4  UNL     1     -48.927 -62.163 -43.523  1.00  0.00     0.209 HD
BRANCH  15  17
HETATM   17  N5  UNL     1     -49.219 -60.778 -41.976  1.00  0.00    -0.330 N 
ATOM     18  H52 UNL     1     -49.967 -60.274 -42.453  1.00  0.00     0.178 HD
ATOM     19  H51 UNL     1     -48.853 -60.457 -41.080  1.00  0.00     0.178 HD
ENDBRANCH  15  17
ENDBRANCH  12  15
ENDBRANCH   1  11
TORSDOF 4
ENDMDL
MODEL 4
REMARK VINA RESULT: -5.143089072      8.154      8.931
REMARK  4 active torsions:
REMARK  status: ('A' for Active; 'I' for Inactive)
REMARK    1  A    between atoms: C4_4  and  N1_5 
REMARK    2  A    between atoms: N1_5  and  N2_7 
REMARK    3  A    between atoms: N3_9  and  N4_11 
REMARK    4  A    between atoms: N4_11  and  N5_13 
ROOT
HETATM    1  N1  UNL     1     -55.775 -62.544 -38.268  1.00  0.00    -0.269 N 
ATOM      2  H1  UNL     1     -55.216 -61.862 -38.781  1.00  0.00     0.190 HD
ENDROOT
BRANCH   1   3
HETATM    3  C4  UNL     1     -55.228 -63.624 -37.779  1.00  0.00     0.137 A 
HETATM    4  C3  UNL     1     -54.156 -63.705 -36.915  1.00  0.00     0.077 A 
HETATM    5  C2  UNL     1     -53.903 -65.034 -36.651  1.00  0.00     0.025 A 
HETATM    6  C1  UNL     1     -52.830 -65.604 -35.762  1.00  0.00     0.070 C 
HETATM    7  N7  UNL     1     -54.812 -65.734 -37.350  1.00  0.00    -0.304 N 
HETATM    8  N6  UNL     1     -55.594 -64.897 -38.016  1.00  0.00    -0.284 N 
ATOM      9  H7  UNL     1     -54.889 -66.751 -37.365  1.00  0.00     0.186 HD
ATOM     10  H6  UNL     1     -56.364 -65.178 -38.622  1.00  0.00     0.188 HD
ENDBRANCH   1   3
BRANCH   1  11
HETATM   11  N2  UNL     1     -57.146 -62.344 -38.072  1.00  0.00    -0.225 N 
HETATM   12  N3  UNL     1     -57.600 -61.328 -37.498  1.00  0.00    -0.214 N 
ATOM     13  H3  UNL     1     -58.605 -61.210 -37.369  1.00  0.00     0.211 HD
ATOM     14  H2  UNL     1     -57.799 -63.052 -38.408  1.00  0.00     0.210 HD
BRANCH  12  15
HETATM   15  N4  UNL     1     -56.711 -60.365 -37.042  1.00  0.00    -0.234 N 
ATOM     16  H4  UNL     1     -55.940 -60.628 -36.426  1.00  0.00     0.209 HD
BRANCH  15  17
HETATM   17  N5  UNL     1     -56.878 -59.043 -37.428  1.00  0.00    -0.330 N 
ATOM     18  H52 UNL     1     -56.750 -58.790 -38.409  1.00  0.00     0.178 HD
ATOM     19  H51 UNL     1     -57.125 -58.343 -36.729  1.00  0.00     0.178 HD
ENDBRANCH  15  17
ENDBRANCH  12  15
ENDBRANCH   1  11
TORSDOF 4
ENDMDL
MODEL 5
REMARK VINA RESULT: -4.845589119      1.575      2.563
REMARK  4 active torsions:
REMARK  status: ('A' for Active; 'I' for Inactive)
REMARK    1  A    between atoms: C4_4  and  N1_5 
REMARK    2  A    between atoms: N1_5  and  N2_7 
REMARK    3  A    between atoms: N3_9  and  N4_11 
REMARK    4  A    between atoms: N4_11  and  N5_13 
ROOT
HETATM    1  N1  UNL     1     -49.851 -62.458 -41.886  1.00  0.00    -0.269 N 
ATOM      2  H1  UNL     1     -50.240 -62.741 -40.986  1.00  0.00     0.190 HD
ENDROOT
BRANCH   1   3
HETATM    3  C4  UNL     1     -50.488 -62.711 -42.998  1.00  0.00     0.137 A 
HETATM    4  C3  UNL     1     -50.803 -63.948 -43.523  1.00  0.00     0.077 A 
HETATM    5  C2  UNL     1     -51.477 -63.762 -44.710  1.00  0.00     0.025 A 
HETATM    6  C1  UNL     1     -52.018 -64.822 -45.633  1.00  0.00     0.070 C 
HETATM    7  N7  UNL     1     -51.562 -62.433 -44.890  1.00  0.00    -0.304 N 
HETATM    8  N6  UNL     1     -50.975 -61.815 -43.875  1.00  0.00    -0.284 N 
ATOM      9  H7  UNL     1     -52.007 -61.972 -45.683  1.00  0.00     0.186 HD
ATOM     10  H6  UNL     1     -50.903 -60.803 -43.774  1.00  0.00     0.188 HD
ENDBRANCH   1   3
BRANCH   1  11
HETATM   11  N2  UNL     1     -48.624 -61.790 -41.958  1.00  0.00    -0.225 N 
HETATM   12  N3  UNL     1     -47.531 -62.398 -42.011  1.00  0.00    -0.214 N 
ATOM     13  H3  UNL     1     -46.652 -61.883 -42.063  1.00  0.00     0.211 HD
ATOM     14  H2  UNL     1     -48.620 -60.770 -41.968  1.00  0.00     0.210 HD
BRANCH  12  15
HETATM   15  N4  UNL     1     -47.538 -63.786 -41.998  1.00  0.00    -0.234 N 
ATOM     16  H4  UNL     1     -47.574 -64.292 -41.112  1.00  0.00     0.209 HD
BRANCH  15  17
HETATM   17  N5  UNL     1     -47.496 -64.480 -43.199  1.00  0.00    -0.330 N 
ATOM     18  H52 UNL     1     -47.059 -64.045 -44.012  1.00  0.00     0.178 HD
ATOM     19  H51 UNL     1     -47.901 -65.415 -43.253  1.00  0.00     0.178 HD
ENDBRANCH  15  17
ENDBRANCH  12  15
ENDBRANCH   1  11
TORSDOF 4
ENDMDL
