MODEL 1
REMARK VINA RESULT: -8.102586659      0.000      0.000
REMARK  7 active torsions:
REMARK  status: ('A' for Active; 'I' for Inactive)
REMARK    1  A    between atoms: C2_2  and  C3_3 
REMARK    2  A    between atoms: C3_3  and  C4_4 
REMARK    3  A    between atoms: C4_4  and  N1_6 
REMARK    4  A    between atoms: N1_6  and  C6_8 
REMARK    5  A    between atoms: C7_12  and  C8_13 
REMARK    6  A    between atoms: C11_18  and  N5_19 
REMARK    7  A    between atoms: N5_19  and  C12_21 
ROOT
HETATM    1  C6  UNL     1      24.533   7.982  -5.243  1.00  0.00     0.159 A 
HETATM    2  N2  UNL     1      25.851   8.351  -5.050  1.00  0.00    -0.276 N 
ATOM      3  H2  UNL     1      26.572   7.636  -5.142  1.00  0.00     0.189 HD
HETATM    4  N3  UNL     1      26.221   9.571  -4.756  1.00  0.00    -0.249 N 
HETATM    5  C7  UNL     1      27.438  10.085  -4.540  1.00  0.00     0.091 A 
HETATM    6  C18 UNL     1      27.325  11.426  -4.261  1.00  0.00     0.037 A 
HETATM    7  C19 UNL     1      25.998  11.772  -4.302  1.00  0.00     0.037 A 
HETATM    8  C20 UNL     1      25.336  10.583  -4.615  1.00  0.00     0.099 A 
HETATM    9  C21 UNL     1      24.005  10.289  -4.793  1.00  0.00     0.187 A 
HETATM   10  F1  UNL     1      23.106  11.282  -4.658  1.00  0.00    -0.200 F 
HETATM   11  C22 UNL     1      23.614   8.986  -5.107  1.00  0.00     0.202 A 
HETATM   12  F2  UNL     1      22.277   8.772  -5.269  1.00  0.00    -0.199 F 
ENDROOT
BRANCH   5  13
HETATM   13  C8  UNL     1      28.744   9.375  -4.578  1.00  0.00     0.105 A 
HETATM   14  N4  UNL     1      29.825   9.645  -5.245  1.00  0.00    -0.350 N 
HETATM   15  C9  UNL     1      30.893   8.902  -5.154  1.00  0.00     0.040 A 
ATOM     16  H4  UNL     1      29.839  10.461  -5.858  1.00  0.00     0.166 HD
HETATM   17  C10 UNL     1      32.123   9.237  -5.986  1.00  0.00     0.071 C 
HETATM   18  C11 UNL     1      30.845   7.823  -4.329  1.00  0.00     0.094 A 
HETATM   19  S1  UNL     1      29.199   7.972  -3.728  1.00  0.00    -0.051 SA
BRANCH  18  20
HETATM   20  N5  UNL     1      31.761   6.819  -3.929  1.00  0.00    -0.378 N 
ATOM     21  H5  UNL     1      32.456   7.136  -3.254  1.00  0.00     0.160 HD
BRANCH  20  22
HETATM   22  C12 UNL     1      31.891   5.455  -4.293  1.00  0.00     0.082 C 
HETATM   23  C13 UNL     1      31.501   4.500  -3.188  1.00  0.00     0.025 C 
HETATM   24  C14 UNL     1      30.011   4.240  -3.120  1.00  0.00     0.002 C 
HETATM   25  C15 UNL     1      29.612   3.593  -4.431  1.00  0.00     0.000 C 
HETATM   26  C16 UNL     1      29.788   4.686  -5.476  1.00  0.00     0.002 C 
HETATM   27  C17 UNL     1      31.197   5.129  -5.604  1.00  0.00     0.025 C 
ENDBRANCH  20  22
ENDBRANCH  18  20
ENDBRANCH   5  13
BRANCH   1  28
HETATM   28  N1  UNL     1      24.261   6.823  -5.515  1.00  0.00    -0.368 N 
ATOM     29  H1  UNL     1      23.347   6.862  -5.967  1.00  0.00     0.161 HD
BRANCH  28  30
HETATM   30  C4  UNL     1      24.596   5.506  -5.502  1.00  0.00     0.079 C 
HETATM   31  C5  UNL     1      25.716   5.033  -6.408  1.00  0.00     0.032 C 
BRANCH  30  32
HETATM   32  C3  UNL     1      24.804   4.983  -4.086  1.00  0.00     0.024 C 
BRANCH  32  33
HETATM   33  C2  UNL     1      26.279   4.981  -3.729  1.00  0.00    -0.003 C 
HETATM   34  C1  UNL     1      26.548   5.528  -2.362  1.00  0.00     0.005 C 
ENDBRANCH  32  33
ENDBRANCH  30  32
ENDBRANCH  28  30
ENDBRANCH   1  28
TORSDOF 7
ENDMDL
MODEL 2
REMARK VINA RESULT: -7.742672212      3.598      6.827
REMARK  7 active torsions:
REMARK  status: ('A' for Active; 'I' for Inactive)
REMARK    1  A    between atoms: C2_2  and  C3_3 
REMARK    2  A    between atoms: C3_3  and  C4_4 
REMARK    3  A    between atoms: C4_4  and  N1_6 
REMARK    4  A    between atoms: N1_6  and  C6_8 
REMARK    5  A    between atoms: C7_12  and  C8_13 
REMARK    6  A    between atoms: C11_18  and  N5_19 
REMARK    7  A    between atoms: N5_19  and  C12_21 
ROOT
HETATM    1  C6  UNL     1      31.249   5.046  -5.854  1.00  0.00     0.159 A 
HETATM    2  N2  UNL     1      30.627   6.179  -5.368  1.00  0.00    -0.276 N 
ATOM      3  H2  UNL     1      29.714   6.078  -4.925  1.00  0.00     0.189 HD
HETATM    4  N3  UNL     1      31.148   7.377  -5.446  1.00  0.00    -0.249 N 
HETATM    5  C7  UNL     1      30.682   8.560  -5.030  1.00  0.00     0.091 A 
HETATM    6  C18 UNL     1      31.591   9.545  -5.336  1.00  0.00     0.037 A 
HETATM    7  C19 UNL     1      32.666   8.967  -5.964  1.00  0.00     0.037 A 
HETATM    8  C20 UNL     1      32.353   7.607  -6.015  1.00  0.00     0.099 A 
HETATM    9  C21 UNL     1      33.030   6.524  -6.522  1.00  0.00     0.187 A 
HETATM   10  F1  UNL     1      34.232   6.730  -7.093  1.00  0.00    -0.200 F 
HETATM   11  C22 UNL     1      32.470   5.248  -6.437  1.00  0.00     0.202 A 
HETATM   12  F2  UNL     1      33.202   4.224  -6.961  1.00  0.00    -0.199 F 
ENDROOT
BRANCH   5  13
HETATM   13  C8  UNL     1      29.393   8.838  -4.341  1.00  0.00     0.105 A 
HETATM   14  N4  UNL     1      28.982   8.488  -3.160  1.00  0.00    -0.350 N 
HETATM   15  C9  UNL     1      27.804   8.827  -2.714  1.00  0.00     0.040 A 
ATOM     16  H4  UNL     1      29.597   7.933  -2.565  1.00  0.00     0.166 HD
HETATM   17  C10 UNL     1      27.352   8.360  -1.337  1.00  0.00     0.071 C 
HETATM   18  C11 UNL     1      27.007   9.568  -3.528  1.00  0.00     0.094 A 
HETATM   19  S1  UNL     1      28.061   9.722  -4.927  1.00  0.00    -0.051 SA
BRANCH  18  20
HETATM   20  N5  UNL     1      25.722  10.154  -3.419  1.00  0.00    -0.378 N 
ATOM     21  H5  UNL     1      25.731  11.111  -3.067  1.00  0.00     0.160 HD
BRANCH  20  22
HETATM   22  C12 UNL     1      24.426   9.659  -3.709  1.00  0.00     0.082 C 
HETATM   23  C13 UNL     1      24.274   9.171  -5.132  1.00  0.00     0.025 C 
HETATM   24  C14 UNL     1      24.757   7.750  -5.331  1.00  0.00     0.002 C 
HETATM   25  C15 UNL     1      23.894   6.860  -4.460  1.00  0.00     0.000 C 
HETATM   26  C16 UNL     1      24.275   7.223  -3.031  1.00  0.00     0.002 C 
HETATM   27  C17 UNL     1      23.951   8.631  -2.697  1.00  0.00     0.025 C 
ENDBRANCH  20  22
ENDBRANCH  18  20
ENDBRANCH   5  13
BRANCH   1  28
HETATM   28  N1  UNL     1      30.702   3.959  -5.748  1.00  0.00    -0.368 N 
ATOM     29  H1  UNL     1      30.605   3.614  -6.703  1.00  0.00     0.161 HD
BRANCH  28  30
HETATM   30  C4  UNL     1      30.162   2.991  -4.962  1.00  0.00     0.079 C 
HETATM   31  C5  UNL     1      30.848   2.652  -3.653  1.00  0.00     0.032 C 
BRANCH  30  32
HETATM   32  C3  UNL     1      28.670   3.204  -4.737  1.00  0.00     0.024 C 
BRANCH  32  33
HETATM   33  C2  UNL     1      28.426   3.967  -3.447  1.00  0.00    -0.003 C 
HETATM   34  C1  UNL     1      27.558   5.170  -3.638  1.00  0.00     0.005 C 
ENDBRANCH  32  33
ENDBRANCH  30  32
ENDBRANCH  28  30
ENDBRANCH   1  28
TORSDOF 7
ENDMDL
MODEL 3
REMARK VINA RESULT: -7.722577548      1.399      2.140
REMARK  7 active torsions:
REMARK  status: ('A' for Active; 'I' for Inactive)
REMARK    1  A    between atoms: C2_2  and  C3_3 
REMARK    2  A    between atoms: C3_3  and  C4_4 
REMARK    3  A    between atoms: C4_4  and  N1_6 
REMARK    4  A    between atoms: N1_6  and  C6_8 
REMARK    5  A    between atoms: C7_12  and  C8_13 
REMARK    6  A    between atoms: C11_18  and  N5_19 
REMARK    7  A    between atoms: N5_19  and  C12_21 
ROOT
HETATM    1  C6  UNL     1      24.710   7.805  -5.388  1.00  0.00     0.159 A 
HETATM    2  N2  UNL     1      26.020   8.227  -5.265  1.00  0.00    -0.276 N 
ATOM      3  H2  UNL     1      26.764   7.558  -5.464  1.00  0.00     0.189 HD
HETATM    4  N3  UNL     1      26.356   9.440  -4.907  1.00  0.00    -0.249 N 
HETATM    5  C7  UNL     1      27.560   9.999  -4.744  1.00  0.00     0.091 A 
HETATM    6  C18 UNL     1      27.408  11.309  -4.356  1.00  0.00     0.037 A 
HETATM    7  C19 UNL     1      26.067  11.587  -4.273  1.00  0.00     0.037 A 
HETATM    8  C20 UNL     1      25.438  10.392  -4.626  1.00  0.00     0.099 A 
HETATM    9  C21 UNL     1      24.113  10.043  -4.727  1.00  0.00     0.187 A 
HETATM   10  F1  UNL     1      23.182  10.976  -4.451  1.00  0.00    -0.200 F 
HETATM   11  C22 UNL     1      23.759   8.748  -5.109  1.00  0.00     0.202 A 
HETATM   12  F2  UNL     1      22.425   8.477  -5.187  1.00  0.00    -0.199 F 
ENDROOT
BRANCH   5  13
HETATM   13  C8  UNL     1      28.891   9.362  -4.932  1.00  0.00     0.105 A 
HETATM   14  N4  UNL     1      30.043   9.894  -5.207  1.00  0.00    -0.350 N 
HETATM   15  C9  UNL     1      31.121   9.172  -5.337  1.00  0.00     0.040 A 
ATOM     16  H4  UNL     1      30.106  10.906  -5.326  1.00  0.00     0.166 HD
HETATM   17  C10 UNL     1      32.441   9.838  -5.699  1.00  0.00     0.071 C 
HETATM   18  C11 UNL     1      31.006   7.827  -5.172  1.00  0.00     0.094 A 
HETATM   19  S1  UNL     1      29.285   7.709  -4.831  1.00  0.00    -0.051 SA
BRANCH  18  20
HETATM   20  N5  UNL     1      31.901   6.730  -5.190  1.00  0.00    -0.378 N 
ATOM     21  H5  UNL     1      32.382   6.573  -4.305  1.00  0.00     0.160 HD
BRANCH  20  22
HETATM   22  C12 UNL     1      32.252   5.809  -6.209  1.00  0.00     0.082 C 
HETATM   23  C13 UNL     1      33.020   6.439  -7.349  1.00  0.00     0.025 C 
HETATM   24  C14 UNL     1      34.505   6.556  -7.077  1.00  0.00     0.002 C 
HETATM   25  C15 UNL     1      35.038   5.148  -6.902  1.00  0.00     0.000 C 
HETATM   26  C16 UNL     1      34.423   4.654  -5.600  1.00  0.00     0.002 C 
HETATM   27  C17 UNL     1      32.944   4.570  -5.667  1.00  0.00     0.025 C 
ENDBRANCH  20  22
ENDBRANCH  18  20
ENDBRANCH   5  13
BRANCH   1  28
HETATM   28  N1  UNL     1      24.471   6.656  -5.726  1.00  0.00    -0.368 N 
ATOM     29  H1  UNL     1      23.957   6.737  -6.604  1.00  0.00     0.161 HD
BRANCH  28  30
HETATM   30  C4  UNL     1      24.563   5.321  -5.489  1.00  0.00     0.079 C 
HETATM   31  C5  UNL     1      25.514   4.498  -6.337  1.00  0.00     0.032 C 
BRANCH  30  32
HETATM   32  C3  UNL     1      24.774   5.015  -4.011  1.00  0.00     0.024 C 
BRANCH  32  33
HETATM   33  C2  UNL     1      26.250   4.832  -3.708  1.00  0.00    -0.003 C 
HETATM   34  C1  UNL     1      26.738   5.740  -2.622  1.00  0.00     0.005 C 
ENDBRANCH  32  33
ENDBRANCH  30  32
ENDBRANCH  28  30
ENDBRANCH   1  28
TORSDOF 7
ENDMDL
MODEL 4
REMARK VINA RESULT: -7.683382216      3.699      7.086
REMARK  7 active torsions:
REMARK  status: ('A' for Active; 'I' for Inactive)
REMARK    1  A    between atoms: C2_2  and  C3_3 
REMARK    2  A    between atoms: C3_3  and  C4_4 
REMARK    3  A    between atoms: C4_4  and  N1_6 
REMARK    4  A    between atoms: N1_6  and  C6_8 
REMARK    5  A    between atoms: C7_12  and  C8_13 
REMARK    6  A    between atoms: C11_18  and  N5_19 
REMARK    7  A    between atoms: N5_19  and  C12_21 
ROOT
HETATM    1  C6  UNL     1      31.160   4.876  -5.675  1.00  0.00     0.159 A 
HETATM    2  N2  UNL     1      30.555   6.044  -5.249  1.00  0.00    -0.276 N 
ATOM      3  H2  UNL     1      29.643   5.979  -4.798  1.00  0.00     0.189 HD
HETATM    4  N3  UNL     1      31.093   7.228  -5.394  1.00  0.00    -0.249 N 
HETATM    5  C7  UNL     1      30.645   8.438  -5.043  1.00  0.00     0.091 A 
HETATM    6  C18 UNL     1      31.567   9.391  -5.405  1.00  0.00     0.037 A 
HETATM    7  C19 UNL     1      32.631   8.765  -6.005  1.00  0.00     0.037 A 
HETATM    8  C20 UNL     1      32.299   7.409  -5.979  1.00  0.00     0.099 A 
HETATM    9  C21 UNL     1      32.958   6.290  -6.428  1.00  0.00     0.187 A 
HETATM   10  F1  UNL     1      34.161   6.447  -7.014  1.00  0.00    -0.200 F 
HETATM   11  C22 UNL     1      32.381   5.029  -6.271  1.00  0.00     0.202 A 
HETATM   12  F2  UNL     1      33.097   3.967  -6.741  1.00  0.00    -0.199 F 
ENDROOT
BRANCH   5  13
HETATM   13  C8  UNL     1      29.363   8.772  -4.366  1.00  0.00     0.105 A 
HETATM   14  N4  UNL     1      28.940   8.468  -3.177  1.00  0.00    -0.350 N 
HETATM   15  C9  UNL     1      27.772   8.852  -2.743  1.00  0.00     0.040 A 
ATOM     16  H4  UNL     1      29.539   7.914  -2.564  1.00  0.00     0.166 HD
HETATM   17  C10 UNL     1      27.303   8.438  -1.355  1.00  0.00     0.071 C 
HETATM   18  C11 UNL     1      26.997   9.592  -3.581  1.00  0.00     0.094 A 
HETATM   19  S1  UNL     1      28.057   9.675  -4.981  1.00  0.00    -0.051 SA
BRANCH  18  20
HETATM   20  N5  UNL     1      25.729  10.216  -3.493  1.00  0.00    -0.378 N 
ATOM     21  H5  UNL     1      25.761  11.172  -3.141  1.00  0.00     0.160 HD
BRANCH  20  22
HETATM   22  C12 UNL     1      24.423   9.759  -3.803  1.00  0.00     0.082 C 
HETATM   23  C13 UNL     1      24.315   9.139  -5.178  1.00  0.00     0.025 C 
HETATM   24  C14 UNL     1      24.727   7.682  -5.210  1.00  0.00     0.002 C 
HETATM   25  C15 UNL     1      23.775   6.930  -4.303  1.00  0.00     0.000 C 
HETATM   26  C16 UNL     1      24.104   7.415  -2.898  1.00  0.00     0.002 C 
HETATM   27  C17 UNL     1      23.843   8.864  -2.723  1.00  0.00     0.025 C 
ENDBRANCH  20  22
ENDBRANCH  18  20
ENDBRANCH   5  13
BRANCH   1  28
HETATM   28  N1  UNL     1      30.598   3.805  -5.506  1.00  0.00    -0.368 N 
ATOM     29  H1  UNL     1      29.703   3.894  -5.988  1.00  0.00     0.161 HD
BRANCH  28  30
HETATM   30  C4  UNL     1      30.598   2.551  -4.983  1.00  0.00     0.079 C 
HETATM   31  C5  UNL     1      31.506   2.256  -3.805  1.00  0.00     0.032 C 
BRANCH  30  32
HETATM   32  C3  UNL     1      29.188   2.048  -4.701  1.00  0.00     0.024 C 
BRANCH  32  33
HETATM   33  C2  UNL     1      29.182   0.541  -4.521  1.00  0.00    -0.003 C 
HETATM   34  C1  UNL     1      29.361  -0.200  -5.809  1.00  0.00     0.005 C 
ENDBRANCH  32  33
ENDBRANCH  30  32
ENDBRANCH  28  30
ENDBRANCH   1  28
TORSDOF 7
ENDMDL
MODEL 5
REMARK VINA RESULT: -7.677551071      3.712      6.948
REMARK  7 active torsions:
REMARK  status: ('A' for Active; 'I' for Inactive)
REMARK    1  A    between atoms: C2_2  and  C3_3 
REMARK    2  A    between atoms: C3_3  and  C4_4 
REMARK    3  A    between atoms: C4_4  and  N1_6 
REMARK    4  A    between atoms: N1_6  and  C6_8 
REMARK    5  A    between atoms: C7_12  and  C8_13 
REMARK    6  A    between atoms: C11_18  and  N5_19 
REMARK    7  A    between atoms: N5_19  and  C12_21 
ROOT
HETATM    1  C6  UNL     1      31.447   5.157  -5.940  1.00  0.00     0.159 A 
HETATM    2  N2  UNL     1      30.733   6.198  -5.379  1.00  0.00    -0.276 N 
ATOM      3  H2  UNL     1      29.853   5.983  -4.909  1.00  0.00     0.189 HD
HETATM    4  N3  UNL     1      31.126   7.445  -5.418  1.00  0.00    -0.249 N 
HETATM    5  C7  UNL     1      30.558   8.554  -4.930  1.00  0.00     0.091 A 
HETATM    6  C18 UNL     1      31.350   9.640  -5.220  1.00  0.00     0.037 A 
HETATM    7  C19 UNL     1      32.452   9.204  -5.913  1.00  0.00     0.037 A 
HETATM    8  C20 UNL     1      32.278   7.823  -6.017  1.00  0.00     0.099 A 
HETATM    9  C21 UNL     1      33.041   6.839  -6.598  1.00  0.00     0.187 A 
HETATM   10  F1  UNL     1      34.192   7.193  -7.200  1.00  0.00    -0.200 F 
HETATM   11  C22 UNL     1      32.617   5.510  -6.554  1.00  0.00     0.202 A 
HETATM   12  F2  UNL     1      33.428   4.591  -7.152  1.00  0.00    -0.199 F 
ENDROOT
BRANCH   5  13
HETATM   13  C8  UNL     1      29.276   8.667  -4.185  1.00  0.00     0.105 A 
HETATM   14  N4  UNL     1      28.983   8.328  -2.966  1.00  0.00    -0.350 N 
HETATM   15  C9  UNL     1      27.790   8.503  -2.471  1.00  0.00     0.040 A 
ATOM     16  H4  UNL     1      29.707   7.912  -2.379  1.00  0.00     0.166 HD
HETATM   17  C10 UNL     1      27.484   8.053  -1.049  1.00  0.00     0.071 C 
HETATM   18  C11 UNL     1      26.846   9.061  -3.276  1.00  0.00     0.094 A 
HETATM   19  S1  UNL     1      27.794   9.295  -4.739  1.00  0.00    -0.051 SA
BRANCH  18  20
HETATM   20  N5  UNL     1      25.491   9.444  -3.125  1.00  0.00    -0.378 N 
ATOM     21  H5  UNL     1      25.363  10.347  -2.669  1.00  0.00     0.160 HD
BRANCH  20  22
HETATM   22  C12 UNL     1      24.279   8.805  -3.489  1.00  0.00     0.082 C 
HETATM   23  C13 UNL     1      24.417   7.310  -3.666  1.00  0.00     0.025 C 
HETATM   24  C14 UNL     1      24.318   6.543  -2.364  1.00  0.00     0.002 C 
HETATM   25  C15 UNL     1      22.936   6.800  -1.800  1.00  0.00     0.000 C 
HETATM   26  C16 UNL     1      22.941   8.271  -1.406  1.00  0.00     0.002 C 
HETATM   27  C17 UNL     1      23.125   9.170  -2.570  1.00  0.00     0.025 C 
ENDBRANCH  20  22
ENDBRANCH  18  20
ENDBRANCH   5  13
BRANCH   1  28
HETATM   28  N1  UNL     1      31.018   4.016  -5.866  1.00  0.00    -0.368 N 
ATOM     29  H1  UNL     1      31.022   3.666  -6.825  1.00  0.00     0.161 HD
BRANCH  28  30
HETATM   30  C4  UNL     1      30.538   2.990  -5.114  1.00  0.00     0.079 C 
HETATM   31  C5  UNL     1      31.232   2.662  -3.807  1.00  0.00     0.032 C 
BRANCH  30  32
HETATM   32  C3  UNL     1      29.033   3.093  -4.902  1.00  0.00     0.024 C 
BRANCH  32  33
HETATM   33  C2  UNL     1      28.724   3.744  -3.566  1.00  0.00    -0.003 C 
HETATM   34  C1  UNL     1      27.791   4.908  -3.687  1.00  0.00     0.005 C 
ENDBRANCH  32  33
ENDBRANCH  30  32
ENDBRANCH  28  30
ENDBRANCH   1  28
TORSDOF 7
ENDMDL
