MODEL 1
REMARK VINA RESULT: -8.687724667      0.000      0.000
REMARK  13 active torsions:
REMARK  status: ('A' for Active; 'I' for Inactive)
REMARK    1  A    between atoms: C3_4  and  N2_5 
REMARK    2  A    between atoms: N2_5  and  C4_7 
REMARK    3  A    between atoms: C6_11  and  C7_12 
REMARK    4  A    between atoms: C7_12  and  O1_13 
REMARK    5  A    between atoms: C10_20  and  N6_21 
REMARK    6  A    between atoms: C11_26  and  N8_27 
REMARK    7  A    between atoms: N10_33  and  C13_34 
REMARK    8  A    between atoms: C13_34  and  C14_35 
REMARK       I    between atoms: C14_35  and  N11_37 
REMARK    9  A    between atoms: N11_37  and  C15_39 
REMARK   10  A    between atoms: C15_39  and  C16_40 
REMARK   11  A    between atoms: C19_43  and  N12_44 
REMARK   12  A    between atoms: N13_47  and  O5_48 
REMARK   13  A    between atoms: O5_48  and  O6_49 
ROOT
HETATM    1  C1  UNL     1      24.815 -19.512 -44.446  1.00  0.00     0.231 C 
HETATM    2  N1  UNL     1      25.751 -19.606 -43.770  1.00  0.00    -0.407 NA
HETATM    3  C2  UNL     1      26.868 -19.708 -42.937  1.00  0.00     0.226 A 
HETATM    4  C3  UNL     1      26.670 -20.378 -41.747  1.00  0.00     0.180 A 
HETATM    5  N5  UNL     1      27.698 -20.521 -40.885  1.00  0.00    -0.332 N 
ATOM      6  H5  UNL     1      27.564 -21.014 -40.001  1.00  0.00     0.168 HD
HETATM    7  C9  UNL     1      28.900 -20.008 -41.201  1.00  0.00     0.124 A 
HETATM    8  C10 UNL     1      29.998 -20.113 -40.374  1.00  0.00     0.145 A 
HETATM    9  N7  UNL     1      31.202 -19.583 -40.723  1.00  0.00    -0.175 N 
ATOM     10  H7  UNL     1      31.992 -19.681 -40.086  1.00  0.00     0.186 HD
HETATM   11  C11 UNL     1      31.373 -18.934 -41.889  1.00  0.00     0.679 A 
HETATM   12  N9  UNL     1      30.330 -18.804 -42.731  1.00  0.00    -0.174 N 
ATOM     13  H9  UNL     1      30.475 -18.309 -43.611  1.00  0.00     0.186 HD
HETATM   14  C12 UNL     1      29.103 -19.300 -42.465  1.00  0.00     0.157 A 
HETATM   15  N10 UNL     1      28.059 -19.186 -43.278  1.00  0.00    -0.294 N 
ENDROOT
BRANCH   4  16
HETATM   16  N2  UNL     1      25.418 -20.933 -41.377  1.00  0.00    -0.171 N 
ATOM     17  H2  UNL     1      24.538 -20.482 -41.630  1.00  0.00     0.186 HD
BRANCH  16  18
HETATM   18  C4  UNL     1      25.440 -22.048 -40.697  1.00  0.00     0.686 A 
HETATM   19  N3  UNL     1      25.492 -23.310 -41.160  1.00  0.00    -0.200 N 
HETATM   20  C5  UNL     1      25.497 -24.146 -40.124  1.00  0.00     0.134 A 
ATOM     21  H3  UNL     1      25.523 -23.582 -42.143  1.00  0.00     0.183 HD
HETATM   22  C6  UNL     1      25.447 -23.414 -38.955  1.00  0.00     0.068 A 
HETATM   23  N4  UNL     1      25.413 -22.126 -39.342  1.00  0.00    -0.188 N 
HETATM   24  C8  UNL     1      25.354 -21.012 -38.409  1.00  0.00     0.175 C 
BRANCH  22  25
HETATM   25  C7  UNL     1      25.433 -23.953 -37.573  1.00  0.00     0.223 C 
BRANCH  25  26
HETATM   26  O1  UNL     1      26.724 -24.011 -37.050  1.00  0.00    -0.395 OA
ATOM     27  H1  UNL     1      26.723 -24.411 -36.188  1.00  0.00     0.209 HD
ENDBRANCH  25  26
ENDBRANCH  22  25
ENDBRANCH  16  18
ENDBRANCH   4  16
BRANCH  15  28
HETATM   28  C13 UNL     1      28.198 -18.499 -44.537  1.00  0.00     0.236 C 
BRANCH  28  29
HETATM   29  C14 UNL     1      27.807 -17.065 -44.413  1.00  0.00     0.236 C 
HETATM   30  O2  UNL     1      28.641 -16.268 -43.913  1.00  0.00    -0.272 OA
HETATM   31  N11 UNL     1      26.550 -16.604 -44.837  1.00  0.00    -0.354 N 
ATOM     32  H11 UNL     1      25.901 -17.283 -45.235  1.00  0.00     0.162 HD
BRANCH  31  33
HETATM   33  C15 UNL     1      26.123 -15.244 -44.746  1.00  0.00     0.182 C 
BRANCH  33  34
HETATM   34  C16 UNL     1      24.659 -15.107 -45.054  1.00  0.00     0.063 A 
HETATM   35  C17 UNL     1      23.731 -14.261 -44.485  1.00  0.00     0.033 A 
HETATM   36  C18 UNL     1      22.504 -14.476 -45.074  1.00  0.00     0.059 A 
HETATM   37  C19 UNL     1      22.681 -15.465 -46.017  1.00  0.00     0.203 A 
HETATM   38  N13 UNL     1      23.977 -15.817 -45.979  1.00  0.00    -0.171 N 
BRANCH  37  39
HETATM   39  N12 UNL     1      21.663 -16.013 -46.880  1.00  0.00    -0.096 N 
HETATM   40  O3  UNL     1      20.988 -16.959 -46.485  1.00  0.00    -0.530 OA
HETATM   41  O4  UNL     1      21.451 -15.491 -48.116  1.00  0.00    -0.530 OA
ENDBRANCH  37  39
BRANCH  38  42
HETATM   42  O5  UNL     1      24.534 -16.782 -46.781  1.00  0.00    -0.106 OA
BRANCH  42  43
HETATM   43  O6  UNL     1      23.931 -17.953 -47.029  1.00  0.00    -0.226 OA
ATOM     44  H6  UNL     1      24.070 -18.442 -47.831  1.00  0.00     0.256 HD
ENDBRANCH  42  43
ENDBRANCH  38  42
ENDBRANCH  33  34
ENDBRANCH  31  33
ENDBRANCH  28  29
ENDBRANCH  15  28
BRANCH   8  45
HETATM   45  N6  UNL     1      29.863 -20.726 -39.257  1.00  0.00    -0.383 N 
ATOM     46  H62 UNL     1      29.354 -21.609 -39.216  1.00  0.00     0.157 HD
ATOM     47  H61 UNL     1      30.274 -20.309 -38.422  1.00  0.00     0.157 HD
ENDBRANCH   8  45
BRANCH  11  48
HETATM   48  N8  UNL     1      32.540 -18.428 -42.210  1.00  0.00    -0.234 N 
ATOM     49  H82 UNL     1      32.837 -18.418 -43.186  1.00  0.00     0.174 HD
ATOM     50  H81 UNL     1      33.157 -18.043 -41.495  1.00  0.00     0.174 HD
ENDBRANCH  11  48
TORSDOF 13
ENDMDL
MODEL 2
REMARK VINA RESULT: -8.316020650      1.490      1.593
REMARK  13 active torsions:
REMARK  status: ('A' for Active; 'I' for Inactive)
REMARK    1  A    between atoms: C3_4  and  N2_5 
REMARK    2  A    between atoms: N2_5  and  C4_7 
REMARK    3  A    between atoms: C6_11  and  C7_12 
REMARK    4  A    between atoms: C7_12  and  O1_13 
REMARK    5  A    between atoms: C10_20  and  N6_21 
REMARK    6  A    between atoms: C11_26  and  N8_27 
REMARK    7  A    between atoms: N10_33  and  C13_34 
REMARK    8  A    between atoms: C13_34  and  C14_35 
REMARK       I    between atoms: C14_35  and  N11_37 
REMARK    9  A    between atoms: N11_37  and  C15_39 
REMARK   10  A    between atoms: C15_39  and  C16_40 
REMARK   11  A    between atoms: C19_43  and  N12_44 
REMARK   12  A    between atoms: N13_47  and  O5_48 
REMARK   13  A    between atoms: O5_48  and  O6_49 
ROOT
HETATM    1  C1  UNL     1      24.932 -19.510 -44.595  1.00  0.00     0.231 C 
HETATM    2  N1  UNL     1      25.851 -19.585 -43.892  1.00  0.00    -0.407 NA
HETATM    3  C2  UNL     1      26.945 -19.665 -43.028  1.00  0.00     0.226 A 
HETATM    4  C3  UNL     1      26.714 -20.292 -41.821  1.00  0.00     0.180 A 
HETATM    5  N5  UNL     1      27.718 -20.410 -40.929  1.00  0.00    -0.332 N 
ATOM      6  H5  UNL     1      27.559 -20.871 -40.033  1.00  0.00     0.168 HD
HETATM    7  C9  UNL     1      28.931 -19.914 -41.232  1.00  0.00     0.124 A 
HETATM    8  C10 UNL     1      30.007 -19.996 -40.374  1.00  0.00     0.145 A 
HETATM    9  N7  UNL     1      31.222 -19.485 -40.710  1.00  0.00    -0.175 N 
ATOM     10  H7  UNL     1      31.996 -19.565 -40.050  1.00  0.00     0.186 HD
HETATM   11  C11 UNL     1      31.427 -18.878 -41.893  1.00  0.00     0.679 A 
HETATM   12  N9  UNL     1      30.407 -18.772 -42.766  1.00  0.00    -0.174 N 
ATOM     13  H9  UNL     1      30.577 -18.308 -43.658  1.00  0.00     0.186 HD
HETATM   14  C12 UNL     1      29.171 -19.251 -42.514  1.00  0.00     0.157 A 
HETATM   15  N10 UNL     1      28.148 -19.160 -43.357  1.00  0.00    -0.294 N 
ENDROOT
BRANCH   4  16
HETATM   16  N2  UNL     1      25.449 -20.828 -41.464  1.00  0.00    -0.171 N 
ATOM     17  H2  UNL     1      24.580 -20.359 -41.721  1.00  0.00     0.186 HD
BRANCH  16  18
HETATM   18  C4  UNL     1      25.447 -21.947 -40.792  1.00  0.00     0.686 A 
HETATM   19  N3  UNL     1      25.470 -23.207 -41.264  1.00  0.00    -0.200 N 
HETATM   20  C5  UNL     1      25.456 -24.050 -40.234  1.00  0.00     0.134 A 
ATOM     21  H3  UNL     1      25.493 -23.472 -42.249  1.00  0.00     0.183 HD
HETATM   22  C6  UNL     1      25.425 -23.325 -39.060  1.00  0.00     0.068 A 
HETATM   23  N4  UNL     1      25.419 -22.034 -39.438  1.00  0.00    -0.188 N 
HETATM   24  C8  UNL     1      25.387 -20.925 -38.497  1.00  0.00     0.175 C 
BRANCH  22  25
HETATM   25  C7  UNL     1      25.400 -23.874 -37.681  1.00  0.00     0.223 C 
BRANCH  25  26
HETATM   26  O1  UNL     1      26.692 -23.992 -37.172  1.00  0.00    -0.395 OA
ATOM     27  H1  UNL     1      26.683 -23.992 -36.222  1.00  0.00     0.209 HD
ENDBRANCH  25  26
ENDBRANCH  22  25
ENDBRANCH  16  18
ENDBRANCH   4  16
BRANCH  15  28
HETATM   28  C13 UNL     1      28.323 -18.518 -44.635  1.00  0.00     0.236 C 
BRANCH  28  29
HETATM   29  C14 UNL     1      27.867 -17.099 -44.589  1.00  0.00     0.236 C 
HETATM   30  O2  UNL     1      28.391 -16.339 -43.736  1.00  0.00    -0.272 OA
HETATM   31  N11 UNL     1      26.885 -16.611 -45.467  1.00  0.00    -0.354 N 
ATOM     32  H11 UNL     1      26.483 -17.260 -46.144  1.00  0.00     0.162 HD
BRANCH  31  33
HETATM   33  C15 UNL     1      26.414 -15.262 -45.472  1.00  0.00     0.182 C 
BRANCH  33  34
HETATM   34  C16 UNL     1      24.964 -15.188 -45.084  1.00  0.00     0.063 A 
HETATM   35  C17 UNL     1      24.198 -16.122 -44.419  1.00  0.00     0.033 A 
HETATM   36  C18 UNL     1      22.916 -15.635 -44.276  1.00  0.00     0.059 A 
HETATM   37  C19 UNL     1      22.896 -14.387 -44.860  1.00  0.00     0.203 A 
HETATM   38  N13 UNL     1      24.133 -14.153 -45.330  1.00  0.00    -0.171 N 
BRANCH  37  39
HETATM   39  N12 UNL     1      21.759 -13.504 -44.945  1.00  0.00    -0.096 N 
HETATM   40  O3  UNL     1      21.210 -13.131 -43.913  1.00  0.00    -0.530 OA
HETATM   41  O4  UNL     1      21.297 -13.088 -46.154  1.00  0.00    -0.530 OA
ENDBRANCH  37  39
BRANCH  38  42
HETATM   42  O5  UNL     1      24.500 -13.001 -45.982  1.00  0.00    -0.106 OA
BRANCH  42  43
HETATM   43  O6  UNL     1      24.167 -12.753 -47.255  1.00  0.00    -0.226 OA
ATOM     44  H6  UNL     1      23.495 -12.126 -47.497  1.00  0.00     0.256 HD
ENDBRANCH  42  43
ENDBRANCH  38  42
ENDBRANCH  33  34
ENDBRANCH  31  33
ENDBRANCH  28  29
ENDBRANCH  15  28
BRANCH   8  45
HETATM   45  N6  UNL     1      29.840 -20.570 -39.241  1.00  0.00    -0.383 N 
ATOM     46  H62 UNL     1      30.485 -21.299 -38.935  1.00  0.00     0.157 HD
ATOM     47  H61 UNL     1      29.053 -20.279 -38.661  1.00  0.00     0.157 HD
ENDBRANCH   8  45
BRANCH  11  48
HETATM   48  N8  UNL     1      32.605 -18.389 -42.202  1.00  0.00    -0.234 N 
ATOM     49  H82 UNL     1      33.270 -18.961 -42.723  1.00  0.00     0.174 HD
ATOM     50  H81 UNL     1      32.865 -17.442 -41.928  1.00  0.00     0.174 HD
ENDBRANCH  11  48
TORSDOF 13
ENDMDL
MODEL 3
REMARK VINA RESULT: -8.267795243      3.384      6.337
REMARK  13 active torsions:
REMARK  status: ('A' for Active; 'I' for Inactive)
REMARK    1  A    between atoms: C3_4  and  N2_5 
REMARK    2  A    between atoms: N2_5  and  C4_7 
REMARK    3  A    between atoms: C6_11  and  C7_12 
REMARK    4  A    between atoms: C7_12  and  O1_13 
REMARK    5  A    between atoms: C10_20  and  N6_21 
REMARK    6  A    between atoms: C11_26  and  N8_27 
REMARK    7  A    between atoms: N10_33  and  C13_34 
REMARK    8  A    between atoms: C13_34  and  C14_35 
REMARK       I    between atoms: C14_35  and  N11_37 
REMARK    9  A    between atoms: N11_37  and  C15_39 
REMARK   10  A    between atoms: C15_39  and  C16_40 
REMARK   11  A    between atoms: C19_43  and  N12_44 
REMARK   12  A    between atoms: N13_47  and  O5_48 
REMARK   13  A    between atoms: O5_48  and  O6_49 
ROOT
HETATM    1  C1  UNL     1      24.808 -19.145 -44.686  1.00  0.00     0.231 C 
HETATM    2  N1  UNL     1      25.356 -18.153 -44.925  1.00  0.00    -0.407 NA
HETATM    3  C2  UNL     1      26.023 -16.955 -45.190  1.00  0.00     0.226 A 
HETATM    4  C3  UNL     1      27.356 -16.916 -44.833  1.00  0.00     0.180 A 
HETATM    5  N5  UNL     1      28.072 -15.796 -45.054  1.00  0.00    -0.332 N 
ATOM      6  H5  UNL     1      29.058 -15.755 -44.794  1.00  0.00     0.168 HD
HETATM    7  C9  UNL     1      27.475 -14.733 -45.622  1.00  0.00     0.124 A 
HETATM    8  C10 UNL     1      28.140 -13.553 -45.881  1.00  0.00     0.145 A 
HETATM    9  N7  UNL     1      27.508 -12.495 -46.457  1.00  0.00    -0.175 N 
ATOM     10  H7  UNL     1      28.032 -11.638 -46.634  1.00  0.00     0.186 HD
HETATM   11  C11 UNL     1      26.208 -12.553 -46.798  1.00  0.00     0.679 A 
HETATM   12  N9  UNL     1      25.514 -13.683 -46.565  1.00  0.00    -0.174 N 
ATOM     13  H9  UNL     1      24.529 -13.712 -46.828  1.00  0.00     0.186 HD
HETATM   14  C12 UNL     1      26.062 -14.780 -46.000  1.00  0.00     0.157 A 
HETATM   15  N10 UNL     1      25.402 -15.906 -45.759  1.00  0.00    -0.294 N 
ENDROOT
BRANCH   4  16
HETATM   16  N2  UNL     1      28.022 -18.017 -44.232  1.00  0.00    -0.171 N 
ATOM     17  H2  UNL     1      28.245 -18.859 -44.763  1.00  0.00     0.186 HD
BRANCH  16  18
HETATM   18  C4  UNL     1      28.335 -17.903 -42.970  1.00  0.00     0.686 A 
HETATM   19  N3  UNL     1      28.946 -16.879 -42.348  1.00  0.00    -0.200 N 
HETATM   20  C5  UNL     1      29.073 -17.177 -41.057  1.00  0.00     0.134 A 
ATOM     21  H3  UNL     1      29.260 -16.016 -42.792  1.00  0.00     0.183 HD
HETATM   22  C6  UNL     1      28.533 -18.426 -40.828  1.00  0.00     0.068 A 
HETATM   23  N4  UNL     1      28.088 -18.847 -42.026  1.00  0.00    -0.188 N 
HETATM   24  C8  UNL     1      27.441 -20.133 -42.233  1.00  0.00     0.175 C 
BRANCH  22  25
HETATM   25  C7  UNL     1      28.468 -19.138 -39.528  1.00  0.00     0.223 C 
BRANCH  25  26
HETATM   26  O1  UNL     1      27.383 -18.695 -38.774  1.00  0.00    -0.395 OA
ATOM     27  H1  UNL     1      26.563 -18.903 -39.206  1.00  0.00     0.209 HD
ENDBRANCH  25  26
ENDBRANCH  22  25
ENDBRANCH  16  18
ENDBRANCH   4  16
BRANCH  15  28
HETATM   28  C13 UNL     1      24.008 -16.012 -46.109  1.00  0.00     0.236 C 
BRANCH  28  29
HETATM   29  C14 UNL     1      23.147 -15.340 -45.094  1.00  0.00     0.236 C 
HETATM   30  O2  UNL     1      23.080 -15.850 -43.947  1.00  0.00    -0.272 OA
HETATM   31  N11 UNL     1      22.427 -14.172 -45.395  1.00  0.00    -0.354 N 
ATOM     32  H11 UNL     1      22.506 -13.791 -46.338  1.00  0.00     0.162 HD
BRANCH  31  33
HETATM   33  C15 UNL     1      21.591 -13.484 -44.463  1.00  0.00     0.182 C 
BRANCH  33  34
HETATM   34  C16 UNL     1      20.950 -12.277 -45.089  1.00  0.00     0.063 A 
HETATM   35  C17 UNL     1      19.708 -11.732 -44.842  1.00  0.00     0.033 A 
HETATM   36  C18 UNL     1      19.533 -10.626 -45.646  1.00  0.00     0.059 A 
HETATM   37  C19 UNL     1      20.682 -10.491 -46.394  1.00  0.00     0.203 A 
HETATM   38  N13 UNL     1      21.505 -11.491 -46.037  1.00  0.00    -0.171 N 
BRANCH  37  39
HETATM   39  N12 UNL     1      20.945  -9.466 -47.375  1.00  0.00    -0.096 N 
HETATM   40  O3  UNL     1      20.745  -8.291 -47.084  1.00  0.00    -0.530 OA
HETATM   41  O4  UNL     1      21.408  -9.794 -48.610  1.00  0.00    -0.530 OA
ENDBRANCH  37  39
BRANCH  38  42
HETATM   42  O5  UNL     1      22.754 -11.686 -46.573  1.00  0.00    -0.106 OA
BRANCH  42  43
HETATM   43  O6  UNL     1      22.951 -12.335 -47.728  1.00  0.00    -0.226 OA
ATOM     44  H6  UNL     1      23.104 -13.271 -47.771  1.00  0.00     0.256 HD
ENDBRANCH  42  43
ENDBRANCH  38  42
ENDBRANCH  33  34
ENDBRANCH  31  33
ENDBRANCH  28  29
ENDBRANCH  15  28
BRANCH   8  45
HETATM   45  N6  UNL     1      29.379 -13.470 -45.566  1.00  0.00    -0.383 N 
ATOM     46  H62 UNL     1      30.099 -13.648 -46.266  1.00  0.00     0.157 HD
ATOM     47  H61 UNL     1      29.620 -13.224 -44.606  1.00  0.00     0.157 HD
ENDBRANCH   8  45
BRANCH  11  48
HETATM   48  N8  UNL     1      25.612 -11.524 -47.352  1.00  0.00    -0.234 N 
ATOM     49  H82 UNL     1      25.915 -11.195 -48.270  1.00  0.00     0.174 HD
ATOM     50  H81 UNL     1      24.848 -11.045 -46.876  1.00  0.00     0.174 HD
ENDBRANCH  11  48
TORSDOF 13
ENDMDL
MODEL 4
REMARK VINA RESULT: -8.247100106      3.728      6.637
REMARK  13 active torsions:
REMARK  status: ('A' for Active; 'I' for Inactive)
REMARK    1  A    between atoms: C3_4  and  N2_5 
REMARK    2  A    between atoms: N2_5  and  C4_7 
REMARK    3  A    between atoms: C6_11  and  C7_12 
REMARK    4  A    between atoms: C7_12  and  O1_13 
REMARK    5  A    between atoms: C10_20  and  N6_21 
REMARK    6  A    between atoms: C11_26  and  N8_27 
REMARK    7  A    between atoms: N10_33  and  C13_34 
REMARK    8  A    between atoms: C13_34  and  C14_35 
REMARK       I    between atoms: C14_35  and  N11_37 
REMARK    9  A    between atoms: N11_37  and  C15_39 
REMARK   10  A    between atoms: C15_39  and  C16_40 
REMARK   11  A    between atoms: C19_43  and  N12_44 
REMARK   12  A    between atoms: N13_47  and  O5_48 
REMARK   13  A    between atoms: O5_48  and  O6_49 
ROOT
HETATM    1  C1  UNL     1      24.919 -19.259 -44.556  1.00  0.00     0.231 C 
HETATM    2  N1  UNL     1      25.404 -18.241 -44.821  1.00  0.00    -0.407 NA
HETATM    3  C2  UNL     1      25.996 -17.011 -45.118  1.00  0.00     0.226 A 
HETATM    4  C3  UNL     1      27.335 -16.897 -44.804  1.00  0.00     0.180 A 
HETATM    5  N5  UNL     1      27.982 -15.742 -45.058  1.00  0.00    -0.332 N 
ATOM      6  H5  UNL     1      28.972 -15.645 -44.830  1.00  0.00     0.168 HD
HETATM    7  C9  UNL     1      27.311 -14.719 -45.614  1.00  0.00     0.124 A 
HETATM    8  C10 UNL     1      27.901 -13.507 -45.905  1.00  0.00     0.145 A 
HETATM    9  N7  UNL     1      27.195 -12.491 -46.469  1.00  0.00    -0.175 N 
ATOM     10  H7  UNL     1      27.665 -11.608 -46.670  1.00  0.00     0.186 HD
HETATM   11  C11 UNL     1      25.890 -12.623 -46.768  1.00  0.00     0.679 A 
HETATM   12  N9  UNL     1      25.266 -13.787 -46.503  1.00  0.00    -0.174 N 
ATOM     13  H9  UNL     1      24.277 -13.872 -46.734  1.00  0.00     0.186 HD
HETATM   14  C12 UNL     1      25.891 -14.846 -45.946  1.00  0.00     0.157 A 
HETATM   15  N10 UNL     1      25.301 -16.004 -45.675  1.00  0.00    -0.294 N 
ENDROOT
BRANCH   4  16
HETATM   16  N2  UNL     1      28.079 -17.953 -44.216  1.00  0.00    -0.171 N 
ATOM     17  H2  UNL     1      28.367 -18.769 -44.758  1.00  0.00     0.186 HD
BRANCH  16  18
HETATM   18  C4  UNL     1      28.378 -17.836 -42.950  1.00  0.00     0.686 A 
HETATM   19  N3  UNL     1      28.964 -16.801 -42.321  1.00  0.00    -0.200 N 
HETATM   20  C5  UNL     1      29.083 -17.099 -41.029  1.00  0.00     0.134 A 
ATOM     21  H3  UNL     1      29.267 -15.933 -42.761  1.00  0.00     0.183 HD
HETATM   22  C6  UNL     1      28.563 -18.358 -40.807  1.00  0.00     0.068 A 
HETATM   23  N4  UNL     1      28.137 -18.785 -42.010  1.00  0.00    -0.188 N 
HETATM   24  C8  UNL     1      27.515 -20.082 -42.225  1.00  0.00     0.175 C 
BRANCH  22  25
HETATM   25  C7  UNL     1      28.498 -19.073 -39.508  1.00  0.00     0.223 C 
BRANCH  25  26
HETATM   26  O1  UNL     1      27.425 -18.615 -38.744  1.00  0.00    -0.395 OA
ATOM     27  H1  UNL     1      27.200 -19.242 -38.067  1.00  0.00     0.209 HD
ENDBRANCH  25  26
ENDBRANCH  22  25
ENDBRANCH  16  18
ENDBRANCH   4  16
BRANCH  15  28
HETATM   28  C13 UNL     1      23.904 -16.189 -45.979  1.00  0.00     0.236 C 
BRANCH  28  29
HETATM   29  C14 UNL     1      23.041 -15.468 -45.000  1.00  0.00     0.236 C 
HETATM   30  O2  UNL     1      22.912 -15.963 -43.852  1.00  0.00    -0.272 OA
HETATM   31  N11 UNL     1      22.387 -14.270 -45.335  1.00  0.00    -0.354 N 
ATOM     32  H11 UNL     1      22.516 -13.902 -46.278  1.00  0.00     0.162 HD
BRANCH  31  33
HETATM   33  C15 UNL     1      21.553 -13.536 -44.438  1.00  0.00     0.182 C 
BRANCH  33  34
HETATM   34  C16 UNL     1      21.005 -12.298 -45.090  1.00  0.00     0.063 A 
HETATM   35  C17 UNL     1      21.501 -11.597 -46.169  1.00  0.00     0.033 A 
HETATM   36  C18 UNL     1      20.676 -10.524 -46.427  1.00  0.00     0.059 A 
HETATM   37  C19 UNL     1      19.661 -10.568 -45.497  1.00  0.00     0.203 A 
HETATM   38  N13 UNL     1      19.888 -11.638 -44.716  1.00  0.00    -0.171 N 
BRANCH  37  39
HETATM   39  N12 UNL     1      18.564  -9.637 -45.387  1.00  0.00    -0.096 N 
HETATM   40  O3  UNL     1      18.432  -8.762 -46.237  1.00  0.00    -0.530 OA
HETATM   41  O4  UNL     1      17.684  -9.725 -44.355  1.00  0.00    -0.530 OA
ENDBRANCH  37  39
BRANCH  38  42
HETATM   42  O5  UNL     1      19.081 -12.008 -43.669  1.00  0.00    -0.106 OA
BRANCH  42  43
HETATM   43  O6  UNL     1      19.175 -11.454 -42.453  1.00  0.00    -0.226 OA
ATOM     44  H6  UNL     1      18.531 -10.842 -42.117  1.00  0.00     0.256 HD
ENDBRANCH  42  43
ENDBRANCH  38  42
ENDBRANCH  33  34
ENDBRANCH  31  33
ENDBRANCH  28  29
ENDBRANCH  15  28
BRANCH   8  45
HETATM   45  N6  UNL     1      29.144 -13.354 -45.631  1.00  0.00    -0.383 N 
ATOM     46  H62 UNL     1      29.451 -13.294 -44.660  1.00  0.00     0.157 HD
ATOM     47  H61 UNL     1      29.807 -13.295 -46.404  1.00  0.00     0.157 HD
ENDBRANCH   8  45
BRANCH  11  48
HETATM   48  N8  UNL     1      25.222 -11.633 -47.311  1.00  0.00    -0.234 N 
ATOM     49  H82 UNL     1      25.255 -11.492 -48.321  1.00  0.00     0.174 HD
ATOM     50  H81 UNL     1      24.667 -10.999 -46.735  1.00  0.00     0.174 HD
ENDBRANCH  11  48
TORSDOF 13
ENDMDL
MODEL 5
REMARK VINA RESULT: -8.157120506      3.293      9.263
REMARK  13 active torsions:
REMARK  status: ('A' for Active; 'I' for Inactive)
REMARK    1  A    between atoms: C3_4  and  N2_5 
REMARK    2  A    between atoms: N2_5  and  C4_7 
REMARK    3  A    between atoms: C6_11  and  C7_12 
REMARK    4  A    between atoms: C7_12  and  O1_13 
REMARK    5  A    between atoms: C10_20  and  N6_21 
REMARK    6  A    between atoms: C11_26  and  N8_27 
REMARK    7  A    between atoms: N10_33  and  C13_34 
REMARK    8  A    between atoms: C13_34  and  C14_35 
REMARK       I    between atoms: C14_35  and  N11_37 
REMARK    9  A    between atoms: N11_37  and  C15_39 
REMARK   10  A    between atoms: C15_39  and  C16_40 
REMARK   11  A    between atoms: C19_43  and  N12_44 
REMARK   12  A    between atoms: N13_47  and  O5_48 
REMARK   13  A    between atoms: O5_48  and  O6_49 
ROOT
HETATM    1  C1  UNL     1      22.363 -17.186 -45.276  1.00  0.00     0.231 C 
HETATM    2  N1  UNL     1      23.419 -16.711 -45.301  1.00  0.00    -0.407 NA
HETATM    3  C2  UNL     1      24.687 -16.125 -45.350  1.00  0.00     0.226 A 
HETATM    4  C3  UNL     1      24.714 -14.747 -45.281  1.00  0.00     0.180 A 
HETATM    5  N5  UNL     1      25.898 -14.102 -45.322  1.00  0.00    -0.332 N 
ATOM      6  H5  UNL     1      25.931 -13.083 -45.272  1.00  0.00     0.168 HD
HETATM    7  C9  UNL     1      27.033 -14.814 -45.429  1.00  0.00     0.124 A 
HETATM    8  C10 UNL     1      28.281 -14.229 -45.476  1.00  0.00     0.145 A 
HETATM    9  N7  UNL     1      29.412 -14.978 -45.584  1.00  0.00    -0.175 N 
ATOM     10  H7  UNL     1      30.317 -14.510 -45.616  1.00  0.00     0.186 HD
HETATM   11  C11 UNL     1      29.363 -16.320 -45.650  1.00  0.00     0.679 A 
HETATM   12  N9  UNL     1      28.168 -16.940 -45.608  1.00  0.00    -0.174 N 
ATOM     13  H9  UNL     1      28.146 -17.958 -45.660  1.00  0.00     0.186 HD
HETATM   14  C12 UNL     1      26.998 -16.276 -45.500  1.00  0.00     0.157 A 
HETATM   15  N10 UNL     1      25.807 -16.862 -45.457  1.00  0.00    -0.294 N 
ENDROOT
BRANCH   4  16
HETATM   16  N2  UNL     1      23.539 -13.960 -45.167  1.00  0.00    -0.171 N 
ATOM     17  H2  UNL     1      22.803 -14.193 -44.500  1.00  0.00     0.186 HD
BRANCH  16  18
HETATM   18  C4  UNL     1      23.440 -12.923 -45.955  1.00  0.00     0.686 A 
HETATM   19  N3  UNL     1      24.364 -12.418 -46.793  1.00  0.00    -0.200 N 
HETATM   20  C5  UNL     1      23.849 -11.354 -47.406  1.00  0.00     0.134 A 
ATOM     21  H3  UNL     1      25.303 -12.789 -46.936  1.00  0.00     0.183 HD
HETATM   22  C6  UNL     1      22.558 -11.158 -46.958  1.00  0.00     0.068 A 
HETATM   23  N4  UNL     1      22.337 -12.140 -46.065  1.00  0.00    -0.188 N 
HETATM   24  C8  UNL     1      21.083 -12.301 -45.346  1.00  0.00     0.175 C 
BRANCH  22  25
HETATM   25  C7  UNL     1      21.627 -10.083 -47.383  1.00  0.00     0.223 C 
BRANCH  25  26
HETATM   26  O1  UNL     1      22.302  -9.101 -48.106  1.00  0.00    -0.395 OA
ATOM     27  H1  UNL     1      21.866  -8.931 -48.933  1.00  0.00     0.209 HD
ENDBRANCH  25  26
ENDBRANCH  22  25
ENDBRANCH  16  18
ENDBRANCH   4  16
BRANCH  15  28
HETATM   28  C13 UNL     1      25.708 -18.297 -45.524  1.00  0.00     0.236 C 
BRANCH  28  29
HETATM   29  C14 UNL     1      25.738 -18.902 -44.161  1.00  0.00     0.236 C 
HETATM   30  O2  UNL     1      24.640 -19.182 -43.617  1.00  0.00    -0.272 OA
HETATM   31  N11 UNL     1      26.947 -19.157 -43.493  1.00  0.00    -0.354 N 
ATOM     32  H11 UNL     1      27.816 -18.912 -43.968  1.00  0.00     0.162 HD
BRANCH  31  33
HETATM   33  C15 UNL     1      27.036 -19.736 -42.191  1.00  0.00     0.182 C 
BRANCH  33  34
HETATM   34  C16 UNL     1      28.433 -19.640 -41.643  1.00  0.00     0.063 A 
HETATM   35  C17 UNL     1      29.081 -20.493 -40.775  1.00  0.00     0.033 A 
HETATM   36  C18 UNL     1      30.353 -20.017 -40.542  1.00  0.00     0.059 A 
HETATM   37  C19 UNL     1      30.487 -18.859 -41.276  1.00  0.00     0.203 A 
HETATM   38  N13 UNL     1      29.324 -18.665 -41.921  1.00  0.00    -0.171 N 
BRANCH  37  39
HETATM   39  N12 UNL     1      31.658 -18.019 -41.338  1.00  0.00    -0.096 N 
HETATM   40  O3  UNL     1      31.858 -17.203 -40.443  1.00  0.00    -0.530 OA
HETATM   41  O4  UNL     1      32.532 -18.126 -42.373  1.00  0.00    -0.530 OA
ENDBRANCH  37  39
BRANCH  38  42
HETATM   42  O5  UNL     1      29.078 -17.603 -42.756  1.00  0.00    -0.106 OA
BRANCH  42  43
HETATM   43  O6  UNL     1      28.482 -16.478 -42.338  1.00  0.00    -0.226 OA
ATOM     44  H6  UNL     1      28.342 -15.730 -42.907  1.00  0.00     0.256 HD
ENDBRANCH  42  43
ENDBRANCH  38  42
ENDBRANCH  33  34
ENDBRANCH  31  33
ENDBRANCH  28  29
ENDBRANCH  15  28
BRANCH   8  45
HETATM   45  N6  UNL     1      28.357 -12.951 -45.415  1.00  0.00    -0.383 N 
ATOM     46  H62 UNL     1      27.803 -12.374 -46.048  1.00  0.00     0.157 HD
ATOM     47  H61 UNL     1      28.981 -12.535 -44.724  1.00  0.00     0.157 HD
ENDBRANCH   8  45
BRANCH  11  48
HETATM   48  N8  UNL     1      30.462 -17.028 -45.755  1.00  0.00    -0.234 N 
ATOM     49  H82 UNL     1      30.536 -17.748 -46.474  1.00  0.00     0.174 HD
ATOM     50  H81 UNL     1      31.248 -16.868 -45.124  1.00  0.00     0.174 HD
ENDBRANCH  11  48
TORSDOF 13
ENDMDL
