MODEL 1
REMARK VINA RESULT: -5.457664199      0.000      0.000
REMARK  4 active torsions:
REMARK  status: ('A' for Active; 'I' for Inactive)
REMARK       I    between atoms: C2_2  and  N1_4 
REMARK    1  A    between atoms: N1_4  and  C3_6 
REMARK    2  A    between atoms: C3_6  and  O2_7 
REMARK    3  A    between atoms: C3_6  and  N2_9 
REMARK    4  A    between atoms: N2_9  and  N3_11 
ROOT
HETATM    1  C3  UNL     1     -15.441  15.649  -1.720  1.00  0.00     0.239 C 
ENDROOT
BRANCH   1   2
HETATM    2  N1  UNL     1     -15.972  15.332  -2.979  1.00  0.00    -0.292 N 
HETATM    3  C2  UNL     1     -17.304  15.067  -3.304  1.00  0.00     0.220 C 
HETATM    4  C1  UNL     1     -17.714  14.744  -4.697  1.00  0.00     0.117 C 
HETATM    5  O1  UNL     1     -18.206  15.086  -2.453  1.00  0.00    -0.274 OA
ATOM      6  H1  UNL     1     -15.305  15.291  -3.750  1.00  0.00     0.172 HD
ENDBRANCH   1   2
BRANCH   1   7
HETATM    7  O2  UNL     1     -16.133  15.273  -0.684  1.00  0.00    -0.331 OA
ATOM      8  H2  UNL     1     -16.811  14.625  -0.839  1.00  0.00     0.221 HD
ENDBRANCH   1   7
BRANCH   1   9
HETATM    9  N2  UNL     1     -14.238  16.332  -1.469  1.00  0.00    -0.251 N 
ATOM     10  H2  UNL     1     -13.536  15.932  -0.847  1.00  0.00     0.192 HD
BRANCH   9  11
HETATM   11  N3  UNL     1     -14.015  17.578  -2.090  1.00  0.00    -0.246 N 
HETATM   12  N4  UNL     1     -13.252  18.403  -1.528  1.00  0.00    -0.331 N 
ATOM     13  H42 UNL     1     -12.810  18.161  -0.642  1.00  0.00     0.178 HD
ATOM     14  H41 UNL     1     -13.090  19.305  -1.978  1.00  0.00     0.178 HD
ATOM     15  H3  UNL     1     -14.465  17.805  -2.977  1.00  0.00     0.208 HD
ENDBRANCH   9  11
ENDBRANCH   1   9
TORSDOF 4
ENDMDL
MODEL 2
REMARK VINA RESULT: -5.335979571      2.654      3.349
REMARK  4 active torsions:
REMARK  status: ('A' for Active; 'I' for Inactive)
REMARK       I    between atoms: C2_2  and  N1_4 
REMARK    1  A    between atoms: N1_4  and  C3_6 
REMARK    2  A    between atoms: C3_6  and  O2_7 
REMARK    3  A    between atoms: C3_6  and  N2_9 
REMARK    4  A    between atoms: N2_9  and  N3_11 
ROOT
HETATM    1  C3  UNL     1     -13.888  18.399  -2.787  1.00  0.00     0.239 C 
ENDROOT
BRANCH   1   2
HETATM    2  N1  UNL     1     -14.871  17.432  -3.045  1.00  0.00    -0.292 N 
HETATM    3  C2  UNL     1     -15.284  16.388  -2.214  1.00  0.00     0.220 C 
HETATM    4  C1  UNL     1     -16.347  15.437  -2.632  1.00  0.00     0.117 C 
HETATM    5  O1  UNL     1     -14.787  16.203  -1.092  1.00  0.00    -0.274 OA
ATOM      6  H1  UNL     1     -15.340  17.499  -3.948  1.00  0.00     0.172 HD
ENDBRANCH   1   2
BRANCH   1   7
HETATM    7  O2  UNL     1     -13.554  18.572  -1.540  1.00  0.00    -0.331 OA
ATOM      8  H2  UNL     1     -12.635  18.457  -1.327  1.00  0.00     0.221 HD
ENDBRANCH   1   7
BRANCH   1   9
HETATM    9  N2  UNL     1     -13.233  19.198  -3.739  1.00  0.00    -0.251 N 
ATOM     10  H2  UNL     1     -12.406  18.851  -4.226  1.00  0.00     0.192 HD
BRANCH   9  11
HETATM   11  N3  UNL     1     -13.734  20.487  -4.014  1.00  0.00    -0.246 N 
HETATM   12  N4  UNL     1     -14.176  21.177  -3.060  1.00  0.00    -0.331 N 
ATOM     13  H42 UNL     1     -14.165  20.798  -2.114  1.00  0.00     0.178 HD
ATOM     14  H41 UNL     1     -14.538  22.110  -3.259  1.00  0.00     0.178 HD
ATOM     15  H3  UNL     1     -13.737  20.852  -4.966  1.00  0.00     0.208 HD
ENDBRANCH   9  11
ENDBRANCH   1   9
TORSDOF 4
ENDMDL
MODEL 3
REMARK VINA RESULT: -5.259115676      1.758      1.758
REMARK  4 active torsions:
REMARK  status: ('A' for Active; 'I' for Inactive)
REMARK       I    between atoms: C2_2  and  N1_4 
REMARK    1  A    between atoms: N1_4  and  C3_6 
REMARK    2  A    between atoms: C3_6  and  O2_7 
REMARK    3  A    between atoms: C3_6  and  N2_9 
REMARK    4  A    between atoms: N2_9  and  N3_11 
ROOT
HETATM    1  C3  UNL     1     -14.981  15.872  -1.839  1.00  0.00     0.239 C 
ENDROOT
BRANCH   1   2
HETATM    2  N1  UNL     1     -15.332  15.402  -3.113  1.00  0.00    -0.292 N 
HETATM    3  C2  UNL     1     -15.605  16.154  -4.258  1.00  0.00     0.220 C 
HETATM    4  C1  UNL     1     -15.965  15.504  -5.546  1.00  0.00     0.117 C 
HETATM    5  O1  UNL     1     -15.561  17.394  -4.257  1.00  0.00    -0.274 OA
ATOM      6  H1  UNL     1     -15.395  14.389  -3.216  1.00  0.00     0.172 HD
ENDBRANCH   1   2
BRANCH   1   7
HETATM    7  O2  UNL     1     -15.748  15.508  -0.852  1.00  0.00    -0.331 OA
ATOM      8  H2  UNL     1     -16.549  16.003  -0.732  1.00  0.00     0.221 HD
ENDBRANCH   1   7
BRANCH   1   9
HETATM    9  N2  UNL     1     -13.886  16.696  -1.525  1.00  0.00    -0.251 N 
ATOM     10  H2  UNL     1     -12.994  16.287  -1.248  1.00  0.00     0.192 HD
BRANCH   9  11
HETATM   11  N3  UNL     1     -14.039  18.095  -1.600  1.00  0.00    -0.246 N 
HETATM   12  N4  UNL     1     -13.490  18.711  -2.549  1.00  0.00    -0.331 N 
ATOM     13  H42 UNL     1     -12.949  18.194  -3.242  1.00  0.00     0.178 HD
ATOM     14  H41 UNL     1     -13.601  19.724  -2.603  1.00  0.00     0.178 HD
ATOM     15  H3  UNL     1     -14.583  18.597  -0.899  1.00  0.00     0.208 HD
ENDBRANCH   9  11
ENDBRANCH   1   9
TORSDOF 4
ENDMDL
MODEL 4
REMARK VINA RESULT: -5.184696184      1.642      2.092
REMARK  4 active torsions:
REMARK  status: ('A' for Active; 'I' for Inactive)
REMARK       I    between atoms: C2_2  and  N1_4 
REMARK    1  A    between atoms: N1_4  and  C3_6 
REMARK    2  A    between atoms: C3_6  and  O2_7 
REMARK    3  A    between atoms: C3_6  and  N2_9 
REMARK    4  A    between atoms: N2_9  and  N3_11 
ROOT
HETATM    1  C3  UNL     1     -14.150  17.038  -1.836  1.00  0.00     0.239 C 
ENDROOT
BRANCH   1   2
HETATM    2  N1  UNL     1     -15.233  16.552  -2.584  1.00  0.00    -0.292 N 
HETATM    3  C2  UNL     1     -16.249  15.692  -2.160  1.00  0.00     0.220 C 
HETATM    4  C1  UNL     1     -17.337  15.264  -3.079  1.00  0.00     0.117 C 
HETATM    5  O1  UNL     1     -16.294  15.245  -1.004  1.00  0.00    -0.274 OA
ATOM      6  H1  UNL     1     -15.284  16.864  -3.554  1.00  0.00     0.172 HD
ENDBRANCH   1   2
BRANCH   1   7
HETATM    7  O2  UNL     1     -13.515  16.172  -1.101  1.00  0.00    -0.331 OA
ATOM      8  H2  UNL     1     -12.762  15.750  -1.497  1.00  0.00     0.221 HD
ENDBRANCH   1   7
BRANCH   1   9
HETATM    9  N2  UNL     1     -13.688  18.365  -1.803  1.00  0.00    -0.251 N 
ATOM     10  H2  UNL     1     -13.104  18.690  -1.032  1.00  0.00     0.192 HD
BRANCH   9  11
HETATM   11  N3  UNL     1     -14.041  19.240  -2.850  1.00  0.00    -0.246 N 
HETATM   12  N4  UNL     1     -13.282  19.322  -3.849  1.00  0.00    -0.331 N 
ATOM     13  H42 UNL     1     -12.432  18.760  -3.885  1.00  0.00     0.178 HD
ATOM     14  H41 UNL     1     -13.538  19.955  -4.607  1.00  0.00     0.178 HD
ATOM     15  H3  UNL     1     -14.895  19.795  -2.798  1.00  0.00     0.208 HD
ENDBRANCH   9  11
ENDBRANCH   1   9
TORSDOF 4
ENDMDL
MODEL 5
REMARK VINA RESULT: -5.182449119      3.143      3.442
REMARK  4 active torsions:
REMARK  status: ('A' for Active; 'I' for Inactive)
REMARK       I    between atoms: C2_2  and  N1_4 
REMARK    1  A    between atoms: N1_4  and  C3_6 
REMARK    2  A    between atoms: C3_6  and  O2_7 
REMARK    3  A    between atoms: C3_6  and  N2_9 
REMARK    4  A    between atoms: N2_9  and  N3_11 
ROOT
HETATM    1  C3  UNL     1     -13.956  18.499  -2.432  1.00  0.00     0.239 C 
ENDROOT
BRANCH   1   2
HETATM    2  N1  UNL     1     -14.690  17.353  -2.772  1.00  0.00    -0.292 N 
HETATM    3  C2  UNL     1     -15.468  17.142  -3.912  1.00  0.00     0.220 C 
HETATM    4  C1  UNL     1     -16.191  15.861  -4.133  1.00  0.00     0.117 C 
HETATM    5  O1  UNL     1     -15.594  18.007  -4.793  1.00  0.00    -0.274 OA
ATOM      6  H1  UNL     1     -14.650  16.580  -2.107  1.00  0.00     0.172 HD
ENDBRANCH   1   2
BRANCH   1   7
HETATM    7  O2  UNL     1     -12.924  18.321  -1.658  1.00  0.00    -0.331 OA
ATOM      8  H2  UNL     1     -12.081  18.585  -2.008  1.00  0.00     0.221 HD
ENDBRANCH   1   7
BRANCH   1   9
HETATM    9  N2  UNL     1     -14.227  19.816  -2.842  1.00  0.00    -0.251 N 
ATOM     10  H2  UNL     1     -14.828  20.419  -2.280  1.00  0.00     0.192 HD
BRANCH   9  11
HETATM   11  N3  UNL     1     -13.656  20.292  -4.039  1.00  0.00    -0.246 N 
HETATM   12  N4  UNL     1     -12.904  19.526  -4.694  1.00  0.00    -0.331 N 
ATOM     13  H42 UNL     1     -12.722  18.583  -4.353  1.00  0.00     0.178 HD
ATOM     14  H41 UNL     1     -12.492  19.871  -5.561  1.00  0.00     0.178 HD
ATOM     15  H3  UNL     1     -13.849  21.238  -4.367  1.00  0.00     0.208 HD
ENDBRANCH   9  11
ENDBRANCH   1   9
TORSDOF 4
ENDMDL
