MODEL 1
REMARK VINA RESULT: -8.509255753      0.000      0.000
REMARK  8 active torsions:
REMARK  status: ('A' for Active; 'I' for Inactive)
REMARK    1  A    between atoms: N1_4  and  C4_5 
REMARK    2  A    between atoms: C4_5  and  C5_6 
REMARK    3  A    between atoms: C5_6  and  C6_7 
REMARK    4  A    between atoms: C6_7  and  C7_8 
REMARK    5  A    between atoms: C7_8  and  N2_9 
REMARK       I    between atoms: N2_9  and  C8_11 
REMARK    6  A    between atoms: C9_16  and  O1_17 
REMARK    7  A    between atoms: C16_25  and  O2_26 
REMARK    8  A    between atoms: C19_30  and  O3_31 
ROOT
HETATM    1  C1  UNL     1      93.982 116.318 130.101  1.00  0.00     0.041 C 
HETATM    2  C2  UNL     1      92.838 115.469 129.615  1.00  0.00     0.146 C 
HETATM    3  C3  UNL     1      91.552 116.229 129.408  1.00  0.00     0.307 C 
HETATM    4  N1  UNL     1      91.701 117.654 129.211  1.00  0.00     0.126 N 
HETATM    5  C9  UNL     1      91.742 118.069 127.844  1.00  0.00     0.259 C 
HETATM    6  C10 UNL     1      93.069 118.669 127.426  1.00  0.00     0.072 C 
HETATM    7  C11 UNL     1      93.695 117.696 126.435  1.00  0.00     0.010 C 
HETATM    8  C12 UNL     1      92.520 117.192 125.700  1.00  0.00    -0.004 C 
HETATM    9  C13 UNL     1      91.411 117.131 126.765  1.00  0.00     0.076 C 
HETATM   10  C14 UNL     1      92.620 115.874 125.021  1.00  0.00     0.014 C 
HETATM   11  C15 UNL     1      91.533 115.905 123.919  1.00  0.00     0.013 C 
HETATM   12  C16 UNL     1      93.871 115.501 124.365  1.00  0.00     0.122 C 
HETATM   13  C17 UNL     1      94.911 114.802 125.153  1.00  0.00     0.034 C 
HETATM   14  C18 UNL     1      94.499 113.741 126.094  1.00  0.00     0.036 C 
HETATM   15  C19 UNL     1      95.204 113.990 127.423  1.00  0.00     0.142 C 
HETATM   16  C20 UNL     1      94.258 113.927 128.606  1.00  0.00     0.199 C 
HETATM   17  O4  UNL     1      93.160 114.721 128.495  1.00  0.00    -0.382 OA
ENDROOT
BRANCH   4  18
HETATM   18  C4  UNL     1      90.585 118.281 129.933  1.00  0.00     0.276 C 
BRANCH  18  19
HETATM   19  C5  UNL     1      90.832 118.719 131.317  1.00  0.00     0.032 C 
BRANCH  19  20
HETATM   20  C6  UNL     1      89.555 118.923 132.083  1.00  0.00     0.021 C 
BRANCH  20  21
HETATM   21  C7  UNL     1      89.139 120.336 132.276  1.00  0.00     0.122 C 
BRANCH  21  22
HETATM   22  N2  UNL     1      89.061 121.179 131.141  1.00  0.00    -0.365 N 
HETATM   23  C8  UNL     1      88.142 121.153 130.083  1.00  0.00     0.181 C 
HETATM   24  N3  UNL     1      86.872 121.226 130.244  1.00  0.00    -0.374 N 
HETATM   25  N4  UNL     1      88.652 121.071 128.746  1.00  0.00    -0.064 NA
ATOM     26  H32 UNL     1      86.509 121.285 131.195  1.00  0.00     0.158 HD
ATOM     27  H31 UNL     1      86.203 121.208 129.474  1.00  0.00     0.158 HD
ATOM     28  H2  UNL     1      89.774 121.907 131.086  1.00  0.00     0.162 HD
ENDBRANCH  21  22
ENDBRANCH  20  21
ENDBRANCH  19  20
ENDBRANCH  18  19
ENDBRANCH   4  18
BRANCH   5  29
HETATM   29  O1  UNL     1      90.811 119.119 127.691  1.00  0.00    -0.363 OA
ATOM     30  H1  UNL     1      91.296 119.897 127.443  1.00  0.00     0.212 HD
ENDBRANCH   5  29
BRANCH  15  31
HETATM   31  O3  UNL     1      96.252 113.112 127.613  1.00  0.00    -0.393 OA
ATOM     32  H3  UNL     1      96.799 113.373 128.345  1.00  0.00     0.210 HD
ENDBRANCH  15  31
BRANCH  12  33
HETATM   33  O2  UNL     1      93.563 114.648 123.274  1.00  0.00    -0.395 OA
ATOM     34  H2  UNL     1      93.300 115.189 122.539  1.00  0.00     0.210 HD
ENDBRANCH  12  33
TORSDOF 8
ENDMDL
MODEL 2
REMARK VINA RESULT: -8.237632439      2.929      7.241
REMARK  8 active torsions:
REMARK  status: ('A' for Active; 'I' for Inactive)
REMARK    1  A    between atoms: N1_4  and  C4_5 
REMARK    2  A    between atoms: C4_5  and  C5_6 
REMARK    3  A    between atoms: C5_6  and  C6_7 
REMARK    4  A    between atoms: C6_7  and  C7_8 
REMARK    5  A    between atoms: C7_8  and  N2_9 
REMARK       I    between atoms: N2_9  and  C8_11 
REMARK    6  A    between atoms: C9_16  and  O1_17 
REMARK    7  A    between atoms: C16_25  and  O2_26 
REMARK    8  A    between atoms: C19_30  and  O3_31 
ROOT
HETATM    1  C1  UNL     1      92.634 120.047 128.530  1.00  0.00     0.041 C 
HETATM    2  C2  UNL     1      91.486 119.207 128.037  1.00  0.00     0.146 C 
HETATM    3  C3  UNL     1      91.906 117.991 127.252  1.00  0.00     0.307 C 
HETATM    4  N1  UNL     1      93.255 117.532 127.497  1.00  0.00     0.126 N 
HETATM    5  C9  UNL     1      93.367 116.492 128.472  1.00  0.00     0.259 C 
HETATM    6  C10 UNL     1      94.119 116.902 129.721  1.00  0.00     0.072 C 
HETATM    7  C11 UNL     1      93.105 116.920 130.857  1.00  0.00     0.010 C 
HETATM    8  C12 UNL     1      92.226 115.785 130.515  1.00  0.00    -0.004 C 
HETATM    9  C13 UNL     1      92.171 115.807 128.977  1.00  0.00     0.076 C 
HETATM   10  C14 UNL     1      90.842 115.773 131.054  1.00  0.00     0.014 C 
HETATM   11  C15 UNL     1      90.414 114.285 131.029  1.00  0.00     0.013 C 
HETATM   12  C16 UNL     1      90.600 116.256 132.411  1.00  0.00     0.122 C 
HETATM   13  C17 UNL     1      90.313 117.694 132.618  1.00  0.00     0.034 C 
HETATM   14  C18 UNL     1      89.418 118.385 131.668  1.00  0.00     0.036 C 
HETATM   15  C19 UNL     1      90.084 119.694 131.261  1.00  0.00     0.142 C 
HETATM   16  C20 UNL     1      90.086 119.906 129.759  1.00  0.00     0.199 C 
HETATM   17  O4  UNL     1      90.597 118.869 129.042  1.00  0.00    -0.382 OA
ENDROOT
BRANCH   4  18
HETATM   18  C4  UNL     1      93.782 117.108 126.193  1.00  0.00     0.276 C 
BRANCH  18  19
HETATM   19  C5  UNL     1      93.301 117.825 125.000  1.00  0.00     0.032 C 
BRANCH  19  20
HETATM   20  C6  UNL     1      92.876 116.886 123.906  1.00  0.00     0.021 C 
BRANCH  20  21
HETATM   21  C7  UNL     1      91.789 115.937 124.260  1.00  0.00     0.122 C 
BRANCH  21  22
HETATM   22  N2  UNL     1      92.126 114.585 124.506  1.00  0.00    -0.365 N 
HETATM   23  C8  UNL     1      91.971 113.835 125.680  1.00  0.00     0.181 C 
HETATM   24  N3  UNL     1      90.849 113.681 126.282  1.00  0.00    -0.374 N 
HETATM   25  N4  UNL     1      93.125 113.180 126.222  1.00  0.00    -0.064 NA
ATOM     26  H32 UNL     1      90.027 114.147 125.896  1.00  0.00     0.158 HD
ATOM     27  H31 UNL     1      90.736 113.136 127.136  1.00  0.00     0.158 HD
ATOM     28  H2  UNL     1      92.539 114.085 123.718  1.00  0.00     0.162 HD
ENDBRANCH  21  22
ENDBRANCH  20  21
ENDBRANCH  19  20
ENDBRANCH  18  19
ENDBRANCH   4  18
BRANCH   5  29
HETATM   29  O1  UNL     1      94.148 115.462 127.905  1.00  0.00    -0.363 OA
ATOM     30  H1  UNL     1      93.769 114.634 128.178  1.00  0.00     0.212 HD
ENDBRANCH   5  29
BRANCH  15  31
HETATM   31  O3  UNL     1      89.499 120.777 131.886  1.00  0.00    -0.393 OA
ATOM     32  H3  UNL     1      89.944 120.994 132.697  1.00  0.00     0.210 HD
ENDBRANCH  15  31
BRANCH  12  33
HETATM   33  O2  UNL     1      89.487 115.552 132.941  1.00  0.00    -0.395 OA
ATOM     34  H2  UNL     1      88.871 116.187 133.285  1.00  0.00     0.210 HD
ENDBRANCH  12  33
TORSDOF 8
ENDMDL
MODEL 3
REMARK VINA RESULT: -8.209191653      3.619      7.911
REMARK  8 active torsions:
REMARK  status: ('A' for Active; 'I' for Inactive)
REMARK    1  A    between atoms: N1_4  and  C4_5 
REMARK    2  A    between atoms: C4_5  and  C5_6 
REMARK    3  A    between atoms: C5_6  and  C6_7 
REMARK    4  A    between atoms: C6_7  and  C7_8 
REMARK    5  A    between atoms: C7_8  and  N2_9 
REMARK       I    between atoms: N2_9  and  C8_11 
REMARK    6  A    between atoms: C9_16  and  O1_17 
REMARK    7  A    between atoms: C16_25  and  O2_26 
REMARK    8  A    between atoms: C19_30  and  O3_31 
ROOT
HETATM    1  C1  UNL     1      93.332 117.307 125.801  1.00  0.00     0.041 C 
HETATM    2  C2  UNL     1      91.857 117.107 126.027  1.00  0.00     0.146 C 
HETATM    3  C3  UNL     1      91.398 115.680 125.872  1.00  0.00     0.307 C 
HETATM    4  N1  UNL     1      92.430 114.679 126.032  1.00  0.00     0.126 N 
HETATM    5  C9  UNL     1      92.526 114.123 127.346  1.00  0.00     0.259 C 
HETATM    6  C10 UNL     1      93.827 114.443 128.052  1.00  0.00     0.072 C 
HETATM    7  C11 UNL     1      93.479 115.368 129.212  1.00  0.00     0.010 C 
HETATM    8  C12 UNL     1      92.174 114.842 129.655  1.00  0.00    -0.004 C 
HETATM    9  C13 UNL     1      91.491 114.391 128.352  1.00  0.00     0.076 C 
HETATM   10  C14 UNL     1      91.260 115.748 130.399  1.00  0.00     0.014 C 
HETATM   11  C15 UNL     1      90.320 114.808 131.192  1.00  0.00     0.013 C 
HETATM   12  C16 UNL     1      91.819 116.694 131.361  1.00  0.00     0.122 C 
HETATM   13  C17 UNL     1      92.229 118.036 130.890  1.00  0.00     0.034 C 
HETATM   14  C18 UNL     1      91.365 118.747 129.926  1.00  0.00     0.036 C 
HETATM   15  C19 UNL     1      92.250 119.280 128.805  1.00  0.00     0.142 C 
HETATM   16  C20 UNL     1      91.703 118.959 127.428  1.00  0.00     0.199 C 
HETATM   17  O4  UNL     1      91.418 117.644 127.225  1.00  0.00    -0.382 OA
ENDROOT
BRANCH   4  18
HETATM   18  C4  UNL     1      92.149 113.644 125.028  1.00  0.00     0.276 C 
BRANCH  18  19
HETATM   19  C5  UNL     1      92.874 113.725 123.749  1.00  0.00     0.032 C 
BRANCH  19  20
HETATM   20  C6  UNL     1      94.339 113.424 123.906  1.00  0.00     0.021 C 
BRANCH  20  21
HETATM   21  C7  UNL     1      95.267 114.474 123.415  1.00  0.00     0.122 C 
BRANCH  21  22
HETATM   22  N2  UNL     1      96.209 115.021 124.319  1.00  0.00    -0.365 N 
HETATM   23  C8  UNL     1      97.596 114.822 124.377  1.00  0.00     0.181 C 
HETATM   24  N3  UNL     1      98.387 115.046 123.392  1.00  0.00    -0.374 N 
HETATM   25  N4  UNL     1      98.164 114.373 125.613  1.00  0.00    -0.064 NA
ATOM     26  H32 UNL     1      97.983 115.366 122.512  1.00  0.00     0.158 HD
ATOM     27  H31 UNL     1      99.396 114.902 123.435  1.00  0.00     0.158 HD
ATOM     28  H2  UNL     1      95.826 115.647 125.027  1.00  0.00     0.162 HD
ENDBRANCH  21  22
ENDBRANCH  20  21
ENDBRANCH  19  20
ENDBRANCH  18  19
ENDBRANCH   4  18
BRANCH   5  29
HETATM   29  O1  UNL     1      92.528 112.717 127.213  1.00  0.00    -0.363 OA
ATOM     30  H1  UNL     1      93.304 112.390 127.652  1.00  0.00     0.212 HD
ENDBRANCH   5  29
BRANCH  15  31
HETATM   31  O3  UNL     1      92.453 120.641 128.923  1.00  0.00    -0.393 OA
ATOM     32  H3  UNL     1      93.378 120.859 128.893  1.00  0.00     0.210 HD
ENDBRANCH  15  31
BRANCH  12  33
HETATM   33  O2  UNL     1      90.855 116.911 132.380  1.00  0.00    -0.395 OA
ATOM     34  H2  UNL     1      91.294 117.307 133.123  1.00  0.00     0.210 HD
ENDBRANCH  12  33
TORSDOF 8
ENDMDL
MODEL 4
REMARK VINA RESULT: -8.169031256      3.986      8.290
REMARK  8 active torsions:
REMARK  status: ('A' for Active; 'I' for Inactive)
REMARK    1  A    between atoms: N1_4  and  C4_5 
REMARK    2  A    between atoms: C4_5  and  C5_6 
REMARK    3  A    between atoms: C5_6  and  C6_7 
REMARK    4  A    between atoms: C6_7  and  C7_8 
REMARK    5  A    between atoms: C7_8  and  N2_9 
REMARK       I    between atoms: N2_9  and  C8_11 
REMARK    6  A    between atoms: C9_16  and  O1_17 
REMARK    7  A    between atoms: C16_25  and  O2_26 
REMARK    8  A    between atoms: C19_30  and  O3_31 
ROOT
HETATM    1  C1  UNL     1      93.202 117.305 125.985  1.00  0.00     0.041 C 
HETATM    2  C2  UNL     1      91.731 117.056 126.189  1.00  0.00     0.146 C 
HETATM    3  C3  UNL     1      91.320 115.616 126.010  1.00  0.00     0.307 C 
HETATM    4  N1  UNL     1      92.380 114.646 126.171  1.00  0.00     0.126 N 
HETATM    5  C9  UNL     1      92.479 114.076 127.479  1.00  0.00     0.259 C 
HETATM    6  C10 UNL     1      93.760 114.429 128.205  1.00  0.00     0.072 C 
HETATM    7  C11 UNL     1      93.368 115.326 129.372  1.00  0.00     0.010 C 
HETATM    8  C12 UNL     1      92.075 114.754 129.792  1.00  0.00    -0.004 C 
HETATM    9  C13 UNL     1      91.423 114.298 128.474  1.00  0.00     0.076 C 
HETATM   10  C14 UNL     1      91.124 115.620 130.535  1.00  0.00     0.014 C 
HETATM   11  C15 UNL     1      90.205 114.641 131.305  1.00  0.00     0.013 C 
HETATM   12  C16 UNL     1      91.640 116.570 131.517  1.00  0.00     0.122 C 
HETATM   13  C17 UNL     1      92.014 117.931 131.068  1.00  0.00     0.034 C 
HETATM   14  C18 UNL     1      91.140 118.627 130.103  1.00  0.00     0.036 C 
HETATM   15  C19 UNL     1      92.021 119.203 129.000  1.00  0.00     0.142 C 
HETATM   16  C20 UNL     1      91.501 118.883 127.612  1.00  0.00     0.199 C 
HETATM   17  O4  UNL     1      91.260 117.562 127.388  1.00  0.00    -0.382 OA
ENDROOT
BRANCH   4  18
HETATM   18  C4  UNL     1      92.146 113.616 125.149  1.00  0.00     0.276 C 
BRANCH  18  19
HETATM   19  C5  UNL     1      92.782 113.806 123.835  1.00  0.00     0.032 C 
BRANCH  19  20
HETATM   20  C6  UNL     1      94.232 114.181 123.956  1.00  0.00     0.021 C 
BRANCH  20  21
HETATM   21  C7  UNL     1      95.201 113.068 123.785  1.00  0.00     0.122 C 
BRANCH  21  22
HETATM   22  N2  UNL     1      96.031 113.064 122.638  1.00  0.00    -0.365 N 
HETATM   23  C8  UNL     1      95.687 112.825 121.300  1.00  0.00     0.181 C 
HETATM   24  N3  UNL     1      94.791 113.489 120.668  1.00  0.00    -0.374 N 
HETATM   25  N4  UNL     1      96.398 111.802 120.591  1.00  0.00    -0.064 NA
ATOM     26  H32 UNL     1      94.284 114.217 121.172  1.00  0.00     0.158 HD
ATOM     27  H31 UNL     1      94.541 113.315 119.694  1.00  0.00     0.158 HD
ATOM     28  H2  UNL     1      97.017 113.262 122.809  1.00  0.00     0.162 HD
ENDBRANCH  21  22
ENDBRANCH  20  21
ENDBRANCH  19  20
ENDBRANCH  18  19
ENDBRANCH   4  18
BRANCH   5  29
HETATM   29  O1  UNL     1      92.527 112.673 127.327  1.00  0.00    -0.363 OA
ATOM     30  H1  UNL     1      92.411 112.290 128.188  1.00  0.00     0.212 HD
ENDBRANCH   5  29
BRANCH  15  31
HETATM   31  O3  UNL     1      92.179 120.567 129.138  1.00  0.00    -0.393 OA
ATOM     32  H3  UNL     1      92.306 120.991 128.296  1.00  0.00     0.210 HD
ENDBRANCH  15  31
BRANCH  12  33
HETATM   33  O2  UNL     1      90.658 116.743 132.526  1.00  0.00    -0.395 OA
ATOM     34  H2  UNL     1      90.076 117.443 132.257  1.00  0.00     0.210 HD
ENDBRANCH  12  33
TORSDOF 8
ENDMDL
MODEL 5
REMARK VINA RESULT: -8.155407374      3.262      7.325
REMARK  8 active torsions:
REMARK  status: ('A' for Active; 'I' for Inactive)
REMARK    1  A    between atoms: N1_4  and  C4_5 
REMARK    2  A    between atoms: C4_5  and  C5_6 
REMARK    3  A    between atoms: C5_6  and  C6_7 
REMARK    4  A    between atoms: C6_7  and  C7_8 
REMARK    5  A    between atoms: C7_8  and  N2_9 
REMARK       I    between atoms: N2_9  and  C8_11 
REMARK    6  A    between atoms: C9_16  and  O1_17 
REMARK    7  A    between atoms: C16_25  and  O2_26 
REMARK    8  A    between atoms: C19_30  and  O3_31 
ROOT
HETATM    1  C1  UNL     1      93.620 118.067 127.530  1.00  0.00     0.041 C 
HETATM    2  C2  UNL     1      92.371 117.251 127.332  1.00  0.00     0.146 C 
HETATM    3  C3  UNL     1      92.574 115.765 127.487  1.00  0.00     0.307 C 
HETATM    4  N1  UNL     1      93.732 115.378 128.261  1.00  0.00     0.126 N 
HETATM    5  C9  UNL     1      93.470 115.119 129.643  1.00  0.00     0.259 C 
HETATM    6  C10 UNL     1      94.143 116.093 130.587  1.00  0.00     0.072 C 
HETATM    7  C11 UNL     1      93.034 116.911 131.236  1.00  0.00     0.010 C 
HETATM    8  C12 UNL     1      91.955 115.917 131.386  1.00  0.00    -0.004 C 
HETATM    9  C13 UNL     1      92.092 115.025 130.140  1.00  0.00     0.076 C 
HETATM   10  C14 UNL     1      90.553 116.402 131.490  1.00  0.00     0.014 C 
HETATM   11  C15 UNL     1      89.784 115.260 132.197  1.00  0.00     0.013 C 
HETATM   12  C16 UNL     1      90.274 117.623 132.240  1.00  0.00     0.122 C 
HETATM   13  C17 UNL     1      90.322 118.923 131.533  1.00  0.00     0.034 C 
HETATM   14  C18 UNL     1      89.742 119.019 130.179  1.00  0.00     0.036 C 
HETATM   15  C19 UNL     1      90.751 119.732 129.285  1.00  0.00     0.142 C 
HETATM   16  C20 UNL     1      90.984 119.006 127.974  1.00  0.00     0.199 C 
HETATM   17  O4  UNL     1      91.311 117.692 128.106  1.00  0.00    -0.382 OA
ENDROOT
BRANCH   4  18
HETATM   18  C4  UNL     1      94.294 114.199 127.588  1.00  0.00     0.276 C 
BRANCH  18  19
HETATM   19  C5  UNL     1      93.745 113.845 126.269  1.00  0.00     0.032 C 
BRANCH  19  20
HETATM   20  C6  UNL     1      94.787 113.901 125.187  1.00  0.00     0.021 C 
BRANCH  20  21
HETATM   21  C7  UNL     1      94.824 115.157 124.394  1.00  0.00     0.122 C 
BRANCH  21  22
HETATM   22  N2  UNL     1      93.675 115.522 123.653  1.00  0.00    -0.365 N 
HETATM   23  C8  UNL     1      92.792 116.591 123.861  1.00  0.00     0.181 C 
HETATM   24  N3  UNL     1      93.164 117.817 123.920  1.00  0.00    -0.374 N 
HETATM   25  N4  UNL     1      91.395 116.300 123.985  1.00  0.00    -0.064 NA
ATOM     26  H32 UNL     1      94.158 118.025 123.832  1.00  0.00     0.158 HD
ATOM     27  H31 UNL     1      92.521 118.595 124.072  1.00  0.00     0.158 HD
ATOM     28  H2  UNL     1      93.459 114.924 122.855  1.00  0.00     0.162 HD
ENDBRANCH  21  22
ENDBRANCH  20  21
ENDBRANCH  19  20
ENDBRANCH  18  19
ENDBRANCH   4  18
BRANCH   5  29
HETATM   29  O1  UNL     1      94.040 113.866 129.955  1.00  0.00    -0.363 OA
ATOM     30  H1  UNL     1      94.385 113.501 129.149  1.00  0.00     0.212 HD
ENDBRANCH   5  29
BRANCH  15  31
HETATM   31  O3  UNL     1      90.374 121.037 129.037  1.00  0.00    -0.393 OA
ATOM     32  H3  UNL     1      90.357 121.224 128.105  1.00  0.00     0.210 HD
ENDBRANCH  15  31
BRANCH  12  33
HETATM   33  O2  UNL     1      88.969 117.519 132.787  1.00  0.00    -0.395 OA
ATOM     34  H2  UNL     1      89.020 116.996 133.579  1.00  0.00     0.210 HD
ENDBRANCH  12  33
TORSDOF 8
ENDMDL
