MODEL 1
REMARK VINA RESULT: -7.159564450      0.000      0.000
REMARK  9 active torsions:
REMARK  status: ('A' for Active; 'I' for Inactive)
REMARK    1  A    between atoms: C2_2  and  N1_3 
REMARK    2  A    between atoms: N1_3  and  C3_5 
REMARK    3  A    between atoms: C4_8  and  N3_9 
REMARK    4  A    between atoms: N3_9  and  C5_11 
REMARK    5  A    between atoms: C5_11  and  C6_12 
REMARK    6  A    between atoms: C6_12  and  N4_13 
REMARK    7  A    between atoms: C10_24  and  C11_25 
REMARK    8  A    between atoms: N8_29  and  C13_31 
REMARK    9  A    between atoms: C15_33  and  O2_34 
ROOT
HETATM    1  C3  UNL     1      -0.355   6.141  84.808  1.00  0.00     0.680 A 
HETATM    2  N2  UNL     1      -0.735   5.212  85.730  1.00  0.00    -0.176 N 
ATOM      3  H2  UNL     1      -1.056   5.496  86.655  1.00  0.00     0.186 HD
HETATM    4  C4  UNL     1      -0.678   3.916  85.393  1.00  0.00     0.135 A 
HETATM    5  C7  UNL     1      -0.236   3.588  84.137  1.00  0.00     0.107 A 
HETATM    6  C8  UNL     1      -0.265   2.248  83.743  1.00  0.00     0.278 A 
HETATM    7  O1  UNL     1      -0.618   1.370  84.562  1.00  0.00    -0.265 OA
HETATM    8  N5  UNL     1       0.086   1.935  82.492  1.00  0.00    -0.261 N 
HETATM    9  C9  UNL     1       0.022   0.504  82.157  1.00  0.00     0.181 C 
HETATM   10  N6  UNL     1       0.457   2.837  81.644  1.00  0.00    -0.292 N 
ATOM     11  H6  UNL     1       0.713   2.533  80.705  1.00  0.00     0.187 HD
HETATM   12  C10 UNL     1       0.527   4.202  81.934  1.00  0.00     0.107 A 
HETATM   13  C19 UNL     1       0.166   4.521  83.180  1.00  0.00     0.099 A 
HETATM   14  N12 UNL     1       0.076   5.803  83.584  1.00  0.00    -0.188 N 
ATOM     15  H12 UNL     1       0.345   6.543  82.935  1.00  0.00     0.184 HD
ENDROOT
BRANCH  12  16
HETATM   16  C11 UNL     1       1.243   5.018  80.974  1.00  0.00     0.124 A 
HETATM   17  N7  UNL     1       2.571   5.063  81.042  1.00  0.00    -0.185 N 
HETATM   18  C12 UNL     1       3.133   5.880  80.098  1.00  0.00     0.683 A 
ATOM     19  H7  UNL     1       3.116   4.541  81.728  1.00  0.00     0.184 HD
HETATM   20  N8  UNL     1       4.400   6.154  79.862  1.00  0.00    -0.196 N 
HETATM   21  N10 UNL     1       2.078   6.448  79.337  1.00  0.00    -0.171 N 
ATOM     22  H8  UNL     1       4.640   6.797  79.106  1.00  0.00     0.180 HD
HETATM   23  C16 UNL     1       2.230   7.384  78.226  1.00  0.00     0.177 C 
HETATM   24  C17 UNL     1       0.858   5.910  79.892  1.00  0.00     0.148 A 
HETATM   25  N11 UNL     1      -0.307   6.269  79.539  1.00  0.00    -0.378 N 
HETATM   26  C18 UNL     1      -0.720   7.116  78.514  1.00  0.00     0.147 C 
ATOM     27  H11 UNL     1      -1.063   5.872  80.096  1.00  0.00     0.160 HD
BRANCH  20  28
HETATM   28  C13 UNL     1       5.448   5.567  80.645  1.00  0.00     0.306 C 
HETATM   29  C14 UNL     1       6.854   5.830  80.205  1.00  0.00     0.116 C 
HETATM   30  C15 UNL     1       7.139   5.889  81.702  1.00  0.00     0.324 C 
HETATM   31  N9  UNL     1       5.748   6.233  81.894  1.00  0.00    -0.027 N 
ATOM     32  H92 UNL     1       5.470   7.203  82.046  1.00  0.00     0.282 HD
ATOM     33  H91 UNL     1       5.262   5.973  82.752  1.00  0.00     0.282 HD
BRANCH  30  34
HETATM   34  O2  UNL     1       7.507   4.626  82.156  1.00  0.00    -0.369 OA
ATOM     35  H2  UNL     1       7.109   4.463  83.003  1.00  0.00     0.212 HD
ENDBRANCH  30  34
ENDBRANCH  20  28
ENDBRANCH  12  16
BRANCH   4  36
HETATM   36  N3  UNL     1      -1.013   2.956  86.182  1.00  0.00    -0.373 N 
ATOM     37  H3  UNL     1      -0.360   2.181  86.295  1.00  0.00     0.161 HD
BRANCH  36  38
HETATM   38  C5  UNL     1      -2.240   2.906  86.909  1.00  0.00     0.148 C 
BRANCH  38  39
HETATM   39  C6  UNL     1      -2.730   1.491  87.189  1.00  0.00     0.249 C 
BRANCH  39  40
HETATM   40  N4  UNL     1      -1.576   0.621  87.320  1.00  0.00    -0.078 N 
ATOM     41  H43 UNL     1      -1.442   0.023  86.504  1.00  0.00     0.274 HD
ATOM     42  H42 UNL     1      -0.694   1.129  87.266  1.00  0.00     0.274 HD
ATOM     43  H41 UNL     1      -1.670   0.088  88.184  1.00  0.00     0.274 HD
ENDBRANCH  39  40
ENDBRANCH  38  39
ENDBRANCH  36  38
ENDBRANCH   4  36
BRANCH   1  44
HETATM   44  N1  UNL     1      -0.418   7.371  85.148  1.00  0.00    -0.226 N 
ATOM     45  H1  UNL     1       0.030   7.626  86.029  1.00  0.00     0.177 HD
BRANCH  44  46
HETATM   46  C2  UNL     1      -1.052   8.425  84.423  1.00  0.00     0.133 C 
HETATM   47  C1  UNL     1      -2.529   8.171  84.202  1.00  0.00     0.027 C 
ENDBRANCH  44  46
ENDBRANCH   1  44
TORSDOF 9
ENDMDL
MODEL 2
REMARK VINA RESULT: -7.000617239      1.620      1.882
REMARK  9 active torsions:
REMARK  status: ('A' for Active; 'I' for Inactive)
REMARK    1  A    between atoms: C2_2  and  N1_3 
REMARK    2  A    between atoms: N1_3  and  C3_5 
REMARK    3  A    between atoms: C4_8  and  N3_9 
REMARK    4  A    between atoms: N3_9  and  C5_11 
REMARK    5  A    between atoms: C5_11  and  C6_12 
REMARK    6  A    between atoms: C6_12  and  N4_13 
REMARK    7  A    between atoms: C10_24  and  C11_25 
REMARK    8  A    between atoms: N8_29  and  C13_31 
REMARK    9  A    between atoms: C15_33  and  O2_34 
ROOT
HETATM    1  C3  UNL     1      -1.326   6.216  84.480  1.00  0.00     0.680 A 
HETATM    2  N2  UNL     1      -1.371   5.319  85.504  1.00  0.00    -0.176 N 
ATOM      3  H2  UNL     1      -1.633   5.613  86.444  1.00  0.00     0.186 HD
HETATM    4  C4  UNL     1      -1.063   4.040  85.248  1.00  0.00     0.135 A 
HETATM    5  C7  UNL     1      -0.714   3.698  83.966  1.00  0.00     0.107 A 
HETATM    6  C8  UNL     1      -0.487   2.352  83.669  1.00  0.00     0.278 A 
HETATM    7  O1  UNL     1      -0.529   1.500  84.585  1.00  0.00    -0.265 OA
HETATM    8  N5  UNL     1      -0.229   2.006  82.404  1.00  0.00    -0.261 N 
HETATM    9  C9  UNL     1      -0.007   0.570  82.175  1.00  0.00     0.181 C 
HETATM   10  N6  UNL     1      -0.179   2.881  81.456  1.00  0.00    -0.292 N 
ATOM     11  H6  UNL     1       0.024   2.553  80.511  1.00  0.00     0.187 HD
HETATM   12  C10 UNL     1      -0.385   4.250  81.643  1.00  0.00     0.107 A 
HETATM   13  C19 UNL     1      -0.655   4.601  82.904  1.00  0.00     0.099 A 
HETATM   14  N12 UNL     1      -0.983   5.866  83.232  1.00  0.00    -0.188 N 
ATOM     15  H12 UNL     1      -0.970   6.581  82.505  1.00  0.00     0.184 HD
ENDROOT
BRANCH  12  16
HETATM   16  C11 UNL     1       0.005   5.107  80.541  1.00  0.00     0.124 A 
HETATM   17  N7  UNL     1       1.210   4.941  80.001  1.00  0.00    -0.185 N 
HETATM   18  C12 UNL     1       1.471   5.819  78.984  1.00  0.00     0.683 A 
ATOM     19  H7  UNL     1       1.871   4.231  80.313  1.00  0.00     0.184 HD
HETATM   20  N8  UNL     1       2.541   5.939  78.222  1.00  0.00    -0.196 N 
HETATM   21  N10 UNL     1       0.339   6.663  78.842  1.00  0.00    -0.171 N 
ATOM     22  H8  UNL     1       2.564   6.662  77.503  1.00  0.00     0.180 HD
HETATM   23  C16 UNL     1       0.195   7.747  77.873  1.00  0.00     0.177 C 
HETATM   24  C17 UNL     1      -0.608   6.223  79.839  1.00  0.00     0.148 A 
HETATM   25  N11 UNL     1      -1.706   6.809  80.089  1.00  0.00    -0.378 N 
HETATM   26  C18 UNL     1      -2.328   7.875  79.446  1.00  0.00     0.147 C 
ATOM     27  H11 UNL     1      -2.215   6.437  80.891  1.00  0.00     0.160 HD
BRANCH  20  28
HETATM   28  C13 UNL     1       3.672   5.072  78.386  1.00  0.00     0.306 C 
HETATM   29  C14 UNL     1       4.439   4.717  77.152  1.00  0.00     0.116 C 
HETATM   30  C15 UNL     1       5.651   4.815  78.073  1.00  0.00     0.324 C 
HETATM   31  N9  UNL     1       4.869   5.694  78.912  1.00  0.00    -0.027 N 
ATOM     32  H92 UNL     1       4.993   6.705  78.864  1.00  0.00     0.282 HD
ATOM     33  H91 UNL     1       5.034   5.735  79.918  1.00  0.00     0.282 HD
BRANCH  30  34
HETATM   34  O2  UNL     1       5.925   3.562  78.615  1.00  0.00    -0.369 OA
ATOM     35  H2  UNL     1       6.404   3.666  79.430  1.00  0.00     0.212 HD
ENDBRANCH  30  34
ENDBRANCH  20  28
ENDBRANCH  12  16
BRANCH   4  36
HETATM   36  N3  UNL     1      -1.073   3.109  86.137  1.00  0.00    -0.373 N 
ATOM     37  H3  UNL     1      -0.285   2.463  86.160  1.00  0.00     0.161 HD
BRANCH  36  38
HETATM   38  C5  UNL     1      -2.116   2.924  87.093  1.00  0.00     0.148 C 
BRANCH  38  39
HETATM   39  C6  UNL     1      -2.665   1.504  87.135  1.00  0.00     0.249 C 
BRANCH  39  40
HETATM   40  N4  UNL     1      -1.554   0.585  87.310  1.00  0.00    -0.078 N 
ATOM     41  H43 UNL     1      -1.861  -0.376  87.463  1.00  0.00     0.274 HD
ATOM     42  H42 UNL     1      -1.035   0.429  86.446  1.00  0.00     0.274 HD
ATOM     43  H41 UNL     1      -0.964   0.932  88.065  1.00  0.00     0.274 HD
ENDBRANCH  39  40
ENDBRANCH  38  39
ENDBRANCH  36  38
ENDBRANCH   4  36
BRANCH   1  44
HETATM   44  N1  UNL     1      -1.626   7.430  84.744  1.00  0.00    -0.226 N 
ATOM     45  H1  UNL     1      -2.547   7.596  85.151  1.00  0.00     0.177 HD
BRANCH  44  46
HETATM   46  C2  UNL     1      -0.805   8.578  84.528  1.00  0.00     0.133 C 
HETATM   47  C1  UNL     1       0.653   8.316  84.845  1.00  0.00     0.027 C 
ENDBRANCH  44  46
ENDBRANCH   1  44
TORSDOF 9
ENDMDL
MODEL 3
REMARK VINA RESULT: -6.894210630      2.133      4.358
REMARK  9 active torsions:
REMARK  status: ('A' for Active; 'I' for Inactive)
REMARK    1  A    between atoms: C2_2  and  N1_3 
REMARK    2  A    between atoms: N1_3  and  C3_5 
REMARK    3  A    between atoms: C4_8  and  N3_9 
REMARK    4  A    between atoms: N3_9  and  C5_11 
REMARK    5  A    between atoms: C5_11  and  C6_12 
REMARK    6  A    between atoms: C6_12  and  N4_13 
REMARK    7  A    between atoms: C10_24  and  C11_25 
REMARK    8  A    between atoms: N8_29  and  C13_31 
REMARK    9  A    between atoms: C15_33  and  O2_34 
ROOT
HETATM    1  C3  UNL     1      -1.038   6.235  84.600  1.00  0.00     0.680 A 
HETATM    2  N2  UNL     1      -1.258   5.315  85.581  1.00  0.00    -0.176 N 
ATOM      3  H2  UNL     1      -1.596   5.604  86.499  1.00  0.00     0.186 HD
HETATM    4  C4  UNL     1      -1.020   4.024  85.314  1.00  0.00     0.135 A 
HETATM    5  C7  UNL     1      -0.563   3.691  84.064  1.00  0.00     0.107 A 
HETATM    6  C8  UNL     1      -0.406   2.341  83.745  1.00  0.00     0.278 A 
HETATM    7  O1  UNL     1      -0.609   1.470  84.621  1.00  0.00    -0.265 OA
HETATM    8  N5  UNL     1      -0.040   2.010  82.502  1.00  0.00    -0.261 N 
HETATM    9  C9  UNL     1       0.097   0.567  82.247  1.00  0.00     0.181 C 
HETATM   10  N6  UNL     1       0.175   2.904  81.596  1.00  0.00    -0.292 N 
ATOM     11  H6  UNL     1       0.452   2.587  80.667  1.00  0.00     0.187 HD
HETATM   12  C10 UNL     1       0.053   4.279  81.809  1.00  0.00     0.107 A 
HETATM   13  C19 UNL     1      -0.324   4.615  83.047  1.00  0.00     0.099 A 
HETATM   14  N12 UNL     1      -0.590   5.892  83.383  1.00  0.00    -0.188 N 
ATOM     15  H12 UNL     1      -0.447   6.624  82.687  1.00  0.00     0.184 HD
ENDROOT
BRANCH  12  16
HETATM   16  C11 UNL     1       0.620   5.133  80.785  1.00  0.00     0.124 A 
HETATM   17  N7  UNL     1      -0.200   5.891  80.062  1.00  0.00    -0.185 N 
HETATM   18  C12 UNL     1       0.448   6.637  79.115  1.00  0.00     0.683 A 
ATOM     19  H7  UNL     1      -1.210   5.914  80.200  1.00  0.00     0.184 HD
HETATM   20  N8  UNL     1      -0.032   7.498  78.240  1.00  0.00    -0.196 N 
HETATM   21  N10 UNL     1       1.833   6.336  79.203  1.00  0.00    -0.171 N 
ATOM     22  H8  UNL     1       0.607   7.970  77.599  1.00  0.00     0.180 HD
HETATM   23  C16 UNL     1       2.888   6.909  78.371  1.00  0.00     0.177 C 
HETATM   24  C17 UNL     1       1.958   5.367  80.265  1.00  0.00     0.148 A 
HETATM   25  N11 UNL     1       3.040   4.778  80.571  1.00  0.00    -0.378 N 
HETATM   26  C18 UNL     1       4.337   4.969  80.102  1.00  0.00     0.147 C 
ATOM     27  H11 UNL     1       2.944   4.046  81.274  1.00  0.00     0.160 HD
BRANCH  20  28
HETATM   28  C13 UNL     1      -1.436   7.785  78.171  1.00  0.00     0.306 C 
HETATM   29  C14 UNL     1      -1.973   8.786  79.146  1.00  0.00     0.116 C 
HETATM   30  C15 UNL     1      -2.853   9.211  77.974  1.00  0.00     0.324 C 
HETATM   31  N9  UNL     1      -1.848   8.660  77.094  1.00  0.00    -0.027 N 
ATOM     32  H92 UNL     1      -1.172   9.268  76.633  1.00  0.00     0.282 HD
ATOM     33  H91 UNL     1      -2.106   8.278  76.185  1.00  0.00     0.282 HD
BRANCH  30  34
HETATM   34  O2  UNL     1      -4.055   8.511  78.017  1.00  0.00    -0.369 OA
ATOM     35  H2  UNL     1      -3.942   7.715  78.524  1.00  0.00     0.212 HD
ENDBRANCH  30  34
ENDBRANCH  20  28
ENDBRANCH  12  16
BRANCH   4  36
HETATM   36  N3  UNL     1      -1.195   3.073  86.164  1.00  0.00    -0.373 N 
ATOM     37  H3  UNL     1      -0.448   2.386  86.270  1.00  0.00     0.161 HD
BRANCH  36  38
HETATM   38  C5  UNL     1      -2.363   2.918  86.967  1.00  0.00     0.148 C 
BRANCH  38  39
HETATM   39  C6  UNL     1      -2.794   1.469  87.152  1.00  0.00     0.249 C 
BRANCH  39  40
HETATM   40  N4  UNL     1      -1.605   0.653  87.320  1.00  0.00    -0.078 N 
ATOM     41  H43 UNL     1      -0.748   1.157  87.093  1.00  0.00     0.274 HD
ATOM     42  H42 UNL     1      -1.398   0.461  88.300  1.00  0.00     0.274 HD
ATOM     43  H41 UNL     1      -1.717  -0.198  86.768  1.00  0.00     0.274 HD
ENDBRANCH  39  40
ENDBRANCH  38  39
ENDBRANCH  36  38
ENDBRANCH   4  36
BRANCH   1  44
HETATM   44  N1  UNL     1      -1.273   7.460  84.874  1.00  0.00    -0.226 N 
ATOM     45  H1  UNL     1      -1.428   7.688  85.857  1.00  0.00     0.177 HD
BRANCH  44  46
HETATM   46  C2  UNL     1      -1.341   8.545  83.948  1.00  0.00     0.133 C 
HETATM   47  C1  UNL     1      -0.100   9.413  83.979  1.00  0.00     0.027 C 
ENDBRANCH  44  46
ENDBRANCH   1  44
TORSDOF 9
ENDMDL
MODEL 4
REMARK VINA RESULT: -6.840962299      2.234      2.450
REMARK  9 active torsions:
REMARK  status: ('A' for Active; 'I' for Inactive)
REMARK    1  A    between atoms: C2_2  and  N1_3 
REMARK    2  A    between atoms: N1_3  and  C3_5 
REMARK    3  A    between atoms: C4_8  and  N3_9 
REMARK    4  A    between atoms: N3_9  and  C5_11 
REMARK    5  A    between atoms: C5_11  and  C6_12 
REMARK    6  A    between atoms: C6_12  and  N4_13 
REMARK    7  A    between atoms: C10_24  and  C11_25 
REMARK    8  A    between atoms: N8_29  and  C13_31 
REMARK    9  A    between atoms: C15_33  and  O2_34 
ROOT
HETATM    1  C3  UNL     1       0.033   6.004  84.327  1.00  0.00     0.680 A 
HETATM    2  N2  UNL     1       0.111   5.027  85.274  1.00  0.00    -0.176 N 
ATOM      3  H2  UNL     1       0.190   5.264  86.262  1.00  0.00     0.186 HD
HETATM    4  C4  UNL     1       0.080   3.748  84.877  1.00  0.00     0.135 A 
HETATM    5  C7  UNL     1      -0.025   3.485  83.535  1.00  0.00     0.107 A 
HETATM    6  C8  UNL     1      -0.156   2.158  83.119  1.00  0.00     0.278 A 
HETATM    7  O1  UNL     1      -0.098   1.236  83.964  1.00  0.00    -0.265 OA
HETATM    8  N5  UNL     1      -0.342   1.904  81.820  1.00  0.00    -0.261 N 
HETATM    9  C9  UNL     1      -0.476   0.482  81.467  1.00  0.00     0.181 C 
HETATM   10  N6  UNL     1      -0.397   2.851  80.943  1.00  0.00    -0.292 N 
ATOM     11  H6  UNL     1      -0.541   2.591  79.967  1.00  0.00     0.187 HD
HETATM   12  C10 UNL     1      -0.273   4.208  81.248  1.00  0.00     0.107 A 
HETATM   13  C19 UNL     1      -0.099   4.468  82.547  1.00  0.00     0.099 A 
HETATM   14  N12 UNL     1      -0.069   5.730  83.018  1.00  0.00    -0.188 N 
ATOM     15  H12 UNL     1      -0.127   6.504  82.356  1.00  0.00     0.184 HD
ENDROOT
BRANCH  12  16
HETATM   16  C11 UNL     1      -0.057   5.094  80.122  1.00  0.00     0.124 A 
HETATM   17  N7  UNL     1       0.988   4.872  79.329  1.00  0.00    -0.185 N 
HETATM   18  C12 UNL     1       1.099   5.784  78.315  1.00  0.00     0.683 A 
ATOM     19  H7  UNL     1       1.640   4.100  79.464  1.00  0.00     0.184 HD
HETATM   20  N8  UNL     1       1.988   5.869  77.345  1.00  0.00    -0.196 N 
HETATM   21  N10 UNL     1       0.036   6.715  78.453  1.00  0.00    -0.171 N 
ATOM     22  H8  UNL     1       1.918   6.627  76.666  1.00  0.00     0.180 HD
HETATM   23  C16 UNL     1      -0.221   7.858  77.581  1.00  0.00     0.177 C 
HETATM   24  C17 UNL     1      -0.711   6.289  79.613  1.00  0.00     0.148 A 
HETATM   25  N11 UNL     1      -1.679   6.937  80.117  1.00  0.00    -0.378 N 
HETATM   26  C18 UNL     1      -2.334   8.080  79.665  1.00  0.00     0.147 C 
ATOM     27  H11 UNL     1      -2.035   6.559  80.995  1.00  0.00     0.160 HD
BRANCH  20  28
HETATM   28  C13 UNL     1       3.054   4.916  77.227  1.00  0.00     0.306 C 
HETATM   29  C14 UNL     1       3.765   4.852  75.912  1.00  0.00     0.116 C 
HETATM   30  C15 UNL     1       5.000   4.618  76.776  1.00  0.00     0.324 C 
HETATM   31  N9  UNL     1       4.306   5.292  77.849  1.00  0.00    -0.027 N 
ATOM     32  H92 UNL     1       4.506   6.268  78.065  1.00  0.00     0.282 HD
ATOM     33  H91 UNL     1       4.495   5.052  78.823  1.00  0.00     0.282 HD
BRANCH  30  34
HETATM   34  O2  UNL     1       5.190   3.251  76.956  1.00  0.00    -0.369 OA
ATOM     35  H2  UNL     1       4.368   2.845  77.207  1.00  0.00     0.212 HD
ENDBRANCH  30  34
ENDBRANCH  20  28
ENDBRANCH  12  16
BRANCH   4  36
HETATM   36  N3  UNL     1       0.145   2.746  85.683  1.00  0.00    -0.373 N 
ATOM     37  H3  UNL     1       0.882   2.058  85.529  1.00  0.00     0.161 HD
BRANCH  36  38
HETATM   38  C5  UNL     1      -0.746   2.537  86.777  1.00  0.00     0.148 C 
BRANCH  38  39
HETATM   39  C6  UNL     1      -2.218   2.634  86.397  1.00  0.00     0.249 C 
BRANCH  39  40
HETATM   40  N4  UNL     1      -2.912   1.482  86.944  1.00  0.00    -0.078 N 
ATOM     41  H43 UNL     1      -3.914   1.641  87.049  1.00  0.00     0.274 HD
ATOM     42  H42 UNL     1      -2.963   0.706  86.284  1.00  0.00     0.274 HD
ATOM     43  H41 UNL     1      -2.463   1.221  87.822  1.00  0.00     0.274 HD
ENDBRANCH  39  40
ENDBRANCH  38  39
ENDBRANCH  36  38
ENDBRANCH   4  36
BRANCH   1  44
HETATM   44  N1  UNL     1       0.062   7.218  84.727  1.00  0.00    -0.226 N 
ATOM     45  H1  UNL     1       0.726   7.440  85.469  1.00  0.00     0.177 HD
BRANCH  44  46
HETATM   46  C2  UNL     1      -0.741   8.295  84.242  1.00  0.00     0.133 C 
HETATM   47  C1  UNL     1      -2.210   8.111  84.558  1.00  0.00     0.027 C 
ENDBRANCH  44  46
ENDBRANCH   1  44
TORSDOF 9
ENDMDL
MODEL 5
REMARK VINA RESULT: -6.599477792      2.410      5.344
REMARK  9 active torsions:
REMARK  status: ('A' for Active; 'I' for Inactive)
REMARK    1  A    between atoms: C2_2  and  N1_3 
REMARK    2  A    between atoms: N1_3  and  C3_5 
REMARK    3  A    between atoms: C4_8  and  N3_9 
REMARK    4  A    between atoms: N3_9  and  C5_11 
REMARK    5  A    between atoms: C5_11  and  C6_12 
REMARK    6  A    between atoms: C6_12  and  N4_13 
REMARK    7  A    between atoms: C10_24  and  C11_25 
REMARK    8  A    between atoms: N8_29  and  C13_31 
REMARK    9  A    between atoms: C15_33  and  O2_34 
ROOT
HETATM    1  C3  UNL     1      -0.002   2.240  83.422  1.00  0.00     0.680 A 
HETATM    2  N2  UNL     1      -0.870   2.361  84.465  1.00  0.00    -0.176 N 
ATOM      3  H2  UNL     1      -1.252   1.534  84.924  1.00  0.00     0.186 HD
HETATM    4  C4  UNL     1      -1.211   3.589  84.876  1.00  0.00     0.135 A 
HETATM    5  C7  UNL     1      -0.671   4.668  84.222  1.00  0.00     0.107 A 
HETATM    6  C8  UNL     1      -0.944   5.950  84.703  1.00  0.00     0.278 A 
HETATM    7  O1  UNL     1      -1.730   6.096  85.667  1.00  0.00    -0.265 OA
HETATM    8  N5  UNL     1      -0.353   6.998  84.120  1.00  0.00    -0.261 N 
HETATM    9  C9  UNL     1      -0.688   8.312  84.691  1.00  0.00     0.181 C 
HETATM   10  N6  UNL     1       0.455   6.854  83.122  1.00  0.00    -0.292 N 
ATOM     11  H6  UNL     1       0.873   7.693  82.721  1.00  0.00     0.187 HD
HETATM   12  C10 UNL     1       0.792   5.621  82.560  1.00  0.00     0.107 A 
HETATM   13  C19 UNL     1       0.213   4.569  83.147  1.00  0.00     0.099 A 
HETATM   14  N12 UNL     1       0.517   3.305  82.793  1.00  0.00    -0.188 N 
ATOM     15  H12 UNL     1       1.164   3.153  82.019  1.00  0.00     0.184 HD
ENDROOT
BRANCH  12  16
HETATM   16  C11 UNL     1       1.461   5.671  81.275  1.00  0.00     0.124 A 
HETATM   17  N7  UNL     1       0.788   6.137  80.226  1.00  0.00    -0.185 N 
HETATM   18  C12 UNL     1       1.516   6.117  79.066  1.00  0.00     0.683 A 
ATOM     19  H7  UNL     1      -0.172   6.474  80.280  1.00  0.00     0.184 HD
HETATM   20  N8  UNL     1       1.185   6.507  77.852  1.00  0.00    -0.196 N 
HETATM   21  N10 UNL     1       2.791   5.570  79.367  1.00  0.00    -0.171 N 
ATOM     22  H8  UNL     1       1.863   6.417  77.094  1.00  0.00     0.180 HD
HETATM   23  C16 UNL     1       3.881   5.365  78.416  1.00  0.00     0.177 C 
HETATM   24  C17 UNL     1       2.768   5.272  80.780  1.00  0.00     0.148 A 
HETATM   25  N11 UNL     1       3.700   4.672  81.398  1.00  0.00    -0.378 N 
HETATM   26  C18 UNL     1       4.961   4.273  80.966  1.00  0.00     0.147 C 
ATOM     27  H11 UNL     1       3.489   4.444  82.370  1.00  0.00     0.160 HD
BRANCH  20  28
HETATM   28  C13 UNL     1      -0.111   7.056  77.574  1.00  0.00     0.306 C 
HETATM   29  C14 UNL     1      -0.202   8.544  77.437  1.00  0.00     0.116 C 
HETATM   30  C15 UNL     1      -1.216   8.217  76.344  1.00  0.00     0.324 C 
HETATM   31  N9  UNL     1      -0.565   6.935  76.205  1.00  0.00    -0.027 N 
ATOM     32  H92 UNL     1       0.100   6.769  75.450  1.00  0.00     0.282 HD
ATOM     33  H91 UNL     1      -1.092   6.115  75.903  1.00  0.00     0.282 HD
BRANCH  30  34
HETATM   34  O2  UNL     1      -2.495   8.180  76.892  1.00  0.00    -0.369 OA
ATOM     35  H2  UNL     1      -2.440   8.268  77.836  1.00  0.00     0.212 HD
ENDBRANCH  30  34
ENDBRANCH  20  28
ENDBRANCH  12  16
BRANCH   4  36
HETATM   36  N3  UNL     1      -2.020   3.821  85.850  1.00  0.00    -0.373 N 
ATOM     37  H3  UNL     1      -2.232   4.793  86.074  1.00  0.00     0.161 HD
BRANCH  36  38
HETATM   38  C5  UNL     1      -2.639   2.805  86.638  1.00  0.00     0.148 C 
BRANCH  38  39
HETATM   39  C6  UNL     1      -1.752   2.267  87.754  1.00  0.00     0.249 C 
BRANCH  39  40
HETATM   40  N4  UNL     1      -1.456   0.873  87.476  1.00  0.00    -0.078 N 
ATOM     41  H43 UNL     1      -1.729   0.595  86.534  1.00  0.00     0.274 HD
ATOM     42  H42 UNL     1      -0.455   0.696  87.389  1.00  0.00     0.274 HD
ATOM     43  H41 UNL     1      -1.894   0.300  88.197  1.00  0.00     0.274 HD
ENDBRANCH  39  40
ENDBRANCH  38  39
ENDBRANCH  36  38
ENDBRANCH   4  36
BRANCH   1  44
HETATM   44  N1  UNL     1       0.312   1.060  83.047  1.00  0.00    -0.226 N 
ATOM     45  H1  UNL     1       0.987   0.560  83.627  1.00  0.00     0.177 HD
BRANCH  44  46
HETATM   46  C2  UNL     1      -0.184   0.367  81.901  1.00  0.00     0.133 C 
HETATM   47  C1  UNL     1       0.213  -1.094  81.890  1.00  0.00     0.027 C 
ENDBRANCH  44  46
ENDBRANCH   1  44
TORSDOF 9
ENDMDL
