MODEL 1
REMARK VINA RESULT: -9.595888689      0.000      0.000
REMARK  2 active torsions:
REMARK  status: ('A' for Active; 'I' for Inactive)
REMARK    1  A    between atoms: C3_4  and  C4_5 
REMARK    2  A    between atoms: C6_9  and  N2_10 
ROOT
HETATM    1  F1  UNL     1      93.534 119.599   9.645  1.00  0.00    -0.249 F 
HETATM    2  C1  UNL     1      92.182 119.742   9.466  1.00  0.00     0.174 C 
HETATM    3  C2  UNL     1      91.446 119.928  10.794  1.00  0.00     0.076 C 
HETATM    4  C3  UNL     1      90.018 119.458  10.485  1.00  0.00     0.240 C 
HETATM    5  N4  UNL     1      90.054 118.033  10.459  1.00  0.00    -0.056 N 
ATOM      6  H41 UNL     1      89.118 117.635  10.373  1.00  0.00     0.279 HD
ATOM      7  H42 UNL     1      90.305 117.647  11.368  1.00  0.00     0.279 HD
HETATM    8  C11 UNL     1      90.943 117.546   9.404  1.00  0.00     0.133 C 
HETATM    9  C12 UNL     1      91.548 118.706   8.619  1.00  0.00     0.076 C 
HETATM   10  C13 UNL     1      92.048 116.803  10.045  1.00  0.00     0.072 C 
HETATM   11  C14 UNL     1      92.039 115.324   9.873  1.00  0.00     0.189 C 
HETATM   12  C15 UNL     1      92.735 115.022   8.538  1.00  0.00     0.035 C 
HETATM   13  C16 UNL     1      91.620 115.099   7.519  1.00  0.00     0.035 C 
HETATM   14  C17 UNL     1      90.399 115.311   8.372  1.00  0.00     0.189 C 
HETATM   15  C18 UNL     1      90.095 116.767   8.448  1.00  0.00     0.072 C 
HETATM   16  N5  UNL     1      90.723 114.758   9.694  1.00  0.00    -0.067 N 
ATOM     17  H51 UNL     1      90.049 114.947  10.435  1.00  0.00     0.278 HD
ATOM     18  H52 UNL     1      90.656 113.744   9.783  1.00  0.00     0.278 HD
ENDROOT
BRANCH   4  19
HETATM   19  C4  UNL     1      89.062 119.958  11.471  1.00  0.00     0.073 A 
HETATM   20  C5  UNL     1      87.876 120.627  11.225  1.00  0.00     0.134 A 
HETATM   21  N1  UNL     1      87.316 120.899  12.416  1.00  0.00    -0.200 N 
HETATM   22  C6  UNL     1      88.105 120.425  13.422  1.00  0.00     0.680 A 
ATOM     23  H1  UNL     1      86.431 121.389  12.548  1.00  0.00     0.183 HD
HETATM   24  N3  UNL     1      89.154 119.861  12.808  1.00  0.00    -0.192 N 
ATOM     25  H3  UNL     1      89.929 119.413  13.297  1.00  0.00     0.184 HD
BRANCH  22  26
HETATM   26  N2  UNL     1      87.835 120.528  14.820  1.00  0.00    -0.218 N 
HETATM   27  C7  UNL     1      87.407 121.764  15.445  1.00  0.00     0.141 C 
HETATM   28  C8  UNL     1      86.439 121.229  16.504  1.00  0.00     0.022 C 
HETATM   29  C9  UNL     1      87.268 120.052  17.036  1.00  0.00     0.022 C 
HETATM   30  C10 UNL     1      87.932 119.487  15.810  1.00  0.00     0.141 C 
ENDBRANCH  22  26
ENDBRANCH   4  19
TORSDOF 2
ENDMDL
MODEL 2
REMARK VINA RESULT: -9.328810925      1.635      2.126
REMARK  2 active torsions:
REMARK  status: ('A' for Active; 'I' for Inactive)
REMARK    1  A    between atoms: C3_4  and  C4_5 
REMARK    2  A    between atoms: C6_9  and  N2_10 
ROOT
HETATM    1  F1  UNL     1      93.495 116.386  11.675  1.00  0.00    -0.249 F 
HETATM    2  C1  UNL     1      92.980 117.632  11.431  1.00  0.00     0.174 C 
HETATM    3  C2  UNL     1      91.544 117.768  11.942  1.00  0.00     0.076 C 
HETATM    4  C3  UNL     1      90.958 118.896  11.082  1.00  0.00     0.240 C 
HETATM    5  N4  UNL     1      90.676 118.330   9.803  1.00  0.00    -0.056 N 
ATOM      6  H41 UNL     1      90.175 118.986   9.204  1.00  0.00     0.279 HD
ATOM      7  H42 UNL     1      89.966 117.601   9.865  1.00  0.00     0.279 HD
HETATM    8  C11 UNL     1      91.897 117.840   9.162  1.00  0.00     0.133 C 
HETATM    9  C12 UNL     1      93.119 118.106  10.034  1.00  0.00     0.076 C 
HETATM   10  C13 UNL     1      91.767 116.377   8.992  1.00  0.00     0.072 C 
HETATM   11  C14 UNL     1      91.570 115.887   7.599  1.00  0.00     0.189 C 
HETATM   12  C15 UNL     1      92.964 115.743   6.972  1.00  0.00     0.035 C 
HETATM   13  C16 UNL     1      93.250 117.113   6.398  1.00  0.00     0.035 C 
HETATM   14  C17 UNL     1      91.964 117.855   6.642  1.00  0.00     0.189 C 
HETATM   15  C18 UNL     1      92.074 118.634   7.906  1.00  0.00     0.072 C 
HETATM   16  N5  UNL     1      90.913 116.832   6.728  1.00  0.00    -0.067 N 
ATOM     17  H51 UNL     1      89.995 117.158   7.031  1.00  0.00     0.278 HD
ATOM     18  H52 UNL     1      90.575 116.462   5.840  1.00  0.00     0.278 HD
ENDROOT
BRANCH   4  19
HETATM   19  C4  UNL     1      89.763 119.474  11.693  1.00  0.00     0.073 A 
HETATM   20  C5  UNL     1      88.683 120.046  11.045  1.00  0.00     0.134 A 
HETATM   21  N1  UNL     1      87.815 120.445  11.990  1.00  0.00    -0.200 N 
HETATM   22  C6  UNL     1      88.302 120.146  13.228  1.00  0.00     0.680 A 
ATOM     23  H1  UNL     1      86.923 120.905  11.808  1.00  0.00     0.183 HD
HETATM   24  N3  UNL     1      89.486 119.558  13.005  1.00  0.00    -0.192 N 
ATOM     25  H3  UNL     1      90.102 119.216  13.743  1.00  0.00     0.184 HD
BRANCH  22  26
HETATM   26  N2  UNL     1      87.659 120.419  14.472  1.00  0.00    -0.218 N 
HETATM   27  C7  UNL     1      87.795 119.556  15.629  1.00  0.00     0.141 C 
HETATM   28  C8  UNL     1      87.797 120.591  16.758  1.00  0.00     0.022 C 
HETATM   29  C9  UNL     1      86.644 121.486  16.286  1.00  0.00     0.022 C 
HETATM   30  C10 UNL     1      86.805 121.533  14.790  1.00  0.00     0.141 C 
ENDBRANCH  22  26
ENDBRANCH   4  19
TORSDOF 2
ENDMDL
MODEL 3
REMARK VINA RESULT: -9.165488899      2.063      2.977
REMARK  2 active torsions:
REMARK  status: ('A' for Active; 'I' for Inactive)
REMARK    1  A    between atoms: C3_4  and  C4_5 
REMARK    2  A    between atoms: C6_9  and  N2_10 
ROOT
HETATM    1  F1  UNL     1      90.528 113.570  11.257  1.00  0.00    -0.249 F 
HETATM    2  C1  UNL     1      91.120 114.789  11.463  1.00  0.00     0.174 C 
HETATM    3  C2  UNL     1      90.092 115.880  11.769  1.00  0.00     0.076 C 
HETATM    4  C3  UNL     1      90.806 117.176  11.360  1.00  0.00     0.240 C 
HETATM    5  N4  UNL     1      90.761 117.234   9.936  1.00  0.00    -0.056 N 
ATOM      6  H41 UNL     1      91.113 118.125   9.585  1.00  0.00     0.279 HD
ATOM      7  H42 UNL     1      89.803 117.300   9.593  1.00  0.00     0.279 HD
HETATM    8  C11 UNL     1      91.470 116.103   9.337  1.00  0.00     0.133 C 
HETATM    9  C12 UNL     1      92.077 115.207  10.413  1.00  0.00     0.076 C 
HETATM   10  C13 UNL     1      90.489 115.301   8.576  1.00  0.00     0.072 C 
HETATM   11  C14 UNL     1      90.595 115.362   7.092  1.00  0.00     0.189 C 
HETATM   12  C15 UNL     1      91.637 114.316   6.671  1.00  0.00     0.035 C 
HETATM   13  C16 UNL     1      92.952 115.060   6.747  1.00  0.00     0.035 C 
HETATM   14  C17 UNL     1      92.526 116.464   7.077  1.00  0.00     0.189 C 
HETATM   15  C18 UNL     1      92.607 116.673   8.550  1.00  0.00     0.072 C 
HETATM   16  N5  UNL     1      91.147 116.598   6.589  1.00  0.00    -0.067 N 
ATOM     17  H51 UNL     1      90.657 117.450   6.859  1.00  0.00     0.278 HD
ATOM     18  H52 UNL     1      91.040 116.761   5.587  1.00  0.00     0.278 HD
ENDROOT
BRANCH   4  19
HETATM   19  C4  UNL     1      90.182 118.348  11.970  1.00  0.00     0.073 A 
HETATM   20  C5  UNL     1      90.352 119.672  11.607  1.00  0.00     0.134 A 
HETATM   21  N1  UNL     1      89.594 120.414  12.431  1.00  0.00    -0.200 N 
HETATM   22  C6  UNL     1      88.939 119.608  13.315  1.00  0.00     0.680 A 
ATOM     23  H1  UNL     1      89.519 121.431  12.401  1.00  0.00     0.183 HD
HETATM   24  N3  UNL     1      89.323 118.363  13.003  1.00  0.00    -0.192 N 
ATOM     25  H3  UNL     1      89.002 117.526  13.491  1.00  0.00     0.184 HD
BRANCH  22  26
HETATM   26  N2  UNL     1      88.045 120.039  14.340  1.00  0.00    -0.218 N 
HETATM   27  C7  UNL     1      87.911 119.341  15.605  1.00  0.00     0.141 C 
HETATM   28  C8  UNL     1      87.686 120.519  16.557  1.00  0.00     0.022 C 
HETATM   29  C9  UNL     1      86.679 121.329  15.730  1.00  0.00     0.022 C 
HETATM   30  C10 UNL     1      87.164 121.177  14.313  1.00  0.00     0.141 C 
ENDBRANCH  22  26
ENDBRANCH   4  19
TORSDOF 2
ENDMDL
MODEL 4
REMARK VINA RESULT: -9.158929091      1.294      1.583
REMARK  2 active torsions:
REMARK  status: ('A' for Active; 'I' for Inactive)
REMARK    1  A    between atoms: C3_4  and  C4_5 
REMARK    2  A    between atoms: C6_9  and  N2_10 
ROOT
HETATM    1  F1  UNL     1      92.745 120.031   9.507  1.00  0.00    -0.249 F 
HETATM    2  C1  UNL     1      91.456 119.692   9.828  1.00  0.00     0.174 C 
HETATM    3  C2  UNL     1      91.303 119.367  11.315  1.00  0.00     0.076 C 
HETATM    4  C3  UNL     1      90.065 118.461  11.363  1.00  0.00     0.240 C 
HETATM    5  N4  UNL     1      90.482 117.176  10.906  1.00  0.00    -0.056 N 
ATOM      6  H41 UNL     1      89.744 116.480  11.016  1.00  0.00     0.279 HD
ATOM      7  H42 UNL     1      91.178 116.765  11.528  1.00  0.00     0.279 HD
HETATM    8  C11 UNL     1      90.963 117.236   9.526  1.00  0.00     0.133 C 
HETATM    9  C12 UNL     1      90.848 118.651   8.967  1.00  0.00     0.076 C 
HETATM   10  C13 UNL     1      92.392 116.859   9.524  1.00  0.00     0.072 C 
HETATM   11  C14 UNL     1      92.726 115.533   8.935  1.00  0.00     0.189 C 
HETATM   12  C15 UNL     1      92.873 115.737   7.420  1.00  0.00     0.035 C 
HETATM   13  C16 UNL     1      91.467 115.565   6.889  1.00  0.00     0.035 C 
HETATM   14  C17 UNL     1      90.692 115.165   8.115  1.00  0.00     0.189 C 
HETATM   15  C18 UNL     1      90.053 116.370   8.712  1.00  0.00     0.072 C 
HETATM   16  N5  UNL     1      91.665 114.558   9.034  1.00  0.00    -0.067 N 
ATOM     17  H51 UNL     1      91.327 114.358   9.975  1.00  0.00     0.278 HD
ATOM     18  H52 UNL     1      91.925 113.592   8.836  1.00  0.00     0.278 HD
ENDROOT
BRANCH   4  19
HETATM   19  C4  UNL     1      89.495 118.399  12.707  1.00  0.00     0.073 A 
HETATM   20  C5  UNL     1      89.364 117.281  13.511  1.00  0.00     0.134 A 
HETATM   21  N1  UNL     1      88.790 117.678  14.659  1.00  0.00    -0.200 N 
HETATM   22  C6  UNL     1      88.548 119.020  14.620  1.00  0.00     0.680 A 
ATOM     23  H1  UNL     1      88.567 117.066  15.445  1.00  0.00     0.183 HD
HETATM   24  N3  UNL     1      88.989 119.420  13.420  1.00  0.00    -0.192 N 
ATOM     25  H3  UNL     1      88.947 120.383  13.087  1.00  0.00     0.184 HD
BRANCH  22  26
HETATM   26  N2  UNL     1      87.949 119.795  15.657  1.00  0.00    -0.218 N 
HETATM   27  C7  UNL     1      87.617 121.197  15.494  1.00  0.00     0.141 C 
HETATM   28  C8  UNL     1      86.323 121.281  16.308  1.00  0.00     0.022 C 
HETATM   29  C9  UNL     1      86.745 120.472  17.542  1.00  0.00     0.022 C 
HETATM   30  C10 UNL     1      87.585 119.357  16.980  1.00  0.00     0.141 C 
ENDBRANCH  22  26
ENDBRANCH   4  19
TORSDOF 2
ENDMDL
MODEL 5
REMARK VINA RESULT: -9.149252472      1.262      1.549
REMARK  2 active torsions:
REMARK  status: ('A' for Active; 'I' for Inactive)
REMARK    1  A    between atoms: C3_4  and  C4_5 
REMARK    2  A    between atoms: C6_9  and  N2_10 
ROOT
HETATM    1  F1  UNL     1      92.461 118.472   7.657  1.00  0.00    -0.249 F 
HETATM    2  C1  UNL     1      91.214 118.302   8.202  1.00  0.00     0.174 C 
HETATM    3  C2  UNL     1      90.973 119.245   9.383  1.00  0.00     0.076 C 
HETATM    4  C3  UNL     1      89.890 118.531  10.202  1.00  0.00     0.240 C 
HETATM    5  N4  UNL     1      90.540 117.473  10.904  1.00  0.00    -0.056 N 
ATOM      6  H41 UNL     1      89.910 117.018  11.564  1.00  0.00     0.279 HD
ATOM      7  H42 UNL     1      91.228 117.830  11.566  1.00  0.00     0.279 HD
HETATM    8  C11 UNL     1      91.134 116.510   9.976  1.00  0.00     0.133 C 
HETATM    9  C12 UNL     1      90.857 116.902   8.528  1.00  0.00     0.076 C 
HETATM   10  C13 UNL     1      92.597 116.523  10.181  1.00  0.00     0.072 C 
HETATM   11  C14 UNL     1      93.184 115.323  10.839  1.00  0.00     0.189 C 
HETATM   12  C15 UNL     1      93.441 114.285   9.737  1.00  0.00     0.035 C 
HETATM   13  C16 UNL     1      92.134 113.530   9.634  1.00  0.00     0.035 C 
HETATM   14  C17 UNL     1      91.317 114.118  10.752  1.00  0.00     0.189 C 
HETATM   15  C18 UNL     1      90.448 115.201  10.213  1.00  0.00     0.072 C 
HETATM   16  N5  UNL     1      92.280 114.637  11.732  1.00  0.00    -0.067 N 
ATOM     17  H51 UNL     1      91.890 115.197  12.490  1.00  0.00     0.278 HD
ATOM     18  H52 UNL     1      92.703 113.947  12.353  1.00  0.00     0.278 HD
ENDROOT
BRANCH   4  19
HETATM   19  C4  UNL     1      89.212 119.449  11.114  1.00  0.00     0.073 A 
HETATM   20  C5  UNL     1      88.557 120.624  10.787  1.00  0.00     0.134 A 
HETATM   21  N1  UNL     1      88.082 121.149  11.930  1.00  0.00    -0.200 N 
HETATM   22  C6  UNL     1      88.410 120.347  12.983  1.00  0.00     0.680 A 
ATOM     23  H1  UNL     1      87.554 122.019  11.999  1.00  0.00     0.183 HD
HETATM   24  N3  UNL     1      89.095 119.327  12.447  1.00  0.00    -0.192 N 
ATOM     25  H3  UNL     1      89.481 118.552  12.986  1.00  0.00     0.184 HD
BRANCH  22  26
HETATM   26  N2  UNL     1      88.077 120.580  14.351  1.00  0.00    -0.218 N 
HETATM   27  C7  UNL     1      87.815 121.905  14.878  1.00  0.00     0.141 C 
HETATM   28  C8  UNL     1      86.712 121.597  15.893  1.00  0.00     0.022 C 
HETATM   29  C9  UNL     1      87.307 120.341  16.545  1.00  0.00     0.022 C 
HETATM   30  C10 UNL     1      87.945 119.602  15.399  1.00  0.00     0.141 C 
ENDBRANCH  22  26
ENDBRANCH   4  19
TORSDOF 2
ENDMDL
