MODEL 1
REMARK VINA RESULT: -8.165798410      0.000      0.000
REMARK  4 active torsions:
REMARK  status: ('A' for Active; 'I' for Inactive)
REMARK    1  A    between atoms: C2_2  and  C3_3 
REMARK       I    between atoms: C3_3  and  N1_5 
REMARK    2  A    between atoms: C4_7  and  C5_8 
REMARK    3  A    between atoms: C5_8  and  C6_9 
REMARK    4  A    between atoms: C12_17  and  N4_18 
ROOT
HETATM    1  C3  UNL     1      89.272 119.663  11.563  1.00  0.00     0.258 C 
HETATM    2  O1  UNL     1      89.095 120.731  10.880  1.00  0.00    -0.267 OA
HETATM    3  N1  UNL     1      89.758 118.481  10.965  1.00  0.00    -0.252 N 
HETATM    4  N2  UNL     1      89.982 117.261  11.636  1.00  0.00    -0.130 NA
HETATM    5  C4  UNL     1      91.174 116.729  10.850  1.00  0.00     0.111 C 
HETATM    6  C9  UNL     1      90.462 116.853   9.482  1.00  0.00     0.073 C 
HETATM    7  C10 UNL     1      91.313 116.544   8.327  1.00  0.00     0.016 A 
HETATM    8  C11 UNL     1      92.304 117.443   8.022  1.00  0.00     0.059 A 
HETATM    9  N3  UNL     1      93.200 117.087   7.056  1.00  0.00    -0.192 N 
ATOM     10  H3  UNL     1      93.953 117.730   6.810  1.00  0.00     0.184 HD
HETATM   11  C12 UNL     1      93.109 115.906   6.424  1.00  0.00     0.677 A 
HETATM   12  N5  UNL     1      92.134 115.033   6.718  1.00  0.00    -0.181 N 
ATOM     13  H5  UNL     1      92.084 114.144   6.220  1.00  0.00     0.185 HD
HETATM   14  C13 UNL     1      91.222 115.319   7.662  1.00  0.00     0.128 A 
HETATM   15 CL1  UNL     1      89.934 114.184   8.039  1.00  0.00    -0.063 Cl
HETATM   16  C14 UNL     1      92.281 118.841   8.508  1.00  0.00     0.029 C 
HETATM   17  C15 UNL     1      91.226 119.223   9.248  1.00  0.00     0.003 C 
HETATM   18  C16 UNL     1      90.103 118.327   9.575  1.00  0.00     0.141 C 
ENDROOT
BRANCH   1  19
HETATM   19  C2  UNL     1      88.951 119.717  12.976  1.00  0.00     0.065 C 
HETATM   20  C1  UNL     1      88.190 120.655  13.478  1.00  0.00     0.017 C 
ENDBRANCH   1  19
BRANCH   5  21
HETATM   21  C5  UNL     1      91.420 115.364  11.331  1.00  0.00     0.028 C 
BRANCH  21  22
HETATM   22  C6  UNL     1      90.206 114.506  11.596  1.00  0.00    -0.013 A 
HETATM   23  C7  UNL     1      90.177 113.608  12.763  1.00  0.00     0.005 A 
HETATM   24  C8  UNL     1      90.442 113.025  11.437  1.00  0.00     0.005 A 
ENDBRANCH  21  22
ENDBRANCH   5  21
BRANCH  11  25
HETATM   25  N4  UNL     1      93.966 115.599   5.521  1.00  0.00    -0.234 N 
ATOM     26  H42 UNL     1      94.421 114.687   5.562  1.00  0.00     0.174 HD
ATOM     27  H41 UNL     1      94.180 116.264   4.778  1.00  0.00     0.174 HD
ENDBRANCH  11  25
TORSDOF 4
ENDMDL
MODEL 2
REMARK VINA RESULT: -7.941679118      1.113      1.283
REMARK  4 active torsions:
REMARK  status: ('A' for Active; 'I' for Inactive)
REMARK    1  A    between atoms: C2_2  and  C3_3 
REMARK       I    between atoms: C3_3  and  N1_5 
REMARK    2  A    between atoms: C4_7  and  C5_8 
REMARK    3  A    between atoms: C5_8  and  C6_9 
REMARK    4  A    between atoms: C12_17  and  N4_18 
ROOT
HETATM    1  C3  UNL     1      88.873 119.612  12.882  1.00  0.00     0.258 C 
HETATM    2  O1  UNL     1      88.547 120.782  12.481  1.00  0.00    -0.267 OA
HETATM    3  N1  UNL     1      89.397 118.649  11.993  1.00  0.00    -0.252 N 
HETATM    4  N2  UNL     1      89.781 117.339  12.344  1.00  0.00    -0.130 NA
HETATM    5  C4  UNL     1      90.934 117.120  11.373  1.00  0.00     0.111 C 
HETATM    6  C9  UNL     1      90.089 117.475  10.126  1.00  0.00     0.073 C 
HETATM    7  C10 UNL     1      90.851 117.521   8.873  1.00  0.00     0.016 A 
HETATM    8  C11 UNL     1      91.732 118.561   8.714  1.00  0.00     0.059 A 
HETATM    9  N3  UNL     1      92.561 118.523   7.630  1.00  0.00    -0.192 N 
ATOM     10  H3  UNL     1      93.233 119.277   7.486  1.00  0.00     0.184 HD
HETATM   11  C12 UNL     1      92.508 117.511   6.749  1.00  0.00     0.677 A 
HETATM   12  N5  UNL     1      91.639 116.500   6.901  1.00  0.00    -0.181 N 
ATOM     13  H5  UNL     1      91.616 115.745   6.215  1.00  0.00     0.185 HD
HETATM   14  C13 UNL     1      90.798 116.474   7.950  1.00  0.00     0.128 A 
HETATM   15 CL1  UNL     1      89.649 115.159   8.145  1.00  0.00    -0.063 Cl
HETATM   16  C14 UNL     1      91.641 119.804   9.512  1.00  0.00     0.029 C 
HETATM   17  C15 UNL     1      90.632 119.902  10.394  1.00  0.00     0.003 C 
HETATM   18  C16 UNL     1      89.622 118.847  10.584  1.00  0.00     0.141 C 
ENDROOT
BRANCH   1  19
HETATM   19  C2  UNL     1      88.682 119.315  14.290  1.00  0.00     0.065 C 
HETATM   20  C1  UNL     1      87.928 120.056  15.057  1.00  0.00     0.017 C 
ENDBRANCH   1  19
BRANCH   5  21
HETATM   21  C5  UNL     1      91.334 115.714  11.504  1.00  0.00     0.028 C 
BRANCH  21  22
HETATM   22  C6  UNL     1      90.229 114.708  11.722  1.00  0.00    -0.013 A 
HETATM   23  C7  UNL     1      90.448 113.549  12.603  1.00  0.00     0.005 A 
HETATM   24  C8  UNL     1      90.507 113.341  11.147  1.00  0.00     0.005 A 
ENDBRANCH  21  22
ENDBRANCH   5  21
BRANCH  11  25
HETATM   25  N4  UNL     1      93.299 117.502   5.739  1.00  0.00    -0.234 N 
ATOM     26  H42 UNL     1      93.199 116.767   5.040  1.00  0.00     0.174 HD
ATOM     27  H41 UNL     1      94.012 118.226   5.648  1.00  0.00     0.174 HD
ENDBRANCH  11  25
TORSDOF 4
ENDMDL
MODEL 3
REMARK VINA RESULT: -7.649232052      1.541      1.880
REMARK  4 active torsions:
REMARK  status: ('A' for Active; 'I' for Inactive)
REMARK    1  A    between atoms: C2_2  and  C3_3 
REMARK       I    between atoms: C3_3  and  N1_5 
REMARK    2  A    between atoms: C4_7  and  C5_8 
REMARK    3  A    between atoms: C5_8  and  C6_9 
REMARK    4  A    between atoms: C12_17  and  N4_18 
ROOT
HETATM    1  C3  UNL     1      88.792 119.601  12.809  1.00  0.00     0.258 C 
HETATM    2  O1  UNL     1      88.288 120.689  12.362  1.00  0.00    -0.267 OA
HETATM    3  N1  UNL     1      89.393 118.660  11.946  1.00  0.00    -0.252 N 
HETATM    4  N2  UNL     1      89.971 117.439  12.347  1.00  0.00    -0.130 NA
HETATM    5  C4  UNL     1      91.088 117.312  11.319  1.00  0.00     0.111 C 
HETATM    6  C9  UNL     1      90.136 117.467  10.110  1.00  0.00     0.073 C 
HETATM    7  C10 UNL     1      90.814 117.532   8.810  1.00  0.00     0.016 A 
HETATM    8  C11 UNL     1      91.534 118.667   8.535  1.00  0.00     0.059 A 
HETATM    9  N3  UNL     1      92.299 118.668   7.404  1.00  0.00    -0.192 N 
ATOM     10  H3  UNL     1      92.852 119.494   7.175  1.00  0.00     0.184 HD
HETATM   11  C12 UNL     1      92.336 117.602   6.589  1.00  0.00     0.677 A 
HETATM   12  N5  UNL     1      91.624 116.497   6.855  1.00  0.00    -0.181 N 
ATOM     13  H5  UNL     1      91.666 115.702   6.217  1.00  0.00     0.185 HD
HETATM   14  C13 UNL     1      90.854 116.428   7.954  1.00  0.00     0.128 A 
HETATM   15 CL1  UNL     1      89.908 114.987   8.298  1.00  0.00    -0.063 Cl
HETATM   16  C14 UNL     1      91.317 119.937   9.263  1.00  0.00     0.029 C 
HETATM   17  C15 UNL     1      90.354 119.958  10.201  1.00  0.00     0.003 C 
HETATM   18  C16 UNL     1      89.511 118.792  10.516  1.00  0.00     0.141 C 
ENDROOT
BRANCH   1  19
HETATM   19  C2  UNL     1      88.722 119.375  14.240  1.00  0.00     0.065 C 
HETATM   20  C1  UNL     1      87.918 120.060  15.010  1.00  0.00     0.017 C 
ENDBRANCH   1  19
BRANCH   5  21
HETATM   21  C5  UNL     1      91.684 115.984  11.506  1.00  0.00     0.028 C 
BRANCH  21  22
HETATM   22  C6  UNL     1      93.067 115.770  10.939  1.00  0.00    -0.013 A 
HETATM   23  C7  UNL     1      93.326 114.646  10.024  1.00  0.00     0.005 A 
HETATM   24  C8  UNL     1      93.756 114.520  11.426  1.00  0.00     0.005 A 
ENDBRANCH  21  22
ENDBRANCH   5  21
BRANCH  11  25
HETATM   25  N4  UNL     1      93.064 117.632   5.533  1.00  0.00    -0.234 N 
ATOM     26  H42 UNL     1      93.858 116.995   5.463  1.00  0.00     0.174 HD
ATOM     27  H41 UNL     1      92.842 118.286   4.782  1.00  0.00     0.174 HD
ENDBRANCH  11  25
TORSDOF 4
ENDMDL
MODEL 4
REMARK VINA RESULT: -7.613917061      1.209      1.496
REMARK  4 active torsions:
REMARK  status: ('A' for Active; 'I' for Inactive)
REMARK    1  A    between atoms: C2_2  and  C3_3 
REMARK       I    between atoms: C3_3  and  N1_5 
REMARK    2  A    between atoms: C4_7  and  C5_8 
REMARK    3  A    between atoms: C5_8  and  C6_9 
REMARK    4  A    between atoms: C12_17  and  N4_18 
ROOT
HETATM    1  C3  UNL     1      89.079 119.789  11.351  1.00  0.00     0.258 C 
HETATM    2  O1  UNL     1      88.616 120.624  10.499  1.00  0.00    -0.267 OA
HETATM    3  N1  UNL     1      89.769 118.628  10.943  1.00  0.00    -0.252 N 
HETATM    4  N2  UNL     1      90.311 117.656  11.808  1.00  0.00    -0.130 NA
HETATM    5  C4  UNL     1      91.528 117.217  11.002  1.00  0.00     0.111 C 
HETATM    6  C9  UNL     1      90.702 116.891   9.735  1.00  0.00     0.073 C 
HETATM    7  C10 UNL     1      91.508 116.516   8.568  1.00  0.00     0.016 A 
HETATM    8  C11 UNL     1      92.246 117.508   7.972  1.00  0.00     0.059 A 
HETATM    9  N3  UNL     1      93.122 117.138   6.992  1.00  0.00    -0.192 N 
ATOM     10  H3  UNL     1      93.691 117.849   6.534  1.00  0.00     0.184 HD
HETATM   11  C12 UNL     1      93.248 115.853   6.622  1.00  0.00     0.677 A 
HETATM   12  N5  UNL     1      92.519 114.887   7.199  1.00  0.00    -0.181 N 
ATOM     13  H5  UNL     1      92.631 113.919   6.896  1.00  0.00     0.185 HD
HETATM   14  C13 UNL     1      91.642 115.183   8.173  1.00  0.00     0.128 A 
HETATM   15 CL1  UNL     1      90.674 113.921   8.922  1.00  0.00    -0.063 Cl
HETATM   16  C14 UNL     1      91.949 118.944   8.172  1.00  0.00     0.029 C 
HETATM   17  C15 UNL     1      90.896 119.258   8.946  1.00  0.00     0.003 C 
HETATM   18  C16 UNL     1      90.031 118.246   9.578  1.00  0.00     0.141 C 
ENDROOT
BRANCH   1  19
HETATM   19  C2  UNL     1      88.865 120.086  12.755  1.00  0.00     0.065 C 
HETATM   20  C1  UNL     1      87.885 120.851  13.159  1.00  0.00     0.017 C 
ENDBRANCH   1  19
BRANCH   5  21
HETATM   21  C5  UNL     1      92.109 116.069  11.708  1.00  0.00     0.028 C 
BRANCH  21  22
HETATM   22  C6  UNL     1      92.013 116.075  13.216  1.00  0.00    -0.013 A 
HETATM   23  C7  UNL     1      93.077 116.698  14.020  1.00  0.00     0.005 A 
HETATM   24  C8  UNL     1      93.052 115.230  13.910  1.00  0.00     0.005 A 
ENDBRANCH  21  22
ENDBRANCH   5  21
BRANCH  11  25
HETATM   25  N4  UNL     1      94.080 115.535   5.698  1.00  0.00    -0.234 N 
ATOM     26  H42 UNL     1      93.789 115.614   4.723  1.00  0.00     0.174 HD
ATOM     27  H41 UNL     1      95.014 115.210   5.947  1.00  0.00     0.174 HD
ENDBRANCH  11  25
TORSDOF 4
ENDMDL
MODEL 5
REMARK VINA RESULT: -7.601367583      3.184      6.073
REMARK  4 active torsions:
REMARK  status: ('A' for Active; 'I' for Inactive)
REMARK    1  A    between atoms: C2_2  and  C3_3 
REMARK       I    between atoms: C3_3  and  N1_5 
REMARK    2  A    between atoms: C4_7  and  C5_8 
REMARK    3  A    between atoms: C5_8  and  C6_9 
REMARK    4  A    between atoms: C12_17  and  N4_18 
ROOT
HETATM    1  C3  UNL     1      90.835 118.967  10.351  1.00  0.00     0.258 C 
HETATM    2  O1  UNL     1      90.601 120.133  10.824  1.00  0.00    -0.267 OA
HETATM    3  N1  UNL     1      91.057 117.860  11.197  1.00  0.00    -0.252 N 
HETATM    4  N2  UNL     1      91.322 116.545  10.766  1.00  0.00    -0.130 NA
HETATM    5  C4  UNL     1      90.657 115.749  11.882  1.00  0.00     0.111 C 
HETATM    6  C9  UNL     1      91.439 116.471  13.005  1.00  0.00     0.073 C 
HETATM    7  C10 UNL     1      91.026 116.101  14.364  1.00  0.00     0.016 A 
HETATM    8  C11 UNL     1      89.794 116.535  14.784  1.00  0.00     0.059 A 
HETATM    9  N3  UNL     1      89.333 116.061  15.978  1.00  0.00    -0.192 N 
ATOM     10  H3  UNL     1      88.418 116.359  16.316  1.00  0.00     0.184 HD
HETATM   11  C12 UNL     1      90.063 115.209  16.716  1.00  0.00     0.677 A 
HETATM   12  N5  UNL     1      91.271 114.793  16.308  1.00  0.00    -0.181 N 
ATOM     13  H5  UNL     1      91.808 114.149  16.889  1.00  0.00     0.185 HD
HETATM   14  C13 UNL     1      91.782 115.218  15.139  1.00  0.00     0.128 A 
HETATM   15 CL1  UNL     1      93.370 114.687  14.608  1.00  0.00    -0.063 Cl
HETATM   16  C14 UNL     1      89.086 117.659  14.131  1.00  0.00     0.029 C 
HETATM   17  C15 UNL     1      89.708 118.275  13.111  1.00  0.00     0.003 C 
HETATM   18  C16 UNL     1      91.050 117.894  12.638  1.00  0.00     0.141 C 
ENDROOT
BRANCH   1  19
HETATM   19  C2  UNL     1      90.863 118.830   8.907  1.00  0.00     0.065 C 
HETATM   20  C1  UNL     1      91.905 119.179   8.199  1.00  0.00     0.017 C 
ENDBRANCH   1  19
BRANCH   5  21
HETATM   21  C5  UNL     1      91.001 114.340  11.658  1.00  0.00     0.028 C 
BRANCH  21  22
HETATM   22  C6  UNL     1      89.904 113.326  11.882  1.00  0.00    -0.013 A 
HETATM   23  C7  UNL     1      89.083 113.383  13.103  1.00  0.00     0.005 A 
HETATM   24  C8  UNL     1      90.156 112.378  13.027  1.00  0.00     0.005 A 
ENDBRANCH  21  22
ENDBRANCH   5  21
BRANCH  11  25
HETATM   25  N4  UNL     1      89.605 114.780  17.835  1.00  0.00    -0.234 N 
ATOM     26  H42 UNL     1      89.991 113.922  18.230  1.00  0.00     0.174 HD
ATOM     27  H41 UNL     1      88.866 115.297  18.312  1.00  0.00     0.174 HD
ENDBRANCH  11  25
TORSDOF 4
ENDMDL
