MODEL 1
REMARK VINA RESULT: -7.677447302      0.000      0.000
REMARK  6 active torsions:
REMARK  status: ('A' for Active; 'I' for Inactive)
REMARK    1  A    between atoms: C2_2  and  N1_3 
REMARK    2  A    between atoms: N1_3  and  C3_5 
REMARK    3  A    between atoms: C5_9  and  C6_10 
REMARK    4  A    between atoms: C6_10  and  O1_11 
REMARK    5  A    between atoms: N4_17  and  C9_18 
REMARK    6  A    between atoms: C9_18  and  C10_19 
ROOT
HETATM    1  C3  UNL     1      16.709 119.530 129.246  1.00  0.00     0.681 A 
HETATM    2  N2  UNL     1      15.640 120.358 129.248  1.00  0.00    -0.187 N 
ATOM      3  H2  UNL     1      15.438 121.067 128.544  1.00  0.00     0.184 HD
HETATM    4  C4  UNL     1      14.891 120.094 130.326  1.00  0.00     0.102 A 
HETATM    5  C5  UNL     1      13.741 120.451 131.010  1.00  0.00     0.062 A 
HETATM    6  N3  UNL     1      13.640 119.678 132.091  1.00  0.00    -0.363 N 
ATOM      7  H3  UNL     1      12.896 119.709 132.787  1.00  0.00     0.165 HD
HETATM    8  C7  UNL     1      14.700 118.850 132.097  1.00  0.00     0.121 A 
HETATM    9  C8  UNL     1      15.520 119.076 130.998  1.00  0.00     0.096 A 
HETATM   10  N4  UNL     1      16.651 118.719 130.330  1.00  0.00    -0.175 N 
ENDROOT
BRANCH  10  11
HETATM   11  C9  UNL     1      17.524 117.658 130.663  1.00  0.00     0.190 C 
BRANCH  11  12
HETATM   12  C10 UNL     1      16.996 116.324 130.941  1.00  0.00     0.004 A 
HETATM   13  C11 UNL     1      16.285 115.565 130.076  1.00  0.00     0.045 A 
HETATM   14 CL1  UNL     1      15.884 116.083 128.468  1.00  0.00    -0.084 Cl
HETATM   15  C12 UNL     1      15.841 114.279 130.436  1.00  0.00     0.048 A 
HETATM   16  C13 UNL     1      16.105 113.733 131.676  1.00  0.00     0.037 A 
HETATM   17 CL2  UNL     1      15.523 112.135 132.054  1.00  0.00    -0.084 Cl
HETATM   18  C14 UNL     1      16.829 114.494 132.566  1.00  0.00     0.048 A 
HETATM   19  C15 UNL     1      17.255 115.734 132.210  1.00  0.00     0.045 A 
HETATM   20 CL3  UNL     1      18.239 116.625 133.359  1.00  0.00    -0.084 Cl
ENDBRANCH  11  12
ENDBRANCH  10  11
BRANCH   1  21
HETATM   21  N1  UNL     1      17.612 119.648 128.335  1.00  0.00    -0.226 N 
ATOM     22  H1  UNL     1      18.587 119.739 128.620  1.00  0.00     0.177 HD
BRANCH  21  23
HETATM   23  C2  UNL     1      17.297 119.655 126.937  1.00  0.00     0.133 C 
HETATM   24  C1  UNL     1      17.459 118.292 126.301  1.00  0.00     0.027 C 
ENDBRANCH  21  23
ENDBRANCH   1  21
BRANCH   5  25
HETATM   25  C6  UNL     1      12.783 121.530 130.585  1.00  0.00     0.223 C 
BRANCH  25  26
HETATM   26  O1  UNL     1      13.188 122.063 129.383  1.00  0.00    -0.395 OA
ATOM     27  H1  UNL     1      12.628 122.795 129.153  1.00  0.00     0.209 HD
ENDBRANCH  25  26
ENDBRANCH   5  25
TORSDOF 6
ENDMDL
MODEL 2
REMARK VINA RESULT: -7.643165697      2.196      4.297
REMARK  6 active torsions:
REMARK  status: ('A' for Active; 'I' for Inactive)
REMARK    1  A    between atoms: C2_2  and  N1_3 
REMARK    2  A    between atoms: N1_3  and  C3_5 
REMARK    3  A    between atoms: C5_9  and  C6_10 
REMARK    4  A    between atoms: C6_10  and  O1_11 
REMARK    5  A    between atoms: N4_17  and  C9_18 
REMARK    6  A    between atoms: C9_18  and  C10_19 
ROOT
HETATM    1  C3  UNL     1      15.257 118.191 132.044  1.00  0.00     0.681 A 
HETATM    2  N2  UNL     1      14.246 119.047 132.313  1.00  0.00    -0.187 N 
ATOM      3  H2  UNL     1      13.706 119.075 133.178  1.00  0.00     0.184 HD
HETATM    4  C4  UNL     1      14.070 119.854 131.259  1.00  0.00     0.102 A 
HETATM    5  C5  UNL     1      13.319 120.906 130.763  1.00  0.00     0.062 A 
HETATM    6  N3  UNL     1      13.762 121.195 129.539  1.00  0.00    -0.363 N 
ATOM      7  H3  UNL     1      13.403 121.925 128.925  1.00  0.00     0.165 HD
HETATM    8  C7  UNL     1      14.770 120.347 129.262  1.00  0.00     0.121 A 
HETATM    9  C8  UNL     1      15.001 119.480 130.323  1.00  0.00     0.096 A 
HETATM   10  N4  UNL     1      15.744 118.446 130.805  1.00  0.00    -0.175 N 
ENDROOT
BRANCH  10  11
HETATM   11  C9  UNL     1      16.850 117.838 130.170  1.00  0.00     0.190 C 
BRANCH  11  12
HETATM   12  C10 UNL     1      16.682 117.144 128.895  1.00  0.00     0.004 A 
HETATM   13  C11 UNL     1      16.923 117.674 127.675  1.00  0.00     0.045 A 
HETATM   14 CL1  UNL     1      17.478 119.303 127.442  1.00  0.00    -0.084 Cl
HETATM   15  C12 UNL     1      16.751 116.910 126.505  1.00  0.00     0.048 A 
HETATM   16  C13 UNL     1      16.334 115.596 126.544  1.00  0.00     0.037 A 
HETATM   17 CL2  UNL     1      16.141 114.710 125.056  1.00  0.00    -0.084 Cl
HETATM   18  C14 UNL     1      16.086 115.042 127.779  1.00  0.00     0.048 A 
HETATM   19  C15 UNL     1      16.254 115.785 128.903  1.00  0.00     0.045 A 
HETATM   20 CL3  UNL     1      15.997 115.002 130.453  1.00  0.00    -0.084 Cl
ENDBRANCH  11  12
ENDBRANCH  10  11
BRANCH   1  21
HETATM   21  N1  UNL     1      15.561 117.269 132.890  1.00  0.00    -0.226 N 
ATOM     22  H1  UNL     1      16.543 117.022 133.014  1.00  0.00     0.177 HD
BRANCH  21  23
HETATM   23  C2  UNL     1      14.572 116.579 133.664  1.00  0.00     0.133 C 
HETATM   24  C1  UNL     1      15.134 116.016 134.951  1.00  0.00     0.027 C 
ENDBRANCH  21  23
ENDBRANCH   1  21
BRANCH   5  25
HETATM   25  C6  UNL     1      12.200 121.592 131.497  1.00  0.00     0.223 C 
BRANCH  25  26
HETATM   26  O1  UNL     1      11.089 121.661 130.688  1.00  0.00    -0.395 OA
ATOM     27  H1  UNL     1      10.847 122.570 130.555  1.00  0.00     0.209 HD
ENDBRANCH  25  26
ENDBRANCH   5  25
TORSDOF 6
ENDMDL
MODEL 3
REMARK VINA RESULT: -7.595155717      2.155      4.330
REMARK  6 active torsions:
REMARK  status: ('A' for Active; 'I' for Inactive)
REMARK    1  A    between atoms: C2_2  and  N1_3 
REMARK    2  A    between atoms: N1_3  and  C3_5 
REMARK    3  A    between atoms: C5_9  and  C6_10 
REMARK    4  A    between atoms: C6_10  and  O1_11 
REMARK    5  A    between atoms: N4_17  and  C9_18 
REMARK    6  A    between atoms: C9_18  and  C10_19 
ROOT
HETATM    1  C3  UNL     1      15.359 118.036 132.157  1.00  0.00     0.681 A 
HETATM    2  N2  UNL     1      14.370 118.930 132.380  1.00  0.00    -0.187 N 
ATOM      3  H2  UNL     1      13.814 118.999 133.232  1.00  0.00     0.184 HD
HETATM    4  C4  UNL     1      14.240 119.711 131.300  1.00  0.00     0.102 A 
HETATM    5  C5  UNL     1      13.532 120.770 130.758  1.00  0.00     0.062 A 
HETATM    6  N3  UNL     1      14.008 121.009 129.536  1.00  0.00    -0.363 N 
ATOM      7  H3  UNL     1      13.683 121.731 128.894  1.00  0.00     0.165 HD
HETATM    8  C7  UNL     1      14.994 120.124 129.305  1.00  0.00     0.121 A 
HETATM    9  C8  UNL     1      15.177 119.281 130.394  1.00  0.00     0.096 A 
HETATM   10  N4  UNL     1      15.878 118.240 130.921  1.00  0.00    -0.175 N 
ENDROOT
BRANCH  10  11
HETATM   11  C9  UNL     1      16.978 117.580 130.327  1.00  0.00     0.190 C 
BRANCH  11  12
HETATM   12  C10 UNL     1      16.787 116.743 129.144  1.00  0.00     0.004 A 
HETATM   13  C11 UNL     1      16.208 115.521 129.133  1.00  0.00     0.045 A 
HETATM   14 CL1  UNL     1      15.594 114.748 130.562  1.00  0.00    -0.084 Cl
HETATM   15  C12 UNL     1      16.051 114.804 127.931  1.00  0.00     0.048 A 
HETATM   16  C13 UNL     1      16.475 115.306 126.719  1.00  0.00     0.037 A 
HETATM   17 CL2  UNL     1      16.250 114.363 125.271  1.00  0.00    -0.084 Cl
HETATM   18  C14 UNL     1      17.065 116.549 126.714  1.00  0.00     0.048 A 
HETATM   19  C15 UNL     1      17.212 117.235 127.878  1.00  0.00     0.045 A 
HETATM   20 CL3  UNL     1      17.902 118.848 127.800  1.00  0.00    -0.084 Cl
ENDBRANCH  11  12
ENDBRANCH  10  11
BRANCH   1  21
HETATM   21  N1  UNL     1      15.619 117.131 133.035  1.00  0.00    -0.226 N 
ATOM     22  H1  UNL     1      16.589 116.849 133.178  1.00  0.00     0.177 HD
BRANCH  21  23
HETATM   23  C2  UNL     1      14.596 116.506 133.820  1.00  0.00     0.133 C 
HETATM   24  C1  UNL     1      15.110 116.015 135.155  1.00  0.00     0.027 C 
ENDBRANCH  21  23
ENDBRANCH   1  21
BRANCH   5  25
HETATM   25  C6  UNL     1      12.421 121.510 131.449  1.00  0.00     0.223 C 
BRANCH  25  26
HETATM   26  O1  UNL     1      11.331 121.596 130.614  1.00  0.00    -0.395 OA
ATOM     27  H1  UNL     1      10.975 122.476 130.641  1.00  0.00     0.209 HD
ENDBRANCH  25  26
ENDBRANCH   5  25
TORSDOF 6
ENDMDL
MODEL 4
REMARK VINA RESULT: -7.449260182      0.152      1.890
REMARK  6 active torsions:
REMARK  status: ('A' for Active; 'I' for Inactive)
REMARK    1  A    between atoms: C2_2  and  N1_3 
REMARK    2  A    between atoms: N1_3  and  C3_5 
REMARK    3  A    between atoms: C5_9  and  C6_10 
REMARK    4  A    between atoms: C6_10  and  O1_11 
REMARK    5  A    between atoms: N4_17  and  C9_18 
REMARK    6  A    between atoms: C9_18  and  C10_19 
ROOT
HETATM    1  C3  UNL     1      16.732 119.564 129.253  1.00  0.00     0.681 A 
HETATM    2  N2  UNL     1      15.658 120.383 129.326  1.00  0.00    -0.187 N 
ATOM      3  H2  UNL     1      15.433 121.127 128.667  1.00  0.00     0.184 HD
HETATM    4  C4  UNL     1      14.938 120.056 130.407  1.00  0.00     0.102 A 
HETATM    5  C5  UNL     1      13.803 120.366 131.137  1.00  0.00     0.062 A 
HETATM    6  N3  UNL     1      13.735 119.535 132.177  1.00  0.00    -0.363 N 
ATOM      7  H3  UNL     1      13.008 119.523 132.892  1.00  0.00     0.165 HD
HETATM    8  C7  UNL     1      14.800 118.716 132.112  1.00  0.00     0.121 A 
HETATM    9  C8  UNL     1      15.591 119.008 131.007  1.00  0.00     0.096 A 
HETATM   10  N4  UNL     1      16.707 118.696 130.293  1.00  0.00    -0.175 N 
ENDROOT
BRANCH  10  11
HETATM   11  C9  UNL     1      17.595 117.626 130.545  1.00  0.00     0.190 C 
BRANCH  11  12
HETATM   12  C10 UNL     1      17.089 116.341 131.024  1.00  0.00     0.004 A 
HETATM   13  C11 UNL     1      17.299 115.824 132.256  1.00  0.00     0.045 A 
HETATM   14 CL1  UNL     1      18.231 116.633 133.478  1.00  0.00    -0.084 Cl
HETATM   15  C12 UNL     1      16.745 114.584 132.626  1.00  0.00     0.048 A 
HETATM   16  C13 UNL     1      15.967 113.842 131.761  1.00  0.00     0.037 A 
HETATM   17 CL2  UNL     1      15.314 112.314 132.286  1.00  0.00    -0.084 Cl
HETATM   18  C14 UNL     1      15.743 114.356 130.504  1.00  0.00     0.048 A 
HETATM   19  C15 UNL     1      16.281 115.554 130.155  1.00  0.00     0.045 A 
HETATM   20 CL3  UNL     1      15.897 116.195 128.566  1.00  0.00    -0.084 Cl
ENDBRANCH  11  12
ENDBRANCH  10  11
BRANCH   1  21
HETATM   21  N1  UNL     1      17.610 119.738 128.328  1.00  0.00    -0.226 N 
ATOM     22  H1  UNL     1      18.579 119.913 128.597  1.00  0.00     0.177 HD
BRANCH  21  23
HETATM   23  C2  UNL     1      17.278 119.695 126.934  1.00  0.00     0.133 C 
HETATM   24  C1  UNL     1      17.475 118.320 126.335  1.00  0.00     0.027 C 
ENDBRANCH  21  23
ENDBRANCH   1  21
BRANCH   5  25
HETATM   25  C6  UNL     1      12.828 121.458 130.796  1.00  0.00     0.223 C 
BRANCH  25  26
HETATM   26  O1  UNL     1      13.123 121.972 129.554  1.00  0.00    -0.395 OA
ATOM     27  H1  UNL     1      13.140 121.271 128.913  1.00  0.00     0.209 HD
ENDBRANCH  25  26
ENDBRANCH   5  25
TORSDOF 6
ENDMDL
MODEL 5
REMARK VINA RESULT: -7.434454875      1.353      1.773
REMARK  6 active torsions:
REMARK  status: ('A' for Active; 'I' for Inactive)
REMARK    1  A    between atoms: C2_2  and  N1_3 
REMARK    2  A    between atoms: N1_3  and  C3_5 
REMARK    3  A    between atoms: C5_9  and  C6_10 
REMARK    4  A    between atoms: C6_10  and  O1_11 
REMARK    5  A    between atoms: N4_17  and  C9_18 
REMARK    6  A    between atoms: C9_18  and  C10_19 
ROOT
HETATM    1  C3  UNL     1      16.369 119.489 129.883  1.00  0.00     0.681 A 
HETATM    2  N2  UNL     1      15.415 120.393 129.566  1.00  0.00    -0.187 N 
ATOM      3  H2  UNL     1      15.403 120.973 128.728  1.00  0.00     0.184 HD
HETATM    4  C4  UNL     1      14.489 120.403 130.533  1.00  0.00     0.102 A 
HETATM    5  C5  UNL     1      13.300 120.981 130.945  1.00  0.00     0.062 A 
HETATM    6  N3  UNL     1      12.952 120.436 132.110  1.00  0.00    -0.363 N 
ATOM      7  H3  UNL     1      12.121 120.662 132.657  1.00  0.00     0.165 HD
HETATM    8  C7  UNL     1      13.896 119.533 132.434  1.00  0.00     0.121 A 
HETATM    9  C8  UNL     1      14.889 119.478 131.464  1.00  0.00     0.096 A 
HETATM   10  N4  UNL     1      16.058 118.904 131.065  1.00  0.00    -0.175 N 
ENDROOT
BRANCH  10  11
HETATM   11  C9  UNL     1      16.743 117.852 131.715  1.00  0.00     0.190 C 
BRANCH  11  12
HETATM   12  C10 UNL     1      16.302 116.468 131.549  1.00  0.00     0.004 A 
HETATM   13  C11 UNL     1      15.303 115.874 132.240  1.00  0.00     0.045 A 
HETATM   14 CL1  UNL     1      14.377 116.693 133.461  1.00  0.00    -0.084 Cl
HETATM   15  C12 UNL     1      14.940 114.538 131.986  1.00  0.00     0.048 A 
HETATM   16  C13 UNL     1      15.578 113.775 131.030  1.00  0.00     0.037 A 
HETATM   17 CL2  UNL     1      15.078 112.127 130.770  1.00  0.00    -0.084 Cl
HETATM   18  C14 UNL     1      16.596 114.366 130.318  1.00  0.00     0.048 A 
HETATM   19  C15 UNL     1      16.940 115.657 130.568  1.00  0.00     0.045 A 
HETATM   20 CL3  UNL     1      18.194 116.380 129.575  1.00  0.00    -0.084 Cl
ENDBRANCH  11  12
ENDBRANCH  10  11
BRANCH   1  21
HETATM   21  N1  UNL     1      17.404 119.355 129.129  1.00  0.00    -0.226 N 
ATOM     22  H1  UNL     1      18.277 119.033 129.547  1.00  0.00     0.177 HD
BRANCH  21  23
HETATM   23  C2  UNL     1      17.374 119.642 127.725  1.00  0.00     0.133 C 
HETATM   24  C1  UNL     1      16.984 118.436 126.898  1.00  0.00     0.027 C 
ENDBRANCH  21  23
ENDBRANCH   1  21
BRANCH   5  25
HETATM   25  C6  UNL     1      12.548 122.041 130.189  1.00  0.00     0.223 C 
BRANCH  25  26
HETATM   26  O1  UNL     1      12.905 122.005 128.861  1.00  0.00    -0.395 OA
ATOM     27  H1  UNL     1      12.341 121.400 128.394  1.00  0.00     0.209 HD
ENDBRANCH  25  26
ENDBRANCH   5  25
TORSDOF 6
ENDMDL
