MODEL 1
REMARK VINA RESULT: -8.834062835      0.000      0.000
REMARK  8 active torsions:
REMARK  status: ('A' for Active; 'I' for Inactive)
REMARK    1  A    between atoms: C7_7  and  C8_8 
REMARK       I    between atoms: C8_8  and  N1_10 
REMARK    2  A    between atoms: N1_10  and  C10_12 
REMARK    3  A    between atoms: C10_12  and  C11_13 
REMARK    4  A    between atoms: C11_13  and  N2_14 
REMARK       I    between atoms: N3_24  and  C20_25 
REMARK    5  A    between atoms: C20_25  and  C21_27 
REMARK    6  A    between atoms: C26_32  and  C27_33 
REMARK       I    between atoms: C27_33  and  N4_35 
REMARK    7  A    between atoms: N4_35  and  C28_37 
REMARK    8  A    between atoms: C28_37  and  C29_38 
ROOT
HETATM    1  C1  UNL     1      -8.159  -9.614  -4.120  1.00  0.00     0.011 C 
HETATM    2  C2  UNL     1      -6.783  -9.154  -3.778  1.00  0.00    -0.000 C 
HETATM    3  C3  UNL     1      -6.729  -8.284  -2.520  1.00  0.00     0.013 C 
HETATM    4  C4  UNL     1      -5.289  -7.735  -2.554  1.00  0.00     0.013 C 
HETATM    5  C5  UNL     1      -5.289  -6.484  -1.773  1.00  0.00    -0.004 C 
HETATM    6  C6  UNL     1      -5.600  -6.573  -0.342  1.00  0.00     0.019 C 
HETATM    7  C7  UNL     1      -4.519  -6.014   0.577  1.00  0.00     0.079 C 
HETATM    8  C16 UNL     1      -3.309  -6.871   0.620  1.00  0.00     0.022 C 
HETATM    9  C17 UNL     1      -2.844  -7.400  -0.746  1.00  0.00     0.028 C 
HETATM   10  C18 UNL     1      -3.484  -8.700  -1.079  1.00  0.00     0.033 C 
HETATM   11  C19 UNL     1      -4.325  -8.803  -2.257  1.00  0.00     0.092 C 
HETATM   12  N3  UNL     1      -4.952 -10.091  -2.423  1.00  0.00    -0.343 N 
HETATM   13  C20 UNL     1      -4.852 -11.211  -1.591  1.00  0.00     0.247 C 
HETATM   14  O3  UNL     1      -4.136 -11.119  -0.538  1.00  0.00    -0.268 OA
HETATM   15  C35 UNL     1      -5.764 -10.226  -3.649  1.00  0.00     0.130 C 
HETATM   16  C36 UNL     1      -2.774  -6.314  -1.734  1.00  0.00     0.104 C 
HETATM   17  C37 UNL     1      -1.836  -6.578  -2.892  1.00  0.00     0.052 C 
HETATM   18  F1  UNL     1      -2.128  -5.268  -1.025  1.00  0.00    -0.243 F 
HETATM   19  C38 UNL     1      -4.063  -5.704  -2.160  1.00  0.00     0.048 C 
ENDROOT
BRANCH  13  20
HETATM   20  C21 UNL     1      -5.478 -12.554  -1.753  1.00  0.00     0.001 C 
HETATM   21  C22 UNL     1      -4.547 -13.628  -2.164  1.00  0.00     0.041 C 
HETATM   22  C23 UNL     1      -4.725 -14.990  -1.656  1.00  0.00     0.004 C 
HETATM   23  C24 UNL     1      -5.727 -15.167  -0.548  1.00  0.00     0.001 C 
HETATM   24  C25 UNL     1      -6.889 -14.248  -0.671  1.00  0.00     0.019 C 
HETATM   25  C26 UNL     1      -6.451 -12.789  -0.670  1.00  0.00     0.112 C 
BRANCH  25  26
HETATM   26  C27 UNL     1      -7.740 -12.053  -1.013  1.00  0.00     0.226 C 
HETATM   27  O4  UNL     1      -8.420 -12.444  -1.963  1.00  0.00    -0.273 OA
HETATM   28  N4  UNL     1      -8.101 -10.930  -0.202  1.00  0.00    -0.360 N 
ATOM     29  H4  UNL     1      -7.520 -10.624   0.579  1.00  0.00     0.162 HD
BRANCH  28  30
HETATM   30  C28 UNL     1      -9.334 -10.246  -0.547  1.00  0.00     0.127 C 
BRANCH  30  31
HETATM   31  C29 UNL     1      -9.340  -8.849   0.013  1.00  0.00     0.003 C 
HETATM   32  C30 UNL     1      -8.288  -8.707   1.079  1.00  0.00     0.006 C 
HETATM   33  C31 UNL     1      -8.786  -7.587   2.004  1.00  0.00     0.000 C 
HETATM   34  C32 UNL     1      -9.891  -8.213   2.827  1.00  0.00     0.000 C 
HETATM   35  C33 UNL     1     -10.960  -8.803   1.937  1.00  0.00     0.000 C 
HETATM   36  C34 UNL     1     -10.723  -8.522   0.487  1.00  0.00     0.006 C 
ENDBRANCH  30  31
ENDBRANCH  28  30
ENDBRANCH  25  26
ENDBRANCH  13  20
BRANCH   7  37
HETATM   37  C8  UNL     1      -5.142  -5.972   1.922  1.00  0.00     0.223 C 
HETATM   38  O1  UNL     1      -5.485  -7.135   2.386  1.00  0.00    -0.273 OA
HETATM   39  N1  UNL     1      -5.398  -4.857   2.722  1.00  0.00    -0.354 N 
HETATM   40  C9  UNL     1      -6.063  -5.062   4.007  1.00  0.00     0.152 C 
BRANCH  39  41
HETATM   41  C10 UNL     1      -5.031  -3.526   2.373  1.00  0.00     0.155 C 
BRANCH  41  42
HETATM   42  C11 UNL     1      -3.909  -2.917   3.131  1.00  0.00     0.292 C 
BRANCH  42  43
HETATM   43  N2  UNL     1      -2.635  -3.590   3.004  1.00  0.00     0.094 N 
HETATM   44  C12 UNL     1      -2.204  -3.377   1.636  1.00  0.00     0.298 C 
HETATM   45  C13 UNL     1      -1.531  -2.046   1.414  1.00  0.00     0.198 C 
HETATM   46  O2  UNL     1      -0.347  -2.107   2.182  1.00  0.00    -0.388 OA
HETATM   47  C14 UNL     1      -0.749  -2.053   3.490  1.00  0.00     0.198 C 
HETATM   48  C15 UNL     1      -1.639  -3.159   3.952  1.00  0.00     0.298 C 
ENDBRANCH  42  43
ENDBRANCH  41  42
ENDBRANCH  39  41
ENDBRANCH   7  37
TORSDOF 8
ENDMDL
MODEL 2
REMARK VINA RESULT: -8.783262001      1.808      2.624
REMARK  8 active torsions:
REMARK  status: ('A' for Active; 'I' for Inactive)
REMARK    1  A    between atoms: C7_7  and  C8_8 
REMARK       I    between atoms: C8_8  and  N1_10 
REMARK    2  A    between atoms: N1_10  and  C10_12 
REMARK    3  A    between atoms: C10_12  and  C11_13 
REMARK    4  A    between atoms: C11_13  and  N2_14 
REMARK       I    between atoms: N3_24  and  C20_25 
REMARK    5  A    between atoms: C20_25  and  C21_27 
REMARK    6  A    between atoms: C26_32  and  C27_33 
REMARK       I    between atoms: C27_33  and  N4_35 
REMARK    7  A    between atoms: N4_35  and  C28_37 
REMARK    8  A    between atoms: C28_37  and  C29_38 
ROOT
HETATM    1  C1  UNL     1      -8.089  -9.038  -4.328  1.00  0.00     0.011 C 
HETATM    2  C2  UNL     1      -6.682  -8.684  -3.988  1.00  0.00    -0.000 C 
HETATM    3  C3  UNL     1      -6.565  -7.755  -2.778  1.00  0.00     0.013 C 
HETATM    4  C4  UNL     1      -5.082  -7.338  -2.817  1.00  0.00     0.013 C 
HETATM    5  C5  UNL     1      -4.979  -6.051  -2.104  1.00  0.00    -0.004 C 
HETATM    6  C6  UNL     1      -5.313  -6.034  -0.676  1.00  0.00     0.019 C 
HETATM    7  C7  UNL     1      -4.197  -5.524   0.230  1.00  0.00     0.079 C 
HETATM    8  C16 UNL     1      -3.070  -6.481   0.339  1.00  0.00     0.022 C 
HETATM    9  C17 UNL     1      -2.638  -7.123  -0.989  1.00  0.00     0.028 C 
HETATM   10  C18 UNL     1      -3.387  -8.377  -1.262  1.00  0.00     0.033 C 
HETATM   11  C19 UNL     1      -4.220  -8.469  -2.448  1.00  0.00     0.092 C 
HETATM   12  N3  UNL     1      -4.958  -9.704  -2.555  1.00  0.00    -0.343 N 
HETATM   13  C20 UNL     1      -4.967 -10.781  -1.663  1.00  0.00     0.247 C 
HETATM   14  O3  UNL     1      -4.259 -10.696  -0.604  1.00  0.00    -0.268 OA
HETATM   15  C35 UNL     1      -5.764  -9.834  -3.785  1.00  0.00     0.130 C 
HETATM   16  C36 UNL     1      -2.459  -6.103  -2.032  1.00  0.00     0.104 C 
HETATM   17  C37 UNL     1      -1.535  -6.511  -3.159  1.00  0.00     0.052 C 
HETATM   18  F1  UNL     1      -1.731  -5.080  -1.370  1.00  0.00    -0.243 F 
HETATM   19  C38 UNL     1      -3.684  -5.405  -2.511  1.00  0.00     0.048 C 
ENDROOT
BRANCH  13  20
HETATM   20  C21 UNL     1      -5.709 -12.071  -1.764  1.00  0.00     0.001 C 
HETATM   21  C22 UNL     1      -5.009 -13.132  -2.519  1.00  0.00     0.041 C 
HETATM   22  C23 UNL     1      -5.136 -14.532  -2.110  1.00  0.00     0.004 C 
HETATM   23  C24 UNL     1      -5.800 -14.786  -0.784  1.00  0.00     0.001 C 
HETATM   24  C25 UNL     1      -6.881 -13.810  -0.486  1.00  0.00     0.019 C 
HETATM   25  C26 UNL     1      -6.357 -12.380  -0.475  1.00  0.00     0.112 C 
BRANCH  25  26
HETATM   26  C27 UNL     1      -7.633 -11.556  -0.368  1.00  0.00     0.226 C 
HETATM   27  O4  UNL     1      -7.779 -10.797   0.592  1.00  0.00    -0.273 OA
HETATM   28  N4  UNL     1      -8.612 -11.707  -1.401  1.00  0.00    -0.360 N 
ATOM     29  H4  UNL     1      -8.469 -12.343  -2.186  1.00  0.00     0.162 HD
BRANCH  28  30
HETATM   30  C28 UNL     1      -9.819 -10.909  -1.278  1.00  0.00     0.127 C 
BRANCH  30  31
HETATM   31  C29 UNL     1     -10.895 -11.434  -2.188  1.00  0.00     0.003 C 
HETATM   32  C30 UNL     1     -12.166 -11.666  -1.418  1.00  0.00     0.006 C 
HETATM   33  C31 UNL     1     -12.919 -12.763  -2.185  1.00  0.00     0.000 C 
HETATM   34  C32 UNL     1     -12.192 -14.049  -1.857  1.00  0.00     0.000 C 
HETATM   35  C33 UNL     1     -10.726 -13.944  -2.206  1.00  0.00     0.000 C 
HETATM   36  C34 UNL     1     -10.386 -12.657  -2.889  1.00  0.00     0.006 C 
ENDBRANCH  30  31
ENDBRANCH  28  30
ENDBRANCH  25  26
ENDBRANCH  13  20
BRANCH   7  37
HETATM   37  C8  UNL     1      -4.830  -5.353   1.560  1.00  0.00     0.223 C 
HETATM   38  O1  UNL     1      -5.647  -6.308   1.887  1.00  0.00    -0.273 OA
HETATM   39  N1  UNL     1      -4.657  -4.313   2.474  1.00  0.00    -0.354 N 
HETATM   40  C9  UNL     1      -5.425  -4.343   3.717  1.00  0.00     0.152 C 
BRANCH  39  41
HETATM   41  C10 UNL     1      -3.757  -3.226   2.280  1.00  0.00     0.155 C 
BRANCH  41  42
HETATM   42  C11 UNL     1      -2.372  -3.565   1.867  1.00  0.00     0.292 C 
BRANCH  42  43
HETATM   43  N2  UNL     1      -1.375  -3.495   2.913  1.00  0.00     0.094 N 
HETATM   44  C12 UNL     1      -1.474  -4.744   3.643  1.00  0.00     0.298 C 
HETATM   45  C13 UNL     1      -0.726  -5.883   2.997  1.00  0.00     0.198 C 
HETATM   46  O2  UNL     1       0.634  -5.507   3.065  1.00  0.00    -0.388 OA
HETATM   47  C14 UNL     1       0.781  -4.476   2.175  1.00  0.00     0.198 C 
HETATM   48  C15 UNL     1      -0.035  -3.255   2.441  1.00  0.00     0.298 C 
ENDBRANCH  42  43
ENDBRANCH  41  42
ENDBRANCH  39  41
ENDBRANCH   7  37
TORSDOF 8
ENDMDL
MODEL 3
REMARK VINA RESULT: -8.458384309      3.435      9.602
REMARK  8 active torsions:
REMARK  status: ('A' for Active; 'I' for Inactive)
REMARK    1  A    between atoms: C7_7  and  C8_8 
REMARK       I    between atoms: C8_8  and  N1_10 
REMARK    2  A    between atoms: N1_10  and  C10_12 
REMARK    3  A    between atoms: C10_12  and  C11_13 
REMARK    4  A    between atoms: C11_13  and  N2_14 
REMARK       I    between atoms: N3_24  and  C20_25 
REMARK    5  A    between atoms: C20_25  and  C21_27 
REMARK    6  A    between atoms: C26_32  and  C27_33 
REMARK       I    between atoms: C27_33  and  N4_35 
REMARK    7  A    between atoms: N4_35  and  C28_37 
REMARK    8  A    between atoms: C28_37  and  C29_38 
ROOT
HETATM    1  C1  UNL     1      -3.092  -8.676   2.609  1.00  0.00     0.011 C 
HETATM    2  C2  UNL     1      -3.602  -9.543   1.509  1.00  0.00    -0.000 C 
HETATM    3  C3  UNL     1      -5.125  -9.528   1.379  1.00  0.00     0.013 C 
HETATM    4  C4  UNL     1      -5.390 -10.680   0.390  1.00  0.00     0.013 C 
HETATM    5  C5  UNL     1      -6.773 -11.137   0.624  1.00  0.00    -0.004 C 
HETATM    6  C6  UNL     1      -7.859 -10.188   0.359  1.00  0.00     0.019 C 
HETATM    7  C7  UNL     1      -8.894 -10.674  -0.650  1.00  0.00     0.079 C 
HETATM    8  C16 UNL     1      -8.366 -10.707  -2.036  1.00  0.00     0.022 C 
HETATM    9  C17 UNL     1      -6.948 -11.285  -2.173  1.00  0.00     0.028 C 
HETATM   10  C18 UNL     1      -5.910 -10.229  -2.037  1.00  0.00     0.033 C 
HETATM   11  C19 UNL     1      -4.942 -10.312  -0.959  1.00  0.00     0.092 C 
HETATM   12  N3  UNL     1      -4.042  -9.186  -0.888  1.00  0.00    -0.343 N 
HETATM   13  C20 UNL     1      -4.012  -8.055  -1.710  1.00  0.00     0.247 C 
HETATM   14  O3  UNL     1      -4.878  -7.962  -2.643  1.00  0.00    -0.268 OA
HETATM   15  C35 UNL     1      -3.016  -9.286   0.169  1.00  0.00     0.130 C 
HETATM   16  C36 UNL     1      -6.829 -12.562  -1.456  1.00  0.00     0.104 C 
HETATM   17  C37 UNL     1      -5.723 -13.464  -1.958  1.00  0.00     0.052 C 
HETATM   18  F1  UNL     1      -8.010 -13.258  -1.827  1.00  0.00    -0.243 F 
HETATM   19  C38 UNL     1      -6.906 -12.512   0.030  1.00  0.00     0.048 C 
ENDROOT
BRANCH  13  20
HETATM   20  C21 UNL     1      -3.081  -6.891  -1.663  1.00  0.00     0.001 C 
HETATM   21  C22 UNL     1      -2.055  -6.873  -2.728  1.00  0.00     0.041 C 
HETATM   22  C23 UNL     1      -1.620  -5.601  -3.308  1.00  0.00     0.004 C 
HETATM   23  C24 UNL     1      -2.424  -4.384  -2.937  1.00  0.00     0.001 C 
HETATM   24  C25 UNL     1      -2.945  -4.442  -1.546  1.00  0.00     0.019 C 
HETATM   25  C26 UNL     1      -3.829  -5.664  -1.329  1.00  0.00     0.112 C 
BRANCH  25  26
HETATM   26  C27 UNL     1      -4.070  -5.640   0.174  1.00  0.00     0.226 C 
HETATM   27  O4  UNL     1      -5.135  -6.074   0.618  1.00  0.00    -0.273 OA
HETATM   28  N4  UNL     1      -3.034  -5.110   1.007  1.00  0.00    -0.360 N 
ATOM     29  H4  UNL     1      -2.161  -4.756   0.616  1.00  0.00     0.162 HD
BRANCH  28  30
HETATM   30  C28 UNL     1      -3.287  -5.100   2.436  1.00  0.00     0.127 C 
BRANCH  30  31
HETATM   31  C29 UNL     1      -2.238  -4.296   3.154  1.00  0.00     0.003 C 
HETATM   32  C30 UNL     1      -1.611  -3.298   2.220  1.00  0.00     0.006 C 
HETATM   33  C31 UNL     1      -0.203  -3.039   2.776  1.00  0.00     0.000 C 
HETATM   34  C32 UNL     1       0.602  -4.265   2.407  1.00  0.00     0.000 C 
HETATM   35  C33 UNL     1      -0.051  -5.521   2.935  1.00  0.00     0.000 C 
HETATM   36  C34 UNL     1      -1.251  -5.233   3.782  1.00  0.00     0.006 C 
ENDBRANCH  30  31
ENDBRANCH  28  30
ENDBRANCH  25  26
ENDBRANCH  13  20
BRANCH   7  37
HETATM   37  C8  UNL     1     -10.002  -9.693  -0.568  1.00  0.00     0.223 C 
HETATM   38  O1  UNL     1      -9.623  -8.486  -0.275  1.00  0.00    -0.273 OA
HETATM   39  N1  UNL     1     -11.367  -9.911  -0.759  1.00  0.00    -0.354 N 
HETATM   40  C9  UNL     1     -12.283  -8.785  -0.586  1.00  0.00     0.152 C 
BRANCH  39  41
HETATM   41  C10 UNL     1     -11.927 -11.165  -1.136  1.00  0.00     0.155 C 
BRANCH  41  42
HETATM   42  C11 UNL     1     -13.131 -11.130  -2.005  1.00  0.00     0.292 C 
BRANCH  42  43
HETATM   43  N2  UNL     1     -14.253 -11.919  -1.546  1.00  0.00     0.094 N 
HETATM   44  C12 UNL     1     -15.071 -11.026  -0.749  1.00  0.00     0.298 C 
HETATM   45  C13 UNL     1     -16.001 -10.166  -1.567  1.00  0.00     0.198 C 
HETATM   46  O2  UNL     1     -16.901 -11.076  -2.167  1.00  0.00    -0.388 OA
HETATM   47  C14 UNL     1     -16.173 -11.754  -3.108  1.00  0.00     0.198 C 
HETATM   48  C15 UNL     1     -15.012 -12.542  -2.601  1.00  0.00     0.298 C 
ENDBRANCH  42  43
ENDBRANCH  41  42
ENDBRANCH  39  41
ENDBRANCH   7  37
TORSDOF 8
ENDMDL
MODEL 4
REMARK VINA RESULT: -8.269746577      1.871      3.111
REMARK  8 active torsions:
REMARK  status: ('A' for Active; 'I' for Inactive)
REMARK    1  A    between atoms: C7_7  and  C8_8 
REMARK       I    between atoms: C8_8  and  N1_10 
REMARK    2  A    between atoms: N1_10  and  C10_12 
REMARK    3  A    between atoms: C10_12  and  C11_13 
REMARK    4  A    between atoms: C11_13  and  N2_14 
REMARK       I    between atoms: N3_24  and  C20_25 
REMARK    5  A    between atoms: C20_25  and  C21_27 
REMARK    6  A    between atoms: C26_32  and  C27_33 
REMARK       I    between atoms: C27_33  and  N4_35 
REMARK    7  A    between atoms: N4_35  and  C28_37 
REMARK    8  A    between atoms: C28_37  and  C29_38 
ROOT
HETATM    1  C1  UNL     1      -8.054  -9.698  -4.209  1.00  0.00     0.011 C 
HETATM    2  C2  UNL     1      -6.703  -9.198  -3.824  1.00  0.00    -0.000 C 
HETATM    3  C3  UNL     1      -6.715  -8.315  -2.575  1.00  0.00     0.013 C 
HETATM    4  C4  UNL     1      -5.290  -7.729  -2.565  1.00  0.00     0.013 C 
HETATM    5  C5  UNL     1      -5.349  -6.470  -1.798  1.00  0.00    -0.004 C 
HETATM    6  C6  UNL     1      -5.708  -6.553  -0.378  1.00  0.00     0.019 C 
HETATM    7  C7  UNL     1      -4.674  -5.957   0.572  1.00  0.00     0.079 C 
HETATM    8  C16 UNL     1      -3.445  -6.781   0.666  1.00  0.00     0.022 C 
HETATM    9  C17 UNL     1      -2.919  -7.311  -0.677  1.00  0.00     0.028 C 
HETATM   10  C18 UNL     1      -3.513  -8.630  -1.017  1.00  0.00     0.033 C 
HETATM   11  C19 UNL     1      -4.309  -8.767  -2.223  1.00  0.00     0.092 C 
HETATM   12  N3  UNL     1      -4.897 -10.073  -2.397  1.00  0.00    -0.343 N 
HETATM   13  C20 UNL     1      -4.796 -11.181  -1.550  1.00  0.00     0.247 C 
HETATM   14  O3  UNL     1      -4.120 -11.061  -0.473  1.00  0.00    -0.268 OA
HETATM   15  C35 UNL     1      -5.661 -10.242  -3.649  1.00  0.00     0.130 C 
HETATM   16  C36 UNL     1      -2.842  -6.234  -1.673  1.00  0.00     0.104 C 
HETATM   17  C37 UNL     1      -1.858  -6.484  -2.795  1.00  0.00     0.052 C 
HETATM   18  F1  UNL     1      -2.249  -5.163  -0.954  1.00  0.00    -0.243 F 
HETATM   19  C38 UNL     1      -4.131  -5.662  -2.150  1.00  0.00     0.048 C 
ENDROOT
BRANCH  13  20
HETATM   20  C21 UNL     1      -5.381 -12.543  -1.719  1.00  0.00     0.001 C 
HETATM   21  C22 UNL     1      -4.424 -13.579  -2.165  1.00  0.00     0.041 C 
HETATM   22  C23 UNL     1      -4.546 -14.953  -1.674  1.00  0.00     0.004 C 
HETATM   23  C24 UNL     1      -5.518 -15.179  -0.548  1.00  0.00     0.001 C 
HETATM   24  C25 UNL     1      -6.713 -14.297  -0.634  1.00  0.00     0.019 C 
HETATM   25  C26 UNL     1      -6.323 -12.825  -0.620  1.00  0.00     0.112 C 
BRANCH  25  26
HETATM   26  C27 UNL     1      -7.642 -12.127  -0.925  1.00  0.00     0.226 C 
HETATM   27  O4  UNL     1      -8.381 -12.593  -1.794  1.00  0.00    -0.273 OA
HETATM   28  N4  UNL     1      -7.961 -10.950  -0.176  1.00  0.00    -0.360 N 
ATOM     29  H4  UNL     1      -7.332 -10.582   0.539  1.00  0.00     0.162 HD
BRANCH  28  30
HETATM   30  C28 UNL     1      -9.225 -10.304  -0.483  1.00  0.00     0.127 C 
BRANCH  30  31
HETATM   31  C29 UNL     1      -9.242  -8.896   0.047  1.00  0.00     0.003 C 
HETATM   32  C30 UNL     1      -8.229  -8.737   1.147  1.00  0.00     0.006 C 
HETATM   33  C31 UNL     1      -8.754  -7.596   2.031  1.00  0.00     0.000 C 
HETATM   34  C32 UNL     1      -9.891  -8.199   2.826  1.00  0.00     0.000 C 
HETATM   35  C33 UNL     1     -10.931  -8.802   1.911  1.00  0.00     0.000 C 
HETATM   36  C34 UNL     1     -10.640  -8.552   0.464  1.00  0.00     0.006 C 
ENDBRANCH  30  31
ENDBRANCH  28  30
ENDBRANCH  25  26
ENDBRANCH  13  20
BRANCH   7  37
HETATM   37  C8  UNL     1      -5.345  -5.917   1.894  1.00  0.00     0.223 C 
HETATM   38  O1  UNL     1      -5.316  -7.044   2.539  1.00  0.00    -0.273 OA
HETATM   39  N1  UNL     1      -5.988  -4.841   2.506  1.00  0.00    -0.354 N 
HETATM   40  C9  UNL     1      -6.615  -5.055   3.809  1.00  0.00     0.152 C 
BRANCH  39  41
HETATM   41  C10 UNL     1      -6.055  -3.532   1.948  1.00  0.00     0.155 C 
BRANCH  41  42
HETATM   42  C11 UNL     1      -7.387  -3.064   1.490  1.00  0.00     0.292 C 
BRANCH  42  43
HETATM   43  N2  UNL     1      -8.126  -3.998   0.669  1.00  0.00     0.094 N 
HETATM   44  C12 UNL     1      -9.484  -3.992   1.178  1.00  0.00     0.298 C 
HETATM   45  C13 UNL     1     -10.322  -2.855   0.651  1.00  0.00     0.198 C 
HETATM   46  O2  UNL     1     -10.435  -3.102  -0.735  1.00  0.00    -0.388 OA
HETATM   47  C14 UNL     1      -9.194  -2.860  -1.260  1.00  0.00     0.198 C 
HETATM   48  C15 UNL     1      -8.083  -3.712  -0.743  1.00  0.00     0.298 C 
ENDBRANCH  42  43
ENDBRANCH  41  42
ENDBRANCH  39  41
ENDBRANCH   7  37
TORSDOF 8
ENDMDL
MODEL 5
REMARK VINA RESULT: -8.086062908      2.517      7.729
REMARK  8 active torsions:
REMARK  status: ('A' for Active; 'I' for Inactive)
REMARK    1  A    between atoms: C7_7  and  C8_8 
REMARK       I    between atoms: C8_8  and  N1_10 
REMARK    2  A    between atoms: N1_10  and  C10_12 
REMARK    3  A    between atoms: C10_12  and  C11_13 
REMARK    4  A    between atoms: C11_13  and  N2_14 
REMARK       I    between atoms: N3_24  and  C20_25 
REMARK    5  A    between atoms: C20_25  and  C21_27 
REMARK    6  A    between atoms: C26_32  and  C27_33 
REMARK       I    between atoms: C27_33  and  N4_35 
REMARK    7  A    between atoms: N4_35  and  C28_37 
REMARK    8  A    between atoms: C28_37  and  C29_38 
ROOT
HETATM    1  C1  UNL     1      -3.129  -8.754   2.627  1.00  0.00     0.011 C 
HETATM    2  C2  UNL     1      -3.547  -9.640   1.503  1.00  0.00    -0.000 C 
HETATM    3  C3  UNL     1      -5.064  -9.709   1.316  1.00  0.00     0.013 C 
HETATM    4  C4  UNL     1      -5.225 -10.866   0.311  1.00  0.00     0.013 C 
HETATM    5  C5  UNL     1      -6.588 -11.403   0.490  1.00  0.00    -0.004 C 
HETATM    6  C6  UNL     1      -7.716 -10.515   0.191  1.00  0.00     0.019 C 
HETATM    7  C7  UNL     1      -8.683 -11.050  -0.860  1.00  0.00     0.079 C 
HETATM    8  C16 UNL     1      -8.103 -11.043  -2.225  1.00  0.00     0.022 C 
HETATM    9  C17 UNL     1      -6.651 -11.538  -2.312  1.00  0.00     0.028 C 
HETATM   10  C18 UNL     1      -5.680 -10.426  -2.131  1.00  0.00     0.033 C 
HETATM   11  C19 UNL     1      -4.749 -10.463  -1.018  1.00  0.00     0.092 C 
HETATM   12  N3  UNL     1      -3.918  -9.289  -0.906  1.00  0.00    -0.343 N 
HETATM   13  C20 UNL     1      -3.922  -8.151  -1.720  1.00  0.00     0.247 C 
HETATM   14  O3  UNL     1      -4.757  -8.099  -2.684  1.00  0.00    -0.268 OA
HETATM   15  C35 UNL     1      -2.927  -9.339   0.187  1.00  0.00     0.130 C 
HETATM   16  C36 UNL     1      -6.486 -12.812  -1.598  1.00  0.00     0.104 C 
HETATM   17  C37 UNL     1      -5.313 -13.646  -2.065  1.00  0.00     0.052 C 
HETATM   18  F1  UNL     1      -7.610 -13.570  -2.017  1.00  0.00    -0.243 F 
HETATM   19  C38 UNL     1      -6.621 -12.778  -0.116  1.00  0.00     0.048 C 
ENDROOT
BRANCH  13  20
HETATM   20  C21 UNL     1      -3.061  -6.936  -1.631  1.00  0.00     0.001 C 
HETATM   21  C22 UNL     1      -2.040  -6.820  -2.694  1.00  0.00     0.041 C 
HETATM   22  C23 UNL     1      -1.680  -5.505  -3.228  1.00  0.00     0.004 C 
HETATM   23  C24 UNL     1      -2.554  -4.352  -2.815  1.00  0.00     0.001 C 
HETATM   24  C25 UNL     1      -3.069  -4.489  -1.427  1.00  0.00     0.019 C 
HETATM   25  C26 UNL     1      -3.879  -5.768  -1.255  1.00  0.00     0.112 C 
BRANCH  25  26
HETATM   26  C27 UNL     1      -4.120  -5.812   0.248  1.00  0.00     0.226 C 
HETATM   27  O4  UNL     1      -5.182  -6.270   0.673  1.00  0.00    -0.273 OA
HETATM   28  N4  UNL     1      -3.086  -5.313   1.103  1.00  0.00    -0.360 N 
ATOM     29  H4  UNL     1      -2.215  -4.937   0.727  1.00  0.00     0.162 HD
BRANCH  28  30
HETATM   30  C28 UNL     1      -3.338  -5.367   2.532  1.00  0.00     0.127 C 
BRANCH  30  31
HETATM   31  C29 UNL     1      -2.346  -4.516   3.277  1.00  0.00     0.003 C 
HETATM   32  C30 UNL     1      -1.912  -3.352   2.430  1.00  0.00     0.006 C 
HETATM   33  C31 UNL     1      -0.510  -2.975   2.932  1.00  0.00     0.000 C 
HETATM   34  C32 UNL     1       0.410  -4.042   2.379  1.00  0.00     0.000 C 
HETATM   35  C33 UNL     1      -0.048  -5.420   2.796  1.00  0.00     0.000 C 
HETATM   36  C34 UNL     1      -1.211  -5.381   3.736  1.00  0.00     0.006 C 
ENDBRANCH  30  31
ENDBRANCH  28  30
ENDBRANCH  25  26
ENDBRANCH  13  20
BRANCH   7  37
HETATM   37  C8  UNL     1      -9.848 -10.134  -0.813  1.00  0.00     0.223 C 
HETATM   38  O1  UNL     1     -10.998 -10.732  -0.884  1.00  0.00    -0.273 OA
HETATM   39  N1  UNL     1      -9.850  -8.743  -0.708  1.00  0.00    -0.354 N 
HETATM   40  C9  UNL     1     -11.136  -8.047  -0.719  1.00  0.00     0.152 C 
BRANCH  39  41
HETATM   41  C10 UNL     1      -8.673  -7.953  -0.568  1.00  0.00     0.155 C 
BRANCH  41  42
HETATM   42  C11 UNL     1      -8.850  -6.565  -0.073  1.00  0.00     0.292 C 
BRANCH  42  43
HETATM   43  N2  UNL     1      -8.483  -6.346   1.309  1.00  0.00     0.094 N 
HETATM   44  C12 UNL     1      -9.363  -5.302   1.797  1.00  0.00     0.298 C 
HETATM   45  C13 UNL     1     -10.718  -5.805   2.229  1.00  0.00     0.198 C 
HETATM   46  O2  UNL     1     -10.456  -6.636   3.342  1.00  0.00    -0.388 OA
HETATM   47  C14 UNL     1      -9.841  -7.751   2.839  1.00  0.00     0.198 C 
HETATM   48  C15 UNL     1      -8.545  -7.526   2.134  1.00  0.00     0.298 C 
ENDBRANCH  42  43
ENDBRANCH  41  42
ENDBRANCH  39  41
ENDBRANCH   7  37
TORSDOF 8
ENDMDL
