MODEL 1
REMARK VINA RESULT: -6.192700133      0.000      0.000
REMARK  4 active torsions:
REMARK  status: ('A' for Active; 'I' for Inactive)
REMARK    1  A    between atoms: C2_2  and  O1_3 
REMARK    2  A    between atoms: O1_3  and  C3_4 
REMARK    3  A    between atoms: C7_9  and  C8_10 
REMARK    4  A    between atoms: C8_10  and  N1_11 
ROOT
HETATM    1  C3  UNL     1       2.090  18.686  57.535  1.00  0.00     0.153 C 
HETATM    2  C4  UNL     1       2.588  19.820  58.443  1.00  0.00     0.200 C 
HETATM    3  O2  UNL     1       3.312  19.238  59.462  1.00  0.00    -0.383 OA
HETATM    4  C5  UNL     1       3.046  17.896  59.471  1.00  0.00     0.131 C 
HETATM    5  C6  UNL     1       4.093  17.037  60.130  1.00  0.00     0.067 C 
HETATM    6  C7  UNL     1       3.856  15.606  59.705  1.00  0.00     0.214 C 
HETATM    7  N2  UNL     1       2.561  15.522  58.993  1.00  0.00    -0.069 N 
ATOM      8  H21 UNL     1       1.791  15.862  59.570  1.00  0.00     0.277 HD
ATOM      9  H22 UNL     1       2.254  14.556  58.882  1.00  0.00     0.277 HD
HETATM   10  C12 UNL     1       2.627  16.218  57.715  1.00  0.00     0.242 C 
HETATM   11  C13 UNL     1       3.067  17.606  57.958  1.00  0.00     0.071 C 
ENDROOT
BRANCH   6  12
HETATM   12  C8  UNL     1       3.702  14.685  60.899  1.00  0.00     0.269 C 
BRANCH  12  13
HETATM   13  N1  UNL     1       4.479  13.493  60.849  1.00  0.00    -0.077 N 
HETATM   14  C9  UNL     1       5.472  13.612  59.762  1.00  0.00     0.271 C 
HETATM   15  C10 UNL     1       3.598  12.380  60.518  1.00  0.00     0.271 C 
HETATM   16  C11 UNL     1       5.213  13.164  62.027  1.00  0.00     0.271 C 
ENDBRANCH  12  13
ENDBRANCH   6  12
BRANCH   1  17
HETATM   17  O1  UNL     1       2.176  19.008  56.213  1.00  0.00    -0.384 OA
BRANCH  17  18
HETATM   18  C2  UNL     1       0.937  18.829  55.612  1.00  0.00     0.163 C 
HETATM   19  C1  UNL     1       0.835  17.610  54.744  1.00  0.00     0.033 C 
ENDBRANCH  17  18
ENDBRANCH   1  17
TORSDOF 4
ENDMDL
MODEL 2
REMARK VINA RESULT: -6.158942520      0.103      1.001
REMARK  4 active torsions:
REMARK  status: ('A' for Active; 'I' for Inactive)
REMARK    1  A    between atoms: C2_2  and  O1_3 
REMARK    2  A    between atoms: O1_3  and  C3_4 
REMARK    3  A    between atoms: C7_9  and  C8_10 
REMARK    4  A    between atoms: C8_10  and  N1_11 
ROOT
HETATM    1  C3  UNL     1       2.088  18.709  57.546  1.00  0.00     0.153 C 
HETATM    2  C4  UNL     1       2.595  19.824  58.473  1.00  0.00     0.200 C 
HETATM    3  O2  UNL     1       3.333  19.220  59.470  1.00  0.00    -0.383 OA
HETATM    4  C5  UNL     1       3.069  17.878  59.452  1.00  0.00     0.131 C 
HETATM    5  C6  UNL     1       4.125  17.006  60.079  1.00  0.00     0.067 C 
HETATM    6  C7  UNL     1       3.886  15.585  59.625  1.00  0.00     0.214 C 
HETATM    7  N2  UNL     1       2.582  15.514  58.928  1.00  0.00    -0.069 N 
ATOM      8  H21 UNL     1       1.819  15.840  59.521  1.00  0.00     0.277 HD
ATOM      9  H22 UNL     1       2.276  14.550  58.799  1.00  0.00     0.277 HD
HETATM   10  C12 UNL     1       2.631  16.238  57.665  1.00  0.00     0.242 C 
HETATM   11  C13 UNL     1       3.072  17.622  57.933  1.00  0.00     0.071 C 
ENDROOT
BRANCH   6  12
HETATM   12  C8  UNL     1       3.749  14.638  60.801  1.00  0.00     0.269 C 
BRANCH  12  13
HETATM   13  N1  UNL     1       4.488  13.425  60.692  1.00  0.00    -0.077 N 
HETATM   14  C9  UNL     1       3.547  12.307  60.478  1.00  0.00     0.271 C 
HETATM   15  C10 UNL     1       5.173  13.185  61.956  1.00  0.00     0.271 C 
HETATM   16  C11 UNL     1       5.440  13.356  59.633  1.00  0.00     0.271 C 
ENDBRANCH  12  13
ENDBRANCH   6  12
BRANCH   1  17
HETATM   17  O1  UNL     1       2.157  19.060  56.231  1.00  0.00    -0.384 OA
BRANCH  17  18
HETATM   18  C2  UNL     1       0.915  18.877  55.638  1.00  0.00     0.163 C 
HETATM   19  C1  UNL     1       0.821  17.676  54.745  1.00  0.00     0.033 C 
ENDBRANCH  17  18
ENDBRANCH   1  17
TORSDOF 4
ENDMDL
MODEL 3
REMARK VINA RESULT: -6.063452597      0.976      1.465
REMARK  4 active torsions:
REMARK  status: ('A' for Active; 'I' for Inactive)
REMARK    1  A    between atoms: C2_2  and  O1_3 
REMARK    2  A    between atoms: O1_3  and  C3_4 
REMARK    3  A    between atoms: C7_9  and  C8_10 
REMARK    4  A    between atoms: C8_10  and  N1_11 
ROOT
HETATM    1  C3  UNL     1       2.253  17.595  57.085  1.00  0.00     0.153 C 
HETATM    2  C4  UNL     1       2.197  18.812  58.021  1.00  0.00     0.200 C 
HETATM    3  O2  UNL     1       2.817  18.450  59.199  1.00  0.00    -0.383 OA
HETATM    4  C5  UNL     1       2.950  17.089  59.218  1.00  0.00     0.131 C 
HETATM    5  C6  UNL     1       4.028  16.560  60.127  1.00  0.00     0.067 C 
HETATM    6  C7  UNL     1       4.307  15.128  59.733  1.00  0.00     0.214 C 
HETATM    7  N2  UNL     1       3.277  14.682  58.768  1.00  0.00    -0.069 N 
ATOM      8  H21 UNL     1       2.336  14.777  59.150  1.00  0.00     0.277 HD
ATOM      9  H22 UNL     1       3.291  13.671  58.643  1.00  0.00     0.277 HD
HETATM   10  C12 UNL     1       3.418  15.385  57.500  1.00  0.00     0.242 C 
HETATM   11  C13 UNL     1       3.381  16.838  57.760  1.00  0.00     0.071 C 
ENDROOT
BRANCH   6  12
HETATM   12  C8  UNL     1       4.166  14.186  60.912  1.00  0.00     0.269 C 
BRANCH  12  13
HETATM   13  N1  UNL     1       5.212  13.230  61.054  1.00  0.00    -0.077 N 
HETATM   14  C9  UNL     1       5.325  12.850  62.476  1.00  0.00     0.271 C 
HETATM   15  C10 UNL     1       6.469  13.859  60.667  1.00  0.00     0.271 C 
HETATM   16  C11 UNL     1       5.063  12.014  60.324  1.00  0.00     0.271 C 
ENDBRANCH  12  13
ENDBRANCH   6  12
BRANCH   1  17
HETATM   17  O1  UNL     1       2.530  17.946  55.798  1.00  0.00    -0.384 OA
BRANCH  17  18
HETATM   18  C2  UNL     1       1.374  17.851  55.034  1.00  0.00     0.163 C 
HETATM   19  C1  UNL     1       0.635  16.554  55.179  1.00  0.00     0.033 C 
ENDBRANCH  17  18
ENDBRANCH   1  17
TORSDOF 4
ENDMDL
MODEL 4
REMARK VINA RESULT: -6.026117425      2.493      6.556
REMARK  4 active torsions:
REMARK  status: ('A' for Active; 'I' for Inactive)
REMARK    1  A    between atoms: C2_2  and  O1_3 
REMARK    2  A    between atoms: O1_3  and  C3_4 
REMARK    3  A    between atoms: C7_9  and  C8_10 
REMARK    4  A    between atoms: C8_10  and  N1_11 
ROOT
HETATM    1  C3  UNL     1       4.204  13.718  60.840  1.00  0.00     0.153 C 
HETATM    2  C4  UNL     1       5.002  13.089  59.688  1.00  0.00     0.200 C 
HETATM    3  O2  UNL     1       4.733  13.828  58.555  1.00  0.00    -0.383 OA
HETATM    4  C5  UNL     1       3.637  14.610  58.798  1.00  0.00     0.131 C 
HETATM    5  C6  UNL     1       3.506  15.824  57.917  1.00  0.00     0.067 C 
HETATM    6  C7  UNL     1       2.512  16.763  58.564  1.00  0.00     0.214 C 
HETATM    7  N2  UNL     1       1.853  16.066  59.691  1.00  0.00    -0.069 N 
ATOM      8  H21 UNL     1       1.396  15.205  59.387  1.00  0.00     0.277 HD
ATOM      9  H22 UNL     1       1.028  16.570  60.015  1.00  0.00     0.277 HD
HETATM   10  C12 UNL     1       2.798  15.823  60.772  1.00  0.00     0.242 C 
HETATM   11  C13 UNL     1       3.955  15.084  60.229  1.00  0.00     0.071 C 
ENDROOT
BRANCH   6  12
HETATM   12  C8  UNL     1       1.384  17.121  57.617  1.00  0.00     0.269 C 
BRANCH  12  13
HETATM   13  N1  UNL     1       1.396  18.463  57.139  1.00  0.00    -0.077 N 
HETATM   14  C9  UNL     1       0.021  18.999  57.181  1.00  0.00     0.271 C 
HETATM   15  C10 UNL     1       1.821  18.454  55.745  1.00  0.00     0.271 C 
HETATM   16  C11 UNL     1       2.208  19.385  57.863  1.00  0.00     0.271 C 
ENDBRANCH  12  13
ENDBRANCH   6  12
BRANCH   1  17
HETATM   17  O1  UNL     1       4.920  13.765  61.999  1.00  0.00    -0.384 OA
BRANCH  17  18
HETATM   18  C2  UNL     1       6.112  13.072  61.834  1.00  0.00     0.163 C 
HETATM   19  C1  UNL     1       6.493  12.200  62.994  1.00  0.00     0.033 C 
ENDBRANCH  17  18
ENDBRANCH   1  17
TORSDOF 4
ENDMDL
MODEL 5
REMARK VINA RESULT: -6.017649055      3.206      6.257
REMARK  4 active torsions:
REMARK  status: ('A' for Active; 'I' for Inactive)
REMARK    1  A    between atoms: C2_2  and  O1_3 
REMARK    2  A    between atoms: O1_3  and  C3_4 
REMARK    3  A    between atoms: C7_9  and  C8_10 
REMARK    4  A    between atoms: C8_10  and  N1_11 
ROOT
HETATM    1  C3  UNL     1       5.405  14.540  56.780  1.00  0.00     0.153 C 
HETATM    2  C4  UNL     1       5.483  14.527  55.246  1.00  0.00     0.200 C 
HETATM    3  O2  UNL     1       4.446  15.308  54.779  1.00  0.00    -0.383 OA
HETATM    4  C5  UNL     1       3.568  15.523  55.806  1.00  0.00     0.131 C 
HETATM    5  C6  UNL     1       2.687  16.734  55.656  1.00  0.00     0.067 C 
HETATM    6  C7  UNL     1       2.093  17.048  57.010  1.00  0.00     0.214 C 
HETATM    7  N2  UNL     1       2.393  15.936  57.939  1.00  0.00    -0.069 N 
ATOM      8  H21 UNL     1       2.043  15.044  57.586  1.00  0.00     0.277 HD
ATOM      9  H22 UNL     1       1.835  15.994  58.790  1.00  0.00     0.277 HD
HETATM   10  C12 UNL     1       3.819  15.877  58.232  1.00  0.00     0.242 C 
HETATM   11  C13 UNL     1       4.558  15.786  56.957  1.00  0.00     0.071 C 
ENDROOT
BRANCH   6  12
HETATM   12  C8  UNL     1       0.579  17.110  56.956  1.00  0.00     0.269 C 
BRANCH  12  13
HETATM   13  N1  UNL     1       0.031  18.415  56.803  1.00  0.00    -0.077 N 
HETATM   14  C9  UNL     1      -0.200  18.673  55.367  1.00  0.00     0.271 C 
HETATM   15  C10 UNL     1       1.011  19.387  57.271  1.00  0.00     0.271 C 
HETATM   16  C11 UNL     1      -1.211  18.662  57.459  1.00  0.00     0.271 C 
ENDBRANCH  12  13
ENDBRANCH   6  12
BRANCH   1  17
HETATM   17  O1  UNL     1       6.636  14.634  57.358  1.00  0.00    -0.384 OA
BRANCH  17  18
HETATM   18  C2  UNL     1       7.276  15.778  56.900  1.00  0.00     0.163 C 
HETATM   19  C1  UNL     1       8.476  16.186  57.701  1.00  0.00     0.033 C 
ENDBRANCH  17  18
ENDBRANCH   1  17
TORSDOF 4
ENDMDL
