MODEL 1
REMARK VINA RESULT: -6.945776225      0.000      0.000
REMARK  5 active torsions:
REMARK  status: ('A' for Active; 'I' for Inactive)
REMARK    1  A    between atoms: N1_2  and  C2_3 
REMARK    2  A    between atoms: N1_2  and  C6_7 
REMARK    3  A    between atoms: C2_3  and  C3_4 
REMARK    4  A    between atoms: C10_11  and  N2_12 
REMARK    5  A    between atoms: N2_12  and  S1_14 
ROOT
HETATM    1  C6  UNL     1       4.071  13.611  55.714  1.00  0.00     0.245 C 
HETATM    2  C7  UNL     1       5.137  12.893  54.935  1.00  0.00     0.038 C 
HETATM    3  C8  UNL     1       4.324  12.365  53.761  1.00  0.00     0.004 C 
HETATM    4  C9  UNL     1       3.311  13.448  53.497  1.00  0.00     0.028 C 
HETATM    5  C10 UNL     1       3.368  14.414  54.697  1.00  0.00     0.126 C 
ENDROOT
BRANCH   1   6
HETATM    6  N1  UNL     1       4.603  14.333  56.857  1.00  0.00     0.091 N 
HETATM    7  C1  UNL     1       4.533  13.372  57.979  1.00  0.00     0.310 C 
BRANCH   6   8
HETATM    8  C2  UNL     1       5.978  14.624  56.579  1.00  0.00     0.277 C 
BRANCH   8   9
HETATM    9  C3  UNL     1       6.653  15.636  57.419  1.00  0.00     0.014 A 
HETATM   10  C4  UNL     1       7.879  15.057  58.169  1.00  0.00     0.007 A 
HETATM   11  C5  UNL     1       7.970  16.222  57.236  1.00  0.00     0.007 A 
ENDBRANCH   8   9
ENDBRANCH   6   8
ENDBRANCH   1   6
BRANCH   5  12
HETATM   12  N2  UNL     1       1.994  14.769  55.032  1.00  0.00    -0.313 N 
ATOM     13  H2  UNL     1       1.218  14.109  55.085  1.00  0.00     0.172 HD
BRANCH  12  14
HETATM   14  S1  UNL     1       1.866  16.458  55.324  1.00  0.00     0.223 S 
HETATM   15  C11 UNL     1       1.074  16.860  56.836  1.00  0.00     0.185 C 
HETATM   16  O1  UNL     1       1.045  17.080  54.195  1.00  0.00    -0.206 OA
HETATM   17  O2  UNL     1       3.234  17.084  55.253  1.00  0.00    -0.206 OA
ENDBRANCH  12  14
ENDBRANCH   5  12
TORSDOF 5
ENDMDL
MODEL 2
REMARK VINA RESULT: -6.439770061      3.892      5.410
REMARK  5 active torsions:
REMARK  status: ('A' for Active; 'I' for Inactive)
REMARK    1  A    between atoms: N1_2  and  C2_3 
REMARK    2  A    between atoms: N1_2  and  C6_7 
REMARK    3  A    between atoms: C2_3  and  C3_4 
REMARK    4  A    between atoms: C10_11  and  N2_12 
REMARK    5  A    between atoms: N2_12  and  S1_14 
ROOT
HETATM    1  C6  UNL     1       3.897  15.192  58.635  1.00  0.00     0.245 C 
HETATM    2  C7  UNL     1       4.240  16.430  59.414  1.00  0.00     0.038 C 
HETATM    3  C8  UNL     1       3.392  16.224  60.662  1.00  0.00     0.004 C 
HETATM    4  C9  UNL     1       3.430  14.735  60.892  1.00  0.00     0.028 C 
HETATM    5  C10 UNL     1       4.031  14.103  59.620  1.00  0.00     0.126 C 
ENDROOT
BRANCH   1   6
HETATM    6  N1  UNL     1       4.678  15.063  57.417  1.00  0.00     0.091 N 
HETATM    7  C1  UNL     1       3.962  15.885  56.418  1.00  0.00     0.310 C 
BRANCH   6   8
HETATM    8  C2  UNL     1       5.963  15.649  57.666  1.00  0.00     0.277 C 
BRANCH   8   9
HETATM    9  C3  UNL     1       7.101  14.738  57.908  1.00  0.00     0.014 A 
HETATM   10  C4  UNL     1       8.380  15.496  58.347  1.00  0.00     0.007 A 
HETATM   11  C5  UNL     1       7.746  14.422  59.171  1.00  0.00     0.007 A 
ENDBRANCH   8   9
ENDBRANCH   6   8
ENDBRANCH   1   6
BRANCH   5  12
HETATM   12  N2  UNL     1       3.255  12.904  59.325  1.00  0.00    -0.313 N 
ATOM     13  H2  UNL     1       2.255  12.892  59.125  1.00  0.00     0.172 HD
BRANCH  12  14
HETATM   14  S1  UNL     1       4.264  11.514  59.362  1.00  0.00     0.223 S 
HETATM   15  C11 UNL     1       5.323  11.440  60.757  1.00  0.00     0.185 C 
HETATM   16  O1  UNL     1       5.147  11.528  58.114  1.00  0.00    -0.206 OA
HETATM   17  O2  UNL     1       3.414  10.274  59.269  1.00  0.00    -0.206 OA
ENDBRANCH  12  14
ENDBRANCH   5  12
TORSDOF 5
ENDMDL
MODEL 3
REMARK VINA RESULT: -6.369950375      3.011      4.515
REMARK  5 active torsions:
REMARK  status: ('A' for Active; 'I' for Inactive)
REMARK    1  A    between atoms: N1_2  and  C2_3 
REMARK    2  A    between atoms: N1_2  and  C6_7 
REMARK    3  A    between atoms: C2_3  and  C3_4 
REMARK    4  A    between atoms: C10_11  and  N2_12 
REMARK    5  A    between atoms: N2_12  and  S1_14 
ROOT
HETATM    1  C6  UNL     1       6.820  14.449  58.255  1.00  0.00     0.245 C 
HETATM    2  C7  UNL     1       7.888  14.824  59.242  1.00  0.00     0.038 C 
HETATM    3  C8  UNL     1       8.870  15.553  58.335  1.00  0.00     0.004 C 
HETATM    4  C9  UNL     1       7.992  16.268  57.340  1.00  0.00     0.028 C 
HETATM    5  C10 UNL     1       6.570  15.696  57.509  1.00  0.00     0.126 C 
ENDROOT
BRANCH   1   6
HETATM    6  N1  UNL     1       5.667  13.830  58.886  1.00  0.00     0.091 N 
HETATM    7  C1  UNL     1       5.786  12.391  58.566  1.00  0.00     0.310 C 
BRANCH   6   8
HETATM    8  C2  UNL     1       5.807  14.003  60.302  1.00  0.00     0.277 C 
BRANCH   8   9
HETATM    9  C3  UNL     1       5.648  12.812  61.162  1.00  0.00     0.014 A 
HETATM   10  C4  UNL     1       6.830  12.636  62.149  1.00  0.00     0.007 A 
HETATM   11  C5  UNL     1       5.409  12.764  62.595  1.00  0.00     0.007 A 
ENDBRANCH   8   9
ENDBRANCH   6   8
ENDBRANCH   1   6
BRANCH   5  12
HETATM   12  N2  UNL     1       6.014  15.517  56.173  1.00  0.00    -0.313 N 
ATOM     13  H2  UNL     1       6.552  15.244  55.351  1.00  0.00     0.172 HD
BRANCH  12  14
HETATM   14  S1  UNL     1       4.325  15.830  56.180  1.00  0.00     0.223 S 
HETATM   15  C11 UNL     1       3.722  16.449  57.706  1.00  0.00     0.185 C 
HETATM   16  O1  UNL     1       3.592  14.520  55.891  1.00  0.00    -0.206 OA
HETATM   17  O2  UNL     1       3.984  16.767  55.050  1.00  0.00    -0.206 OA
ENDBRANCH  12  14
ENDBRANCH   5  12
TORSDOF 5
ENDMDL
MODEL 4
REMARK VINA RESULT: -6.328656917      1.109      1.415
REMARK  5 active torsions:
REMARK  status: ('A' for Active; 'I' for Inactive)
REMARK    1  A    between atoms: N1_2  and  C2_3 
REMARK    2  A    between atoms: N1_2  and  C6_7 
REMARK    3  A    between atoms: C2_3  and  C3_4 
REMARK    4  A    between atoms: C10_11  and  N2_12 
REMARK    5  A    between atoms: N2_12  and  S1_14 
ROOT
HETATM    1  C6  UNL     1       4.034  13.212  55.818  1.00  0.00     0.245 C 
HETATM    2  C7  UNL     1       5.226  12.673  55.079  1.00  0.00     0.038 C 
HETATM    3  C8  UNL     1       4.675  12.609  53.661  1.00  0.00     0.004 C 
HETATM    4  C9  UNL     1       3.772  13.811  53.562  1.00  0.00     0.028 C 
HETATM    5  C10 UNL     1       3.590  14.351  54.994  1.00  0.00     0.126 C 
ENDROOT
BRANCH   1   6
HETATM    6  N1  UNL     1       4.322  13.495  57.213  1.00  0.00     0.091 N 
HETATM    7  C1  UNL     1       5.144  12.354  57.671  1.00  0.00     0.310 C 
BRANCH   6   8
HETATM    8  C2  UNL     1       5.116  14.687  57.256  1.00  0.00     0.277 C 
BRANCH   8   9
HETATM    9  C3  UNL     1       5.768  15.037  58.536  1.00  0.00     0.014 A 
HETATM   10  C4  UNL     1       5.342  16.436  59.050  1.00  0.00     0.007 A 
HETATM   11  C5  UNL     1       5.154  15.183  59.845  1.00  0.00     0.007 A 
ENDBRANCH   8   9
ENDBRANCH   6   8
ENDBRANCH   1   6
BRANCH   5  12
HETATM   12  N2  UNL     1       2.185  14.712  55.144  1.00  0.00    -0.313 N 
ATOM     13  H2  UNL     1       1.407  14.054  55.105  1.00  0.00     0.172 HD
BRANCH  12  14
HETATM   14  S1  UNL     1       2.026  16.404  55.397  1.00  0.00     0.223 S 
HETATM   15  C11 UNL     1       1.297  16.829  56.934  1.00  0.00     0.185 C 
HETATM   16  O1  UNL     1       1.135  16.973  54.293  1.00  0.00    -0.206 OA
HETATM   17  O2  UNL     1       3.371  17.064  55.242  1.00  0.00    -0.206 OA
ENDBRANCH  12  14
ENDBRANCH   5  12
TORSDOF 5
ENDMDL
MODEL 5
REMARK VINA RESULT: -6.319573764      4.091      5.472
REMARK  5 active torsions:
REMARK  status: ('A' for Active; 'I' for Inactive)
REMARK    1  A    between atoms: N1_2  and  C2_3 
REMARK    2  A    between atoms: N1_2  and  C6_7 
REMARK    3  A    between atoms: C2_3  and  C3_4 
REMARK    4  A    between atoms: C10_11  and  N2_12 
REMARK    5  A    between atoms: N2_12  and  S1_14 
ROOT
HETATM    1  C6  UNL     1       3.726  15.194  58.653  1.00  0.00     0.245 C 
HETATM    2  C7  UNL     1       4.115  16.474  59.336  1.00  0.00     0.038 C 
HETATM    3  C8  UNL     1       3.342  16.344  60.642  1.00  0.00     0.004 C 
HETATM    4  C9  UNL     1       3.393  14.871  60.955  1.00  0.00     0.028 C 
HETATM    5  C10 UNL     1       3.918  14.164  59.690  1.00  0.00     0.126 C 
ENDROOT
BRANCH   1   6
HETATM    6  N1  UNL     1       4.433  14.992  57.400  1.00  0.00     0.091 N 
HETATM    7  C1  UNL     1       3.590  15.646  56.377  1.00  0.00     0.310 C 
BRANCH   6   8
HETATM    8  C2  UNL     1       5.680  15.693  57.492  1.00  0.00     0.277 C 
BRANCH   8   9
HETATM    9  C3  UNL     1       6.916  14.891  57.618  1.00  0.00     0.014 A 
HETATM   10  C4  UNL     1       8.171  15.773  57.840  1.00  0.00     0.007 A 
HETATM   11  C5  UNL     1       7.747  14.702  58.794  1.00  0.00     0.007 A 
ENDBRANCH   8   9
ENDBRANCH   6   8
ENDBRANCH   1   6
BRANCH   5  12
HETATM   12  N2  UNL     1       3.126  12.952  59.512  1.00  0.00    -0.313 N 
ATOM     13  H2  UNL     1       2.128  12.935  59.306  1.00  0.00     0.172 HD
BRANCH  12  14
HETATM   14  S1  UNL     1       4.114  11.559  59.697  1.00  0.00     0.223 S 
HETATM   15  C11 UNL     1       5.552  11.566  58.693  1.00  0.00     0.185 C 
HETATM   16  O1  UNL     1       3.289  10.331  59.312  1.00  0.00    -0.206 OA
HETATM   17  O2  UNL     1       4.476  11.390  61.150  1.00  0.00    -0.206 OA
ENDBRANCH  12  14
ENDBRANCH   5  12
TORSDOF 5
ENDMDL
