MODEL 1
REMARK VINA RESULT: -5.486138953      0.000      0.000
REMARK  3 active torsions:
REMARK  status: ('A' for Active; 'I' for Inactive)
REMARK       I    between atoms: N1_2  and  C2_4 
REMARK    1  A    between atoms: C2_4  and  C3_6 
REMARK    2  A    between atoms: C3_6  and  C4_7 
REMARK    3  A    between atoms: C6_10  and  O2_11 
ROOT
HETATM    1  C4  UNL     1      23.665 -23.109   3.667  1.00  0.00     0.027 C 
HETATM    2  C5  UNL     1      23.506 -24.564   4.109  1.00  0.00     0.093 C 
HETATM    3 BR1  UNL     1      23.591 -24.687   6.017  1.00  0.00    -0.088 Br
HETATM    4  C6  UNL     1      22.198 -25.044   3.546  1.00  0.00     0.148 C 
HETATM    5  C7  UNL     1      21.560 -23.877   2.863  1.00  0.00     0.102 C 
HETATM    6 BR2  UNL     1      19.688 -23.816   3.376  1.00  0.00    -0.087 Br
HETATM    7  C8  UNL     1      22.231 -22.685   3.552  1.00  0.00     0.080 C 
HETATM    8 BR3  UNL     1      21.505 -22.654   5.366  1.00  0.00    -0.089 Br
ENDROOT
BRANCH   1   9
HETATM    9  C3  UNL     1      24.429 -23.030   2.371  1.00  0.00     0.109 C 
BRANCH   9  10
HETATM   10  C2  UNL     1      25.638 -22.185   2.459  1.00  0.00     0.217 C 
HETATM   11  N1  UNL     1      26.563 -22.331   3.518  1.00  0.00    -0.365 N 
HETATM   12  C1  UNL     1      27.736 -21.498   3.586  1.00  0.00     0.149 C 
ATOM     13  H1  UNL     1      26.398 -23.032   4.240  1.00  0.00     0.161 HD
HETATM   14  O1  UNL     1      25.848 -21.326   1.581  1.00  0.00    -0.274 OA
ENDBRANCH   9  10
ENDBRANCH   1   9
BRANCH   4  15
HETATM   15  O2  UNL     1      22.429 -26.026   2.558  1.00  0.00    -0.393 OA
ATOM     16  H2  UNL     1      22.133 -25.712   1.711  1.00  0.00     0.210 HD
ENDBRANCH   4  15
TORSDOF 3
ENDMDL
MODEL 2
REMARK VINA RESULT: -5.415102118      6.250      8.085
REMARK  3 active torsions:
REMARK  status: ('A' for Active; 'I' for Inactive)
REMARK       I    between atoms: N1_2  and  C2_4 
REMARK    1  A    between atoms: C2_4  and  C3_6 
REMARK    2  A    between atoms: C3_6  and  C4_7 
REMARK    3  A    between atoms: C6_10  and  O2_11 
ROOT
HETATM    1  C4  UNL     1      17.487 -20.788   1.051  1.00  0.00     0.027 C 
HETATM    2  C5  UNL     1      18.913 -20.244   1.128  1.00  0.00     0.093 C 
HETATM    3 BR1  UNL     1      19.072 -19.015   2.587  1.00  0.00    -0.088 Br
HETATM    4  C6  UNL     1      19.821 -21.433   1.259  1.00  0.00     0.148 C 
HETATM    5  C7  UNL     1      18.949 -22.644   1.345  1.00  0.00     0.102 C 
HETATM    6 BR2  UNL     1      19.607 -23.772   2.781  1.00  0.00    -0.087 Br
HETATM    7  C8  UNL     1      17.621 -22.059   1.837  1.00  0.00     0.080 C 
HETATM    8 BR3  UNL     1      17.934 -21.542   3.695  1.00  0.00    -0.089 Br
ENDROOT
BRANCH   1   9
HETATM    9  C3  UNL     1      17.078 -21.000  -0.384  1.00  0.00     0.109 C 
BRANCH   9  10
HETATM   10  C2  UNL     1      15.747 -21.626  -0.523  1.00  0.00     0.217 C 
HETATM   11  N1  UNL     1      15.606 -22.982  -0.892  1.00  0.00    -0.365 N 
HETATM   12  C1  UNL     1      14.299 -23.574  -1.022  1.00  0.00     0.149 C 
ATOM     13  H1  UNL     1      16.436 -23.547  -1.069  1.00  0.00     0.161 HD
HETATM   14  O1  UNL     1      14.726 -20.943  -0.309  1.00  0.00    -0.274 OA
ENDBRANCH   9  10
ENDBRANCH   1   9
BRANCH   4  15
HETATM   15  O2  UNL     1      20.607 -21.572   0.094  1.00  0.00    -0.393 OA
ATOM     16  H2  UNL     1      21.120 -22.371   0.140  1.00  0.00     0.210 HD
ENDBRANCH   4  15
TORSDOF 3
ENDMDL
MODEL 3
REMARK VINA RESULT: -5.375601746      6.091      7.353
REMARK  3 active torsions:
REMARK  status: ('A' for Active; 'I' for Inactive)
REMARK       I    between atoms: N1_2  and  C2_4 
REMARK    1  A    between atoms: C2_4  and  C3_6 
REMARK    2  A    between atoms: C3_6  and  C4_7 
REMARK    3  A    between atoms: C6_10  and  O2_11 
ROOT
HETATM    1  C4  UNL     1      18.158 -21.638   2.871  1.00  0.00     0.027 C 
HETATM    2  C5  UNL     1      17.833 -22.365   4.176  1.00  0.00     0.093 C 
HETATM    3 BR1  UNL     1      18.256 -24.225   4.017  1.00  0.00    -0.088 Br
HETATM    4  C6  UNL     1      18.614 -21.674   5.259  1.00  0.00     0.148 C 
HETATM    5  C7  UNL     1      19.445 -20.623   4.598  1.00  0.00     0.102 C 
HETATM    6 BR2  UNL     1      21.241 -20.713   5.327  1.00  0.00    -0.087 Br
HETATM    7  C8  UNL     1      19.542 -21.136   3.158  1.00  0.00     0.080 C 
HETATM    8 BR3  UNL     1      20.704 -22.704   3.240  1.00  0.00    -0.089 Br
ENDROOT
BRANCH   1   9
HETATM    9  C3  UNL     1      17.155 -20.543   2.612  1.00  0.00     0.109 C 
BRANCH   9  10
HETATM   10  C2  UNL     1      16.679 -20.510   1.213  1.00  0.00     0.217 C 
HETATM   11  N1  UNL     1      15.923 -21.571   0.667  1.00  0.00    -0.365 N 
HETATM   12  C1  UNL     1      15.468 -21.519  -0.699  1.00  0.00     0.149 C 
ATOM     13  H1  UNL     1      15.696 -22.380   1.245  1.00  0.00     0.161 HD
HETATM   14  O1  UNL     1      16.951 -19.524   0.500  1.00  0.00    -0.274 OA
ENDBRANCH   9  10
ENDBRANCH   1   9
BRANCH   4  15
HETATM   15  O2  UNL     1      17.732 -21.012   6.142  1.00  0.00    -0.393 OA
ATOM     16  H2  UNL     1      17.852 -20.071   6.075  1.00  0.00     0.210 HD
ENDBRANCH   4  15
TORSDOF 3
ENDMDL
MODEL 4
REMARK VINA RESULT: -5.366197721      5.608      7.329
REMARK  3 active torsions:
REMARK  status: ('A' for Active; 'I' for Inactive)
REMARK       I    between atoms: N1_2  and  C2_4 
REMARK    1  A    between atoms: C2_4  and  C3_6 
REMARK    2  A    between atoms: C3_6  and  C4_7 
REMARK    3  A    between atoms: C6_10  and  O2_11 
ROOT
HETATM    1  C4  UNL     1      18.402 -22.117   1.022  1.00  0.00     0.027 C 
HETATM    2  C5  UNL     1      19.759 -21.724   1.606  1.00  0.00     0.093 C 
HETATM    3 BR1  UNL     1      19.689 -21.759   3.518  1.00  0.00    -0.088 Br
HETATM    4  C6  UNL     1      20.766 -22.683   1.036  1.00  0.00     0.148 C 
HETATM    5  C7  UNL     1      20.011 -23.670   0.206  1.00  0.00     0.102 C 
HETATM    6 BR2  UNL     1      20.668 -25.449   0.622  1.00  0.00    -0.087 Br
HETATM    7  C8  UNL     1      18.600 -23.586   0.796  1.00  0.00     0.080 C 
HETATM    8 BR3  UNL     1      18.723 -24.416   2.561  1.00  0.00    -0.089 Br
ENDROOT
BRANCH   1   9
HETATM    9  C3  UNL     1      18.123 -21.339  -0.239  1.00  0.00     0.109 C 
BRANCH   9  10
HETATM   10  C2  UNL     1      16.682 -21.116  -0.478  1.00  0.00     0.217 C 
HETATM   11  N1  UNL     1      15.705 -21.575   0.433  1.00  0.00    -0.365 N 
HETATM   12  C1  UNL     1      14.305 -21.347   0.182  1.00  0.00     0.149 C 
ATOM     13  H1  UNL     1      15.993 -22.072   1.276  1.00  0.00     0.161 HD
HETATM   14  O1  UNL     1      16.321 -20.509  -1.505  1.00  0.00    -0.274 OA
ENDBRANCH   9  10
ENDBRANCH   1   9
BRANCH   4  15
HETATM   15  O2  UNL     1      21.647 -21.999   0.168  1.00  0.00    -0.393 OA
ATOM     16  H2  UNL     1      21.172 -21.337  -0.322  1.00  0.00     0.210 HD
ENDBRANCH   4  15
TORSDOF 3
ENDMDL
MODEL 5
REMARK VINA RESULT: -5.351991913      1.929      2.279
REMARK  3 active torsions:
REMARK  status: ('A' for Active; 'I' for Inactive)
REMARK       I    between atoms: N1_2  and  C2_4 
REMARK    1  A    between atoms: C2_4  and  C3_6 
REMARK    2  A    between atoms: C3_6  and  C4_7 
REMARK    3  A    between atoms: C6_10  and  O2_11 
ROOT
HETATM    1  C4  UNL     1      23.609 -24.531   4.236  1.00  0.00     0.027 C 
HETATM    2  C5  UNL     1      22.577 -25.644   4.051  1.00  0.00     0.093 C 
HETATM    3 BR1  UNL     1      23.115 -27.208   5.013  1.00  0.00    -0.088 Br
HETATM    4  C6  UNL     1      21.260 -25.090   4.516  1.00  0.00     0.148 C 
HETATM    5  C7  UNL     1      21.523 -23.717   5.044  1.00  0.00     0.102 C 
HETATM    6 BR2  UNL     1      20.586 -23.519   6.732  1.00  0.00    -0.087 Br
HETATM    7  C8  UNL     1      23.015 -23.776   5.387  1.00  0.00     0.080 C 
HETATM    8 BR3  UNL     1      23.144 -24.939   6.952  1.00  0.00    -0.089 Br
ENDROOT
BRANCH   1   9
HETATM    9  C3  UNL     1      23.740 -23.716   2.975  1.00  0.00     0.109 C 
BRANCH   9  10
HETATM   10  C2  UNL     1      25.046 -23.036   2.856  1.00  0.00     0.217 C 
HETATM   11  N1  UNL     1      25.346 -22.204   1.754  1.00  0.00    -0.365 N 
HETATM   12  C1  UNL     1      26.625 -21.549   1.656  1.00  0.00     0.149 C 
ATOM     13  H1  UNL     1      24.650 -22.066   1.021  1.00  0.00     0.161 HD
HETATM   14  O1  UNL     1      25.902 -23.198   3.747  1.00  0.00    -0.274 OA
ENDBRANCH   9  10
ENDBRANCH   1   9
BRANCH   4  15
HETATM   15  O2  UNL     1      20.380 -24.952   3.420  1.00  0.00    -0.393 OA
ATOM     16  H2  UNL     1      19.691 -24.333   3.633  1.00  0.00     0.210 HD
ENDBRANCH   4  15
TORSDOF 3
ENDMDL
