MODEL 1
REMARK VINA RESULT: -5.685442014      0.000      0.000
REMARK  4 active torsions:
REMARK  status: ('A' for Active; 'I' for Inactive)
REMARK    1  A    between atoms: C4_4  and  C5_5 
REMARK    2  A    between atoms: C6_6  and  O1_7 
REMARK    3  A    between atoms: C11_17  and  C12_18 
REMARK    4  A    between atoms: C12_18  and  O3_20 
ROOT
HETATM    1  C5  UNL     1     -26.084  47.800   8.850  1.00  0.00     0.061 C 
HETATM    2  C6  UNL     1     -25.764  49.298   8.725  1.00  0.00     0.136 C 
HETATM    3  C7  UNL     1     -26.639  49.362   7.536  1.00  0.00     0.064 C 
HETATM    4  C8  UNL     1     -27.281  48.070   7.981  1.00  0.00     0.105 C 
HETATM    5  N1  UNL     1     -27.549  47.141   6.937  1.00  0.00    -0.337 N 
ATOM      6  H1  UNL     1     -27.531  46.134   7.099  1.00  0.00     0.164 HD
HETATM    7  C9  UNL     1     -27.842  47.686   5.657  1.00  0.00     0.318 C 
HETATM    8  O2  UNL     1     -28.561  47.086   4.812  1.00  0.00    -0.247 OA
HETATM    9  N2  UNL     1     -27.289  48.960   5.345  1.00  0.00    -0.331 N 
HETATM   10  C10 UNL     1     -27.829  49.683   4.216  1.00  0.00     0.155 C 
HETATM   11  C11 UNL     1     -26.203  49.483   6.174  1.00  0.00     0.125 C 
ENDROOT
BRANCH   1  12
HETATM   12  C4  UNL     1     -26.493  47.407  10.225  1.00  0.00    -0.016 C 
HETATM   13  C2  UNL     1     -26.052  46.345  10.828  1.00  0.00    -0.091 C 
HETATM   14  C1  UNL     1     -25.073  45.429  10.140  1.00  0.00     0.042 C 
HETATM   15  C3  UNL     1     -26.491  45.990  12.206  1.00  0.00     0.042 C 
ENDBRANCH   1  12
BRANCH   2  16
HETATM   16  O1  UNL     1     -26.240  49.962   9.880  1.00  0.00    -0.394 OA
ATOM     17  H1  UNL     1     -25.783  50.789   9.967  1.00  0.00     0.210 HD
ENDBRANCH   2  16
BRANCH  11  18
HETATM   18  C12 UNL     1     -24.984  48.905   5.608  1.00  0.00     0.137 C 
HETATM   19  C13 UNL     1     -24.448  49.416   4.330  1.00  0.00     0.041 C 
BRANCH  18  20
HETATM   20  O3  UNL     1     -23.908  48.745   6.487  1.00  0.00    -0.394 OA
ATOM     21  H3  UNL     1     -23.085  48.470   6.100  1.00  0.00     0.210 HD
ENDBRANCH  18  20
ENDBRANCH  11  18
TORSDOF 4
ENDMDL
MODEL 2
REMARK VINA RESULT: -5.453202447      3.234      6.057
REMARK  4 active torsions:
REMARK  status: ('A' for Active; 'I' for Inactive)
REMARK    1  A    between atoms: C4_4  and  C5_5 
REMARK    2  A    between atoms: C6_6  and  O1_7 
REMARK    3  A    between atoms: C11_17  and  C12_18 
REMARK    4  A    between atoms: C12_18  and  O3_20 
ROOT
HETATM    1  C5  UNL     1     -26.530  47.015  10.231  1.00  0.00     0.061 C 
HETATM    2  C6  UNL     1     -26.239  45.782  11.100  1.00  0.00     0.136 C 
HETATM    3  C7  UNL     1     -27.615  45.307  10.847  1.00  0.00     0.064 C 
HETATM    4  C8  UNL     1     -27.679  46.233   9.656  1.00  0.00     0.105 C 
HETATM    5  N1  UNL     1     -28.915  46.920   9.494  1.00  0.00    -0.337 N 
ATOM      6  H1  UNL     1     -28.961  47.850   9.076  1.00  0.00     0.164 HD
HETATM    7  C9  UNL     1     -30.083  46.246   9.945  1.00  0.00     0.318 C 
HETATM    8  O2  UNL     1     -31.222  46.456   9.445  1.00  0.00    -0.247 OA
HETATM    9  N2  UNL     1     -29.931  45.305  11.002  1.00  0.00    -0.331 N 
HETATM   10  C10 UNL     1     -31.008  44.374  11.250  1.00  0.00     0.155 C 
HETATM   11  C11 UNL     1     -28.698  45.318  11.789  1.00  0.00     0.125 C 
ENDROOT
BRANCH   1  12
HETATM   12  C4  UNL     1     -25.480  47.263   9.206  1.00  0.00    -0.016 C 
HETATM   13  C2  UNL     1     -25.287  48.416   8.642  1.00  0.00    -0.091 C 
HETATM   14  C1  UNL     1     -26.146  49.599   9.012  1.00  0.00     0.042 C 
HETATM   15  C3  UNL     1     -24.224  48.618   7.620  1.00  0.00     0.042 C 
ENDBRANCH   1  12
BRANCH   2  16
HETATM   16  O1  UNL     1     -25.204  45.031  10.493  1.00  0.00    -0.394 OA
ATOM     17  H1  UNL     1     -24.395  45.190  10.963  1.00  0.00     0.210 HD
ENDBRANCH   2  16
BRANCH  11  18
HETATM   18  C12 UNL     1     -28.923  46.325  12.826  1.00  0.00     0.137 C 
HETATM   19  C13 UNL     1     -28.291  46.172  14.152  1.00  0.00     0.041 C 
BRANCH  18  20
HETATM   20  O3  UNL     1     -28.777  47.660  12.437  1.00  0.00    -0.394 OA
ATOM     21  H3  UNL     1     -29.529  48.224  12.574  1.00  0.00     0.210 HD
ENDBRANCH  18  20
ENDBRANCH  11  18
TORSDOF 4
ENDMDL
MODEL 3
REMARK VINA RESULT: -5.367089719      7.101      9.543
REMARK  4 active torsions:
REMARK  status: ('A' for Active; 'I' for Inactive)
REMARK    1  A    between atoms: C4_4  and  C5_5 
REMARK    2  A    between atoms: C6_6  and  O1_7 
REMARK    3  A    between atoms: C11_17  and  C12_18 
REMARK    4  A    between atoms: C12_18  and  O3_20 
ROOT
HETATM    1  C5  UNL     1     -28.852  44.400  13.188  1.00  0.00     0.061 C 
HETATM    2  C6  UNL     1     -30.188  44.969  12.684  1.00  0.00     0.136 C 
HETATM    3  C7  UNL     1     -30.869  44.312  13.819  1.00  0.00     0.064 C 
HETATM    4  C8  UNL     1     -29.533  44.205  14.515  1.00  0.00     0.105 C 
HETATM    5  N1  UNL     1     -29.302  42.972  15.187  1.00  0.00    -0.337 N 
ATOM      6  H1  UNL     1     -28.365  42.581  15.283  1.00  0.00     0.164 HD
HETATM    7  C9  UNL     1     -30.444  42.310  15.717  1.00  0.00     0.318 C 
HETATM    8  O2  UNL     1     -30.381  41.543  16.716  1.00  0.00    -0.247 OA
HETATM    9  N2  UNL     1     -31.693  42.543  15.075  1.00  0.00    -0.331 N 
HETATM   10  C10 UNL     1     -32.901  42.169  15.773  1.00  0.00     0.155 C 
HETATM   11  C11 UNL     1     -31.703  43.146  13.742  1.00  0.00     0.125 C 
ENDROOT
BRANCH   1  12
HETATM   12  C4  UNL     1     -27.781  45.430  13.279  1.00  0.00    -0.016 C 
HETATM   13  C2  UNL     1     -26.568  45.241  12.856  1.00  0.00    -0.091 C 
HETATM   14  C1  UNL     1     -26.174  43.927  12.233  1.00  0.00     0.042 C 
HETATM   15  C3  UNL     1     -25.528  46.301  12.968  1.00  0.00     0.042 C 
ENDBRANCH   1  12
BRANCH   2  16
HETATM   16  O1  UNL     1     -30.128  46.382  12.733  1.00  0.00    -0.394 OA
ATOM     17  H1  UNL     1     -31.011  46.722  12.816  1.00  0.00     0.210 HD
ENDBRANCH   2  16
BRANCH  11  18
HETATM   18  C12 UNL     1     -31.527  42.025  12.818  1.00  0.00     0.137 C 
HETATM   19  C13 UNL     1     -31.909  42.172  11.399  1.00  0.00     0.041 C 
BRANCH  18  20
HETATM   20  O3  UNL     1     -30.291  41.374  12.861  1.00  0.00    -0.394 OA
ATOM     21  H3  UNL     1     -29.612  41.792  13.377  1.00  0.00     0.210 HD
ENDBRANCH  18  20
ENDBRANCH  11  18
TORSDOF 4
ENDMDL
MODEL 4
REMARK VINA RESULT: -5.366754025      6.524     10.267
REMARK  4 active torsions:
REMARK  status: ('A' for Active; 'I' for Inactive)
REMARK    1  A    between atoms: C4_4  and  C5_5 
REMARK    2  A    between atoms: C6_6  and  O1_7 
REMARK    3  A    between atoms: C11_17  and  C12_18 
REMARK    4  A    between atoms: C12_18  and  O3_20 
ROOT
HETATM    1  C5  UNL     1     -28.546  44.710  13.670  1.00  0.00     0.061 C 
HETATM    2  C6  UNL     1     -29.680  43.703  13.421  1.00  0.00     0.136 C 
HETATM    3  C7  UNL     1     -30.298  44.118  14.697  1.00  0.00     0.064 C 
HETATM    4  C8  UNL     1     -29.472  45.381  14.648  1.00  0.00     0.105 C 
HETATM    5  N1  UNL     1     -28.916  45.785  15.894  1.00  0.00    -0.337 N 
ATOM      6  H1  UNL     1     -28.028  46.284  15.948  1.00  0.00     0.164 HD
HETATM    7  C9  UNL     1     -29.661  45.458  17.060  1.00  0.00     0.318 C 
HETATM    8  O2  UNL     1     -29.596  46.140  18.120  1.00  0.00    -0.247 OA
HETATM    9  N2  UNL     1     -30.504  44.313  17.000  1.00  0.00    -0.331 N 
HETATM   10  C10 UNL     1     -31.510  44.149  18.024  1.00  0.00     0.155 C 
HETATM   11  C11 UNL     1     -30.319  43.354  15.912  1.00  0.00     0.125 C 
ENDROOT
BRANCH   1  12
HETATM   12  C4  UNL     1     -28.278  45.584  12.496  1.00  0.00    -0.016 C 
HETATM   13  C2  UNL     1     -27.137  46.166  12.281  1.00  0.00    -0.091 C 
HETATM   14  C1  UNL     1     -25.993  45.977  13.244  1.00  0.00     0.042 C 
HETATM   15  C3  UNL     1     -26.914  47.033  11.092  1.00  0.00     0.042 C 
ENDBRANCH   1  12
BRANCH   2  16
HETATM   16  O1  UNL     1     -30.374  44.081  12.246  1.00  0.00    -0.394 OA
ATOM     17  H1  UNL     1     -31.057  44.698  12.480  1.00  0.00     0.210 HD
ENDBRANCH   2  16
BRANCH  11  18
HETATM   18  C12 UNL     1     -29.264  42.453  16.377  1.00  0.00     0.137 C 
HETATM   19  C13 UNL     1     -28.960  42.354  17.819  1.00  0.00     0.041 C 
BRANCH  18  20
HETATM   20  O3  UNL     1     -29.281  41.155  15.856  1.00  0.00    -0.394 OA
ATOM     21  H3  UNL     1     -28.581  40.934  15.254  1.00  0.00     0.210 HD
ENDBRANCH  18  20
ENDBRANCH  11  18
TORSDOF 4
ENDMDL
MODEL 5
REMARK VINA RESULT: -5.333818720      5.754      6.999
REMARK  4 active torsions:
REMARK  status: ('A' for Active; 'I' for Inactive)
REMARK    1  A    between atoms: C4_4  and  C5_5 
REMARK    2  A    between atoms: C6_6  and  O1_7 
REMARK    3  A    between atoms: C11_17  and  C12_18 
REMARK    4  A    between atoms: C12_18  and  O3_20 
ROOT
HETATM    1  C5  UNL     1     -28.895  46.087  13.969  1.00  0.00     0.061 C 
HETATM    2  C6  UNL     1     -28.345  47.004  12.866  1.00  0.00     0.136 C 
HETATM    3  C7  UNL     1     -28.835  46.043  11.856  1.00  0.00     0.064 C 
HETATM    4  C8  UNL     1     -29.751  45.460  12.904  1.00  0.00     0.105 C 
HETATM    5  N1  UNL     1     -29.845  44.040  12.898  1.00  0.00    -0.337 N 
ATOM      6  H1  UNL     1     -30.015  43.511  13.754  1.00  0.00     0.164 HD
HETATM    7  C9  UNL     1     -29.688  43.395  11.640  1.00  0.00     0.318 C 
HETATM    8  O2  UNL     1     -30.220  42.282  11.378  1.00  0.00    -0.247 OA
HETATM    9  N2  UNL     1     -28.896  44.056  10.659  1.00  0.00    -0.331 N 
HETATM   10  C10 UNL     1     -28.992  43.609   9.289  1.00  0.00     0.155 C 
HETATM   11  C11 UNL     1     -28.023  45.153  11.075  1.00  0.00     0.125 C 
ENDROOT
BRANCH   1  12
HETATM   12  C4  UNL     1     -29.724  46.814  14.969  1.00  0.00    -0.016 C 
HETATM   13  C2  UNL     1     -30.038  46.327  16.130  1.00  0.00    -0.091 C 
HETATM   14  C1  UNL     1     -29.561  44.955  16.535  1.00  0.00     0.042 C 
HETATM   15  C3  UNL     1     -30.871  47.091  17.099  1.00  0.00     0.042 C 
ENDBRANCH   1  12
BRANCH   2  16
HETATM   16  O1  UNL     1     -29.027  48.243  12.923  1.00  0.00    -0.394 OA
ATOM     17  H1  UNL     1     -28.611  48.791  13.577  1.00  0.00     0.210 HD
ENDBRANCH   2  16
BRANCH  11  18
HETATM   18  C12 UNL     1     -26.789  44.506  11.520  1.00  0.00     0.137 C 
HETATM   19  C13 UNL     1     -25.511  45.245  11.476  1.00  0.00     0.041 C 
BRANCH  18  20
HETATM   20  O3  UNL     1     -26.848  43.831  12.743  1.00  0.00    -0.394 OA
ATOM     21  H3  UNL     1     -26.227  43.122  12.864  1.00  0.00     0.210 HD
ENDBRANCH  18  20
ENDBRANCH  11  18
TORSDOF 4
ENDMDL
