MODEL 1
REMARK VINA RESULT: -6.728873878      0.000      0.000
REMARK  3 active torsions:
REMARK  status: ('A' for Active; 'I' for Inactive)
REMARK    1  A    between atoms: C1_2  and  C2_4 
REMARK    2  A    between atoms: C3_5  and  C4_6 
REMARK       I    between atoms: C4_6  and  N1_8 
REMARK    3  A    between atoms: N1_8  and  N2_10 
REMARK       I    between atoms: N2_10  and  C5_12 
REMARK       I    between atoms: C5_12  and  N3_14 
ROOT
HETATM    1  N2  UNL     1     -25.459  44.506  11.325  1.00  0.00    -0.249 N 
ATOM      2  H2  UNL     1     -25.473  45.136  10.524  1.00  0.00     0.192 HD
HETATM    3  C5  UNL     1     -24.313  43.752  11.558  1.00  0.00     0.337 C 
HETATM    4  O4  UNL     1     -24.304  42.960  12.563  1.00  0.00    -0.245 OA
HETATM    5  N3  UNL     1     -23.188  43.807  10.767  1.00  0.00    -0.323 N 
HETATM    6  C6  UNL     1     -23.203  44.734   9.582  1.00  0.00     0.207 C 
HETATM    7  C7  UNL     1     -21.924  44.669   8.974  1.00  0.00    -0.163 C 
HETATM    8  C8  UNL     1     -20.607  44.392   8.557  1.00  0.00     0.081 C 
HETATM    9  C9  UNL     1     -20.037  43.253   9.468  1.00  0.00     0.013 C 
HETATM   10  C10 UNL     1     -21.167  42.430  10.083  1.00  0.00     0.021 C 
HETATM   11  C11 UNL     1     -22.024  42.994  11.108  1.00  0.00     0.128 C 
ENDROOT
BRANCH   1  12
HETATM   12  N1  UNL     1     -26.604  44.436  12.152  1.00  0.00    -0.263 N 
HETATM   13  C4  UNL     1     -27.252  45.566  12.687  1.00  0.00     0.260 C 
HETATM   14  O3  UNL     1     -26.822  46.717  12.435  1.00  0.00    -0.267 OA
ATOM     15  H1  UNL     1     -26.982  43.515  12.374  1.00  0.00     0.190 HD
BRANCH  13  16
HETATM   16  C3  UNL     1     -28.429  45.429  13.541  1.00  0.00     0.082 C 
HETATM   17  C2  UNL     1     -28.612  46.078  14.659  1.00  0.00     0.090 C 
BRANCH  17  18
HETATM   18  C1  UNL     1     -29.857  45.826  15.402  1.00  0.00     0.198 C 
HETATM   19  O1  UNL     1     -29.807  45.732  16.680  1.00  0.00    -0.645 OA
HETATM   20  O2  UNL     1     -31.059  45.687  14.754  1.00  0.00    -0.645 OA
ENDBRANCH  17  18
ENDBRANCH  13  16
ENDBRANCH   1  12
TORSDOF 3
ENDMDL
MODEL 2
REMARK VINA RESULT: -6.683568441      1.632      2.151
REMARK  3 active torsions:
REMARK  status: ('A' for Active; 'I' for Inactive)
REMARK    1  A    between atoms: C1_2  and  C2_4 
REMARK    2  A    between atoms: C3_5  and  C4_6 
REMARK       I    between atoms: C4_6  and  N1_8 
REMARK    3  A    between atoms: N1_8  and  N2_10 
REMARK       I    between atoms: N2_10  and  C5_12 
REMARK       I    between atoms: C5_12  and  N3_14 
ROOT
HETATM    1  N2  UNL     1     -25.375  44.116  11.737  1.00  0.00    -0.249 N 
ATOM      2  H2  UNL     1     -25.007  43.338  12.283  1.00  0.00     0.192 HD
HETATM    3  C5  UNL     1     -24.597  44.632  10.706  1.00  0.00     0.337 C 
HETATM    4  O4  UNL     1     -25.064  45.611  10.027  1.00  0.00    -0.245 OA
HETATM    5  N3  UNL     1     -23.350  44.150  10.374  1.00  0.00    -0.323 N 
HETATM    6  C6  UNL     1     -22.801  43.004  11.177  1.00  0.00     0.207 C 
HETATM    7  C7  UNL     1     -21.553  42.644  10.608  1.00  0.00    -0.163 C 
HETATM    8  C8  UNL     1     -20.353  42.521   9.881  1.00  0.00     0.081 C 
HETATM    9  C9  UNL     1     -20.296  43.684   8.834  1.00  0.00     0.013 C 
HETATM   10  C10 UNL     1     -21.175  44.854   9.271  1.00  0.00     0.021 C 
HETATM   11  C11 UNL     1     -22.620  44.744   9.258  1.00  0.00     0.128 C 
ENDROOT
BRANCH   1  12
HETATM   12  N1  UNL     1     -26.655  44.624  12.060  1.00  0.00    -0.263 N 
HETATM   13  C4  UNL     1     -26.871  45.679  12.967  1.00  0.00     0.260 C 
HETATM   14  O3  UNL     1     -25.899  46.229  13.539  1.00  0.00    -0.267 OA
ATOM     15  H1  UNL     1     -27.468  44.202  11.611  1.00  0.00     0.190 HD
BRANCH  13  16
HETATM   16  C3  UNL     1     -28.220  46.156  13.265  1.00  0.00     0.082 C 
HETATM   17  C2  UNL     1     -28.687  47.322  12.910  1.00  0.00     0.090 C 
BRANCH  17  18
HETATM   18  C1  UNL     1     -30.071  47.650  13.289  1.00  0.00     0.198 C 
HETATM   19  O1  UNL     1     -30.326  47.944  14.510  1.00  0.00    -0.645 OA
HETATM   20  O2  UNL     1     -31.085  47.641  12.362  1.00  0.00    -0.645 OA
ENDBRANCH  17  18
ENDBRANCH  13  16
ENDBRANCH   1  12
TORSDOF 3
ENDMDL
MODEL 3
REMARK VINA RESULT: -6.601742478      1.261      1.868
REMARK  3 active torsions:
REMARK  status: ('A' for Active; 'I' for Inactive)
REMARK    1  A    between atoms: C1_2  and  C2_4 
REMARK    2  A    between atoms: C3_5  and  C4_6 
REMARK       I    between atoms: C4_6  and  N1_8 
REMARK    3  A    between atoms: N1_8  and  N2_10 
REMARK       I    between atoms: N2_10  and  C5_12 
REMARK       I    between atoms: C5_12  and  N3_14 
ROOT
HETATM    1  N2  UNL     1     -25.411  44.040  11.859  1.00  0.00    -0.249 N 
ATOM      2  H2  UNL     1     -25.015  43.271  12.399  1.00  0.00     0.192 HD
HETATM    3  C5  UNL     1     -24.665  44.570  10.811  1.00  0.00     0.337 C 
HETATM    4  O4  UNL     1     -25.166  45.537  10.140  1.00  0.00    -0.245 OA
HETATM    5  N3  UNL     1     -23.415  44.113  10.456  1.00  0.00    -0.323 N 
HETATM    6  C6  UNL     1     -22.825  42.980  11.249  1.00  0.00     0.207 C 
HETATM    7  C7  UNL     1     -21.582  42.646  10.656  1.00  0.00    -0.163 C 
HETATM    8  C8  UNL     1     -20.394  42.546   9.905  1.00  0.00     0.081 C 
HETATM    9  C9  UNL     1     -20.383  43.708   8.855  1.00  0.00     0.013 C 
HETATM   10  C10 UNL     1     -21.277  44.860   9.307  1.00  0.00     0.021 C 
HETATM   11  C11 UNL     1     -22.720  44.720   9.323  1.00  0.00     0.128 C 
ENDROOT
BRANCH   1  12
HETATM   12  N1  UNL     1     -26.694  44.521  12.206  1.00  0.00    -0.263 N 
HETATM   13  C4  UNL     1     -26.912  45.616  13.064  1.00  0.00     0.260 C 
HETATM   14  O3  UNL     1     -25.939  46.229  13.565  1.00  0.00    -0.267 OA
ATOM     15  H1  UNL     1     -27.509  44.048  11.814  1.00  0.00     0.190 HD
BRANCH  13  16
HETATM   16  C3  UNL     1     -28.264  46.063  13.391  1.00  0.00     0.082 C 
HETATM   17  C2  UNL     1     -28.768  46.079  14.596  1.00  0.00     0.090 C 
BRANCH  17  18
HETATM   18  C1  UNL     1     -30.149  46.560  14.756  1.00  0.00     0.198 C 
HETATM   19  O1  UNL     1     -31.114  45.726  14.632  1.00  0.00    -0.645 OA
HETATM   20  O2  UNL     1     -30.417  47.879  15.030  1.00  0.00    -0.645 OA
ENDBRANCH  17  18
ENDBRANCH  13  16
ENDBRANCH   1  12
TORSDOF 3
ENDMDL
MODEL 4
REMARK VINA RESULT: -6.494022648      1.219      1.244
REMARK  3 active torsions:
REMARK  status: ('A' for Active; 'I' for Inactive)
REMARK    1  A    between atoms: C1_2  and  C2_4 
REMARK    2  A    between atoms: C3_5  and  C4_6 
REMARK       I    between atoms: C4_6  and  N1_8 
REMARK    3  A    between atoms: N1_8  and  N2_10 
REMARK       I    between atoms: N2_10  and  C5_12 
REMARK       I    between atoms: C5_12  and  N3_14 
ROOT
HETATM    1  N2  UNL     1     -25.391  44.545  11.363  1.00  0.00    -0.249 N 
ATOM      2  H2  UNL     1     -25.400  45.189  10.572  1.00  0.00     0.192 HD
HETATM    3  C5  UNL     1     -24.257  43.768  11.574  1.00  0.00     0.337 C 
HETATM    4  O4  UNL     1     -24.254  42.958  12.565  1.00  0.00    -0.245 OA
HETATM    5  N3  UNL     1     -23.136  43.818  10.775  1.00  0.00    -0.323 N 
HETATM    6  C6  UNL     1     -23.144  44.766   9.608  1.00  0.00     0.207 C 
HETATM    7  C7  UNL     1     -21.871  44.690   8.989  1.00  0.00    -0.163 C 
HETATM    8  C8  UNL     1     -20.561  44.398   8.558  1.00  0.00     0.081 C 
HETATM    9  C9  UNL     1     -20.005  43.234   9.444  1.00  0.00     0.013 C 
HETATM   10  C10 UNL     1     -21.144  42.420  10.053  1.00  0.00     0.021 C 
HETATM   11  C11 UNL     1     -21.984  42.979  11.094  1.00  0.00     0.128 C 
ENDROOT
BRANCH   1  12
HETATM   12  N1  UNL     1     -26.532  44.480  12.196  1.00  0.00    -0.263 N 
HETATM   13  C4  UNL     1     -27.846  44.341  11.712  1.00  0.00     0.260 C 
HETATM   14  O3  UNL     1     -28.060  44.263  10.479  1.00  0.00    -0.267 OA
ATOM     15  H1  UNL     1     -26.394  44.537  13.206  1.00  0.00     0.190 HD
BRANCH  13  16
HETATM   16  C3  UNL     1     -28.986  44.286  12.625  1.00  0.00     0.082 C 
HETATM   17  C2  UNL     1     -28.906  44.443  13.919  1.00  0.00     0.090 C 
BRANCH  17  18
HETATM   18  C1  UNL     1     -30.152  44.359  14.698  1.00  0.00     0.198 C 
HETATM   19  O1  UNL     1     -30.087  44.043  15.938  1.00  0.00    -0.645 OA
HETATM   20  O2  UNL     1     -31.372  44.609  14.120  1.00  0.00    -0.645 OA
ENDBRANCH  17  18
ENDBRANCH  13  16
ENDBRANCH   1  12
TORSDOF 3
ENDMDL
MODEL 5
REMARK VINA RESULT: -6.455252750      2.400      8.298
REMARK  3 active torsions:
REMARK  status: ('A' for Active; 'I' for Inactive)
REMARK    1  A    between atoms: C1_2  and  C2_4 
REMARK    2  A    between atoms: C3_5  and  C4_6 
REMARK       I    between atoms: C4_6  and  N1_8 
REMARK    3  A    between atoms: N1_8  and  N2_10 
REMARK       I    between atoms: N2_10  and  C5_12 
REMARK       I    between atoms: C5_12  and  N3_14 
ROOT
HETATM    1  N2  UNL     1     -25.708  44.453  11.842  1.00  0.00    -0.249 N 
ATOM      2  H2  UNL     1     -26.054  43.662  12.386  1.00  0.00     0.192 HD
HETATM    3  C5  UNL     1     -26.399  45.658  11.905  1.00  0.00     0.337 C 
HETATM    4  O4  UNL     1     -25.961  46.644  11.216  1.00  0.00    -0.245 OA
HETATM    5  N3  UNL     1     -27.531  45.851  12.666  1.00  0.00    -0.323 N 
HETATM    6  C6  UNL     1     -28.047  44.689  13.469  1.00  0.00     0.207 C 
HETATM    7  C7  UNL     1     -29.162  45.149  14.214  1.00  0.00    -0.163 C 
HETATM    8  C8  UNL     1     -30.238  45.846  14.800  1.00  0.00     0.081 C 
HETATM    9  C9  UNL     1     -30.289  47.279  14.172  1.00  0.00     0.013 C 
HETATM   10  C10 UNL     1     -29.611  47.300  12.804  1.00  0.00     0.021 C 
HETATM   11  C11 UNL     1     -28.173  47.162  12.685  1.00  0.00     0.128 C 
ENDROOT
BRANCH   1  12
HETATM   12  N1  UNL     1     -24.545  44.275  11.056  1.00  0.00    -0.263 N 
HETATM   13  C4  UNL     1     -23.517  43.369  11.376  1.00  0.00     0.260 C 
HETATM   14  O3  UNL     1     -23.600  42.657  12.404  1.00  0.00    -0.267 OA
ATOM     15  H1  UNL     1     -24.446  44.837  10.210  1.00  0.00     0.190 HD
BRANCH  13  16
HETATM   16  C3  UNL     1     -22.335  43.236  10.526  1.00  0.00     0.082 C 
HETATM   17  C2  UNL     1     -21.723  44.234   9.948  1.00  0.00     0.090 C 
BRANCH  17  18
HETATM   18  C1  UNL     1     -20.544  43.929   9.123  1.00  0.00     0.198 C 
HETATM   19  O1  UNL     1     -19.747  42.999   9.501  1.00  0.00    -0.645 OA
HETATM   20  O2  UNL     1     -20.284  44.623   7.966  1.00  0.00    -0.645 OA
ENDBRANCH  17  18
ENDBRANCH  13  16
ENDBRANCH   1  12
TORSDOF 3
ENDMDL
