MODEL 1
REMARK VINA RESULT: -6.915608581      0.000      0.000
REMARK  8 active torsions:
REMARK  status: ('A' for Active; 'I' for Inactive)
REMARK    1  A    between atoms: C3_4  and  N2_5 
REMARK    2  A    between atoms: N2_5  and  C4_7 
REMARK    3  A    between atoms: C4_7  and  C5_8 
REMARK    4  A    between atoms: C4_7  and  C7_18 
REMARK    5  A    between atoms: C5_8  and  C6_9 
REMARK    6  A    between atoms: C9_22  and  O1_23 
REMARK    7  A    between atoms: N8_25  and  C10_26 
REMARK    8  A    between atoms: C14_32  and  N10_33 
ROOT
HETATM    1  C4  UNL     1     -12.342 -27.974 -20.200  1.00  0.00     0.158 C 
ENDROOT
BRANCH   1   2
HETATM    2  N2  UNL     1     -11.112 -27.908 -19.595  1.00  0.00    -0.363 N 
ATOM      3  H2  UNL     1     -11.146 -27.072 -19.011  1.00  0.00     0.162 HD
BRANCH   2   4
HETATM    4  C3  UNL     1      -9.996 -28.373 -19.423  1.00  0.00     0.134 A 
HETATM    5  C2  UNL     1      -9.187 -28.683 -20.549  1.00  0.00     0.158 A 
HETATM    6  N1  UNL     1      -7.962 -29.193 -20.410  1.00  0.00    -0.290 N 
HETATM    7  C1  UNL     1      -7.129 -29.514 -21.571  1.00  0.00     0.177 C 
HETATM    8  N11 UNL     1      -7.475 -29.420 -19.218  1.00  0.00    -0.131 N 
HETATM    9  C14 UNL     1      -8.228 -29.133 -18.142  1.00  0.00     0.692 A 
ATOM     10  H11 UNL     1      -6.539 -29.809 -19.107  1.00  0.00     0.205 HD
HETATM   11  N9  UNL     1      -9.466 -28.619 -18.216  1.00  0.00    -0.175 N 
ATOM     12  H9  UNL     1      -9.995 -28.418 -17.367  1.00  0.00     0.186 HD
BRANCH   9  13
HETATM   13  N10 UNL     1      -7.719 -29.368 -16.961  1.00  0.00    -0.233 N 
ATOM     14 2H10 UNL     1      -8.100 -30.149 -16.426  1.00  0.00     0.174 HD
ATOM     15 1H10 UNL     1      -6.967 -28.767 -16.626  1.00  0.00     0.174 HD
ENDBRANCH   9  13
ENDBRANCH   2   4
ENDBRANCH   1   2
BRANCH   1  16
HETATM   16  C5  UNL     1     -13.362 -27.098 -19.476  1.00  0.00     0.112 C 
BRANCH  16  17
HETATM   17  C6  UNL     1     -14.752 -27.452 -19.816  1.00  0.00     0.115 A 
HETATM   18  N3  UNL     1     -15.423 -28.487 -19.331  1.00  0.00    -0.272 N 
HETATM   19  N4  UNL     1     -16.639 -28.520 -19.837  1.00  0.00    -0.227 N 
ATOM     20  H3  UNL     1     -15.051 -29.160 -18.661  1.00  0.00     0.190 HD
HETATM   21  N5  UNL     1     -16.724 -27.498 -20.645  1.00  0.00    -0.227 N 
ATOM     22  H4  UNL     1     -17.367 -29.207 -19.639  1.00  0.00     0.210 HD
HETATM   23  N6  UNL     1     -15.591 -26.816 -20.663  1.00  0.00    -0.272 N 
ATOM     24  H5  UNL     1     -17.552 -27.257 -21.188  1.00  0.00     0.210 HD
ATOM     25  H6  UNL     1     -15.390 -25.978 -21.207  1.00  0.00     0.190 HD
ENDBRANCH  16  17
ENDBRANCH   1  16
BRANCH   1  26
HETATM   26  C7  UNL     1     -12.271 -27.428 -21.588  1.00  0.00     0.109 A 
HETATM   27  N7  UNL     1     -11.780 -26.227 -21.841  1.00  0.00    -0.350 N 
HETATM   28  C8  UNL     1     -11.807 -25.963 -23.140  1.00  0.00     0.145 A 
ATOM     29  H7  UNL     1     -11.426 -25.586 -21.130  1.00  0.00     0.166 HD
HETATM   30  C9  UNL     1     -12.363 -27.112 -23.716  1.00  0.00     0.160 A 
HETATM   31  N8  UNL     1     -12.635 -27.988 -22.746  1.00  0.00    -0.305 N 
BRANCH  30  32
HETATM   32  O1  UNL     1     -12.556 -27.209 -25.112  1.00  0.00    -0.345 OA
ATOM     33  H1  UNL     1     -13.170 -26.641 -25.563  1.00  0.00     0.219 HD
ENDBRANCH  30  32
BRANCH  31  34
HETATM   34  C10 UNL     1     -13.197 -29.295 -22.908  1.00  0.00     0.030 C 
HETATM   35  C11 UNL     1     -12.575 -30.042 -24.080  1.00  0.00     0.038 C 
HETATM   36  C12 UNL     1     -14.667 -29.166 -23.236  1.00  0.00     0.038 C 
HETATM   37  C13 UNL     1     -13.114 -30.189 -21.703  1.00  0.00     0.038 C 
ENDBRANCH  31  34
ENDBRANCH   1  26
TORSDOF 8
ENDMDL
MODEL 2
REMARK VINA RESULT: -6.774283437      5.527      8.363
REMARK  8 active torsions:
REMARK  status: ('A' for Active; 'I' for Inactive)
REMARK    1  A    between atoms: C3_4  and  N2_5 
REMARK    2  A    between atoms: N2_5  and  C4_7 
REMARK    3  A    between atoms: C4_7  and  C5_8 
REMARK    4  A    between atoms: C4_7  and  C7_18 
REMARK    5  A    between atoms: C5_8  and  C6_9 
REMARK    6  A    between atoms: C9_22  and  O1_23 
REMARK    7  A    between atoms: N8_25  and  C10_26 
REMARK    8  A    between atoms: C14_32  and  N10_33 
ROOT
HETATM    1  C4  UNL     1      -4.920 -30.085 -18.818  1.00  0.00     0.158 C 
ENDROOT
BRANCH   1   2
HETATM    2  N2  UNL     1      -4.358 -29.264 -19.763  1.00  0.00    -0.363 N 
ATOM      3  H2  UNL     1      -3.702 -28.675 -19.251  1.00  0.00     0.162 HD
BRANCH   2   4
HETATM    4  C3  UNL     1      -4.271 -28.903 -20.927  1.00  0.00     0.134 A 
HETATM    5  C2  UNL     1      -4.179 -29.878 -21.957  1.00  0.00     0.158 A 
HETATM    6  N1  UNL     1      -4.082 -29.530 -23.240  1.00  0.00    -0.290 N 
HETATM    7  C1  UNL     1      -3.986 -30.536 -24.302  1.00  0.00     0.177 C 
HETATM    8  N11 UNL     1      -4.071 -28.269 -23.583  1.00  0.00    -0.131 N 
HETATM    9  C14 UNL     1      -4.157 -27.333 -22.620  1.00  0.00     0.692 A 
ATOM     10  H11 UNL     1      -3.998 -27.998 -24.563  1.00  0.00     0.205 HD
HETATM   11  N9  UNL     1      -4.256 -27.619 -21.312  1.00  0.00    -0.175 N 
ATOM     12  H9  UNL     1      -4.320 -26.870 -20.622  1.00  0.00     0.186 HD
BRANCH   9  13
HETATM   13  N10 UNL     1      -4.144 -26.079 -22.986  1.00  0.00    -0.233 N 
ATOM     14 2H10 UNL     1      -3.903 -25.380 -22.283  1.00  0.00     0.174 HD
ATOM     15 1H10 UNL     1      -4.372 -25.851 -23.954  1.00  0.00     0.174 HD
ENDBRANCH   9  13
ENDBRANCH   2   4
ENDBRANCH   1   2
BRANCH   1  16
HETATM   16  C5  UNL     1      -3.987 -30.270 -17.622  1.00  0.00     0.112 C 
BRANCH  16  17
HETATM   17  C6  UNL     1      -4.256 -31.517 -16.885  1.00  0.00     0.115 A 
HETATM   18  N3  UNL     1      -3.797 -32.717 -17.210  1.00  0.00    -0.272 N 
HETATM   19  N4  UNL     1      -4.221 -33.618 -16.346  1.00  0.00    -0.227 N 
ATOM     20  H3  UNL     1      -3.200 -32.915 -18.014  1.00  0.00     0.190 HD
HETATM   21  N5  UNL     1      -4.951 -32.971 -15.478  1.00  0.00    -0.227 N 
ATOM     22  H4  UNL     1      -4.021 -34.618 -16.355  1.00  0.00     0.210 HD
HETATM   23  N6  UNL     1      -4.999 -31.682 -15.770  1.00  0.00    -0.272 N 
ATOM     24  H5  UNL     1      -5.420 -33.401 -14.682  1.00  0.00     0.210 HD
ATOM     25  H6  UNL     1      -5.499 -30.957 -15.255  1.00  0.00     0.190 HD
ENDBRANCH  16  17
ENDBRANCH   1  16
BRANCH   1  26
HETATM   26  C7  UNL     1      -6.158 -29.466 -18.258  1.00  0.00     0.109 A 
HETATM   27  N7  UNL     1      -6.138 -28.746 -17.148  1.00  0.00    -0.350 N 
HETATM   28  C8  UNL     1      -7.347 -28.290 -16.852  1.00  0.00     0.145 A 
ATOM     29  H7  UNL     1      -5.301 -28.565 -16.593  1.00  0.00     0.166 HD
HETATM   30  C9  UNL     1      -8.164 -28.781 -17.878  1.00  0.00     0.160 A 
HETATM   31  N8  UNL     1      -7.411 -29.493 -18.721  1.00  0.00    -0.305 N 
BRANCH  30  32
HETATM   32  O1  UNL     1      -9.548 -28.500 -17.908  1.00  0.00    -0.345 OA
ATOM     33  H1  UNL     1      -9.877 -27.694 -18.289  1.00  0.00     0.219 HD
ENDBRANCH  30  32
BRANCH  31  34
HETATM   34  C10 UNL     1      -7.853 -30.153 -19.912  1.00  0.00     0.030 C 
HETATM   35  C11 UNL     1      -7.749 -29.253 -21.135  1.00  0.00     0.038 C 
HETATM   36  C12 UNL     1      -9.319 -30.494 -19.775  1.00  0.00     0.038 C 
HETATM   37  C13 UNL     1      -7.152 -31.443 -20.236  1.00  0.00     0.038 C 
ENDBRANCH  31  34
ENDBRANCH   1  26
TORSDOF 8
ENDMDL
MODEL 3
REMARK VINA RESULT: -6.765377231      5.896      8.208
REMARK  8 active torsions:
REMARK  status: ('A' for Active; 'I' for Inactive)
REMARK    1  A    between atoms: C3_4  and  N2_5 
REMARK    2  A    between atoms: N2_5  and  C4_7 
REMARK    3  A    between atoms: C4_7  and  C5_8 
REMARK    4  A    between atoms: C4_7  and  C7_18 
REMARK    5  A    between atoms: C5_8  and  C6_9 
REMARK    6  A    between atoms: C9_22  and  O1_23 
REMARK    7  A    between atoms: N8_25  and  C10_26 
REMARK    8  A    between atoms: C14_32  and  N10_33 
ROOT
HETATM    1  C4  UNL     1      -5.134 -29.193 -21.704  1.00  0.00     0.158 C 
ENDROOT
BRANCH   1   2
HETATM    2  N2  UNL     1      -4.924 -28.985 -20.363  1.00  0.00    -0.363 N 
ATOM      3  H2  UNL     1      -4.348 -28.144 -20.310  1.00  0.00     0.162 HD
BRANCH   2   4
HETATM    4  C3  UNL     1      -5.098 -29.327 -19.204  1.00  0.00     0.134 A 
HETATM    5  C2  UNL     1      -4.192 -30.241 -18.600  1.00  0.00     0.158 A 
HETATM    6  N1  UNL     1      -4.344 -30.642 -17.338  1.00  0.00    -0.290 N 
HETATM    7  C1  UNL     1      -3.410 -31.585 -16.716  1.00  0.00     0.177 C 
HETATM    8  N11 UNL     1      -5.342 -30.197 -16.620  1.00  0.00    -0.131 N 
HETATM    9  C14 UNL     1      -6.208 -29.333 -17.176  1.00  0.00     0.692 A 
ATOM     10  H11 UNL     1      -5.460 -30.501 -15.653  1.00  0.00     0.205 HD
HETATM   11  N9  UNL     1      -6.110 -28.891 -18.440  1.00  0.00    -0.175 N 
ATOM     12  H9  UNL     1      -6.795 -28.234 -18.814  1.00  0.00     0.186 HD
BRANCH   9  13
HETATM   13  N10 UNL     1      -7.198 -28.902 -16.439  1.00  0.00    -0.233 N 
ATOM     14 2H10 UNL     1      -7.502 -29.488 -15.660  1.00  0.00     0.174 HD
ATOM     15 1H10 UNL     1      -7.621 -28.002 -16.669  1.00  0.00     0.174 HD
ENDBRANCH   9  13
ENDBRANCH   2   4
ENDBRANCH   1   2
BRANCH   1  16
HETATM   16  C5  UNL     1      -6.064 -30.382 -21.938  1.00  0.00     0.112 C 
BRANCH  16  17
HETATM   17  C6  UNL     1      -5.346 -31.570 -22.434  1.00  0.00     0.115 A 
HETATM   18  N3  UNL     1      -4.031 -31.676 -22.561  1.00  0.00    -0.272 N 
HETATM   19  N4  UNL     1      -3.712 -32.866 -23.031  1.00  0.00    -0.227 N 
ATOM     20  H3  UNL     1      -3.361 -30.943 -22.330  1.00  0.00     0.190 HD
HETATM   21  N5  UNL     1      -4.840 -33.504 -23.196  1.00  0.00    -0.227 N 
ATOM     22  H4  UNL     1      -2.775 -33.218 -23.226  1.00  0.00     0.210 HD
HETATM   23  N6  UNL     1      -5.865 -32.747 -22.843  1.00  0.00    -0.272 N 
ATOM     24  H5  UNL     1      -4.920 -34.457 -23.550  1.00  0.00     0.210 HD
ATOM     25  H6  UNL     1      -6.852 -33.002 -22.874  1.00  0.00     0.190 HD
ENDBRANCH  16  17
ENDBRANCH   1  16
BRANCH   1  26
HETATM   26  C7  UNL     1      -5.832 -28.022 -22.311  1.00  0.00     0.109 A 
HETATM   27  N7  UNL     1      -7.146 -27.884 -22.248  1.00  0.00    -0.350 N 
HETATM   28  C8  UNL     1      -7.538 -26.766 -22.844  1.00  0.00     0.145 A 
ATOM     29  H7  UNL     1      -7.776 -28.550 -21.800  1.00  0.00     0.166 HD
HETATM   30  C9  UNL     1      -6.351 -26.182 -23.303  1.00  0.00     0.160 A 
HETATM   31  N8  UNL     1      -5.328 -26.970 -22.963  1.00  0.00    -0.305 N 
BRANCH  30  32
HETATM   32  O1  UNL     1      -6.363 -24.955 -24.002  1.00  0.00    -0.345 OA
ATOM     33  H1  UNL     1      -5.653 -24.331 -23.909  1.00  0.00     0.219 HD
ENDBRANCH  30  32
BRANCH  31  34
HETATM   34  C10 UNL     1      -3.941 -26.731 -23.228  1.00  0.00     0.030 C 
HETATM   35  C11 UNL     1      -3.738 -25.605 -24.232  1.00  0.00     0.038 C 
HETATM   36  C12 UNL     1      -3.338 -27.963 -23.862  1.00  0.00     0.038 C 
HETATM   37  C13 UNL     1      -3.095 -26.425 -22.023  1.00  0.00     0.038 C 
ENDBRANCH  31  34
ENDBRANCH   1  26
TORSDOF 8
ENDMDL
MODEL 4
REMARK VINA RESULT: -6.687550563      1.487      1.761
REMARK  8 active torsions:
REMARK  status: ('A' for Active; 'I' for Inactive)
REMARK    1  A    between atoms: C3_4  and  N2_5 
REMARK    2  A    between atoms: N2_5  and  C4_7 
REMARK    3  A    between atoms: C4_7  and  C5_8 
REMARK    4  A    between atoms: C4_7  and  C7_18 
REMARK    5  A    between atoms: C5_8  and  C6_9 
REMARK    6  A    between atoms: C9_22  and  O1_23 
REMARK    7  A    between atoms: N8_25  and  C10_26 
REMARK    8  A    between atoms: C14_32  and  N10_33 
ROOT
HETATM    1  C4  UNL     1     -11.264 -28.471 -20.185  1.00  0.00     0.158 C 
ENDROOT
BRANCH   1   2
HETATM    2  N2  UNL     1     -10.256 -29.056 -19.460  1.00  0.00    -0.363 N 
ATOM      3  H2  UNL     1     -10.715 -29.766 -18.889  1.00  0.00     0.162 HD
BRANCH   2   4
HETATM    4  C3  UNL     1      -9.072 -29.131 -19.173  1.00  0.00     0.134 A 
HETATM    5  C2  UNL     1      -8.208 -29.931 -19.969  1.00  0.00     0.158 A 
HETATM    6  N1  UNL     1      -6.908 -30.041 -19.694  1.00  0.00    -0.290 N 
HETATM    7  C1  UNL     1      -6.018 -30.867 -20.514  1.00  0.00     0.177 C 
HETATM    8  N11 UNL     1      -6.394 -29.407 -18.673  1.00  0.00    -0.131 N 
HETATM    9  C14 UNL     1      -7.198 -28.646 -17.909  1.00  0.00     0.692 A 
ATOM     10  H11 UNL     1      -5.400 -29.488 -18.459  1.00  0.00     0.205 HD
HETATM   11  N9  UNL     1      -8.513 -28.495 -18.134  1.00  0.00    -0.175 N 
ATOM     12  H9  UNL     1      -9.078 -27.904 -17.523  1.00  0.00     0.186 HD
BRANCH   9  13
HETATM   13  N10 UNL     1      -6.662 -28.022 -16.893  1.00  0.00    -0.233 N 
ATOM     14 2H10 UNL     1      -6.968 -27.066 -16.707  1.00  0.00     0.174 HD
ATOM     15 1H10 UNL     1      -5.966 -28.513 -16.331  1.00  0.00     0.174 HD
ENDBRANCH   9  13
ENDBRANCH   2   4
ENDBRANCH   1   2
BRANCH   1  16
HETATM   16  C5  UNL     1     -11.984 -27.401 -19.367  1.00  0.00     0.112 C 
BRANCH  16  17
HETATM   17  C6  UNL     1     -13.432 -27.364 -19.639  1.00  0.00     0.115 A 
HETATM   18  N3  UNL     1     -14.026 -26.601 -20.546  1.00  0.00    -0.272 N 
HETATM   19  N4  UNL     1     -15.328 -26.807 -20.535  1.00  0.00    -0.227 N 
ATOM     20  H3  UNL     1     -13.544 -25.948 -21.164  1.00  0.00     0.190 HD
HETATM   21  N5  UNL     1     -15.544 -27.706 -19.612  1.00  0.00    -0.227 N 
ATOM     22  H4  UNL     1     -16.025 -26.356 -21.126  1.00  0.00     0.210 HD
HETATM   23  N6  UNL     1     -14.411 -28.074 -19.038  1.00  0.00    -0.272 N 
ATOM     24  H5  UNL     1     -16.463 -28.074 -19.367  1.00  0.00     0.210 HD
ATOM     25  H6  UNL     1     -14.299 -28.759 -18.290  1.00  0.00     0.190 HD
ENDBRANCH  16  17
ENDBRANCH   1  16
BRANCH   1  26
HETATM   26  C7  UNL     1     -10.706 -27.752 -21.368  1.00  0.00     0.109 A 
HETATM   27  N7  UNL     1      -9.753 -26.843 -21.246  1.00  0.00    -0.350 N 
HETATM   28  C8  UNL     1      -9.409 -26.349 -22.428  1.00  0.00     0.145 A 
ATOM     29  H7  UNL     1      -9.336 -26.559 -20.359  1.00  0.00     0.166 HD
HETATM   30  C9  UNL     1     -10.230 -27.024 -23.339  1.00  0.00     0.160 A 
HETATM   31  N8  UNL     1     -11.009 -27.873 -22.664  1.00  0.00    -0.305 N 
BRANCH  30  32
HETATM   32  O1  UNL     1     -10.154 -26.763 -24.724  1.00  0.00    -0.345 OA
ATOM     33  H1  UNL     1     -10.541 -27.355 -25.358  1.00  0.00     0.219 HD
ENDBRANCH  30  32
BRANCH  31  34
HETATM   34  C10 UNL     1     -11.982 -28.767 -23.220  1.00  0.00     0.030 C 
HETATM   35  C11 UNL     1     -11.448 -29.503 -24.440  1.00  0.00     0.038 C 
HETATM   36  C12 UNL     1     -13.168 -27.967 -23.707  1.00  0.00     0.038 C 
HETATM   37  C13 UNL     1     -12.532 -29.795 -22.272  1.00  0.00     0.038 C 
ENDBRANCH  31  34
ENDBRANCH   1  26
TORSDOF 8
ENDMDL
MODEL 5
REMARK VINA RESULT: -6.665779998      1.081      1.483
REMARK  8 active torsions:
REMARK  status: ('A' for Active; 'I' for Inactive)
REMARK    1  A    between atoms: C3_4  and  N2_5 
REMARK    2  A    between atoms: N2_5  and  C4_7 
REMARK    3  A    between atoms: C4_7  and  C5_8 
REMARK    4  A    between atoms: C4_7  and  C7_18 
REMARK    5  A    between atoms: C5_8  and  C6_9 
REMARK    6  A    between atoms: C9_22  and  O1_23 
REMARK    7  A    between atoms: N8_25  and  C10_26 
REMARK    8  A    between atoms: C14_32  and  N10_33 
ROOT
HETATM    1  C4  UNL     1     -12.617 -28.779 -20.376  1.00  0.00     0.158 C 
ENDROOT
BRANCH   1   2
HETATM    2  N2  UNL     1     -11.434 -29.331 -19.951  1.00  0.00    -0.363 N 
ATOM      3  H2  UNL     1     -11.693 -30.215 -19.513  1.00  0.00     0.162 HD
BRANCH   2   4
HETATM    4  C3  UNL     1     -10.219 -29.267 -19.848  1.00  0.00     0.134 A 
HETATM    5  C2  UNL     1      -9.403 -29.633 -20.952  1.00  0.00     0.158 A 
HETATM    6  N1  UNL     1      -8.072 -29.579 -20.885  1.00  0.00    -0.290 N 
HETATM    7  C1  UNL     1      -7.231 -29.957 -22.024  1.00  0.00     0.177 C 
HETATM    8  N11 UNL     1      -7.483 -29.182 -19.788  1.00  0.00    -0.131 N 
HETATM    9  C14 UNL     1      -8.241 -28.832 -18.733  1.00  0.00     0.692 A 
ATOM     10  H11 UNL     1      -6.466 -29.138 -19.732  1.00  0.00     0.205 HD
HETATM   11  N9  UNL     1      -9.583 -28.865 -18.738  1.00  0.00    -0.175 N 
ATOM     12  H9  UNL     1     -10.111 -28.588 -17.910  1.00  0.00     0.186 HD
BRANCH   9  13
HETATM   13  N10 UNL     1      -7.630 -28.439 -17.647  1.00  0.00    -0.233 N 
ATOM     14 2H10 UNL     1      -8.008 -27.628 -17.155  1.00  0.00     0.174 HD
ATOM     15 1H10 UNL     1      -6.807 -28.955 -17.336  1.00  0.00     0.174 HD
ENDBRANCH   9  13
ENDBRANCH   2   4
ENDBRANCH   1   2
BRANCH   1  16
HETATM   16  C5  UNL     1     -13.452 -28.288 -19.195  1.00  0.00     0.112 C 
BRANCH  16  17
HETATM   17  C6  UNL     1     -14.894 -28.528 -19.387  1.00  0.00     0.115 A 
HETATM   18  N3  UNL     1     -15.525 -29.664 -19.129  1.00  0.00    -0.272 N 
HETATM   19  N4  UNL     1     -16.808 -29.548 -19.409  1.00  0.00    -0.227 N 
ATOM     20  H3  UNL     1     -15.082 -30.508 -18.766  1.00  0.00     0.190 HD
HETATM   21  N5  UNL     1     -16.974 -28.328 -19.845  1.00  0.00    -0.227 N 
ATOM     22  H4  UNL     1     -17.526 -30.265 -19.307  1.00  0.00     0.210 HD
HETATM   23  N6  UNL     1     -15.828 -27.668 -19.848  1.00  0.00    -0.272 N 
ATOM     24  H5  UNL     1     -17.867 -27.936 -20.143  1.00  0.00     0.210 HD
ATOM     25  H6  UNL     1     -15.679 -26.703 -20.140  1.00  0.00     0.190 HD
ENDBRANCH  16  17
ENDBRANCH   1  16
BRANCH   1  26
HETATM   26  C7  UNL     1     -12.357 -27.565 -21.205  1.00  0.00     0.109 A 
HETATM   27  N7  UNL     1     -11.825 -26.469 -20.691  1.00  0.00    -0.350 N 
HETATM   28  C8  UNL     1     -11.678 -25.529 -21.615  1.00  0.00     0.145 A 
ATOM     29  H7  UNL     1     -11.561 -26.360 -19.711  1.00  0.00     0.166 HD
HETATM   30  C9  UNL     1     -12.166 -26.117 -22.788  1.00  0.00     0.160 A 
HETATM   31  N8  UNL     1     -12.573 -27.358 -22.508  1.00  0.00    -0.305 N 
BRANCH  30  32
HETATM   32  O1  UNL     1     -12.175 -25.410 -24.011  1.00  0.00    -0.345 OA
ATOM     33  H1  UNL     1     -11.617 -25.672 -24.734  1.00  0.00     0.219 HD
ENDBRANCH  30  32
BRANCH  31  34
HETATM   34  C10 UNL     1     -13.122 -28.306 -23.430  1.00  0.00     0.030 C 
HETATM   35  C11 UNL     1     -14.465 -28.846 -22.960  1.00  0.00     0.038 C 
HETATM   36  C12 UNL     1     -12.204 -29.503 -23.516  1.00  0.00     0.038 C 
HETATM   37  C13 UNL     1     -13.298 -27.812 -24.839  1.00  0.00     0.038 C 
ENDBRANCH  31  34
ENDBRANCH   1  26
TORSDOF 8
ENDMDL
