MODEL 1
REMARK VINA RESULT: -6.846881701      0.000      0.000
REMARK  10 active torsions:
REMARK  status: ('A' for Active; 'I' for Inactive)
REMARK    1  A    between atoms: C2_2  and  O1_4 
REMARK    2  A    between atoms: C2_2  and  C4_6 
REMARK    3  A    between atoms: C5_7  and  C6_8 
REMARK    4  A    between atoms: N1_10  and  C8_11 
REMARK    5  A    between atoms: C8_11  and  C9_12 
REMARK    6  A    between atoms: C9_12  and  O2_13 
REMARK    7  A    between atoms: C9_12  and  C10_15 
REMARK    8  A    between atoms: C10_15  and  N2_16 
REMARK    9  A    between atoms: C11_17  and  N3_18 
REMARK   10  A    between atoms: C13_24  and  N5_25 
ROOT
HETATM    1  N2  UNL     1      63.932  14.229  54.835  1.00  0.00    -0.164 N 
HETATM    2  C11 UNL     1      63.529  14.498  56.081  1.00  0.00     0.680 A 
HETATM    3  N4  UNL     1      64.573  15.069  56.710  1.00  0.00    -0.184 N 
ATOM      4  H4  UNL     1      64.568  15.386  57.679  1.00  0.00     0.184 HD
HETATM    5  C12 UNL     1      65.629  15.162  55.875  1.00  0.00     0.137 A 
HETATM    6  C13 UNL     1      66.919  15.638  55.956  1.00  0.00     0.131 A 
HETATM    7  N6  UNL     1      67.773  15.594  54.917  1.00  0.00    -0.337 N 
ATOM      8  H6  UNL     1      68.724  15.953  55.003  1.00  0.00     0.168 HD
HETATM    9  C14 UNL     1      67.339  15.064  53.765  1.00  0.00     0.183 A 
HETATM   10  N7  UNL     1      66.096  14.595  53.653  1.00  0.00    -0.336 N 
ATOM     11  H7  UNL     1      65.802  14.200  52.761  1.00  0.00     0.168 HD
HETATM   12  C15 UNL     1      65.209  14.621  54.673  1.00  0.00     0.155 A 
ENDROOT
BRANCH   1  13
HETATM   13  C10 UNL     1      63.122  13.608  53.806  1.00  0.00     0.182 C 
BRANCH  13  14
HETATM   14  C9  UNL     1      63.474  12.145  53.637  1.00  0.00     0.155 C 
BRANCH  14  15
HETATM   15  C8  UNL     1      62.633  11.255  54.499  1.00  0.00     0.162 C 
BRANCH  15  16
HETATM   16  N1  UNL     1      63.306  10.747  55.656  1.00  0.00    -0.348 N 
HETATM   17  C7  UNL     1      64.537  10.200  55.657  1.00  0.00     0.130 A 
HETATM   18  C6  UNL     1      64.881   9.816  56.938  1.00  0.00     0.103 A 
HETATM   19  N8  UNL     1      63.830  10.143  57.713  1.00  0.00    -0.344 N 
HETATM   20  C16 UNL     1      62.873  10.706  56.949  1.00  0.00     0.183 A 
ATOM     21  H8  UNL     1      63.769   9.990  58.719  1.00  0.00     0.167 HD
BRANCH  18  22
HETATM   22  C5  UNL     1      66.125   9.192  57.338  1.00  0.00    -0.044 C 
HETATM   23  C4  UNL     1      67.163   8.687  57.685  1.00  0.00    -0.062 C 
BRANCH  23  24
HETATM   24  C2  UNL     1      68.447   8.090  58.115  1.00  0.00     0.114 C 
HETATM   25  C1  UNL     1      68.179   6.952  59.103  1.00  0.00     0.060 C 
HETATM   26  C3  UNL     1      69.119   7.576  56.872  1.00  0.00     0.060 C 
BRANCH  24  27
HETATM   27  O1  UNL     1      69.199   9.040  58.789  1.00  0.00    -0.378 OA
ATOM     28  H1  UNL     1      69.868   9.341  58.186  1.00  0.00     0.211 HD
ENDBRANCH  24  27
ENDBRANCH  23  24
ENDBRANCH  18  22
ENDBRANCH  15  16
ENDBRANCH  14  15
BRANCH  14  29
HETATM   29  O2  UNL     1      63.296  11.756  52.311  1.00  0.00    -0.392 OA
ATOM     30  H2  UNL     1      62.872  12.470  51.849  1.00  0.00     0.210 HD
ENDBRANCH  14  29
ENDBRANCH  13  14
ENDBRANCH   1  13
BRANCH   2  31
HETATM   31  N3  UNL     1      62.381  14.284  56.649  1.00  0.00    -0.234 N 
ATOM     32  H32 UNL     1      62.246  13.625  57.416  1.00  0.00     0.174 HD
ATOM     33  H31 UNL     1      61.468  14.697  56.454  1.00  0.00     0.174 HD
ENDBRANCH   2  31
BRANCH   6  34
HETATM   34  N5  UNL     1      67.334  16.144  57.058  1.00  0.00    -0.383 N 
ATOM     35  H52 UNL     1      68.328  16.352  57.148  1.00  0.00     0.157 HD
ATOM     36  H51 UNL     1      66.666  16.323  57.809  1.00  0.00     0.157 HD
ENDBRANCH   6  34
TORSDOF 10
ENDMDL
MODEL 2
REMARK VINA RESULT: -6.819246992      4.962      8.410
REMARK  10 active torsions:
REMARK  status: ('A' for Active; 'I' for Inactive)
REMARK    1  A    between atoms: C2_2  and  O1_4 
REMARK    2  A    between atoms: C2_2  and  C4_6 
REMARK    3  A    between atoms: C5_7  and  C6_8 
REMARK    4  A    between atoms: N1_10  and  C8_11 
REMARK    5  A    between atoms: C8_11  and  C9_12 
REMARK    6  A    between atoms: C9_12  and  O2_13 
REMARK    7  A    between atoms: C9_12  and  C10_15 
REMARK    8  A    between atoms: C10_15  and  N2_16 
REMARK    9  A    between atoms: C11_17  and  N3_18 
REMARK   10  A    between atoms: C13_24  and  N5_25 
ROOT
HETATM    1  N2  UNL     1      60.398  10.826  50.013  1.00  0.00    -0.164 N 
HETATM    2  C11 UNL     1      61.545  10.483  50.609  1.00  0.00     0.680 A 
HETATM    3  N4  UNL     1      61.485   9.157  50.827  1.00  0.00    -0.184 N 
ATOM      4  H4  UNL     1      62.220   8.605  51.269  1.00  0.00     0.184 HD
HETATM    5  C12 UNL     1      60.314   8.660  50.376  1.00  0.00     0.137 A 
HETATM    6  C13 UNL     1      59.716   7.421  50.327  1.00  0.00     0.131 A 
HETATM    7  N6  UNL     1      58.494   7.228  49.796  1.00  0.00    -0.337 N 
ATOM      8  H6  UNL     1      58.072   6.300  49.773  1.00  0.00     0.168 HD
HETATM    9  C14 UNL     1      57.847   8.291  49.299  1.00  0.00     0.183 A 
HETATM   10  N7  UNL     1      58.399   9.504  49.330  1.00  0.00    -0.336 N 
ATOM     11  H7  UNL     1      57.876  10.288  48.942  1.00  0.00     0.168 HD
HETATM   12  C15 UNL     1      59.622   9.739  49.855  1.00  0.00     0.155 A 
ENDROOT
BRANCH   1  13
HETATM   13  C10 UNL     1      60.036  12.167  49.597  1.00  0.00     0.182 C 
BRANCH  13  14
HETATM   14  C9  UNL     1      59.095  12.815  50.591  1.00  0.00     0.155 C 
BRANCH  14  15
HETATM   15  C8  UNL     1      59.630  14.110  51.118  1.00  0.00     0.162 C 
BRANCH  15  16
HETATM   16  N1  UNL     1      60.592  13.968  52.169  1.00  0.00    -0.348 N 
HETATM   17  C7  UNL     1      61.880  14.356  52.097  1.00  0.00     0.130 A 
HETATM   18  C6  UNL     1      62.524  14.071  53.284  1.00  0.00     0.103 A 
HETATM   19  N8  UNL     1      61.598  13.503  54.078  1.00  0.00    -0.344 N 
HETATM   20  C16 UNL     1      60.427  13.436  53.414  1.00  0.00     0.183 A 
ATOM     21  H8  UNL     1      61.757  13.177  55.031  1.00  0.00     0.167 HD
BRANCH  18  22
HETATM   22  C5  UNL     1      63.915  14.341  53.586  1.00  0.00    -0.044 C 
HETATM   23  C4  UNL     1      65.075  14.545  53.841  1.00  0.00    -0.062 C 
BRANCH  23  24
HETATM   24  C2  UNL     1      66.500  14.776  54.169  1.00  0.00     0.114 C 
HETATM   25  C1  UNL     1      66.641  16.084  54.952  1.00  0.00     0.060 C 
HETATM   26  C3  UNL     1      66.944  13.603  54.998  1.00  0.00     0.060 C 
BRANCH  24  27
HETATM   27  O1  UNL     1      67.228  14.925  52.999  1.00  0.00    -0.378 OA
ATOM     28  H1  UNL     1      68.062  14.491  53.136  1.00  0.00     0.211 HD
ENDBRANCH  24  27
ENDBRANCH  23  24
ENDBRANCH  18  22
ENDBRANCH  15  16
ENDBRANCH  14  15
BRANCH  14  29
HETATM   29  O2  UNL     1      57.862  13.069  49.992  1.00  0.00    -0.392 OA
ATOM     30  H2  UNL     1      57.276  13.408  50.657  1.00  0.00     0.210 HD
ENDBRANCH  14  29
ENDBRANCH  13  14
ENDBRANCH   1  13
BRANCH   2  31
HETATM   31  N3  UNL     1      62.561  11.219  50.944  1.00  0.00    -0.234 N 
ATOM     32  H32 UNL     1      63.531  10.938  50.804  1.00  0.00     0.174 HD
ATOM     33  H31 UNL     1      62.584  12.143  51.378  1.00  0.00     0.174 HD
ENDBRANCH   2  31
BRANCH   6  34
HETATM   34  N5  UNL     1      60.334   6.405  50.803  1.00  0.00    -0.383 N 
ATOM     35  H52 UNL     1      61.166   6.075  50.314  1.00  0.00     0.157 HD
ATOM     36  H51 UNL     1      59.983   5.957  51.650  1.00  0.00     0.157 HD
ENDBRANCH   6  34
TORSDOF 10
ENDMDL
MODEL 3
REMARK VINA RESULT: -6.741671974      4.541      7.107
REMARK  10 active torsions:
REMARK  status: ('A' for Active; 'I' for Inactive)
REMARK    1  A    between atoms: C2_2  and  O1_4 
REMARK    2  A    between atoms: C2_2  and  C4_6 
REMARK    3  A    between atoms: C5_7  and  C6_8 
REMARK    4  A    between atoms: N1_10  and  C8_11 
REMARK    5  A    between atoms: C8_11  and  C9_12 
REMARK    6  A    between atoms: C9_12  and  O2_13 
REMARK    7  A    between atoms: C9_12  and  C10_15 
REMARK    8  A    between atoms: C10_15  and  N2_16 
REMARK    9  A    between atoms: C11_17  and  N3_18 
REMARK   10  A    between atoms: C13_24  and  N5_25 
ROOT
HETATM    1  N2  UNL     1      63.644  14.048  54.510  1.00  0.00    -0.164 N 
HETATM    2  C11 UNL     1      63.214  14.199  55.767  1.00  0.00     0.680 A 
HETATM    3  N4  UNL     1      64.229  14.750  56.459  1.00  0.00    -0.184 N 
ATOM      4  H4  UNL     1      64.198  14.985  57.451  1.00  0.00     0.184 HD
HETATM    5  C12 UNL     1      65.293  14.947  55.653  1.00  0.00     0.137 A 
HETATM    6  C13 UNL     1      66.564  15.457  55.796  1.00  0.00     0.131 A 
HETATM    7  N6  UNL     1      67.435  15.527  54.772  1.00  0.00    -0.337 N 
ATOM      8  H6  UNL     1      68.371  15.909  54.904  1.00  0.00     0.168 HD
HETATM    9  C14 UNL     1      67.036  15.081  53.573  1.00  0.00     0.183 A 
HETATM   10  N7  UNL     1      65.812  14.582  53.401  1.00  0.00    -0.336 N 
ATOM     11  H7  UNL     1      65.545  14.253  52.474  1.00  0.00     0.168 HD
HETATM   12  C15 UNL     1      64.910  14.494  54.404  1.00  0.00     0.155 A 
ENDROOT
BRANCH   1  13
HETATM   13  C10 UNL     1      62.872  13.489  53.419  1.00  0.00     0.182 C 
BRANCH  13  14
HETATM   14  C9  UNL     1      62.382  14.572  52.480  1.00  0.00     0.155 C 
BRANCH  14  15
HETATM   15  C8  UNL     1      60.897  14.532  52.293  1.00  0.00     0.162 C 
BRANCH  15  16
HETATM   16  N1  UNL     1      60.455  13.644  51.261  1.00  0.00    -0.348 N 
HETATM   17  C7  UNL     1      60.140  12.346  51.440  1.00  0.00     0.130 A 
HETATM   18  C6  UNL     1      59.753  11.786  50.239  1.00  0.00     0.103 A 
HETATM   19  N8  UNL     1      59.840  12.774  49.328  1.00  0.00    -0.344 N 
HETATM   20  C16 UNL     1      60.263  13.900  49.935  1.00  0.00     0.183 A 
ATOM     21  H8  UNL     1      59.620  12.684  48.337  1.00  0.00     0.167 HD
BRANCH  18  22
HETATM   22  C5  UNL     1      59.342  10.413  50.030  1.00  0.00    -0.044 C 
HETATM   23  C4  UNL     1      59.006   9.266  49.875  1.00  0.00    -0.062 C 
BRANCH  23  24
HETATM   24  C2  UNL     1      58.613   7.850  49.700  1.00  0.00     0.114 C 
HETATM   25  C1  UNL     1      59.864   6.990  49.508  1.00  0.00     0.060 C 
HETATM   26  C3  UNL     1      57.874   7.453  50.948  1.00  0.00     0.060 C 
BRANCH  24  27
HETATM   27  O1  UNL     1      57.851   7.717  48.550  1.00  0.00    -0.378 OA
ATOM     28  H1  UNL     1      56.944   7.650  48.825  1.00  0.00     0.211 HD
ENDBRANCH  24  27
ENDBRANCH  23  24
ENDBRANCH  18  22
ENDBRANCH  15  16
ENDBRANCH  14  15
BRANCH  14  29
HETATM   29  O2  UNL     1      62.721  15.829  52.976  1.00  0.00    -0.392 OA
ATOM     30  H2  UNL     1      62.353  16.484  52.396  1.00  0.00     0.210 HD
ENDBRANCH  14  29
ENDBRANCH  13  14
ENDBRANCH   1  13
BRANCH   2  31
HETATM   31  N3  UNL     1      62.066  13.901  56.294  1.00  0.00    -0.234 N 
ATOM     32  H32 UNL     1      61.339  13.379  55.804  1.00  0.00     0.174 HD
ATOM     33  H31 UNL     1      61.697  14.113  57.222  1.00  0.00     0.174 HD
ENDBRANCH   2  31
BRANCH   6  34
HETATM   34  N5  UNL     1      66.945  15.883  56.943  1.00  0.00    -0.383 N 
ATOM     35  H52 UNL     1      66.581  15.417  57.774  1.00  0.00     0.157 HD
ATOM     36  H51 UNL     1      67.594  16.668  56.995  1.00  0.00     0.157 HD
ENDBRANCH   6  34
TORSDOF 10
ENDMDL
MODEL 4
REMARK VINA RESULT: -6.610635451      4.742      7.533
REMARK  10 active torsions:
REMARK  status: ('A' for Active; 'I' for Inactive)
REMARK    1  A    between atoms: C2_2  and  O1_4 
REMARK    2  A    between atoms: C2_2  and  C4_6 
REMARK    3  A    between atoms: C5_7  and  C6_8 
REMARK    4  A    between atoms: N1_10  and  C8_11 
REMARK    5  A    between atoms: C8_11  and  C9_12 
REMARK    6  A    between atoms: C9_12  and  O2_13 
REMARK    7  A    between atoms: C9_12  and  C10_15 
REMARK    8  A    between atoms: C10_15  and  N2_16 
REMARK    9  A    between atoms: C11_17  and  N3_18 
REMARK   10  A    between atoms: C13_24  and  N5_25 
ROOT
HETATM    1  N2  UNL     1      62.673  13.258  53.696  1.00  0.00    -0.164 N 
HETATM    2  C11 UNL     1      63.384  12.332  53.043  1.00  0.00     0.680 A 
HETATM    3  N4  UNL     1      64.635  12.390  53.534  1.00  0.00    -0.184 N 
ATOM      4  H4  UNL     1      65.409  11.799  53.228  1.00  0.00     0.184 HD
HETATM    5  C12 UNL     1      64.721  13.340  54.488  1.00  0.00     0.137 A 
HETATM    6  C13 UNL     1      65.710  13.833  55.311  1.00  0.00     0.131 A 
HETATM    7  N6  UNL     1      65.488  14.822  56.196  1.00  0.00    -0.337 N 
ATOM      8  H6  UNL     1      66.238  15.170  56.793  1.00  0.00     0.168 HD
HETATM    9  C14 UNL     1      64.254  15.339  56.269  1.00  0.00     0.183 A 
HETATM   10  N7  UNL     1      63.275  14.884  55.487  1.00  0.00    -0.336 N 
ATOM     11  H7  UNL     1      62.349  15.301  55.572  1.00  0.00     0.168 HD
HETATM   12  C15 UNL     1      63.457  13.893  54.586  1.00  0.00     0.155 A 
ENDROOT
BRANCH   1  13
HETATM   13  C10 UNL     1      61.267  13.542  53.484  1.00  0.00     0.182 C 
BRANCH  13  14
HETATM   14  C9  UNL     1      61.051  14.314  52.199  1.00  0.00     0.155 C 
BRANCH  14  15
HETATM   15  C8  UNL     1      59.650  14.181  51.686  1.00  0.00     0.162 C 
BRANCH  15  16
HETATM   16  N1  UNL     1      59.474  13.150  50.709  1.00  0.00    -0.348 N 
HETATM   17  C7  UNL     1      59.466  11.829  50.972  1.00  0.00     0.130 A 
HETATM   18  C6  UNL     1      59.273  11.118  49.805  1.00  0.00     0.103 A 
HETATM   19  N8  UNL     1      59.164  12.038  48.828  1.00  0.00    -0.344 N 
HETATM   20  C16 UNL     1      59.284  13.269  49.364  1.00  0.00     0.183 A 
ATOM     21  H8  UNL     1      59.013  11.835  47.840  1.00  0.00     0.167 HD
BRANCH  18  22
HETATM   22  C5  UNL     1      59.206   9.676  49.684  1.00  0.00    -0.044 C 
HETATM   23  C4  UNL     1      59.143   8.475  49.603  1.00  0.00    -0.062 C 
BRANCH  23  24
HETATM   24  C2  UNL     1      59.073   6.998  49.528  1.00  0.00     0.114 C 
HETATM   25  C1  UNL     1      59.462   6.396  50.880  1.00  0.00     0.060 C 
HETATM   26  C3  UNL     1      57.652   6.655  49.176  1.00  0.00     0.060 C 
BRANCH  24  27
HETATM   27  O1  UNL     1      59.992   6.535  48.600  1.00  0.00    -0.378 OA
ATOM     28  H1  UNL     1      59.521   5.963  48.006  1.00  0.00     0.211 HD
ENDBRANCH  24  27
ENDBRANCH  23  24
ENDBRANCH  18  22
ENDBRANCH  15  16
ENDBRANCH  14  15
BRANCH  14  29
HETATM   29  O2  UNL     1      61.310  15.668  52.401  1.00  0.00    -0.392 OA
ATOM     30  H2  UNL     1      61.369  16.086  51.551  1.00  0.00     0.210 HD
ENDBRANCH  14  29
ENDBRANCH  13  14
ENDBRANCH   1  13
BRANCH   2  31
HETATM   31  N3  UNL     1      63.016  11.506  52.111  1.00  0.00    -0.234 N 
ATOM     32  H32 UNL     1      62.734  11.801  51.176  1.00  0.00     0.174 HD
ATOM     33  H31 UNL     1      62.944  10.489  52.130  1.00  0.00     0.174 HD
ENDBRANCH   2  31
BRANCH   6  34
HETATM   34  N5  UNL     1      66.890  13.339  55.239  1.00  0.00    -0.383 N 
ATOM     35  H52 UNL     1      67.144  12.601  55.896  1.00  0.00     0.157 HD
ATOM     36  H51 UNL     1      67.539  13.694  54.536  1.00  0.00     0.157 HD
ENDBRANCH   6  34
TORSDOF 10
ENDMDL
MODEL 5
REMARK VINA RESULT: -6.529359646      5.008      7.928
REMARK  10 active torsions:
REMARK  status: ('A' for Active; 'I' for Inactive)
REMARK    1  A    between atoms: C2_2  and  O1_4 
REMARK    2  A    between atoms: C2_2  and  C4_6 
REMARK    3  A    between atoms: C5_7  and  C6_8 
REMARK    4  A    between atoms: N1_10  and  C8_11 
REMARK    5  A    between atoms: C8_11  and  C9_12 
REMARK    6  A    between atoms: C9_12  and  O2_13 
REMARK    7  A    between atoms: C9_12  and  C10_15 
REMARK    8  A    between atoms: C10_15  and  N2_16 
REMARK    9  A    between atoms: C11_17  and  N3_18 
REMARK   10  A    between atoms: C13_24  and  N5_25 
ROOT
HETATM    1  N2  UNL     1      59.181  11.914  50.422  1.00  0.00    -0.164 N 
HETATM    2  C11 UNL     1      58.813  12.609  49.340  1.00  0.00     0.680 A 
HETATM    3  N4  UNL     1      57.695  13.280  49.675  1.00  0.00    -0.184 N 
ATOM      4  H4  UNL     1      57.179  13.901  49.052  1.00  0.00     0.184 HD
HETATM    5  C12 UNL     1      57.355  13.016  50.954  1.00  0.00     0.137 A 
HETATM    6  C13 UNL     1      56.348  13.399  51.812  1.00  0.00     0.131 A 
HETATM    7  N6  UNL     1      56.268  12.952  53.079  1.00  0.00    -0.337 N 
ATOM      8  H6  UNL     1      55.511  13.250  53.694  1.00  0.00     0.168 HD
HETATM    9  C14 UNL     1      57.210  12.102  53.509  1.00  0.00     0.183 A 
HETATM   10  N7  UNL     1      58.198  11.712  52.704  1.00  0.00    -0.336 N 
ATOM     11  H7  UNL     1      58.897  11.064  53.067  1.00  0.00     0.168 HD
HETATM   12  C15 UNL     1      58.313  12.138  51.426  1.00  0.00     0.155 A 
ENDROOT
BRANCH   1  13
HETATM   13  C10 UNL     1      60.338  11.045  50.509  1.00  0.00     0.182 C 
BRANCH  13  14
HETATM   14  C9  UNL     1      61.550  11.795  51.020  1.00  0.00     0.155 C 
BRANCH  14  15
HETATM   15  C8  UNL     1      62.036  11.262  52.332  1.00  0.00     0.162 C 
BRANCH  15  16
HETATM   16  N1  UNL     1      62.246  12.262  53.335  1.00  0.00    -0.348 N 
HETATM   17  C7  UNL     1      63.427  12.852  53.603  1.00  0.00     0.130 A 
HETATM   18  C6  UNL     1      63.273  13.767  54.625  1.00  0.00     0.103 A 
HETATM   19  N8  UNL     1      61.973  13.720  54.969  1.00  0.00    -0.344 N 
HETATM   20  C16 UNL     1      61.343  12.813  54.195  1.00  0.00     0.183 A 
ATOM     21  H8  UNL     1      61.534  14.281  55.698  1.00  0.00     0.167 HD
BRANCH  18  22
HETATM   22  C5  UNL     1      64.316  14.598  55.192  1.00  0.00    -0.044 C 
HETATM   23  C4  UNL     1      65.198  15.281  55.649  1.00  0.00    -0.062 C 
BRANCH  23  24
HETATM   24  C2  UNL     1      66.297  16.102  56.206  1.00  0.00     0.114 C 
HETATM   25  C1  UNL     1      66.306  15.981  57.732  1.00  0.00     0.060 C 
HETATM   26  C3  UNL     1      67.572  15.566  55.616  1.00  0.00     0.060 C 
BRANCH  24  27
HETATM   27  O1  UNL     1      66.076  17.437  55.908  1.00  0.00    -0.378 OA
ATOM     28  H1  UNL     1      66.490  17.605  55.069  1.00  0.00     0.211 HD
ENDBRANCH  24  27
ENDBRANCH  23  24
ENDBRANCH  18  22
ENDBRANCH  15  16
ENDBRANCH  14  15
BRANCH  14  29
HETATM   29  O2  UNL     1      62.595  11.704  50.102  1.00  0.00    -0.392 OA
ATOM     30  H2  UNL     1      63.394  11.973  50.539  1.00  0.00     0.210 HD
ENDBRANCH  14  29
ENDBRANCH  13  14
ENDBRANCH   1  13
BRANCH   2  31
HETATM   31  N3  UNL     1      59.366  12.678  48.168  1.00  0.00    -0.234 N 
ATOM     32  H32 UNL     1      59.518  11.867  47.568  1.00  0.00     0.174 HD
ATOM     33  H31 UNL     1      59.726  13.487  47.661  1.00  0.00     0.174 HD
ENDBRANCH   2  31
BRANCH   6  34
HETATM   34  N5  UNL     1      55.447  14.211  51.400  1.00  0.00    -0.383 N 
ATOM     35  H52 UNL     1      55.230  14.225  50.403  1.00  0.00     0.157 HD
ATOM     36  H51 UNL     1      54.974  14.817  52.071  1.00  0.00     0.157 HD
ENDBRANCH   6  34
TORSDOF 10
ENDMDL
