MODEL 1
REMARK VINA RESULT: -7.709161632      0.000      0.000
REMARK  4 active torsions:
REMARK  status: ('A' for Active; 'I' for Inactive)
REMARK    1  A    between atoms: C4_9  and  S1_10 
REMARK    2  A    between atoms: S1_10  and  C5_11 
REMARK    3  A    between atoms: C5_11  and  C6_12 
REMARK    4  A    between atoms: C6_12  and  N3_13 
ROOT
HETATM    1  N3  UNL     1      62.473  13.074  53.003  1.00  0.00    -0.325 N 
HETATM    2  C7  UNL     1      62.166  11.804  52.393  1.00  0.00     0.147 C 
HETATM    3  C8  UNL     1      61.352  11.869  51.155  1.00  0.00     0.138 C 
HETATM    4  N4  UNL     1      61.686  12.940  50.297  1.00  0.00    -0.399 N 
ATOM      5  H4  UNL     1      62.380  13.638  50.566  1.00  0.00     0.158 HD
HETATM    6  C9  UNL     1      61.027  13.008  49.061  1.00  0.00     0.082 C 
HETATM    7  C10 UNL     1      59.526  12.906  49.125  1.00  0.00     0.276 C 
HETATM    8  N5  UNL     1      58.908  14.069  49.697  1.00  0.00    -0.071 N 
ATOM      9  H51 UNL     1      58.519  14.665  48.967  1.00  0.00     0.277 HD
ATOM     10  H52 UNL     1      59.612  14.701  50.076  1.00  0.00     0.277 HD
HETATM   11  C11 UNL     1      57.909  13.766  50.692  1.00  0.00     0.234 C 
HETATM   12  C12 UNL     1      58.134  14.570  51.971  1.00  0.00     0.046 C 
HETATM   13  C13 UNL     1      58.179  13.704  53.189  1.00  0.00     0.145 C 
HETATM   14  N6  UNL     1      59.504  13.584  53.767  1.00  0.00    -0.090 NA
HETATM   15  O1  UNL     1      60.362  14.352  53.072  1.00  0.00    -0.189 OA
HETATM   16  C14 UNL     1      61.706  14.253  52.877  1.00  0.00     0.381 C 
HETATM   17  O2  UNL     1      62.380  15.306  52.545  1.00  0.00    -0.237 OA
ENDROOT
BRANCH   1  18
HETATM   18  C6  UNL     1      63.677  13.109  53.811  1.00  0.00     0.138 C 
BRANCH  18  19
HETATM   19  C5  UNL     1      63.469  13.145  55.276  1.00  0.00     0.102 C 
BRANCH  19  20
HETATM   20  S1  UNL     1      63.669  14.719  56.067  1.00  0.00    -0.092 SA
BRANCH  20  21
HETATM   21  C4  UNL     1      65.349  15.241  56.284  1.00  0.00     0.145 A 
HETATM   22  N2  UNL     1      66.415  14.610  55.790  1.00  0.00    -0.347 N 
HETATM   23  C3  UNL     1      67.673  15.045  55.970  1.00  0.00     0.094 A 
ATOM     24  H2  UNL     1      66.268  13.756  55.252  1.00  0.00     0.167 HD
HETATM   25  C2  UNL     1      67.884  16.199  56.695  1.00  0.00     0.065 A 
HETATM   26  C1  UNL     1      66.786  16.855  57.206  1.00  0.00     0.101 A 
HETATM   27  N1  UNL     1      67.003  17.946  57.891  1.00  0.00    -0.385 N 
HETATM   28  N7  UNL     1      65.545  16.386  57.005  1.00  0.00    -0.323 N 
ATOM     29  H12 UNL     1      67.946  18.303  58.045  1.00  0.00     0.157 HD
ATOM     30  H11 UNL     1      66.189  18.432  58.269  1.00  0.00     0.157 HD
ATOM     31  H7  UNL     1      64.744  16.885  57.391  1.00  0.00     0.169 HD
ENDBRANCH  20  21
ENDBRANCH  19  20
ENDBRANCH  18  19
ENDBRANCH   1  18
TORSDOF 4
ENDMDL
MODEL 2
REMARK VINA RESULT: -7.658309778      1.893      2.202
REMARK  4 active torsions:
REMARK  status: ('A' for Active; 'I' for Inactive)
REMARK    1  A    between atoms: C4_9  and  S1_10 
REMARK    2  A    between atoms: S1_10  and  C5_11 
REMARK    3  A    between atoms: C5_11  and  C6_12 
REMARK    4  A    between atoms: C6_12  and  N3_13 
ROOT
HETATM    1  N3  UNL     1      61.752  12.525  54.322  1.00  0.00    -0.325 N 
HETATM    2  C7  UNL     1      61.186  11.223  54.071  1.00  0.00     0.147 C 
HETATM    3  C8  UNL     1      60.899  10.912  52.650  1.00  0.00     0.138 C 
HETATM    4  N4  UNL     1      61.875  11.384  51.745  1.00  0.00    -0.399 N 
ATOM      5  H4  UNL     1      62.661  11.952  52.062  1.00  0.00     0.158 HD
HETATM    6  C9  UNL     1      61.722  11.042  50.393  1.00  0.00     0.082 C 
HETATM    7  C10 UNL     1      60.362  11.321  49.809  1.00  0.00     0.276 C 
HETATM    8  N5  UNL     1      60.097  12.723  49.647  1.00  0.00    -0.071 N 
ATOM      9  H51 UNL     1      60.224  13.002  48.674  1.00  0.00     0.277 HD
ATOM     10  H52 UNL     1      60.833  13.280  50.081  1.00  0.00     0.277 HD
HETATM   11  C11 UNL     1      58.800  13.128  50.129  1.00  0.00     0.234 C 
HETATM   12  C12 UNL     1      58.903  14.342  51.049  1.00  0.00     0.046 C 
HETATM   13  C13 UNL     1      58.220  14.123  52.362  1.00  0.00     0.145 C 
HETATM   14  N6  UNL     1      59.138  13.978  53.475  1.00  0.00    -0.090 NA
HETATM   15  O1  UNL     1      60.398  14.141  53.035  1.00  0.00    -0.189 OA
HETATM   16  C14 UNL     1      61.585  13.665  53.504  1.00  0.00     0.381 C 
HETATM   17  O2  UNL     1      62.681  14.277  53.197  1.00  0.00    -0.237 OA
ENDROOT
BRANCH   1  18
HETATM   18  C6  UNL     1      62.551  12.643  55.525  1.00  0.00     0.138 C 
BRANCH  18  19
HETATM   19  C5  UNL     1      63.643  11.654  55.674  1.00  0.00     0.102 C 
BRANCH  19  20
HETATM   20  S1  UNL     1      64.934  11.710  54.459  1.00  0.00    -0.092 SA
BRANCH  20  21
HETATM   21  C4  UNL     1      65.841  13.231  54.397  1.00  0.00     0.145 A 
HETATM   22  N2  UNL     1      65.726  14.150  53.436  1.00  0.00    -0.347 N 
HETATM   23  C3  UNL     1      66.426  15.297  53.431  1.00  0.00     0.094 A 
ATOM     24  H2  UNL     1      65.077  13.973  52.670  1.00  0.00     0.167 HD
HETATM   25  C2  UNL     1      67.306  15.546  54.463  1.00  0.00     0.065 A 
HETATM   26  C1  UNL     1      67.427  14.601  55.458  1.00  0.00     0.101 A 
HETATM   27  N1  UNL     1      68.265  14.853  56.428  1.00  0.00    -0.385 N 
HETATM   28  N7  UNL     1      66.709  13.467  55.425  1.00  0.00    -0.323 N 
ATOM     29  H12 UNL     1      68.811  15.714  56.453  1.00  0.00     0.157 HD
ATOM     30  H11 UNL     1      68.354  14.153  57.164  1.00  0.00     0.157 HD
ATOM     31  H7  UNL     1      66.812  12.779  56.170  1.00  0.00     0.169 HD
ENDBRANCH  20  21
ENDBRANCH  19  20
ENDBRANCH  18  19
ENDBRANCH   1  18
TORSDOF 4
ENDMDL
MODEL 3
REMARK VINA RESULT: -7.653519472      1.817      2.259
REMARK  4 active torsions:
REMARK  status: ('A' for Active; 'I' for Inactive)
REMARK    1  A    between atoms: C4_9  and  S1_10 
REMARK    2  A    between atoms: S1_10  and  C5_11 
REMARK    3  A    between atoms: C5_11  and  C6_12 
REMARK    4  A    between atoms: C6_12  and  N3_13 
ROOT
HETATM    1  N3  UNL     1      61.871  12.229  53.643  1.00  0.00    -0.325 N 
HETATM    2  C7  UNL     1      61.510  11.117  52.800  1.00  0.00     0.147 C 
HETATM    3  C8  UNL     1      61.059  11.469  51.432  1.00  0.00     0.138 C 
HETATM    4  N4  UNL     1      61.781  12.527  50.839  1.00  0.00    -0.399 N 
ATOM      5  H4  UNL     1      62.497  13.037  51.358  1.00  0.00     0.158 HD
HETATM    6  C9  UNL     1      61.478  12.851  49.508  1.00  0.00     0.082 C 
HETATM    7  C10 UNL     1      60.016  13.053  49.212  1.00  0.00     0.276 C 
HETATM    8  N5  UNL     1      59.487  14.257  49.791  1.00  0.00    -0.071 N 
ATOM      9  H51 UNL     1      59.407  14.989  49.085  1.00  0.00     0.277 HD
ATOM     10  H52 UNL     1      60.173  14.690  50.408  1.00  0.00     0.277 HD
HETATM   11  C11 UNL     1      58.232  14.070  50.476  1.00  0.00     0.234 C 
HETATM   12  C12 UNL     1      58.266  14.680  51.875  1.00  0.00     0.046 C 
HETATM   13  C13 UNL     1      57.849  13.708  52.932  1.00  0.00     0.145 C 
HETATM   14  N6  UNL     1      58.943  13.262  53.773  1.00  0.00    -0.090 NA
HETATM   15  O1  UNL     1      60.069  13.902  53.413  1.00  0.00    -0.189 OA
HETATM   16  C14 UNL     1      61.380  13.548  53.518  1.00  0.00     0.381 C 
HETATM   17  O2  UNL     1      62.289  14.467  53.505  1.00  0.00    -0.237 OA
ENDROOT
BRANCH   1  18
HETATM   18  C6  UNL     1      62.818  11.937  54.700  1.00  0.00     0.138 C 
BRANCH  18  19
HETATM   19  C5  UNL     1      63.957  11.068  54.324  1.00  0.00     0.102 C 
BRANCH  19  20
HETATM   20  S1  UNL     1      65.549  11.534  54.950  1.00  0.00    -0.092 SA
BRANCH  20  21
HETATM   21  C4  UNL     1      65.990  13.232  54.692  1.00  0.00     0.145 A 
HETATM   22  N2  UNL     1      66.908  13.897  55.395  1.00  0.00    -0.347 N 
HETATM   23  C3  UNL     1      67.220  15.183  55.161  1.00  0.00     0.094 A 
ATOM     24  H2  UNL     1      67.395  13.407  56.145  1.00  0.00     0.167 HD
HETATM   25  C2  UNL     1      66.569  15.855  54.149  1.00  0.00     0.065 A 
HETATM   26  C1  UNL     1      65.621  15.171  53.420  1.00  0.00     0.101 A 
HETATM   27  N1  UNL     1      65.013  15.823  52.464  1.00  0.00    -0.385 N 
HETATM   28  N7  UNL     1      65.338  13.887  53.686  1.00  0.00    -0.323 N 
ATOM     29  H12 UNL     1      65.227  16.799  52.262  1.00  0.00     0.157 HD
ATOM     30  H11 UNL     1      64.311  15.316  51.924  1.00  0.00     0.157 HD
ATOM     31  H7  UNL     1      64.633  13.397  53.136  1.00  0.00     0.169 HD
ENDBRANCH  20  21
ENDBRANCH  19  20
ENDBRANCH  18  19
ENDBRANCH   1  18
TORSDOF 4
ENDMDL
MODEL 4
REMARK VINA RESULT: -7.505447458      1.155      1.393
REMARK  4 active torsions:
REMARK  status: ('A' for Active; 'I' for Inactive)
REMARK    1  A    between atoms: C4_9  and  S1_10 
REMARK    2  A    between atoms: S1_10  and  C5_11 
REMARK    3  A    between atoms: C5_11  and  C6_12 
REMARK    4  A    between atoms: C6_12  and  N3_13 
ROOT
HETATM    1  N3  UNL     1      61.897  12.588  53.397  1.00  0.00    -0.325 N 
HETATM    2  C7  UNL     1      61.579  11.392  52.658  1.00  0.00     0.147 C 
HETATM    3  C8  UNL     1      61.029  11.606  51.297  1.00  0.00     0.138 C 
HETATM    4  N4  UNL     1      61.634  12.668  50.589  1.00  0.00    -0.399 N 
ATOM      5  H4  UNL     1      62.334  13.267  51.028  1.00  0.00     0.158 HD
HETATM    6  C9  UNL     1      61.235  12.868  49.259  1.00  0.00     0.082 C 
HETATM    7  C10 UNL     1      59.747  12.939  49.037  1.00  0.00     0.276 C 
HETATM    8  N5  UNL     1      59.158  14.140  49.559  1.00  0.00    -0.071 N 
ATOM      9  H51 UNL     1      58.983  14.809  48.810  1.00  0.00     0.277 HD
ATOM     10  H52 UNL     1      59.840  14.667  50.104  1.00  0.00     0.277 HD
HETATM   11  C11 UNL     1      57.960  13.912  50.329  1.00  0.00     0.234 C 
HETATM   12  C12 UNL     1      58.021  14.626  51.677  1.00  0.00     0.046 C 
HETATM   13  C13 UNL     1      57.739  13.707  52.824  1.00  0.00     0.145 C 
HETATM   14  N6  UNL     1      58.908  13.408  53.628  1.00  0.00    -0.090 NA
HETATM   15  O1  UNL     1      59.959  14.101  53.157  1.00  0.00    -0.189 OA
HETATM   16  C14 UNL     1      61.298  13.853  53.209  1.00  0.00     0.381 C 
HETATM   17  O2  UNL     1      62.131  14.834  53.077  1.00  0.00    -0.237 OA
ENDROOT
BRANCH   1  18
HETATM   18  C6  UNL     1      62.919  12.447  54.414  1.00  0.00     0.138 C 
BRANCH  18  19
HETATM   19  C5  UNL     1      62.485  12.708  55.806  1.00  0.00     0.102 C 
BRANCH  19  20
HETATM   20  S1  UNL     1      62.979  14.257  56.513  1.00  0.00    -0.092 SA
BRANCH  20  21
HETATM   21  C4  UNL     1      64.451  14.963  55.821  1.00  0.00     0.145 A 
HETATM   22  N2  UNL     1      64.490  15.728  54.729  1.00  0.00    -0.347 N 
HETATM   23  C3  UNL     1      65.628  16.253  54.243  1.00  0.00     0.094 A 
ATOM     24  H2  UNL     1      63.617  15.924  54.241  1.00  0.00     0.167 HD
HETATM   25  C2  UNL     1      66.815  15.996  54.896  1.00  0.00     0.065 A 
HETATM   26  C1  UNL     1      66.778  15.207  56.025  1.00  0.00     0.101 A 
HETATM   27  N1  UNL     1      67.911  14.973  56.631  1.00  0.00    -0.385 N 
HETATM   28  N7  UNL     1      65.620  14.701  56.477  1.00  0.00    -0.323 N 
ATOM     29  H12 UNL     1      68.791  15.356  56.287  1.00  0.00     0.157 HD
ATOM     30  H11 UNL     1      67.884  14.389  57.467  1.00  0.00     0.157 HD
ATOM     31  H7  UNL     1      65.613  14.119  57.314  1.00  0.00     0.169 HD
ENDBRANCH  20  21
ENDBRANCH  19  20
ENDBRANCH  18  19
ENDBRANCH   1  18
TORSDOF 4
ENDMDL
MODEL 5
REMARK VINA RESULT: -7.481741707      2.471      3.139
REMARK  4 active torsions:
REMARK  status: ('A' for Active; 'I' for Inactive)
REMARK    1  A    between atoms: C4_9  and  S1_10 
REMARK    2  A    between atoms: S1_10  and  C5_11 
REMARK    3  A    between atoms: C5_11  and  C6_12 
REMARK    4  A    between atoms: C6_12  and  N3_13 
ROOT
HETATM    1  N3  UNL     1      61.782  13.079  51.996  1.00  0.00    -0.325 N 
HETATM    2  C7  UNL     1      62.535  12.110  52.753  1.00  0.00     0.147 C 
HETATM    3  C8  UNL     1      62.689  10.779  52.117  1.00  0.00     0.138 C 
HETATM    4  N4  UNL     1      62.903  10.825  50.722  1.00  0.00    -0.399 N 
ATOM      5  H4  UNL     1      62.874  11.707  50.210  1.00  0.00     0.158 HD
HETATM    6  C9  UNL     1      63.156   9.611  50.067  1.00  0.00     0.082 C 
HETATM    7  C10 UNL     1      62.175   8.505  50.358  1.00  0.00     0.276 C 
HETATM    8  N5  UNL     1      60.884   8.733  49.774  1.00  0.00    -0.071 N 
ATOM      9  H51 UNL     1      60.771   8.179  48.924  1.00  0.00     0.277 HD
ATOM     10  H52 UNL     1      60.829   9.670  49.375  1.00  0.00     0.277 HD
HETATM   11  C11 UNL     1      59.787   8.502  50.681  1.00  0.00     0.234 C 
HETATM   12  C12 UNL     1      58.810   9.676  50.684  1.00  0.00     0.046 C 
HETATM   13  C13 UNL     1      58.539  10.189  52.062  1.00  0.00     0.145 C 
HETATM   14  N6  UNL     1      59.134  11.485  52.325  1.00  0.00    -0.090 NA
HETATM   15  O1  UNL     1      59.742  11.929  51.211  1.00  0.00    -0.189 OA
HETATM   16  C14 UNL     1      60.791  12.780  51.034  1.00  0.00     0.381 C 
HETATM   17  O2  UNL     1      60.932  13.388  49.902  1.00  0.00    -0.237 OA
ENDROOT
BRANCH   1  18
HETATM   18  C6  UNL     1      62.089  14.469  52.269  1.00  0.00     0.138 C 
BRANCH  18  19
HETATM   19  C5  UNL     1      63.079  14.711  53.343  1.00  0.00     0.102 C 
BRANCH  19  20
HETATM   20  S1  UNL     1      64.386  15.852  52.973  1.00  0.00    -0.092 SA
BRANCH  20  21
HETATM   21  C4  UNL     1      65.725  15.861  54.134  1.00  0.00     0.145 A 
HETATM   22  N2  UNL     1      66.893  15.240  53.958  1.00  0.00    -0.347 N 
HETATM   23  C3  UNL     1      67.888  15.281  54.860  1.00  0.00     0.094 A 
ATOM     24  H2  UNL     1      67.037  14.711  53.098  1.00  0.00     0.167 HD
HETATM   25  C2  UNL     1      67.705  15.995  56.025  1.00  0.00     0.065 A 
HETATM   26  C1  UNL     1      66.501  16.638  56.211  1.00  0.00     0.101 A 
HETATM   27  N1  UNL     1      66.343  17.310  57.320  1.00  0.00    -0.385 N 
HETATM   28  N7  UNL     1      65.532  16.572  55.285  1.00  0.00    -0.323 N 
ATOM     29  H12 UNL     1      67.080  17.360  58.024  1.00  0.00     0.157 HD
ATOM     30  H11 UNL     1      65.452  17.787  57.457  1.00  0.00     0.157 HD
ATOM     31  H7  UNL     1      64.647  17.055  55.440  1.00  0.00     0.169 HD
ENDBRANCH  20  21
ENDBRANCH  19  20
ENDBRANCH  18  19
ENDBRANCH   1  18
TORSDOF 4
ENDMDL
