MODEL 1
REMARK VINA RESULT: -6.325710325      0.000      0.000
REMARK  3 active torsions:
REMARK  status: ('A' for Active; 'I' for Inactive)
REMARK    1  A    between atoms: N1_1  and  N2_4 
REMARK       I    between atoms: N2_4  and  C1_6 
REMARK       I    between atoms: C1_6  and  N3_8 
REMARK    2  A    between atoms: C3_10  and  C4_11 
REMARK    3  A    between atoms: C6_15  and  O3_16 
ROOT
HETATM    1  N2  UNL     1      -2.479  10.415   7.444  1.00  0.00    -0.258 N 
ATOM      2  H2  UNL     1      -2.203   9.748   6.724  1.00  0.00     0.191 HD
HETATM    3  C1  UNL     1      -3.411  10.010   8.410  1.00  0.00     0.346 C 
HETATM    4  O1  UNL     1      -3.722  10.883   9.287  1.00  0.00    -0.245 OA
HETATM    5  N3  UNL     1      -4.038   8.746   8.514  1.00  0.00    -0.253 N 
HETATM    6  C2  UNL     1      -4.947   8.386   9.475  1.00  0.00     0.120 A 
HETATM    7  C3  UNL     1      -5.348   7.089   9.274  1.00  0.00     0.049 A 
HETATM    8  C5  UNL     1      -4.660   6.672   8.167  1.00  0.00     0.074 A 
HETATM    9  C6  UNL     1      -3.844   7.709   7.696  1.00  0.00     0.151 A 
ENDROOT
BRANCH   9  10
HETATM   10  O3  UNL     1      -3.025   7.566   6.573  1.00  0.00    -0.346 OA
ATOM     11  H3  UNL     1      -2.147   7.882   6.396  1.00  0.00     0.219 HD
ENDBRANCH   9  10
BRANCH   1  12
HETATM   12  N1  UNL     1      -1.910  11.694   7.423  1.00  0.00    -0.341 N 
ATOM     13  H12 UNL     1      -2.449  12.455   7.835  1.00  0.00     0.177 HD
ATOM     14  H11 UNL     1      -0.995  11.888   7.017  1.00  0.00     0.177 HD
ENDBRANCH   1  12
BRANCH   7  15
HETATM   15  C4  UNL     1      -6.299   6.293  10.050  1.00  0.00     0.266 C 
HETATM   16  N4  UNL     1      -7.694   6.465   9.905  1.00  0.00    -0.057 NA
HETATM   17  O2  UNL     1      -5.872   5.436  10.864  1.00  0.00    -0.271 OA
ENDBRANCH   7  15
TORSDOF 3
ENDMDL
MODEL 2
REMARK VINA RESULT: -5.747881424      1.229      1.232
REMARK  3 active torsions:
REMARK  status: ('A' for Active; 'I' for Inactive)
REMARK    1  A    between atoms: N1_1  and  N2_4 
REMARK       I    between atoms: N2_4  and  C1_6 
REMARK       I    between atoms: C1_6  and  N3_8 
REMARK    2  A    between atoms: C3_10  and  C4_11 
REMARK    3  A    between atoms: C6_15  and  O3_16 
ROOT
HETATM    1  N2  UNL     1      -2.002  10.241   6.986  1.00  0.00    -0.258 N 
ATOM      2  H2  UNL     1      -1.827   9.387   6.456  1.00  0.00     0.191 HD
HETATM    3  C1  UNL     1      -3.096  10.271   7.862  1.00  0.00     0.346 C 
HETATM    4  O1  UNL     1      -3.270  11.362   8.501  1.00  0.00    -0.245 OA
HETATM    5  N3  UNL     1      -4.019   9.229   8.112  1.00  0.00    -0.253 N 
HETATM    6  C2  UNL     1      -5.080   9.296   8.978  1.00  0.00     0.120 A 
HETATM    7  C3  UNL     1      -5.764   8.107   8.971  1.00  0.00     0.049 A 
HETATM    8  C5  UNL     1      -5.092   7.316   8.079  1.00  0.00     0.074 A 
HETATM    9  C6  UNL     1      -4.005   8.020   7.545  1.00  0.00     0.151 A 
ENDROOT
BRANCH   9  10
HETATM   10  O3  UNL     1      -3.138   7.458   6.604  1.00  0.00    -0.346 OA
ATOM     11  H3  UNL     1      -2.684   6.623   6.593  1.00  0.00     0.219 HD
ENDBRANCH   9  10
BRANCH   1  12
HETATM   12  N1  UNL     1      -1.139  11.327   6.806  1.00  0.00    -0.341 N 
ATOM     13  H12 UNL     1      -0.674  11.414   5.902  1.00  0.00     0.177 HD
ATOM     14  H11 UNL     1      -0.961  12.022   7.531  1.00  0.00     0.177 HD
ENDBRANCH   1  12
BRANCH   7  15
HETATM   15  C4  UNL     1      -6.953   7.728   9.734  1.00  0.00     0.266 C 
HETATM   16  N4  UNL     1      -7.838   6.728   9.272  1.00  0.00    -0.057 NA
HETATM   17  O2  UNL     1      -7.198   8.302  10.825  1.00  0.00    -0.271 OA
ENDBRANCH   7  15
TORSDOF 3
ENDMDL
MODEL 3
REMARK VINA RESULT: -5.540102125      1.215      1.215
REMARK  3 active torsions:
REMARK  status: ('A' for Active; 'I' for Inactive)
REMARK    1  A    between atoms: N1_1  and  N2_4 
REMARK       I    between atoms: N2_4  and  C1_6 
REMARK       I    between atoms: C1_6  and  N3_8 
REMARK    2  A    between atoms: C3_10  and  C4_11 
REMARK    3  A    between atoms: C6_15  and  O3_16 
ROOT
HETATM    1  N2  UNL     1      -3.438  10.617   7.194  1.00  0.00    -0.258 N 
ATOM      2  H2  UNL     1      -2.860   9.974   6.654  1.00  0.00     0.191 HD
HETATM    3  C1  UNL     1      -4.416  10.083   8.044  1.00  0.00     0.346 C 
HETATM    4  O1  UNL     1      -5.112  10.931   8.697  1.00  0.00    -0.245 OA
HETATM    5  N3  UNL     1      -4.711   8.716   8.255  1.00  0.00    -0.253 N 
HETATM    6  C2  UNL     1      -5.679   8.231   9.097  1.00  0.00     0.120 A 
HETATM    7  C3  UNL     1      -5.690   6.860   9.054  1.00  0.00     0.049 A 
HETATM    8  C5  UNL     1      -4.705   6.525   8.164  1.00  0.00     0.074 A 
HETATM    9  C6  UNL     1      -4.098   7.686   7.668  1.00  0.00     0.151 A 
ENDROOT
BRANCH   9  10
HETATM   10  O3  UNL     1      -3.055   7.647   6.738  1.00  0.00    -0.346 OA
ATOM     11  H3  UNL     1      -2.182   7.275   6.794  1.00  0.00     0.219 HD
ENDBRANCH   9  10
BRANCH   1  12
HETATM   12  N1  UNL     1      -3.218  11.992   7.052  1.00  0.00    -0.341 N 
ATOM     13  H12 UNL     1      -3.319  12.573   7.884  1.00  0.00     0.177 HD
ATOM     14  H11 UNL     1      -2.967  12.426   6.164  1.00  0.00     0.177 HD
ENDBRANCH   1  12
BRANCH   7  15
HETATM   15  C4  UNL     1      -6.548   5.926   9.782  1.00  0.00     0.266 C 
HETATM   16  N4  UNL     1      -6.062   5.181  10.880  1.00  0.00    -0.057 NA
HETATM   17  O2  UNL     1      -7.746   5.780   9.428  1.00  0.00    -0.271 OA
ENDBRANCH   7  15
TORSDOF 3
ENDMDL
MODEL 4
REMARK VINA RESULT: -5.447766885      1.358      2.426
REMARK  3 active torsions:
REMARK  status: ('A' for Active; 'I' for Inactive)
REMARK    1  A    between atoms: N1_1  and  N2_4 
REMARK       I    between atoms: N2_4  and  C1_6 
REMARK       I    between atoms: C1_6  and  N3_8 
REMARK    2  A    between atoms: C3_10  and  C4_11 
REMARK    3  A    between atoms: C6_15  and  O3_16 
ROOT
HETATM    1  N2  UNL     1      -2.941   9.847   7.799  1.00  0.00    -0.258 N 
ATOM      2  H2  UNL     1      -3.282  10.563   8.441  1.00  0.00     0.191 HD
HETATM    3  C1  UNL     1      -3.512   8.569   7.858  1.00  0.00     0.346 C 
HETATM    4  O1  UNL     1      -3.049   7.711   7.034  1.00  0.00    -0.245 OA
HETATM    5  N3  UNL     1      -4.538   8.131   8.727  1.00  0.00    -0.253 N 
HETATM    6  C2  UNL     1      -5.072   6.868   8.756  1.00  0.00     0.120 A 
HETATM    7  C3  UNL     1      -6.046   6.795   9.720  1.00  0.00     0.049 A 
HETATM    8  C5  UNL     1      -6.089   8.045  10.276  1.00  0.00     0.074 A 
HETATM    9  C6  UNL     1      -5.147   8.875   9.654  1.00  0.00     0.151 A 
ENDROOT
BRANCH   9  10
HETATM   10  O3  UNL     1      -4.969  10.212  10.019  1.00  0.00    -0.346 OA
ATOM     11  H3  UNL     1      -4.977  10.632  10.871  1.00  0.00     0.219 HD
ENDBRANCH   9  10
BRANCH   1  12
HETATM   12  N1  UNL     1      -1.924  10.188   6.900  1.00  0.00    -0.341 N 
ATOM     13  H12 UNL     1      -1.866   9.656   6.032  1.00  0.00     0.177 HD
ATOM     14  H11 UNL     1      -1.252  10.934   7.078  1.00  0.00     0.177 HD
ENDBRANCH   1  12
BRANCH   7  15
HETATM   15  C4  UNL     1      -6.876   5.653  10.100  1.00  0.00     0.266 C 
HETATM   16  N4  UNL     1      -6.378   4.624  10.931  1.00  0.00    -0.057 NA
HETATM   17  O2  UNL     1      -8.059   5.579   9.681  1.00  0.00    -0.271 OA
ENDBRANCH   7  15
TORSDOF 3
ENDMDL
MODEL 5
REMARK VINA RESULT: -5.428224031      1.734      2.213
REMARK  3 active torsions:
REMARK  status: ('A' for Active; 'I' for Inactive)
REMARK    1  A    between atoms: N1_1  and  N2_4 
REMARK       I    between atoms: N2_4  and  C1_6 
REMARK       I    between atoms: C1_6  and  N3_8 
REMARK    2  A    between atoms: C3_10  and  C4_11 
REMARK    3  A    between atoms: C6_15  and  O3_16 
ROOT
HETATM    1  N2  UNL     1      -3.273   9.838   7.424  1.00  0.00    -0.258 N 
ATOM      2  H2  UNL     1      -4.059  10.421   7.136  1.00  0.00     0.191 HD
HETATM    3  C1  UNL     1      -3.542   8.638   8.096  1.00  0.00     0.346 C 
HETATM    4  O1  UNL     1      -2.524   7.946   8.434  1.00  0.00    -0.245 OA
HETATM    5  N3  UNL     1      -4.812   8.116   8.437  1.00  0.00    -0.253 N 
HETATM    6  C2  UNL     1      -5.035   6.935   9.097  1.00  0.00     0.120 A 
HETATM    7  C3  UNL     1      -6.384   6.740   9.260  1.00  0.00     0.049 A 
HETATM    8  C5  UNL     1      -6.973   7.833   8.682  1.00  0.00     0.074 A 
HETATM    9  C6  UNL     1      -5.988   8.688   8.171  1.00  0.00     0.151 A 
ENDROOT
BRANCH   9  10
HETATM   10  O3  UNL     1      -6.300   9.887   7.524  1.00  0.00    -0.346 OA
ATOM     11  H3  UNL     1      -5.997  10.775   7.673  1.00  0.00     0.219 HD
ENDBRANCH   9  10
BRANCH   1  12
HETATM   12  N1  UNL     1      -1.976  10.274   7.130  1.00  0.00    -0.341 N 
ATOM     13  H12 UNL     1      -1.445   9.739   6.443  1.00  0.00     0.177 HD
ATOM     14  H11 UNL     1      -1.550  11.089   7.570  1.00  0.00     0.177 HD
ENDBRANCH   1  12
BRANCH   7  15
HETATM   15  C4  UNL     1      -7.078   5.625   9.903  1.00  0.00     0.266 C 
HETATM   16  N4  UNL     1      -6.452   4.843  10.899  1.00  0.00    -0.057 NA
HETATM   17  O2  UNL     1      -8.258   5.352   9.565  1.00  0.00    -0.271 OA
ENDBRANCH   7  15
TORSDOF 3
ENDMDL
