MODEL 1
REMARK VINA RESULT: -7.495292888      0.000      0.000
REMARK  7 active torsions:
REMARK  status: ('A' for Active; 'I' for Inactive)
REMARK    1  A    between atoms: C2_2  and  C4_4 
REMARK       I    between atoms: C4_4  and  N1_6 
REMARK    2  A    between atoms: N1_6  and  C5_8 
REMARK    3  A    between atoms: C5_8  and  C7_10 
REMARK    4  A    between atoms: C5_8  and  C15_24 
REMARK       I    between atoms: C7_10  and  N2_12 
REMARK    5  A    between atoms: N2_12  and  N3_14 
REMARK    6  A    between atoms: N3_14  and  C8_16 
REMARK    7  A    between atoms: C8_16  and  C9_18 
ROOT
HETATM    1  C5  UNL     1     -25.868  45.742  10.888  1.00  0.00     0.139 C 
HETATM    2  C6  UNL     1     -25.605  46.058  12.418  1.00  0.00     0.054 C 
ENDROOT
BRANCH   1   3
HETATM    3  N1  UNL     1     -24.724  45.012  10.437  1.00  0.00    -0.339 N 
HETATM    4  C4  UNL     1     -24.156  43.875  11.071  1.00  0.00     0.222 C 
HETATM    5  O1  UNL     1     -24.693  43.455  12.120  1.00  0.00    -0.273 OA
ATOM      6  H1  UNL     1     -24.275  45.337   9.581  1.00  0.00     0.164 HD
BRANCH   4   7
HETATM    7  C2  UNL     1     -22.966  43.173  10.548  1.00  0.00     0.070 C 
HETATM    8  C1  UNL     1     -22.199  44.121   9.661  1.00  0.00     0.019 C 
HETATM    9  C3  UNL     1     -22.083  42.648  11.663  1.00  0.00     0.019 C 
ENDBRANCH   4   7
ENDBRANCH   1   3
BRANCH   1  10
HETATM   10  C7  UNL     1     -27.059  44.877  10.924  1.00  0.00     0.269 C 
HETATM   11  O2  UNL     1     -27.744  44.823   9.836  1.00  0.00    -0.269 OA
HETATM   12  N2  UNL     1     -27.491  44.135  12.020  1.00  0.00    -0.266 N 
ATOM     13  H2  UNL     1     -26.980  44.154  12.903  1.00  0.00     0.190 HD
BRANCH  12  14
HETATM   14  N3  UNL     1     -28.667  43.347  11.869  1.00  0.00    -0.287 N 
ATOM     15  H3  UNL     1     -28.644  42.475  11.342  1.00  0.00     0.188 HD
BRANCH  14  16
HETATM   16  C8  UNL     1     -29.865  43.798  12.464  1.00  0.00     0.125 C 
HETATM   17  S1  UNL     1     -31.307  43.624  11.686  1.00  0.00    -0.058 SA
BRANCH  16  18
HETATM   18  C9  UNL     1     -29.853  44.423  13.778  1.00  0.00     0.003 A 
HETATM   19  C10 UNL     1     -29.850  45.788  13.945  1.00  0.00     0.014 A 
HETATM   20  C11 UNL     1     -29.838  46.352  15.201  1.00  0.00     0.001 A 
HETATM   21  C12 UNL     1     -29.829  45.570  16.336  1.00  0.00     0.000 A 
HETATM   22  C13 UNL     1     -29.831  44.208  16.186  1.00  0.00     0.001 A 
HETATM   23  C14 UNL     1     -29.843  43.654  14.913  1.00  0.00     0.014 A 
ENDBRANCH  16  18
ENDBRANCH  14  16
ENDBRANCH  12  14
ENDBRANCH   1  10
BRANCH   1  24
HETATM   24  C15 UNL     1     -26.123  47.036  10.301  1.00  0.00    -0.021 A 
HETATM   25  C16 UNL     1     -25.419  47.511   9.190  1.00  0.00     0.010 A 
HETATM   26  C17 UNL     1     -25.656  48.783   8.725  1.00  0.00     0.001 A 
HETATM   27  C18 UNL     1     -26.583  49.614   9.336  1.00  0.00     0.000 A 
HETATM   28  C19 UNL     1     -27.278  49.143  10.432  1.00  0.00     0.001 A 
HETATM   29  C20 UNL     1     -27.050  47.874  10.906  1.00  0.00     0.010 A 
ENDBRANCH   1  24
TORSDOF 7
ENDMDL
MODEL 2
REMARK VINA RESULT: -7.214628812      2.727      7.420
REMARK  7 active torsions:
REMARK  status: ('A' for Active; 'I' for Inactive)
REMARK    1  A    between atoms: C2_2  and  C4_4 
REMARK       I    between atoms: C4_4  and  N1_6 
REMARK    2  A    between atoms: N1_6  and  C5_8 
REMARK    3  A    between atoms: C5_8  and  C7_10 
REMARK    4  A    between atoms: C5_8  and  C15_24 
REMARK       I    between atoms: C7_10  and  N2_12 
REMARK    5  A    between atoms: N2_12  and  N3_14 
REMARK    6  A    between atoms: N3_14  and  C8_16 
REMARK    7  A    between atoms: C8_16  and  C9_18 
ROOT
HETATM    1  C5  UNL     1     -28.753  44.675  12.884  1.00  0.00     0.139 C 
HETATM    2  C6  UNL     1     -29.246  46.016  12.201  1.00  0.00     0.054 C 
ENDROOT
BRANCH   1   3
HETATM    3  N1  UNL     1     -29.254  43.613  12.068  1.00  0.00    -0.339 N 
HETATM    4  C4  UNL     1     -30.618  43.368  11.761  1.00  0.00     0.222 C 
HETATM    5  O1  UNL     1     -31.477  44.144  12.235  1.00  0.00    -0.273 OA
ATOM      6  H1  UNL     1     -28.567  42.972  11.670  1.00  0.00     0.164 HD
BRANCH   4   7
HETATM    7  C2  UNL     1     -31.062  42.243  10.912  1.00  0.00     0.070 C 
HETATM    8  C1  UNL     1     -32.441  42.554  10.384  1.00  0.00     0.019 C 
HETATM    9  C3  UNL     1     -30.097  41.979   9.773  1.00  0.00     0.019 C 
ENDBRANCH   4   7
ENDBRANCH   1   3
BRANCH   1  10
HETATM   10  C7  UNL     1     -27.286  44.766  12.782  1.00  0.00     0.269 C 
HETATM   11  O2  UNL     1     -26.752  45.803  13.324  1.00  0.00    -0.269 OA
HETATM   12  N2  UNL     1     -26.457  43.839  12.156  1.00  0.00    -0.266 N 
ATOM     13  H2  UNL     1     -26.841  43.007  11.709  1.00  0.00     0.190 HD
BRANCH  12  14
HETATM   14  N3  UNL     1     -25.055  44.092  12.160  1.00  0.00    -0.287 N 
ATOM     15  H3  UNL     1     -24.494  43.893  12.988  1.00  0.00     0.188 HD
BRANCH  14  16
HETATM   16  C8  UNL     1     -24.458  44.620  10.995  1.00  0.00     0.125 C 
HETATM   17  S1  UNL     1     -25.233  45.767  10.100  1.00  0.00    -0.058 SA
BRANCH  16  18
HETATM   18  C9  UNL     1     -23.146  44.166  10.561  1.00  0.00     0.003 A 
HETATM   19  C10 UNL     1     -22.588  42.991  11.006  1.00  0.00     0.014 A 
HETATM   20  C11 UNL     1     -21.344  42.587  10.578  1.00  0.00     0.001 A 
HETATM   21  C12 UNL     1     -20.613  43.344   9.689  1.00  0.00     0.000 A 
HETATM   22  C13 UNL     1     -21.154  44.518   9.236  1.00  0.00     0.001 A 
HETATM   23  C14 UNL     1     -22.410  44.913   9.677  1.00  0.00     0.014 A 
ENDBRANCH  16  18
ENDBRANCH  14  16
ENDBRANCH  12  14
ENDBRANCH   1  10
BRANCH   1  24
HETATM   24  C15 UNL     1     -29.234  44.775  14.241  1.00  0.00    -0.021 A 
HETATM   25  C16 UNL     1     -29.534  45.999  14.846  1.00  0.00     0.010 A 
HETATM   26  C17 UNL     1     -29.915  46.033  16.167  1.00  0.00     0.001 A 
HETATM   27  C18 UNL     1     -30.010  44.872  16.920  1.00  0.00     0.000 A 
HETATM   28  C19 UNL     1     -29.715  43.664  16.321  1.00  0.00     0.001 A 
HETATM   29  C20 UNL     1     -29.333  43.618  15.003  1.00  0.00     0.010 A 
ENDBRANCH   1  24
TORSDOF 7
ENDMDL
MODEL 3
REMARK VINA RESULT: -7.213655285      1.044      1.670
REMARK  7 active torsions:
REMARK  status: ('A' for Active; 'I' for Inactive)
REMARK    1  A    between atoms: C2_2  and  C4_4 
REMARK       I    between atoms: C4_4  and  N1_6 
REMARK    2  A    between atoms: N1_6  and  C5_8 
REMARK    3  A    between atoms: C5_8  and  C7_10 
REMARK    4  A    between atoms: C5_8  and  C15_24 
REMARK       I    between atoms: C7_10  and  N2_12 
REMARK    5  A    between atoms: N2_12  and  N3_14 
REMARK    6  A    between atoms: N3_14  and  C8_16 
REMARK    7  A    between atoms: C8_16  and  C9_18 
ROOT
HETATM    1  C5  UNL     1     -26.186  45.687  11.350  1.00  0.00     0.139 C 
HETATM    2  C6  UNL     1     -25.697  46.150  12.784  1.00  0.00     0.054 C 
ENDROOT
BRANCH   1   3
HETATM    3  N1  UNL     1     -25.101  44.943  10.788  1.00  0.00    -0.339 N 
HETATM    4  C4  UNL     1     -24.481  43.804  11.367  1.00  0.00     0.222 C 
HETATM    5  O1  UNL     1     -24.912  43.395  12.468  1.00  0.00    -0.273 OA
ATOM      6  H1  UNL     1     -24.740  45.260   9.888  1.00  0.00     0.164 HD
BRANCH   4   7
HETATM    7  C2  UNL     1     -23.359  43.088  10.728  1.00  0.00     0.070 C 
HETATM    8  C1  UNL     1     -22.780  43.966   9.647  1.00  0.00     0.019 C 
HETATM    9  C3  UNL     1     -22.292  42.697  11.732  1.00  0.00     0.019 C 
ENDBRANCH   4   7
ENDBRANCH   1   3
BRANCH   1  10
HETATM   10  C7  UNL     1     -27.324  44.804  11.653  1.00  0.00     0.269 C 
HETATM   11  O2  UNL     1     -27.922  44.292  10.635  1.00  0.00    -0.269 OA
HETATM   12  N2  UNL     1     -27.793  44.490  12.927  1.00  0.00    -0.266 N 
ATOM     13  H2  UNL     1     -27.351  44.879  13.760  1.00  0.00     0.190 HD
BRANCH  12  14
HETATM   14  N3  UNL     1     -28.907  43.610  13.028  1.00  0.00    -0.287 N 
ATOM     15  H3  UNL     1     -28.955  42.765  12.458  1.00  0.00     0.188 HD
BRANCH  14  16
HETATM   16  C8  UNL     1     -29.943  43.929  13.932  1.00  0.00     0.125 C 
HETATM   17  S1  UNL     1     -31.371  44.547  13.390  1.00  0.00    -0.058 SA
BRANCH  16  18
HETATM   18  C9  UNL     1     -29.773  43.717  15.361  1.00  0.00     0.003 A 
HETATM   19  C10 UNL     1     -29.979  44.716  16.284  1.00  0.00     0.014 A 
HETATM   20  C11 UNL     1     -29.810  44.486  17.631  1.00  0.00     0.001 A 
HETATM   21  C12 UNL     1     -29.430  43.248  18.103  1.00  0.00     0.000 A 
HETATM   22  C13 UNL     1     -29.220  42.243  17.196  1.00  0.00     0.001 A 
HETATM   23  C14 UNL     1     -29.395  42.490  15.841  1.00  0.00     0.014 A 
ENDBRANCH  16  18
ENDBRANCH  14  16
ENDBRANCH  12  14
ENDBRANCH   1  10
BRANCH   1  24
HETATM   24  C15 UNL     1     -26.577  46.915  10.700  1.00  0.00    -0.021 A 
HETATM   25  C16 UNL     1     -27.785  47.562  10.976  1.00  0.00     0.010 A 
HETATM   26  C17 UNL     1     -28.135  48.687  10.267  1.00  0.00     0.001 A 
HETATM   27  C18 UNL     1     -27.312  49.200   9.276  1.00  0.00     0.000 A 
HETATM   28  C19 UNL     1     -26.120  48.560   9.004  1.00  0.00     0.001 A 
HETATM   29  C20 UNL     1     -25.759  47.436   9.706  1.00  0.00     0.010 A 
ENDBRANCH   1  24
TORSDOF 7
ENDMDL
MODEL 4
REMARK VINA RESULT: -7.203089583      1.100      1.628
REMARK  7 active torsions:
REMARK  status: ('A' for Active; 'I' for Inactive)
REMARK    1  A    between atoms: C2_2  and  C4_4 
REMARK       I    between atoms: C4_4  and  N1_6 
REMARK    2  A    between atoms: N1_6  and  C5_8 
REMARK    3  A    between atoms: C5_8  and  C7_10 
REMARK    4  A    between atoms: C5_8  and  C15_24 
REMARK       I    between atoms: C7_10  and  N2_12 
REMARK    5  A    between atoms: N2_12  and  N3_14 
REMARK    6  A    between atoms: N3_14  and  C8_16 
REMARK    7  A    between atoms: C8_16  and  C9_18 
ROOT
HETATM    1  C5  UNL     1     -25.983  45.730  10.954  1.00  0.00     0.139 C 
HETATM    2  C6  UNL     1     -25.703  46.069  12.476  1.00  0.00     0.054 C 
ENDROOT
BRANCH   1   3
HETATM    3  N1  UNL     1     -24.827  45.027  10.491  1.00  0.00    -0.339 N 
HETATM    4  C4  UNL     1     -24.250  43.878  11.095  1.00  0.00     0.222 C 
HETATM    5  O1  UNL     1     -24.790  43.421  12.125  1.00  0.00    -0.273 OA
ATOM      6  H1  UNL     1     -24.375  45.384   9.648  1.00  0.00     0.164 HD
BRANCH   4   7
HETATM    7  C2  UNL     1     -23.048  43.206  10.560  1.00  0.00     0.070 C 
HETATM    8  C1  UNL     1     -22.283  44.191   9.711  1.00  0.00     0.019 C 
HETATM    9  C3  UNL     1     -22.170  42.654  11.665  1.00  0.00     0.019 C 
ENDBRANCH   4   7
ENDBRANCH   1   3
BRANCH   1  10
HETATM   10  C7  UNL     1     -27.149  44.833  11.020  1.00  0.00     0.269 C 
HETATM   11  O2  UNL     1     -27.759  44.628   9.906  1.00  0.00    -0.269 OA
HETATM   12  N2  UNL     1     -27.630  44.209  12.168  1.00  0.00    -0.266 N 
ATOM     13  H2  UNL     1     -27.178  44.349  13.071  1.00  0.00     0.190 HD
BRANCH  12  14
HETATM   14  N3  UNL     1     -28.771  43.367  12.039  1.00  0.00    -0.287 N 
ATOM     15  H3  UNL     1     -28.705  42.472  11.555  1.00  0.00     0.188 HD
BRANCH  14  16
HETATM   16  C8  UNL     1     -29.995  43.797  12.594  1.00  0.00     0.125 C 
HETATM   17  S1  UNL     1     -31.067  42.707  13.210  1.00  0.00    -0.058 SA
BRANCH  16  18
HETATM   18  C9  UNL     1     -30.337  45.210  12.637  1.00  0.00     0.003 A 
HETATM   19  C10 UNL     1     -30.671  45.923  11.510  1.00  0.00     0.014 A 
HETATM   20  C11 UNL     1     -30.990  47.260  11.581  1.00  0.00     0.001 A 
HETATM   21  C12 UNL     1     -30.985  47.933  12.783  1.00  0.00     0.000 A 
HETATM   22  C13 UNL     1     -30.654  47.237  13.916  1.00  0.00     0.001 A 
HETATM   23  C14 UNL     1     -30.335  45.889  13.828  1.00  0.00     0.014 A 
ENDBRANCH  16  18
ENDBRANCH  14  16
ENDBRANCH  12  14
ENDBRANCH   1  10
BRANCH   1  24
HETATM   24  C15 UNL     1     -26.283  47.010  10.359  1.00  0.00    -0.021 A 
HETATM   25  C16 UNL     1     -25.505  47.570   9.341  1.00  0.00     0.010 A 
HETATM   26  C17 UNL     1     -25.799  48.827   8.869  1.00  0.00     0.001 A 
HETATM   27  C18 UNL     1     -26.858  49.561   9.383  1.00  0.00     0.000 A 
HETATM   28  C19 UNL     1     -27.626  49.007  10.387  1.00  0.00     0.001 A 
HETATM   29  C20 UNL     1     -27.342  47.752  10.867  1.00  0.00     0.010 A 
ENDBRANCH   1  24
TORSDOF 7
ENDMDL
MODEL 5
REMARK VINA RESULT: -7.177369821      1.216      1.756
REMARK  7 active torsions:
REMARK  status: ('A' for Active; 'I' for Inactive)
REMARK    1  A    between atoms: C2_2  and  C4_4 
REMARK       I    between atoms: C4_4  and  N1_6 
REMARK    2  A    between atoms: N1_6  and  C5_8 
REMARK    3  A    between atoms: C5_8  and  C7_10 
REMARK    4  A    between atoms: C5_8  and  C15_24 
REMARK       I    between atoms: C7_10  and  N2_12 
REMARK    5  A    between atoms: N2_12  and  N3_14 
REMARK    6  A    between atoms: N3_14  and  C8_16 
REMARK    7  A    between atoms: C8_16  and  C9_18 
ROOT
HETATM    1  C5  UNL     1     -26.189  45.713  11.382  1.00  0.00     0.139 C 
HETATM    2  C6  UNL     1     -25.618  46.250  12.758  1.00  0.00     0.054 C 
ENDROOT
BRANCH   1   3
HETATM    3  N1  UNL     1     -25.139  44.934  10.800  1.00  0.00    -0.339 N 
HETATM    4  C4  UNL     1     -24.496  43.819  11.399  1.00  0.00     0.222 C 
HETATM    5  O1  UNL     1     -24.870  43.466  12.539  1.00  0.00    -0.273 OA
ATOM      6  H1  UNL     1     -24.824  45.206   9.868  1.00  0.00     0.164 HD
BRANCH   4   7
HETATM    7  C2  UNL     1     -23.412  43.065  10.737  1.00  0.00     0.070 C 
HETATM    8  C1  UNL     1     -22.865  43.900   9.607  1.00  0.00     0.019 C 
HETATM    9  C3  UNL     1     -22.311  42.687  11.709  1.00  0.00     0.019 C 
ENDBRANCH   4   7
ENDBRANCH   1   3
BRANCH   1  10
HETATM   10  C7  UNL     1     -27.309  44.852  11.797  1.00  0.00     0.269 C 
HETATM   11  O2  UNL     1     -27.968  44.293  10.843  1.00  0.00    -0.269 OA
HETATM   12  N2  UNL     1     -27.701  44.605  13.111  1.00  0.00    -0.266 N 
ATOM     13  H2  UNL     1     -27.209  45.033  13.895  1.00  0.00     0.190 HD
BRANCH  12  14
HETATM   14  N3  UNL     1     -28.809  43.737  13.323  1.00  0.00    -0.287 N 
ATOM     15  H3  UNL     1     -28.996  42.967  12.681  1.00  0.00     0.188 HD
BRANCH  14  16
HETATM   16  C8  UNL     1     -29.643  43.964  14.439  1.00  0.00     0.125 C 
HETATM   17  S1  UNL     1     -30.214  42.702  15.332  1.00  0.00    -0.058 SA
BRANCH  16  18
HETATM   18  C9  UNL     1     -30.016  45.316  14.826  1.00  0.00     0.003 A 
HETATM   19  C10 UNL     1     -30.585  46.205  13.945  1.00  0.00     0.014 A 
HETATM   20  C11 UNL     1     -30.927  47.478  14.340  1.00  0.00     0.001 A 
HETATM   21  C12 UNL     1     -30.712  47.909  15.631  1.00  0.00     0.000 A 
HETATM   22  C13 UNL     1     -30.145  47.035  16.521  1.00  0.00     0.001 A 
HETATM   23  C14 UNL     1     -29.806  45.754  16.108  1.00  0.00     0.014 A 
ENDBRANCH  16  18
ENDBRANCH  14  16
ENDBRANCH  12  14
ENDBRANCH   1  10
BRANCH   1  24
HETATM   24  C15 UNL     1     -26.615  46.905  10.689  1.00  0.00    -0.021 A 
HETATM   25  C16 UNL     1     -27.824  47.548  10.971  1.00  0.00     0.010 A 
HETATM   26  C17 UNL     1     -28.210  48.636  10.223  1.00  0.00     0.001 A 
HETATM   27  C18 UNL     1     -27.422  49.114   9.186  1.00  0.00     0.000 A 
HETATM   28  C19 UNL     1     -26.229  48.478   8.910  1.00  0.00     0.001 A 
HETATM   29  C20 UNL     1     -25.833  47.391   9.650  1.00  0.00     0.010 A 
ENDBRANCH   1  24
TORSDOF 7
ENDMDL
