MODEL 1
REMARK VINA RESULT: -5.488762679      0.000      0.000
REMARK  4 active torsions:
REMARK  status: ('A' for Active; 'I' for Inactive)
REMARK    1  A    between atoms: C2_2  and  N1_3 
REMARK       I    between atoms: N1_3  and  C3_5 
REMARK       I    between atoms: C3_5  and  N3_9 
REMARK       I    between atoms: C4_11  and  N4_12 
REMARK       I    between atoms: C4_11  and  N6_21 
REMARK    2  A    between atoms: N6_21  and  C8_23 
REMARK    3  A    between atoms: C8_23  and  C9_24 
REMARK    4  A    between atoms: C9_24  and  C10_26 
ROOT
HETATM    1  N1  UNL     1      92.579  99.518 -44.372  1.00  0.00    -0.203 N 
ATOM      2  H1  UNL     1      93.493  99.287 -44.762  1.00  0.00     0.183 HD
HETATM    3  C3  UNL     1      91.834  98.512 -43.697  1.00  0.00     0.690 C 
HETATM    4  N2  UNL     1      91.604  98.643 -42.434  1.00  0.00    -0.234 N 
ATOM      5  H21 UNL     1      91.070  97.921 -41.950  1.00  0.00     0.174 HD
ATOM      6  H22 UNL     1      91.942  99.457 -41.920  1.00  0.00     0.174 HD
HETATM    7  N3  UNL     1      91.382  97.421 -44.388  1.00  0.00    -0.023 N 
ATOM      8  H3  UNL     1      92.154  96.769 -44.528  1.00  0.00     0.203 HD
HETATM    9  C4  UNL     1      90.375  96.963 -44.891  1.00  0.00     0.693 C 
HETATM   10  N4  UNL     1      90.480  95.668 -45.544  1.00  0.00    -0.180 N 
ATOM     11  H4  UNL     1      90.334  95.575 -46.550  1.00  0.00     0.184 HD
HETATM   12  C5  UNL     1      90.765  94.632 -44.812  1.00  0.00     0.184 A 
HETATM   13  C6  UNL     1      90.956  93.282 -44.991  1.00  0.00     0.281 A 
HETATM   14  O1  UNL     1      90.916  92.533 -45.994  1.00  0.00    -0.265 OA
HETATM   15  N5  UNL     1      91.195  93.079 -43.706  1.00  0.00    -0.286 N 
ATOM     16  H5  UNL     1      91.419  92.267 -43.130  1.00  0.00     0.172 HD
HETATM   17  C7  UNL     1      91.018  94.400 -43.478  1.00  0.00     0.281 A 
HETATM   18  O2  UNL     1      91.064  95.135 -42.448  1.00  0.00    -0.265 OA
HETATM   19  N6  UNL     1      89.095  97.530 -44.925  1.00  0.00    -0.224 N 
ATOM     20  H6  UNL     1      88.616  97.509 -45.825  1.00  0.00     0.177 HD
ENDROOT
BRANCH  19  21
HETATM   21  C8  UNL     1      88.376  98.137 -43.838  1.00  0.00     0.154 C 
BRANCH  21  22
HETATM   22  C9  UNL     1      87.168  98.916 -44.319  1.00  0.00     0.086 C 
HETATM   23 BR1  UNL     1      85.610  97.763 -44.062  1.00  0.00    -0.089 Br
BRANCH  22  24
HETATM   24  C10 UNL     1      86.897 100.152 -43.494  1.00  0.00     0.102 C 
HETATM   25 BR2  UNL     1      88.243 100.499 -42.187  1.00  0.00    -0.095 Br
ENDBRANCH  22  24
ENDBRANCH  21  22
ENDBRANCH  19  21
BRANCH   1  26
HETATM   26  C2  UNL     1      92.078 100.827 -44.512  1.00  0.00     0.096 C 
HETATM   27  C1  UNL     1      90.876 101.059 -45.002  1.00  0.00     0.030 C 
ENDBRANCH   1  26
TORSDOF 4
ENDMDL
MODEL 2
REMARK VINA RESULT: -5.484652576      1.242      1.278
REMARK  4 active torsions:
REMARK  status: ('A' for Active; 'I' for Inactive)
REMARK    1  A    between atoms: C2_2  and  N1_3 
REMARK       I    between atoms: N1_3  and  C3_5 
REMARK       I    between atoms: C3_5  and  N3_9 
REMARK       I    between atoms: C4_11  and  N4_12 
REMARK       I    between atoms: C4_11  and  N6_21 
REMARK    2  A    between atoms: N6_21  and  C8_23 
REMARK    3  A    between atoms: C8_23  and  C9_24 
REMARK    4  A    between atoms: C9_24  and  C10_26 
ROOT
HETATM    1  N1  UNL     1      92.644  99.498 -44.360  1.00  0.00    -0.203 N 
ATOM      2  H1  UNL     1      93.578  99.247 -44.686  1.00  0.00     0.183 HD
HETATM    3  C3  UNL     1      91.852  98.522 -43.696  1.00  0.00     0.690 C 
HETATM    4  N2  UNL     1      91.548  98.700 -42.455  1.00  0.00    -0.234 N 
ATOM      5  H21 UNL     1      90.980  98.000 -41.978  1.00  0.00     0.174 HD
ATOM      6  H22 UNL     1      91.860  99.530 -41.951  1.00  0.00     0.174 HD
HETATM    7  N3  UNL     1      91.433  97.409 -44.372  1.00  0.00    -0.023 N 
ATOM      8  H3  UNL     1      92.207  96.747 -44.442  1.00  0.00     0.203 HD
HETATM    9  C4  UNL     1      90.454  96.939 -44.919  1.00  0.00     0.693 C 
HETATM   10  N4  UNL     1      90.587  95.621 -45.517  1.00  0.00    -0.180 N 
ATOM     11  H4  UNL     1      90.501  95.492 -46.525  1.00  0.00     0.184 HD
HETATM   12  C5  UNL     1      90.819  94.611 -44.732  1.00  0.00     0.184 A 
HETATM   13  C6  UNL     1      91.008  93.254 -44.850  1.00  0.00     0.281 A 
HETATM   14  O1  UNL     1      91.023  92.469 -45.826  1.00  0.00    -0.265 OA
HETATM   15  N5  UNL     1      91.168  93.096 -43.546  1.00  0.00    -0.286 N 
ATOM     16  H5  UNL     1      91.350  92.305 -42.929  1.00  0.00     0.172 HD
HETATM   17  C7  UNL     1      90.989  94.426 -43.377  1.00  0.00     0.281 A 
HETATM   18  O2  UNL     1      90.979  95.198 -42.374  1.00  0.00    -0.265 OA
HETATM   19  N6  UNL     1      89.183  97.512 -45.050  1.00  0.00    -0.224 N 
ATOM     20  H6  UNL     1      88.759  97.462 -45.977  1.00  0.00     0.177 HD
ENDROOT
BRANCH  19  21
HETATM   21  C8  UNL     1      88.405  98.164 -44.032  1.00  0.00     0.154 C 
BRANCH  21  22
HETATM   22  C9  UNL     1      86.995  98.465 -44.497  1.00  0.00     0.086 C 
HETATM   23 BR1  UNL     1      86.404  96.927 -45.550  1.00  0.00    -0.089 Br
BRANCH  22  24
HETATM   24  C10 UNL     1      86.010  98.577 -43.357  1.00  0.00     0.102 C 
HETATM   25 BR2  UNL     1      84.371  97.655 -43.681  1.00  0.00    -0.095 Br
ENDBRANCH  22  24
ENDBRANCH  21  22
ENDBRANCH  19  21
BRANCH   1  26
HETATM   26  C2  UNL     1      92.164 100.804 -44.577  1.00  0.00     0.096 C 
HETATM   27  C1  UNL     1      91.008 101.026 -45.171  1.00  0.00     0.030 C 
ENDBRANCH   1  26
TORSDOF 4
ENDMDL
MODEL 3
REMARK VINA RESULT: -5.407850343      0.842      1.591
REMARK  4 active torsions:
REMARK  status: ('A' for Active; 'I' for Inactive)
REMARK    1  A    between atoms: C2_2  and  N1_3 
REMARK       I    between atoms: N1_3  and  C3_5 
REMARK       I    between atoms: C3_5  and  N3_9 
REMARK       I    between atoms: C4_11  and  N4_12 
REMARK       I    between atoms: C4_11  and  N6_21 
REMARK    2  A    between atoms: N6_21  and  C8_23 
REMARK    3  A    between atoms: C8_23  and  C9_24 
REMARK    4  A    between atoms: C9_24  and  C10_26 
ROOT
HETATM    1  N1  UNL     1      92.588  99.648 -44.125  1.00  0.00    -0.203 N 
ATOM      2  H1  UNL     1      93.491  99.416 -44.541  1.00  0.00     0.183 HD
HETATM    3  C3  UNL     1      91.830  98.627 -43.490  1.00  0.00     0.690 C 
HETATM    4  N2  UNL     1      91.623  98.698 -42.218  1.00  0.00    -0.234 N 
ATOM      5  H21 UNL     1      91.079  97.966 -41.762  1.00  0.00     0.174 HD
ATOM      6  H22 UNL     1      91.987  99.477 -41.669  1.00  0.00     0.174 HD
HETATM    7  N3  UNL     1      91.342  97.582 -44.227  1.00  0.00    -0.023 N 
ATOM      8  H3  UNL     1      92.096  96.920 -44.412  1.00  0.00     0.203 HD
HETATM    9  C4  UNL     1      90.317  97.173 -44.736  1.00  0.00     0.693 C 
HETATM   10  N4  UNL     1      90.381  95.911 -45.455  1.00  0.00    -0.180 N 
ATOM     11  H4  UNL     1      90.218  95.873 -46.461  1.00  0.00     0.184 HD
HETATM   12  C5  UNL     1      90.653  94.834 -44.780  1.00  0.00     0.184 A 
HETATM   13  C6  UNL     1      90.808  93.490 -45.030  1.00  0.00     0.281 A 
HETATM   14  O1  UNL     1      90.736  92.794 -46.069  1.00  0.00    -0.265 OA
HETATM   15  N5  UNL     1      91.062  93.216 -43.761  1.00  0.00    -0.286 N 
ATOM     16  H5  UNL     1      91.275  92.372 -43.230  1.00  0.00     0.172 HD
HETATM   17  C7  UNL     1      90.920  94.528 -43.464  1.00  0.00     0.281 A 
HETATM   18  O2  UNL     1      90.999  95.209 -42.399  1.00  0.00    -0.265 OA
HETATM   19  N6  UNL     1      89.050  97.771 -44.720  1.00  0.00    -0.224 N 
ATOM     20  H6  UNL     1      88.557  97.807 -45.613  1.00  0.00     0.177 HD
ENDROOT
BRANCH  19  21
HETATM   21  C8  UNL     1      88.363  98.339 -43.593  1.00  0.00     0.154 C 
BRANCH  21  22
HETATM   22  C9  UNL     1      86.860  98.354 -43.791  1.00  0.00     0.086 C 
HETATM   23 BR1  UNL     1      86.265 100.191 -43.483  1.00  0.00    -0.089 Br
BRANCH  22  24
HETATM   24  C10 UNL     1      86.449  98.029 -45.208  1.00  0.00     0.102 C 
HETATM   25 BR2  UNL     1      85.321  96.495 -45.335  1.00  0.00    -0.095 Br
ENDBRANCH  22  24
ENDBRANCH  21  22
ENDBRANCH  19  21
BRANCH   1  26
HETATM   26  C2  UNL     1      92.117 100.973 -44.191  1.00  0.00     0.096 C 
HETATM   27  C1  UNL     1      90.932 101.262 -44.691  1.00  0.00     0.030 C 
ENDBRANCH   1  26
TORSDOF 4
ENDMDL
MODEL 4
REMARK VINA RESULT: -5.387859533      1.942      2.501
REMARK  4 active torsions:
REMARK  status: ('A' for Active; 'I' for Inactive)
REMARK    1  A    between atoms: C2_2  and  N1_3 
REMARK       I    between atoms: N1_3  and  C3_5 
REMARK       I    between atoms: C3_5  and  N3_9 
REMARK       I    between atoms: C4_11  and  N4_12 
REMARK       I    between atoms: C4_11  and  N6_21 
REMARK    2  A    between atoms: N6_21  and  C8_23 
REMARK    3  A    between atoms: C8_23  and  C9_24 
REMARK    4  A    between atoms: C9_24  and  C10_26 
ROOT
HETATM    1  N1  UNL     1      92.629 100.272 -44.063  1.00  0.00    -0.203 N 
ATOM      2  H1  UNL     1      93.493  99.916 -44.471  1.00  0.00     0.183 HD
HETATM    3  C3  UNL     1      92.067  99.612 -42.936  1.00  0.00     0.690 C 
HETATM    4  N2  UNL     1      92.009 100.236 -41.808  1.00  0.00    -0.234 N 
ATOM      5  H21 UNL     1      91.606  99.762 -40.999  1.00  0.00     0.174 HD
ATOM      6  H22 UNL     1      92.352 101.192 -41.717  1.00  0.00     0.174 HD
HETATM    7  N3  UNL     1      91.607  98.329 -43.057  1.00  0.00    -0.023 N 
ATOM      8  H3  UNL     1      92.399  97.686 -43.051  1.00  0.00     0.203 HD
HETATM    9  C4  UNL     1      90.576  97.694 -43.171  1.00  0.00     0.693 C 
HETATM   10  N4  UNL     1      90.687  96.248 -43.267  1.00  0.00    -0.180 N 
ATOM     11  H4  UNL     1      90.407  95.757 -44.117  1.00  0.00     0.184 HD
HETATM   12  C5  UNL     1      91.152  95.597 -42.242  1.00  0.00     0.184 A 
HETATM   13  C6  UNL     1      91.418  94.292 -41.902  1.00  0.00     0.281 A 
HETATM   14  O1  UNL     1      91.294  93.202 -42.508  1.00  0.00    -0.265 OA
HETATM   15  N5  UNL     1      91.851  94.624 -40.698  1.00  0.00    -0.286 N 
ATOM     16  H5  UNL     1      92.216  94.116 -39.892  1.00  0.00     0.172 HD
HETATM   17  C7  UNL     1      91.608  95.923 -40.984  1.00  0.00     0.281 A 
HETATM   18  O2  UNL     1      91.743  97.011 -40.349  1.00  0.00    -0.265 OA
HETATM   19  N6  UNL     1      89.264  98.182 -43.219  1.00  0.00    -0.224 N 
ATOM     20  H6  UNL     1      88.666  97.795 -43.949  1.00  0.00     0.177 HD
ENDROOT
BRANCH  19  21
HETATM   21  C8  UNL     1      88.663  99.165 -42.360  1.00  0.00     0.154 C 
BRANCH  21  22
HETATM   22  C9  UNL     1      87.186  99.345 -42.648  1.00  0.00     0.086 C 
HETATM   23 BR1  UNL     1      86.927 101.219 -43.143  1.00  0.00    -0.089 Br
BRANCH  22  24
HETATM   24  C10 UNL     1      86.716  98.544 -43.840  1.00  0.00     0.102 C 
HETATM   25 BR2  UNL     1      84.983  97.782 -43.603  1.00  0.00    -0.095 Br
ENDBRANCH  22  24
ENDBRANCH  21  22
ENDBRANCH  19  21
BRANCH   1  26
HETATM   26  C2  UNL     1      92.015 101.408 -44.625  1.00  0.00     0.096 C 
HETATM   27  C1  UNL     1      90.755 101.391 -45.016  1.00  0.00     0.030 C 
ENDBRANCH   1  26
TORSDOF 4
ENDMDL
MODEL 5
REMARK VINA RESULT: -5.310249199      1.166      1.218
REMARK  4 active torsions:
REMARK  status: ('A' for Active; 'I' for Inactive)
REMARK    1  A    between atoms: C2_2  and  N1_3 
REMARK       I    between atoms: N1_3  and  C3_5 
REMARK       I    between atoms: C3_5  and  N3_9 
REMARK       I    between atoms: C4_11  and  N4_12 
REMARK       I    between atoms: C4_11  and  N6_21 
REMARK    2  A    between atoms: N6_21  and  C8_23 
REMARK    3  A    between atoms: C8_23  and  C9_24 
REMARK    4  A    between atoms: C9_24  and  C10_26 
ROOT
HETATM    1  N1  UNL     1      92.541  99.976 -43.670  1.00  0.00    -0.203 N 
ATOM      2  H1  UNL     1      93.492  99.720 -43.938  1.00  0.00     0.183 HD
HETATM    3  C3  UNL     1      91.778  99.082 -42.870  1.00  0.00     0.690 C 
HETATM    4  N2  UNL     1      91.439  99.441 -41.678  1.00  0.00    -0.234 N 
ATOM      5  H21 UNL     1      90.891  98.801 -41.103  1.00  0.00     0.174 HD
ATOM      6  H22 UNL     1      91.703 100.355 -41.309  1.00  0.00     0.174 HD
HETATM    7  N3  UNL     1      91.423  97.857 -43.365  1.00  0.00    -0.023 N 
ATOM      8  H3  UNL     1      92.227  97.230 -43.316  1.00  0.00     0.203 HD
HETATM    9  C4  UNL     1      90.478  97.260 -43.844  1.00  0.00     0.693 C 
HETATM   10  N4  UNL     1      90.683  95.871 -44.221  1.00  0.00    -0.180 N 
ATOM     11  H4  UNL     1      90.625  95.579 -45.197  1.00  0.00     0.184 HD
HETATM   12  C5  UNL     1      90.942  95.011 -43.281  1.00  0.00     0.184 A 
HETATM   13  C6  UNL     1      91.193  93.664 -43.177  1.00  0.00     0.281 A 
HETATM   14  O1  UNL     1      91.264  92.735 -44.015  1.00  0.00    -0.265 OA
HETATM   15  N5  UNL     1      91.331  93.723 -41.863  1.00  0.00    -0.286 N 
ATOM     16  H5  UNL     1      91.534  93.050 -41.124  1.00  0.00     0.172 HD
HETATM   17  C7  UNL     1      91.090  95.053 -41.911  1.00  0.00     0.281 A 
HETATM   18  O2  UNL     1      91.024  95.974 -41.045  1.00  0.00    -0.265 OA
HETATM   19  N6  UNL     1      89.187  97.745 -44.084  1.00  0.00    -0.224 N 
ATOM     20  H6  UNL     1      88.786  97.527 -44.997  1.00  0.00     0.177 HD
ENDROOT
BRANCH  19  21
HETATM   21  C8  UNL     1      88.359  98.513 -43.195  1.00  0.00     0.154 C 
BRANCH  21  22
HETATM   22  C9  UNL     1      87.217  99.192 -43.924  1.00  0.00     0.086 C 
HETATM   23 BR1  UNL     1      85.659  98.022 -43.755  1.00  0.00    -0.089 Br
BRANCH  22  24
HETATM   24  C10 UNL     1      86.809 100.502 -43.291  1.00  0.00     0.102 C 
HETATM   25 BR2  UNL     1      88.210 101.330 -42.296  1.00  0.00    -0.095 Br
ENDBRANCH  22  24
ENDBRANCH  21  22
ENDBRANCH  19  21
BRANCH   1  26
HETATM   26  C2  UNL     1      92.009 101.206 -44.101  1.00  0.00     0.096 C 
HETATM   27  C1  UNL     1      90.977 101.265 -44.920  1.00  0.00     0.030 C 
ENDBRANCH   1  26
TORSDOF 4
ENDMDL
