MODEL 1
REMARK VINA RESULT: -8.035159153      0.000      0.000
REMARK  8 active torsions:
REMARK  status: ('A' for Active; 'I' for Inactive)
REMARK    1  A    between atoms: N1_1  and  N2_4 
REMARK       I    between atoms: N2_4  and  C1_6 
REMARK    2  A    between atoms: N4_8  and  C2_10 
REMARK    3  A    between atoms: N5_11  and  N6_13 
REMARK    4  A    between atoms: C3_15  and  C4_16 
REMARK    5  A    between atoms: C4_16  and  C5_17 
REMARK    6  A    between atoms: C5_17  and  O1_18 
REMARK    7  A    between atoms: O1_18  and  C6_19 
REMARK    8  A    between atoms: C9_22  and  C10_23 
ROOT
HETATM    1  N6  UNL     1      26.799  49.734 250.186  1.00  0.00    -0.315 N 
ATOM      2  H6  UNL     1      26.296  48.930 249.810  1.00  0.00     0.185 HD
HETATM    3  C3  UNL     1      25.949  50.524 250.574  1.00  0.00     0.082 C 
ENDROOT
BRANCH   1   4
HETATM    4  N5  UNL     1      28.047  49.477 250.046  1.00  0.00    -0.297 N 
HETATM    5  C2  UNL     1      28.772  49.682 249.009  1.00  0.00     0.199 C 
ATOM      6  H5  UNL     1      28.517  49.064 250.851  1.00  0.00     0.187 HD
BRANCH   5   7
HETATM    7  N4  UNL     1      28.226  50.247 247.855  1.00  0.00    -0.324 N 
HETATM    8  C1  UNL     1      28.746  51.144 247.113  1.00  0.00     0.207 C 
HETATM    9  N2  UNL     1      30.016  51.694 247.399  1.00  0.00    -0.280 N 
HETATM   10  N3  UNL     1      28.015  51.592 245.959  1.00  0.00    -0.062 NA
ATOM     11  H2  UNL     1      30.770  51.106 247.752  1.00  0.00     0.189 HD
ATOM     12  H4  UNL     1      27.307  49.903 247.575  1.00  0.00     0.169 HD
BRANCH   9  13
HETATM   13  N1  UNL     1      30.214  53.054 247.189  1.00  0.00    -0.343 N 
ATOM     14  H12 UNL     1      30.277  53.685 247.988  1.00  0.00     0.176 HD
ATOM     15  H11 UNL     1      30.293  53.394 246.231  1.00  0.00     0.176 HD
ENDBRANCH   9  13
ENDBRANCH   5   7
ENDBRANCH   1   4
BRANCH   3  16
HETATM   16  C4  UNL     1      26.270  51.845 251.199  1.00  0.00     0.073 C 
BRANCH  16  17
HETATM   17  C5  UNL     1      26.678  51.656 252.618  1.00  0.00     0.181 C 
BRANCH  17  18
HETATM   18  O1  UNL     1      27.894  52.253 252.974  1.00  0.00    -0.351 OA
BRANCH  18  19
HETATM   19  C6  UNL     1      28.765  51.735 253.862  1.00  0.00     0.068 A 
HETATM   20  C7  UNL     1      29.924  52.339 254.232  1.00  0.00     0.037 A 
HETATM   21  C8  UNL     1      30.767  51.749 255.154  1.00  0.00     0.017 A 
HETATM   22  C9  UNL     1      30.453  50.540 255.714  1.00  0.00     0.002 A 
HETATM   23  C11 UNL     1      29.291  49.905 255.358  1.00  0.00     0.017 A 
HETATM   24  C12 UNL     1      28.454  50.500 254.441  1.00  0.00     0.037 A 
BRANCH  22  25
HETATM   25  C10 UNL     1      31.346  49.913 256.688  1.00  0.00     0.269 C 
HETATM   26  O2  UNL     1      30.918  49.032 257.459  1.00  0.00    -0.301 OA
ENDBRANCH  22  25
ENDBRANCH  18  19
ENDBRANCH  17  18
ENDBRANCH  16  17
ENDBRANCH   3  16
TORSDOF 8
ENDMDL
MODEL 2
REMARK VINA RESULT: -7.990641363      0.135      1.066
REMARK  8 active torsions:
REMARK  status: ('A' for Active; 'I' for Inactive)
REMARK    1  A    between atoms: N1_1  and  N2_4 
REMARK       I    between atoms: N2_4  and  C1_6 
REMARK    2  A    between atoms: N4_8  and  C2_10 
REMARK    3  A    between atoms: N5_11  and  N6_13 
REMARK    4  A    between atoms: C3_15  and  C4_16 
REMARK    5  A    between atoms: C4_16  and  C5_17 
REMARK    6  A    between atoms: C5_17  and  O1_18 
REMARK    7  A    between atoms: O1_18  and  C6_19 
REMARK    8  A    between atoms: C9_22  and  C10_23 
ROOT
HETATM    1  N6  UNL     1      26.839  49.765 250.225  1.00  0.00    -0.315 N 
ATOM      2  H6  UNL     1      26.345  48.962 249.836  1.00  0.00     0.185 HD
HETATM    3  C3  UNL     1      25.980  50.540 250.623  1.00  0.00     0.082 C 
ENDROOT
BRANCH   1   4
HETATM    4  N5  UNL     1      28.090  49.523 250.085  1.00  0.00    -0.297 N 
HETATM    5  C2  UNL     1      28.808  49.720 249.042  1.00  0.00     0.199 C 
ATOM      6  H5  UNL     1      28.568  49.129 250.895  1.00  0.00     0.187 HD
BRANCH   5   7
HETATM    7  N4  UNL     1      28.251  50.257 247.882  1.00  0.00    -0.324 N 
HETATM    8  C1  UNL     1      28.758  51.146 247.119  1.00  0.00     0.207 C 
HETATM    9  N2  UNL     1      30.024  51.713 247.388  1.00  0.00    -0.280 N 
HETATM   10  N3  UNL     1      28.017  51.565 245.961  1.00  0.00    -0.062 NA
ATOM     11  H2  UNL     1      30.786  51.139 247.747  1.00  0.00     0.189 HD
ATOM     12  H4  UNL     1      27.334  49.900 247.612  1.00  0.00     0.169 HD
BRANCH   9  13
HETATM   13  N1  UNL     1      30.208  53.071 247.152  1.00  0.00    -0.343 N 
ATOM     14  H12 UNL     1      29.400  53.668 246.976  1.00  0.00     0.176 HD
ATOM     15  H11 UNL     1      31.157  53.444 247.160  1.00  0.00     0.176 HD
ENDBRANCH   9  13
ENDBRANCH   5   7
ENDBRANCH   1   4
BRANCH   3  16
HETATM   16  C4  UNL     1      26.286  51.854 251.270  1.00  0.00     0.073 C 
BRANCH  16  17
HETATM   17  C5  UNL     1      26.660  51.650 252.696  1.00  0.00     0.181 C 
BRANCH  17  18
HETATM   18  O1  UNL     1      27.901  52.182 253.071  1.00  0.00    -0.351 OA
BRANCH  18  19
HETATM   19  C6  UNL     1      28.741  51.606 253.952  1.00  0.00     0.068 A 
HETATM   20  C7  UNL     1      28.513  50.410 254.554  1.00  0.00     0.037 A 
HETATM   21  C8  UNL     1      29.425  49.880 255.445  1.00  0.00     0.017 A 
HETATM   22  C9  UNL     1      30.580  50.550 255.744  1.00  0.00     0.002 A 
HETATM   23  C11 UNL     1      30.837  51.761 255.154  1.00  0.00     0.017 A 
HETATM   24  C12 UNL     1      29.925  52.283 254.265  1.00  0.00     0.037 A 
BRANCH  22  25
HETATM   25  C10 UNL     1      31.546  49.991 256.689  1.00  0.00     0.269 C 
HETATM   26  O2  UNL     1      31.285  48.942 257.310  1.00  0.00    -0.301 OA
ENDBRANCH  22  25
ENDBRANCH  18  19
ENDBRANCH  17  18
ENDBRANCH  16  17
ENDBRANCH   3  16
TORSDOF 8
ENDMDL
MODEL 3
REMARK VINA RESULT: -7.873662896      1.599      1.948
REMARK  8 active torsions:
REMARK  status: ('A' for Active; 'I' for Inactive)
REMARK    1  A    between atoms: N1_1  and  N2_4 
REMARK       I    between atoms: N2_4  and  C1_6 
REMARK    2  A    between atoms: N4_8  and  C2_10 
REMARK    3  A    between atoms: N5_11  and  N6_13 
REMARK    4  A    between atoms: C3_15  and  C4_16 
REMARK    5  A    between atoms: C4_16  and  C5_17 
REMARK    6  A    between atoms: C5_17  and  O1_18 
REMARK    7  A    between atoms: O1_18  and  C6_19 
REMARK    8  A    between atoms: C9_22  and  C10_23 
ROOT
HETATM    1  N6  UNL     1      26.851  49.382 249.962  1.00  0.00    -0.315 N 
ATOM      2  H6  UNL     1      26.467  48.438 250.008  1.00  0.00     0.185 HD
HETATM    3  C3  UNL     1      25.898  50.147 250.028  1.00  0.00     0.082 C 
ENDROOT
BRANCH   1   4
HETATM    4  N5  UNL     1      28.122  49.250 249.860  1.00  0.00    -0.297 N 
HETATM    5  C2  UNL     1      28.861  49.587 248.868  1.00  0.00     0.199 C 
ATOM      6  H5  UNL     1      28.598  48.830 250.657  1.00  0.00     0.187 HD
BRANCH   5   7
HETATM    7  N4  UNL     1      28.307  50.172 247.729  1.00  0.00    -0.324 N 
HETATM    8  C1  UNL     1      28.801  51.115 247.027  1.00  0.00     0.207 C 
HETATM    9  N2  UNL     1      30.045  51.703 247.348  1.00  0.00    -0.280 N 
HETATM   10  N3  UNL     1      28.066  51.577 245.880  1.00  0.00    -0.062 NA
ATOM     11  H2  UNL     1      30.817  51.132 247.689  1.00  0.00     0.189 HD
ATOM     12  H4  UNL     1      27.406  49.804 247.425  1.00  0.00     0.169 HD
BRANCH   9  13
HETATM   13  N1  UNL     1      30.193  53.076 247.190  1.00  0.00    -0.343 N 
ATOM     14  H12 UNL     1      29.460  53.614 246.727  1.00  0.00     0.176 HD
ATOM     15  H11 UNL     1      31.040  53.520 247.545  1.00  0.00     0.176 HD
ENDBRANCH   9  13
ENDBRANCH   5   7
ENDBRANCH   1   4
BRANCH   3  16
HETATM   16  C4  UNL     1      26.029  51.637 249.996  1.00  0.00     0.073 C 
BRANCH  16  17
HETATM   17  C5  UNL     1      26.328  52.156 251.358  1.00  0.00     0.181 C 
BRANCH  17  18
HETATM   18  O1  UNL     1      27.471  51.621 251.965  1.00  0.00    -0.351 OA
BRANCH  18  19
HETATM   19  C6  UNL     1      27.670  51.563 253.296  1.00  0.00     0.068 A 
HETATM   20  C7  UNL     1      28.364  50.576 253.920  1.00  0.00     0.037 A 
HETATM   21  C8  UNL     1      28.532  50.586 255.291  1.00  0.00     0.017 A 
HETATM   22  C9  UNL     1      27.998  51.591 256.053  1.00  0.00     0.002 A 
HETATM   23  C11 UNL     1      27.290  52.599 255.451  1.00  0.00     0.017 A 
HETATM   24  C12 UNL     1      27.129  52.584 254.085  1.00  0.00     0.037 A 
BRANCH  22  25
HETATM   25  C10 UNL     1      28.173  51.601 257.505  1.00  0.00     0.269 C 
HETATM   26  O2  UNL     1      27.293  51.126 258.249  1.00  0.00    -0.301 OA
ENDBRANCH  22  25
ENDBRANCH  18  19
ENDBRANCH  17  18
ENDBRANCH  16  17
ENDBRANCH   3  16
TORSDOF 8
ENDMDL
MODEL 4
REMARK VINA RESULT: -7.802395890      1.230      1.396
REMARK  8 active torsions:
REMARK  status: ('A' for Active; 'I' for Inactive)
REMARK    1  A    between atoms: N1_1  and  N2_4 
REMARK       I    between atoms: N2_4  and  C1_6 
REMARK    2  A    between atoms: N4_8  and  C2_10 
REMARK    3  A    between atoms: N5_11  and  N6_13 
REMARK    4  A    between atoms: C3_15  and  C4_16 
REMARK    5  A    between atoms: C4_16  and  C5_17 
REMARK    6  A    between atoms: C5_17  and  O1_18 
REMARK    7  A    between atoms: O1_18  and  C6_19 
REMARK    8  A    between atoms: C9_22  and  C10_23 
ROOT
HETATM    1  N6  UNL     1      26.834  49.384 249.966  1.00  0.00    -0.315 N 
ATOM      2  H6  UNL     1      26.462  48.435 249.990  1.00  0.00     0.185 HD
HETATM    3  C3  UNL     1      25.871  50.136 250.033  1.00  0.00     0.082 C 
ENDROOT
BRANCH   1   4
HETATM    4  N5  UNL     1      28.108  49.270 249.878  1.00  0.00    -0.297 N 
HETATM    5  C2  UNL     1      28.854  49.616 248.895  1.00  0.00     0.199 C 
ATOM      6  H5  UNL     1      28.582  48.857 250.681  1.00  0.00     0.187 HD
BRANCH   5   7
HETATM    7  N4  UNL     1      28.305  50.193 247.749  1.00  0.00    -0.324 N 
HETATM    8  C1  UNL     1      28.807  51.124 247.036  1.00  0.00     0.207 C 
HETATM    9  N2  UNL     1      30.055  51.705 247.351  1.00  0.00    -0.280 N 
HETATM   10  N3  UNL     1      28.076  51.578 245.884  1.00  0.00    -0.062 NA
ATOM     11  H2  UNL     1      30.823  51.131 247.699  1.00  0.00     0.189 HD
ATOM     12  H4  UNL     1      27.401  49.829 247.448  1.00  0.00     0.169 HD
BRANCH   9  13
HETATM   13  N1  UNL     1      30.214  53.075 247.177  1.00  0.00    -0.343 N 
ATOM     14  H12 UNL     1      29.905  53.514 246.310  1.00  0.00     0.176 HD
ATOM     15  H11 UNL     1      30.642  53.616 247.929  1.00  0.00     0.176 HD
ENDBRANCH   9  13
ENDBRANCH   5   7
ENDBRANCH   1   4
BRANCH   3  16
HETATM   16  C4  UNL     1      25.984  51.628 250.028  1.00  0.00     0.073 C 
BRANCH  16  17
HETATM   17  C5  UNL     1      26.317  52.122 251.391  1.00  0.00     0.181 C 
BRANCH  17  18
HETATM   18  O1  UNL     1      26.968  51.199 252.220  1.00  0.00    -0.351 OA
BRANCH  18  19
HETATM   19  C6  UNL     1      28.020  51.493 253.008  1.00  0.00     0.068 A 
HETATM   20  C7  UNL     1      28.848  52.551 252.812  1.00  0.00     0.037 A 
HETATM   21  C8  UNL     1      29.905  52.792 253.667  1.00  0.00     0.017 A 
HETATM   22  C9  UNL     1      30.145  51.966 254.732  1.00  0.00     0.002 A 
HETATM   23  C11 UNL     1      29.327  50.888 254.955  1.00  0.00     0.017 A 
HETATM   24  C12 UNL     1      28.273  50.656 254.100  1.00  0.00     0.037 A 
BRANCH  22  25
HETATM   25  C10 UNL     1      31.265  52.218 255.637  1.00  0.00     0.269 C 
HETATM   26  O2  UNL     1      32.359  51.647 255.460  1.00  0.00    -0.301 OA
ENDBRANCH  22  25
ENDBRANCH  18  19
ENDBRANCH  17  18
ENDBRANCH  16  17
ENDBRANCH   3  16
TORSDOF 8
ENDMDL
MODEL 5
REMARK VINA RESULT: -7.682663514      2.572      3.595
REMARK  8 active torsions:
REMARK  status: ('A' for Active; 'I' for Inactive)
REMARK    1  A    between atoms: N1_1  and  N2_4 
REMARK       I    between atoms: N2_4  and  C1_6 
REMARK    2  A    between atoms: N4_8  and  C2_10 
REMARK    3  A    between atoms: N5_11  and  N6_13 
REMARK    4  A    between atoms: C3_15  and  C4_16 
REMARK    5  A    between atoms: C4_16  and  C5_17 
REMARK    6  A    between atoms: C5_17  and  O1_18 
REMARK    7  A    between atoms: O1_18  and  C6_19 
REMARK    8  A    between atoms: C9_22  and  C10_23 
ROOT
HETATM    1  N6  UNL     1      26.688  49.367 249.915  1.00  0.00    -0.315 N 
ATOM      2  H6  UNL     1      26.337  48.446 249.653  1.00  0.00     0.185 HD
HETATM    3  C3  UNL     1      25.706  50.056 250.154  1.00  0.00     0.082 C 
ENDROOT
BRANCH   1   4
HETATM    4  N5  UNL     1      27.967  49.298 249.850  1.00  0.00    -0.297 N 
HETATM    5  C2  UNL     1      28.719  49.693 248.891  1.00  0.00     0.199 C 
ATOM      6  H5  UNL     1      28.438  48.883 250.653  1.00  0.00     0.187 HD
BRANCH   5   7
HETATM    7  N4  UNL     1      28.173  50.278 247.748  1.00  0.00    -0.324 N 
HETATM    8  C1  UNL     1      28.704  51.170 247.007  1.00  0.00     0.207 C 
HETATM    9  N2  UNL     1      29.987  51.692 247.283  1.00  0.00    -0.280 N 
HETATM   10  N3  UNL     1      27.969  51.643 245.864  1.00  0.00    -0.062 NA
ATOM     11  H2  UNL     1      30.733  51.085 247.622  1.00  0.00     0.189 HD
ATOM     12  H4  UNL     1      27.244  49.956 247.475  1.00  0.00     0.169 HD
BRANCH   9  13
HETATM   13  N1  UNL     1      30.212  53.049 247.081  1.00  0.00    -0.343 N 
ATOM     14  H12 UNL     1      30.344  53.404 246.134  1.00  0.00     0.176 HD
ATOM     15  H11 UNL     1      30.240  53.665 247.893  1.00  0.00     0.176 HD
ENDBRANCH   9  13
ENDBRANCH   5   7
ENDBRANCH   1   4
BRANCH   3  16
HETATM   16  C4  UNL     1      25.784  51.489 250.579  1.00  0.00     0.073 C 
BRANCH  16  17
HETATM   17  C5  UNL     1      26.480  51.599 251.890  1.00  0.00     0.181 C 
BRANCH  17  18
HETATM   18  O1  UNL     1      27.874  51.711 251.819  1.00  0.00    -0.351 OA
BRANCH  18  19
HETATM   19  C6  UNL     1      28.552  52.868 251.937  1.00  0.00     0.068 A 
HETATM   20  C7  UNL     1      28.250  54.002 251.254  1.00  0.00     0.037 A 
HETATM   21  C8  UNL     1      28.989  55.156 251.432  1.00  0.00     0.017 A 
HETATM   22  C9  UNL     1      30.048  55.180 252.299  1.00  0.00     0.002 A 
HETATM   23  C11 UNL     1      30.379  54.049 253.001  1.00  0.00     0.017 A 
HETATM   24  C12 UNL     1      29.636  52.905 252.821  1.00  0.00     0.037 A 
BRANCH  22  25
HETATM   25  C10 UNL     1      30.833  56.399 252.486  1.00  0.00     0.269 C 
HETATM   26  O2  UNL     1      32.079  56.351 252.496  1.00  0.00    -0.301 OA
ENDBRANCH  22  25
ENDBRANCH  18  19
ENDBRANCH  17  18
ENDBRANCH  16  17
ENDBRANCH   3  16
TORSDOF 8
ENDMDL
