MODEL 1
REMARK VINA RESULT: -7.563260195      0.000      0.000
REMARK  8 active torsions:
REMARK  status: ('A' for Active; 'I' for Inactive)
REMARK    1  A    between atoms: C1_4  and  C2_5 
REMARK    2  A    between atoms: C2_5  and  N2_6 
REMARK    3  A    between atoms: C2_5  and  C12_19 
REMARK       I    between atoms: N2_6  and  C3_8 
REMARK    4  A    between atoms: C3_8  and  C4_10 
REMARK    5  A    between atoms: C4_10  and  C5_12 
REMARK    6  A    between atoms: C5_12  and  C6_13 
REMARK    7  A    between atoms: C12_19  and  O3_20 
REMARK    8  A    between atoms: C12_19  and  C13_22 
ROOT
HETATM    1  N2  UNL     1      27.414   1.797 290.460  1.00  0.00    -0.342 N 
ATOM      2  H2  UNL     1      27.217   0.825 290.220  1.00  0.00     0.163 HD
HETATM    3  C3  UNL     1      26.591   2.803 289.903  1.00  0.00     0.288 C 
HETATM    4  O1  UNL     1      26.866   4.000 290.222  1.00  0.00    -0.264 OA
ENDROOT
BRANCH   1   5
HETATM    5  C2  UNL     1      28.520   2.070 291.352  1.00  0.00     0.160 C 
BRANCH   5   6
HETATM    6  C1  UNL     1      29.687   2.633 290.688  1.00  0.00     0.081 C 
HETATM    7  N1  UNL     1      29.878   3.829 290.327  1.00  0.00    -0.409 N 
ATOM      8  H12 UNL     1      29.109   4.466 290.533  1.00  0.00     0.155 HD
ATOM      9  H11 UNL     1      30.696   4.224 289.862  1.00  0.00     0.155 HD
ENDBRANCH   5   6
BRANCH   5  10
HETATM   10  C12 UNL     1      28.790   0.844 292.178  1.00  0.00     0.234 C 
BRANCH  10  11
HETATM   11  O3  UNL     1      30.085   0.409 292.151  1.00  0.00    -0.384 OA
ATOM     12  H3  UNL     1      30.192  -0.510 291.935  1.00  0.00     0.210 HD
ENDBRANCH  10  11
BRANCH  10  13
HETATM   13  C13 UNL     1      28.339   1.008 293.579  1.00  0.00     0.262 C 
HETATM   14  N3  UNL     1      29.078   0.401 294.615  1.00  0.00    -0.060 NA
HETATM   15  O4  UNL     1      27.319   1.669 293.871  1.00  0.00    -0.274 OA
ENDBRANCH  10  13
ENDBRANCH   5  10
ENDBRANCH   1   5
BRANCH   3  16
HETATM   16  C4  UNL     1      25.492   2.476 289.013  1.00  0.00     0.220 C 
HETATM   17  O2  UNL     1      24.540   3.288 288.916  1.00  0.00    -0.287 OA
BRANCH  16  18
HETATM   18  C5  UNL     1      25.447   1.244 288.224  1.00  0.00     0.127 C 
BRANCH  18  19
HETATM   19  C6  UNL     1      26.484   1.139 287.205  1.00  0.00    -0.051 A 
HETATM   20  C7  UNL     1      26.494   1.936 286.081  1.00  0.00     0.007 A 
HETATM   21  C8  UNL     1      27.492   1.810 285.137  1.00  0.00     0.001 A 
HETATM   22  C9  UNL     1      28.506   0.889 285.285  1.00  0.00     0.000 A 
HETATM   23  C10 UNL     1      28.505   0.091 286.399  1.00  0.00     0.001 A 
HETATM   24  C11 UNL     1      27.498   0.219 287.354  1.00  0.00     0.007 A 
ENDBRANCH  18  19
ENDBRANCH  16  18
ENDBRANCH   3  16
TORSDOF 8
ENDMDL
MODEL 2
REMARK VINA RESULT: -7.406822736      2.811      4.138
REMARK  8 active torsions:
REMARK  status: ('A' for Active; 'I' for Inactive)
REMARK    1  A    between atoms: C1_4  and  C2_5 
REMARK    2  A    between atoms: C2_5  and  N2_6 
REMARK    3  A    between atoms: C2_5  and  C12_19 
REMARK       I    between atoms: N2_6  and  C3_8 
REMARK    4  A    between atoms: C3_8  and  C4_10 
REMARK    5  A    between atoms: C4_10  and  C5_12 
REMARK    6  A    between atoms: C5_12  and  C6_13 
REMARK    7  A    between atoms: C12_19  and  O3_20 
REMARK    8  A    between atoms: C12_19  and  C13_22 
ROOT
HETATM    1  N2  UNL     1      27.540   2.660 287.960  1.00  0.00    -0.342 N 
ATOM      2  H2  UNL     1      27.701   3.492 287.392  1.00  0.00     0.163 HD
HETATM    3  C3  UNL     1      27.620   1.396 287.330  1.00  0.00     0.288 C 
HETATM    4  O1  UNL     1      27.413   0.384 288.066  1.00  0.00    -0.264 OA
ENDROOT
BRANCH   1   5
HETATM    5  C2  UNL     1      27.242   2.838 289.364  1.00  0.00     0.160 C 
BRANCH   5   6
HETATM    6  C1  UNL     1      25.925   3.405 289.619  1.00  0.00     0.081 C 
HETATM    7  N1  UNL     1      24.917   3.414 288.858  1.00  0.00    -0.409 N 
ATOM      8  H12 UNL     1      25.061   2.962 287.954  1.00  0.00     0.155 HD
ATOM      9  H11 UNL     1      23.995   3.812 289.037  1.00  0.00     0.155 HD
ENDBRANCH   5   6
BRANCH   5  10
HETATM   10  C12 UNL     1      28.384   3.566 290.014  1.00  0.00     0.234 C 
BRANCH  10  11
HETATM   11  O3  UNL     1      28.234   4.922 290.082  1.00  0.00    -0.384 OA
ATOM     12  H3  UNL     1      28.971   5.421 289.752  1.00  0.00     0.210 HD
ENDBRANCH  10  11
BRANCH  10  13
HETATM   13  C13 UNL     1      28.699   3.022 291.354  1.00  0.00     0.262 C 
HETATM   14  N3  UNL     1      29.865   2.248 291.526  1.00  0.00    -0.060 NA
HETATM   15  O4  UNL     1      27.960   3.229 292.341  1.00  0.00    -0.274 OA
ENDBRANCH  10  13
ENDBRANCH   5  10
ENDBRANCH   1   5
BRANCH   3  16
HETATM   16  C4  UNL     1      27.924   1.272 285.916  1.00  0.00     0.220 C 
HETATM   17  O2  UNL     1      28.851   0.501 285.569  1.00  0.00    -0.287 OA
BRANCH  16  18
HETATM   18  C5  UNL     1      27.196   2.005 284.879  1.00  0.00     0.127 C 
BRANCH  18  19
HETATM   19  C6  UNL     1      28.002   2.383 283.725  1.00  0.00    -0.051 A 
HETATM   20  C7  UNL     1      29.118   3.182 283.839  1.00  0.00     0.007 A 
HETATM   21  C8  UNL     1      29.859   3.520 282.724  1.00  0.00     0.001 A 
HETATM   22  C9  UNL     1      29.509   3.072 281.470  1.00  0.00     0.000 A 
HETATM   23  C10 UNL     1      28.400   2.276 281.346  1.00  0.00     0.001 A 
HETATM   24  C11 UNL     1      27.652   1.934 282.471  1.00  0.00     0.007 A 
ENDBRANCH  18  19
ENDBRANCH  16  18
ENDBRANCH   3  16
TORSDOF 8
ENDMDL
MODEL 3
REMARK VINA RESULT: -7.388823334      2.813      4.118
REMARK  8 active torsions:
REMARK  status: ('A' for Active; 'I' for Inactive)
REMARK    1  A    between atoms: C1_4  and  C2_5 
REMARK    2  A    between atoms: C2_5  and  N2_6 
REMARK    3  A    between atoms: C2_5  and  C12_19 
REMARK       I    between atoms: N2_6  and  C3_8 
REMARK    4  A    between atoms: C3_8  and  C4_10 
REMARK    5  A    between atoms: C4_10  and  C5_12 
REMARK    6  A    between atoms: C5_12  and  C6_13 
REMARK    7  A    between atoms: C12_19  and  O3_20 
REMARK    8  A    between atoms: C12_19  and  C13_22 
ROOT
HETATM    1  N2  UNL     1      27.548   2.671 287.952  1.00  0.00    -0.342 N 
ATOM      2  H2  UNL     1      27.735   3.503 287.393  1.00  0.00     0.163 HD
HETATM    3  C3  UNL     1      27.597   1.411 287.312  1.00  0.00     0.288 C 
HETATM    4  O1  UNL     1      27.358   0.399 288.038  1.00  0.00    -0.264 OA
ENDROOT
BRANCH   1   5
HETATM    5  C2  UNL     1      27.248   2.845 289.357  1.00  0.00     0.160 C 
BRANCH   5   6
HETATM    6  C1  UNL     1      25.930   3.409 289.612  1.00  0.00     0.081 C 
HETATM    7  N1  UNL     1      24.913   3.389 288.862  1.00  0.00    -0.409 N 
ATOM      8  H12 UNL     1      25.051   2.915 287.969  1.00  0.00     0.155 HD
ATOM      9  H11 UNL     1      23.990   3.784 289.041  1.00  0.00     0.155 HD
ENDBRANCH   5   6
BRANCH   5  10
HETATM   10  C12 UNL     1      28.387   3.575 290.010  1.00  0.00     0.234 C 
BRANCH  10  11
HETATM   11  O3  UNL     1      28.230   4.929 290.090  1.00  0.00    -0.384 OA
ATOM     12  H3  UNL     1      27.835   5.238 290.897  1.00  0.00     0.210 HD
ENDBRANCH  10  11
BRANCH  10  13
HETATM   13  C13 UNL     1      28.710   3.021 291.344  1.00  0.00     0.262 C 
HETATM   14  N3  UNL     1      29.870   2.235 291.501  1.00  0.00    -0.060 NA
HETATM   15  O4  UNL     1      27.983   3.231 292.340  1.00  0.00    -0.274 OA
ENDBRANCH  10  13
ENDBRANCH   5  10
ENDBRANCH   1   5
BRANCH   3  16
HETATM   16  C4  UNL     1      27.904   1.291 285.898  1.00  0.00     0.220 C 
HETATM   17  O2  UNL     1      28.810   0.496 285.549  1.00  0.00    -0.287 OA
BRANCH  16  18
HETATM   18  C5  UNL     1      27.203   2.054 284.865  1.00  0.00     0.127 C 
BRANCH  18  19
HETATM   19  C6  UNL     1      28.018   2.394 283.705  1.00  0.00    -0.051 A 
HETATM   20  C7  UNL     1      27.721   1.941 282.439  1.00  0.00     0.007 A 
HETATM   21  C8  UNL     1      28.514   2.284 281.364  1.00  0.00     0.001 A 
HETATM   22  C9  UNL     1      29.623   3.086 281.519  1.00  0.00     0.000 A 
HETATM   23  C10 UNL     1      29.928   3.542 282.775  1.00  0.00     0.001 A 
HETATM   24  C11 UNL     1      29.126   3.197 283.861  1.00  0.00     0.007 A 
ENDBRANCH  18  19
ENDBRANCH  16  18
ENDBRANCH   3  16
TORSDOF 8
ENDMDL
MODEL 4
REMARK VINA RESULT: -7.354515064      1.141      1.515
REMARK  8 active torsions:
REMARK  status: ('A' for Active; 'I' for Inactive)
REMARK    1  A    between atoms: C1_4  and  C2_5 
REMARK    2  A    between atoms: C2_5  and  N2_6 
REMARK    3  A    between atoms: C2_5  and  C12_19 
REMARK       I    between atoms: N2_6  and  C3_8 
REMARK    4  A    between atoms: C3_8  and  C4_10 
REMARK    5  A    between atoms: C4_10  and  C5_12 
REMARK    6  A    between atoms: C5_12  and  C6_13 
REMARK    7  A    between atoms: C12_19  and  O3_20 
REMARK    8  A    between atoms: C12_19  and  C13_22 
ROOT
HETATM    1  N2  UNL     1      27.708   1.181 289.953  1.00  0.00    -0.342 N 
ATOM      2  H2  UNL     1      28.065   0.287 289.614  1.00  0.00     0.163 HD
HETATM    3  C3  UNL     1      26.632   1.777 289.256  1.00  0.00     0.288 C 
HETATM    4  O1  UNL     1      26.215   2.889 289.705  1.00  0.00    -0.264 OA
ENDROOT
BRANCH   1   5
HETATM    5  C2  UNL     1      28.331   1.767 291.119  1.00  0.00     0.160 C 
BRANCH   5   6
HETATM    6  C1  UNL     1      29.416   2.687 290.808  1.00  0.00     0.081 C 
HETATM    7  N1  UNL     1      29.342   3.833 290.280  1.00  0.00    -0.409 N 
ATOM      8  H12 UNL     1      28.395   4.136 290.049  1.00  0.00     0.155 HD
ATOM      9  H11 UNL     1      30.102   4.477 290.062  1.00  0.00     0.155 HD
ENDBRANCH   5   6
BRANCH   5  10
HETATM   10  C12 UNL     1      28.686   0.670 292.083  1.00  0.00     0.234 C 
BRANCH  10  11
HETATM   11  O3  UNL     1      29.989   0.264 292.034  1.00  0.00    -0.384 OA
ATOM     12  H3  UNL     1      30.205  -0.453 292.619  1.00  0.00     0.210 HD
ENDBRANCH  10  11
BRANCH  10  13
HETATM   13  C13 UNL     1      28.311   1.010 293.474  1.00  0.00     0.262 C 
HETATM   14  N3  UNL     1      29.037   0.440 294.541  1.00  0.00    -0.060 NA
HETATM   15  O4  UNL     1      27.368   1.789 293.733  1.00  0.00    -0.274 OA
ENDBRANCH  10  13
ENDBRANCH   5  10
ENDBRANCH   1   5
BRANCH   3  16
HETATM   16  C4  UNL     1      26.041   1.147 288.090  1.00  0.00     0.220 C 
HETATM   17  O2  UNL     1      24.837   1.386 287.827  1.00  0.00    -0.287 OA
BRANCH  16  18
HETATM   18  C5  UNL     1      26.787   0.248 287.209  1.00  0.00     0.127 C 
BRANCH  18  19
HETATM   19  C6  UNL     1      27.031   0.774 285.872  1.00  0.00    -0.051 A 
HETATM   20  C7  UNL     1      27.639   1.992 285.661  1.00  0.00     0.007 A 
HETATM   21  C8  UNL     1      27.855   2.459 284.380  1.00  0.00     0.001 A 
HETATM   22  C9  UNL     1      27.473   1.727 283.278  1.00  0.00     0.000 A 
HETATM   23  C10 UNL     1      26.867   0.514 283.476  1.00  0.00     0.001 A 
HETATM   24  C11 UNL     1      26.649   0.042 284.770  1.00  0.00     0.007 A 
ENDBRANCH  18  19
ENDBRANCH  16  18
ENDBRANCH   3  16
TORSDOF 8
ENDMDL
MODEL 5
REMARK VINA RESULT: -7.296922732      1.748      2.386
REMARK  8 active torsions:
REMARK  status: ('A' for Active; 'I' for Inactive)
REMARK    1  A    between atoms: C1_4  and  C2_5 
REMARK    2  A    between atoms: C2_5  and  N2_6 
REMARK    3  A    between atoms: C2_5  and  C12_19 
REMARK       I    between atoms: N2_6  and  C3_8 
REMARK    4  A    between atoms: C3_8  and  C4_10 
REMARK    5  A    between atoms: C4_10  and  C5_12 
REMARK    6  A    between atoms: C5_12  and  C6_13 
REMARK    7  A    between atoms: C12_19  and  O3_20 
REMARK    8  A    between atoms: C12_19  and  C13_22 
ROOT
HETATM    1  N2  UNL     1      28.532   1.009 289.651  1.00  0.00    -0.342 N 
ATOM      2  H2  UNL     1      29.393   0.466 289.579  1.00  0.00     0.163 HD
HETATM    3  C3  UNL     1      27.410   0.584 288.904  1.00  0.00     0.288 C 
HETATM    4  O1  UNL     1      26.357   1.284 289.017  1.00  0.00    -0.264 OA
ENDROOT
BRANCH   1   5
HETATM    5  C2  UNL     1      28.528   2.172 290.512  1.00  0.00     0.160 C 
BRANCH   5   6
HETATM    6  C1  UNL     1      29.004   3.386 289.864  1.00  0.00     0.081 C 
HETATM    7  N1  UNL     1      28.553   4.561 289.980  1.00  0.00    -0.409 N 
ATOM      8  H12 UNL     1      27.757   4.653 290.610  1.00  0.00     0.155 HD
ATOM      9  H11 UNL     1      28.887   5.412 289.526  1.00  0.00     0.155 HD
ENDBRANCH   5   6
BRANCH   5  10
HETATM   10  C12 UNL     1      29.222   1.826 291.798  1.00  0.00     0.234 C 
BRANCH  10  11
HETATM   11  O3  UNL     1      29.832   2.877 292.421  1.00  0.00    -0.384 OA
ATOM     12  H3  UNL     1      30.392   3.402 291.862  1.00  0.00     0.210 HD
ENDBRANCH  10  11
BRANCH  10  13
HETATM   13  C13 UNL     1      28.322   1.128 292.745  1.00  0.00     0.262 C 
HETATM   14  N3  UNL     1      28.727   0.965 294.086  1.00  0.00    -0.060 NA
HETATM   15  O4  UNL     1      27.212   0.677 292.389  1.00  0.00    -0.274 OA
ENDBRANCH  10  13
ENDBRANCH   5  10
ENDBRANCH   1   5
BRANCH   3  16
HETATM   16  C4  UNL     1      27.465  -0.592 288.055  1.00  0.00     0.220 C 
HETATM   17  O2  UNL     1      27.978  -1.640 288.518  1.00  0.00    -0.287 OA
BRANCH  16  18
HETATM   18  C5  UNL     1      26.950  -0.608 286.686  1.00  0.00     0.127 C 
BRANCH  18  19
HETATM   19  C6  UNL     1      27.582   0.352 285.789  1.00  0.00    -0.051 A 
HETATM   20  C7  UNL     1      26.942   1.498 285.371  1.00  0.00     0.007 A 
HETATM   21  C8  UNL     1      27.571   2.386 284.522  1.00  0.00     0.001 A 
HETATM   22  C9  UNL     1      28.851   2.157 284.068  1.00  0.00     0.000 A 
HETATM   23  C10 UNL     1      29.496   1.020 284.477  1.00  0.00     0.001 A 
HETATM   24  C11 UNL     1      28.862   0.123 285.335  1.00  0.00     0.007 A 
ENDBRANCH  18  19
ENDBRANCH  16  18
ENDBRANCH   3  16
TORSDOF 8
ENDMDL
