MODEL 1
REMARK VINA RESULT: -8.110768986      0.000      0.000
REMARK  9 active torsions:
REMARK  status: ('A' for Active; 'I' for Inactive)
REMARK    1  A    between atoms: C5_5  and  C6_6 
REMARK    2  A    between atoms: C6_6  and  N1_7 
REMARK    3  A    between atoms: C7_8  and  C8_9 
REMARK    4  A    between atoms: C12_15  and  N3_16 
REMARK    5  A    between atoms: C18_25  and  N5_26 
REMARK    6  A    between atoms: C23_31  and  C24_32 
REMARK    7  A    between atoms: C24_32  and  O2_33 
REMARK    8  A    between atoms: C24_32  and  C25_35 
REMARK    9  A    between atoms: C25_35  and  O3_36 
ROOT
HETATM    1  N1  UNL     1      -6.258 -35.266  23.606  1.00  0.00    -0.320 N 
HETATM    2  C7  UNL     1      -6.798 -36.281  22.867  1.00  0.00     0.089 A 
HETATM    3  N2  UNL     1      -7.966 -35.844  22.376  1.00  0.00    -0.339 N 
ATOM      4  H2  UNL     1      -8.597 -36.385  21.785  1.00  0.00     0.167 HD
HETATM    5  C11 UNL     1      -8.180 -34.573  22.788  1.00  0.00     0.124 A 
HETATM    6  C12 UNL     1      -9.175 -33.646  22.610  1.00  0.00     0.150 A 
HETATM    7  N4  UNL     1      -9.104 -32.436  23.165  1.00  0.00    -0.174 N 
ATOM      8  H4  UNL     1      -9.866 -31.777  23.006  1.00  0.00     0.186 HD
HETATM    9  C18 UNL     1      -8.053 -32.050  23.935  1.00  0.00     0.684 A 
HETATM   10  N6  UNL     1      -7.095 -32.981  24.091  1.00  0.00    -0.174 N 
ATOM     11  H6  UNL     1      -6.291 -32.724  24.663  1.00  0.00     0.186 HD
HETATM   12  C26 UNL     1      -7.095 -34.213  23.566  1.00  0.00     0.155 A 
ENDROOT
BRANCH   9  13
HETATM   13  N5  UNL     1      -7.978 -30.768  24.530  1.00  0.00    -0.206 N 
HETATM   14  C19 UNL     1      -8.719 -29.623  24.140  1.00  0.00     0.098 C 
HETATM   15  C20 UNL     1     -10.037 -29.934  23.467  1.00  0.00     0.033 C 
HETATM   16  C21 UNL     1      -8.999 -28.860  25.402  1.00  0.00     0.027 C 
HETATM   17  C22 UNL     1      -7.984 -29.436  26.376  1.00  0.00     0.030 C 
HETATM   18  C23 UNL     1      -7.133 -30.405  25.631  1.00  0.00     0.133 C 
BRANCH  18  19
HETATM   19  C24 UNL     1      -5.789 -29.898  25.233  1.00  0.00     0.165 C 
BRANCH  19  20
HETATM   20  O2  UNL     1      -5.584 -28.544  25.418  1.00  0.00    -0.391 OA
ATOM     21  H2  UNL     1      -4.936 -28.313  26.074  1.00  0.00     0.210 HD
ENDBRANCH  19  20
BRANCH  19  22
HETATM   22  C25 UNL     1      -4.621 -30.659  25.789  1.00  0.00     0.197 C 
BRANCH  22  23
HETATM   23  O3  UNL     1      -4.281 -30.359  27.083  1.00  0.00    -0.398 OA
ATOM     24  H3  UNL     1      -3.702 -30.980  27.508  1.00  0.00     0.209 HD
ENDBRANCH  22  23
ENDBRANCH  19  22
ENDBRANCH  18  19
ENDBRANCH   9  13
BRANCH   6  25
HETATM   25  N3  UNL     1     -10.297 -33.989  21.824  1.00  0.00    -0.356 N 
HETATM   26  C13 UNL     1     -11.276 -34.946  22.364  1.00  0.00     0.151 C 
HETATM   27  C14 UNL     1     -12.677 -34.397  22.132  1.00  0.00     0.187 C 
HETATM   28  O1  UNL     1     -12.841 -34.216  20.767  1.00  0.00    -0.388 OA
HETATM   29  C15 UNL     1     -12.051 -33.128  20.387  1.00  0.00     0.192 C 
HETATM   30  C16 UNL     1     -10.568 -33.474  20.512  1.00  0.00     0.105 C 
HETATM   31  C17 UNL     1      -9.792 -32.223  20.186  1.00  0.00     0.034 C 
ENDBRANCH   6  25
BRANCH   1  32
HETATM   32  C6  UNL     1      -5.021 -35.346  24.306  1.00  0.00     0.136 C 
BRANCH  32  33
HETATM   33  C5  UNL     1      -3.862 -34.607  23.690  1.00  0.00     0.004 C 
HETATM   34  C4  UNL     1      -3.193 -35.552  22.716  1.00  0.00     0.006 C 
HETATM   35  C3  UNL     1      -1.695 -35.615  22.932  1.00  0.00     0.005 C 
HETATM   36  C2  UNL     1      -1.205 -34.182  22.813  1.00  0.00    -0.019 C 
HETATM   37  C1  UNL     1      -1.674 -33.534  21.539  1.00  0.00     0.010 C 
HETATM   38  C28 UNL     1      -1.636 -33.484  24.054  1.00  0.00     0.005 C 
HETATM   39  C27 UNL     1      -2.919 -33.982  24.658  1.00  0.00     0.006 C 
ENDBRANCH  32  33
ENDBRANCH   1  32
BRANCH   2  40
HETATM   40  C8  UNL     1      -6.249 -37.638  22.612  1.00  0.00     0.054 A 
HETATM   41  C9  UNL     1      -5.607 -37.924  21.278  1.00  0.00     0.013 A 
HETATM   42  C10 UNL     1      -6.907 -38.540  21.664  1.00  0.00     0.013 A 
ENDBRANCH   2  40
TORSDOF 9
ENDMDL
MODEL 2
REMARK VINA RESULT: -7.955470016      5.716      9.627
REMARK  9 active torsions:
REMARK  status: ('A' for Active; 'I' for Inactive)
REMARK    1  A    between atoms: C5_5  and  C6_6 
REMARK    2  A    between atoms: C6_6  and  N1_7 
REMARK    3  A    between atoms: C7_8  and  C8_9 
REMARK    4  A    between atoms: C12_15  and  N3_16 
REMARK    5  A    between atoms: C18_25  and  N5_26 
REMARK    6  A    between atoms: C23_31  and  C24_32 
REMARK    7  A    between atoms: C24_32  and  O2_33 
REMARK    8  A    between atoms: C24_32  and  C25_35 
REMARK    9  A    between atoms: C25_35  and  O3_36 
ROOT
HETATM    1  N1  UNL     1     -11.886 -34.113  20.391  1.00  0.00    -0.320 N 
HETATM    2  C7  UNL     1     -11.144 -35.107  20.966  1.00  0.00     0.089 A 
HETATM    3  N2  UNL     1     -11.882 -36.226  20.942  1.00  0.00    -0.339 N 
ATOM      4  H2  UNL     1     -11.589 -37.134  21.303  1.00  0.00     0.167 HD
HETATM    5  C11 UNL     1     -13.078 -35.964  20.365  1.00  0.00     0.124 A 
HETATM    6  C12 UNL     1     -14.202 -36.695  20.081  1.00  0.00     0.150 A 
HETATM    7  N4  UNL     1     -15.260 -36.139  19.490  1.00  0.00    -0.174 N 
ATOM      8  H4  UNL     1     -16.076 -36.720  19.296  1.00  0.00     0.186 HD
HETATM    9  C18 UNL     1     -15.290 -34.828  19.138  1.00  0.00     0.684 A 
HETATM   10  N6  UNL     1     -14.173 -34.139  19.430  1.00  0.00    -0.174 N 
ATOM     11  H6  UNL     1     -14.162 -33.150  19.178  1.00  0.00     0.186 HD
HETATM   12  C26 UNL     1     -13.074 -34.625  20.019  1.00  0.00     0.155 A 
ENDROOT
BRANCH   9  13
HETATM   13  N5  UNL     1     -16.414 -34.234  18.515  1.00  0.00    -0.206 N 
HETATM   14  C19 UNL     1     -16.406 -33.511  17.294  1.00  0.00     0.098 C 
HETATM   15  C20 UNL     1     -15.286 -33.893  16.352  1.00  0.00     0.033 C 
HETATM   16  C21 UNL     1     -17.715 -33.815  16.624  1.00  0.00     0.027 C 
HETATM   17  C22 UNL     1     -18.560 -34.357  17.764  1.00  0.00     0.030 C 
HETATM   18  C23 UNL     1     -17.759 -34.258  19.015  1.00  0.00     0.133 C 
BRANCH  18  19
HETATM   19  C24 UNL     1     -18.103 -33.113  19.905  1.00  0.00     0.165 C 
BRANCH  19  20
HETATM   20  O2  UNL     1     -17.214 -32.054  19.885  1.00  0.00    -0.391 OA
ATOM     21  H2  UNL     1     -17.097 -31.601  20.712  1.00  0.00     0.210 HD
ENDBRANCH  19  20
BRANCH  19  22
HETATM   22  C25 UNL     1     -19.503 -32.588  19.771  1.00  0.00     0.197 C 
BRANCH  22  23
HETATM   23  O3  UNL     1     -19.613 -31.234  19.590  1.00  0.00    -0.398 OA
ATOM     24  H3  UNL     1     -19.755 -30.726  20.380  1.00  0.00     0.209 HD
ENDBRANCH  22  23
ENDBRANCH  19  22
ENDBRANCH  18  19
ENDBRANCH   9  13
BRANCH   6  25
HETATM   25  N3  UNL     1     -14.235 -38.063  20.428  1.00  0.00    -0.356 N 
HETATM   26  C13 UNL     1     -13.587 -39.038  19.536  1.00  0.00     0.151 C 
HETATM   27  C14 UNL     1     -12.747 -39.989  20.378  1.00  0.00     0.187 C 
HETATM   28  O1  UNL     1     -13.592 -40.611  21.284  1.00  0.00    -0.388 OA
HETATM   29  C15 UNL     1     -13.967 -39.659  22.235  1.00  0.00     0.192 C 
HETATM   30  C16 UNL     1     -14.865 -38.597  21.602  1.00  0.00     0.105 C 
HETATM   31  C17 UNL     1     -15.138 -37.559  22.662  1.00  0.00     0.034 C 
ENDBRANCH   6  25
BRANCH   1  32
HETATM   32  C6  UNL     1     -11.454 -32.765  20.243  1.00  0.00     0.136 C 
BRANCH  32  33
HETATM   33  C5  UNL     1     -11.937 -31.797  21.291  1.00  0.00     0.004 C 
HETATM   34  C4  UNL     1     -11.586 -30.405  20.812  1.00  0.00     0.006 C 
HETATM   35  C3  UNL     1     -10.875 -29.603  21.882  1.00  0.00     0.005 C 
HETATM   36  C2  UNL     1     -11.808 -29.609  23.082  1.00  0.00    -0.019 C 
HETATM   37  C1  UNL     1     -13.195 -29.159  22.714  1.00  0.00     0.010 C 
HETATM   38  C28 UNL     1     -11.737 -30.976  23.665  1.00  0.00     0.005 C 
HETATM   39  C27 UNL     1     -11.480 -32.081  22.679  1.00  0.00     0.006 C 
ENDBRANCH  32  33
ENDBRANCH   1  32
BRANCH   2  40
HETATM   40  C8  UNL     1      -9.772 -35.033  21.531  1.00  0.00     0.054 A 
HETATM   41  C9  UNL     1      -8.613 -35.510  20.693  1.00  0.00     0.013 A 
HETATM   42  C10 UNL     1      -9.055 -36.254  21.904  1.00  0.00     0.013 A 
ENDBRANCH   2  40
TORSDOF 9
ENDMDL
MODEL 3
REMARK VINA RESULT: -7.945856211      5.588      9.534
REMARK  9 active torsions:
REMARK  status: ('A' for Active; 'I' for Inactive)
REMARK    1  A    between atoms: C5_5  and  C6_6 
REMARK    2  A    between atoms: C6_6  and  N1_7 
REMARK    3  A    between atoms: C7_8  and  C8_9 
REMARK    4  A    between atoms: C12_15  and  N3_16 
REMARK    5  A    between atoms: C18_25  and  N5_26 
REMARK    6  A    between atoms: C23_31  and  C24_32 
REMARK    7  A    between atoms: C24_32  and  O2_33 
REMARK    8  A    between atoms: C24_32  and  C25_35 
REMARK    9  A    between atoms: C25_35  and  O3_36 
ROOT
HETATM    1  N1  UNL     1     -11.869 -33.977  20.405  1.00  0.00    -0.320 N 
HETATM    2  C7  UNL     1     -11.140 -34.906  21.094  1.00  0.00     0.089 A 
HETATM    3  N2  UNL     1     -11.900 -36.004  21.215  1.00  0.00    -0.339 N 
ATOM      4  H2  UNL     1     -11.620 -36.866  21.684  1.00  0.00     0.167 HD
HETATM    5  C11 UNL     1     -13.096 -35.793  20.618  1.00  0.00     0.124 A 
HETATM    6  C12 UNL     1     -14.236 -36.532  20.436  1.00  0.00     0.150 A 
HETATM    7  N4  UNL     1     -15.289 -36.033  19.788  1.00  0.00    -0.174 N 
ATOM      8  H4  UNL     1     -16.118 -36.617  19.674  1.00  0.00     0.186 HD
HETATM    9  C18 UNL     1     -15.298 -34.775  19.274  1.00  0.00     0.684 A 
HETATM   10  N6  UNL     1     -14.166 -34.077  19.470  1.00  0.00    -0.174 N 
ATOM     11  H6  UNL     1     -14.138 -33.128  19.097  1.00  0.00     0.186 HD
HETATM   12  C26 UNL     1     -13.070 -34.508  20.108  1.00  0.00     0.155 A 
ENDROOT
BRANCH   9  13
HETATM   13  N5  UNL     1     -16.417 -34.242  18.591  1.00  0.00    -0.206 N 
HETATM   14  C19 UNL     1     -16.389 -33.577  17.337  1.00  0.00     0.098 C 
HETATM   15  C20 UNL     1     -15.230 -33.972  16.449  1.00  0.00     0.033 C 
HETATM   16  C21 UNL     1     -17.668 -33.946  16.643  1.00  0.00     0.027 C 
HETATM   17  C22 UNL     1     -18.534 -34.457  17.782  1.00  0.00     0.030 C 
HETATM   18  C23 UNL     1     -17.775 -34.278  19.051  1.00  0.00     0.133 C 
BRANCH  18  19
HETATM   19  C24 UNL     1     -18.177 -33.102  19.874  1.00  0.00     0.165 C 
BRANCH  19  20
HETATM   20  O2  UNL     1     -17.282 -32.049  19.884  1.00  0.00    -0.391 OA
ATOM     21  H2  UNL     1     -17.551 -31.277  19.398  1.00  0.00     0.210 HD
ENDBRANCH  19  20
BRANCH  19  22
HETATM   22  C25 UNL     1     -19.560 -32.578  19.621  1.00  0.00     0.197 C 
BRANCH  22  23
HETATM   23  O3  UNL     1     -19.676 -31.213  19.577  1.00  0.00    -0.398 OA
ATOM     24  H3  UNL     1     -19.851 -30.844  18.719  1.00  0.00     0.209 HD
ENDBRANCH  22  23
ENDBRANCH  19  22
ENDBRANCH  18  19
ENDBRANCH   9  13
BRANCH   6  25
HETATM   25  N3  UNL     1     -14.291 -37.845  20.951  1.00  0.00    -0.356 N 
HETATM   26  C13 UNL     1     -15.095 -38.101  22.157  1.00  0.00     0.151 C 
HETATM   27  C14 UNL     1     -15.938 -39.348  21.928  1.00  0.00     0.187 C 
HETATM   28  O1  UNL     1     -15.075 -40.399  21.658  1.00  0.00    -0.388 OA
HETATM   29  C15 UNL     1     -14.539 -40.190  20.385  1.00  0.00     0.192 C 
HETATM   30  C16 UNL     1     -13.611 -38.976  20.389  1.00  0.00     0.105 C 
HETATM   31  C17 UNL     1     -13.160 -38.759  18.966  1.00  0.00     0.034 C 
ENDBRANCH   6  25
BRANCH   1  32
HETATM   32  C6  UNL     1     -11.414 -32.667  20.087  1.00  0.00     0.136 C 
BRANCH  32  33
HETATM   33  C5  UNL     1     -11.110 -31.769  21.257  1.00  0.00     0.004 C 
HETATM   34  C4  UNL     1     -12.434 -31.293  21.814  1.00  0.00     0.006 C 
HETATM   35  C3  UNL     1     -12.461 -29.790  21.997  1.00  0.00     0.005 C 
HETATM   36  C2  UNL     1     -11.280 -29.468  22.896  1.00  0.00    -0.019 C 
HETATM   37  C1  UNL     1     -11.289 -30.298  24.151  1.00  0.00     0.010 C 
HETATM   38  C28 UNL     1     -10.058 -29.625  22.061  1.00  0.00     0.005 C 
HETATM   39  C27 UNL     1     -10.150 -30.666  20.981  1.00  0.00     0.006 C 
ENDBRANCH  32  33
ENDBRANCH   1  32
BRANCH   2  40
HETATM   40  C8  UNL     1      -9.762 -34.789  21.635  1.00  0.00     0.054 A 
HETATM   41  C9  UNL     1      -8.632 -35.468  20.903  1.00  0.00     0.013 A 
HETATM   42  C10 UNL     1      -9.097 -35.949  22.233  1.00  0.00     0.013 A 
ENDBRANCH   2  40
TORSDOF 9
ENDMDL
MODEL 4
REMARK VINA RESULT: -7.868864039      3.811      7.297
REMARK  9 active torsions:
REMARK  status: ('A' for Active; 'I' for Inactive)
REMARK    1  A    between atoms: C5_5  and  C6_6 
REMARK    2  A    between atoms: C6_6  and  N1_7 
REMARK    3  A    between atoms: C7_8  and  C8_9 
REMARK    4  A    between atoms: C12_15  and  N3_16 
REMARK    5  A    between atoms: C18_25  and  N5_26 
REMARK    6  A    between atoms: C23_31  and  C24_32 
REMARK    7  A    between atoms: C24_32  and  O2_33 
REMARK    8  A    between atoms: C24_32  and  C25_35 
REMARK    9  A    between atoms: C25_35  and  O3_36 
ROOT
HETATM    1  N1  UNL     1     -10.388 -31.969  21.902  1.00  0.00    -0.320 N 
HETATM    2  C7  UNL     1     -11.679 -31.524  21.847  1.00  0.00     0.089 A 
HETATM    3  N2  UNL     1     -12.467 -32.595  21.681  1.00  0.00    -0.339 N 
ATOM      4  H2  UNL     1     -13.484 -32.573  21.606  1.00  0.00     0.167 HD
HETATM    5  C11 UNL     1     -11.704 -33.712  21.629  1.00  0.00     0.124 A 
HETATM    6  C12 UNL     1     -11.950 -35.052  21.472  1.00  0.00     0.150 A 
HETATM    7  N4  UNL     1     -10.957 -35.941  21.456  1.00  0.00    -0.174 N 
ATOM      8  H4  UNL     1     -11.184 -36.929  21.338  1.00  0.00     0.186 HD
HETATM    9  C18 UNL     1      -9.654 -35.580  21.590  1.00  0.00     0.684 A 
HETATM   10  N6  UNL     1      -9.448 -34.260  21.741  1.00  0.00    -0.174 N 
ATOM     11  H6  UNL     1      -8.480 -33.953  21.845  1.00  0.00     0.186 HD
HETATM   12  C26 UNL     1     -10.389 -33.309  21.769  1.00  0.00     0.155 A 
ENDROOT
BRANCH   9  13
HETATM   13  N5  UNL     1      -8.598 -36.521  21.567  1.00  0.00    -0.206 N 
HETATM   14  C19 UNL     1      -8.101 -37.190  20.418  1.00  0.00     0.098 C 
HETATM   15  C20 UNL     1      -8.311 -36.440  19.122  1.00  0.00     0.033 C 
HETATM   16  C21 UNL     1      -6.625 -37.353  20.640  1.00  0.00     0.027 C 
HETATM   17  C22 UNL     1      -6.483 -37.143  22.137  1.00  0.00     0.030 C 
HETATM   18  C23 UNL     1      -7.848 -36.966  22.707  1.00  0.00     0.133 C 
BRANCH  18  19
HETATM   19  C24 UNL     1      -8.416 -38.165  23.386  1.00  0.00     0.165 C 
BRANCH  19  20
HETATM   20  O2  UNL     1      -9.766 -38.382  23.181  1.00  0.00    -0.391 OA
ATOM     21  H2  UNL     1     -10.169 -39.027  23.751  1.00  0.00     0.210 HD
ENDBRANCH  19  20
BRANCH  19  22
HETATM   22  C25 UNL     1      -7.667 -39.447  23.168  1.00  0.00     0.197 C 
BRANCH  22  23
HETATM   23  O3  UNL     1      -7.848 -40.408  24.129  1.00  0.00    -0.398 OA
ATOM     24  H3  UNL     1      -7.306 -41.183  24.040  1.00  0.00     0.209 HD
ENDBRANCH  22  23
ENDBRANCH  19  22
ENDBRANCH  18  19
ENDBRANCH   9  13
BRANCH   6  25
HETATM   25  N3  UNL     1     -13.283 -35.491  21.322  1.00  0.00    -0.356 N 
HETATM   26  C13 UNL     1     -13.913 -35.407  19.995  1.00  0.00     0.151 C 
HETATM   27  C14 UNL     1     -14.622 -36.723  19.705  1.00  0.00     0.187 C 
HETATM   28  O1  UNL     1     -15.562 -36.927  20.703  1.00  0.00    -0.388 OA
HETATM   29  C15 UNL     1     -14.872 -37.237  21.878  1.00  0.00     0.192 C 
HETATM   30  C16 UNL     1     -14.097 -36.020  22.380  1.00  0.00     0.105 C 
HETATM   31  C17 UNL     1     -13.303 -36.465  23.582  1.00  0.00     0.034 C 
ENDBRANCH   6  25
BRANCH   1  32
HETATM   32  C6  UNL     1      -9.249 -31.129  22.055  1.00  0.00     0.136 C 
BRANCH  32  33
HETATM   33  C5  UNL     1      -8.863 -30.789  23.471  1.00  0.00     0.004 C 
HETATM   34  C4  UNL     1      -8.897 -29.281  23.597  1.00  0.00     0.006 C 
HETATM   35  C3  UNL     1      -7.627 -28.739  24.219  1.00  0.00     0.005 C 
HETATM   36  C2  UNL     1      -7.491 -29.451  25.554  1.00  0.00    -0.019 C 
HETATM   37  C1  UNL     1      -8.745 -29.339  26.378  1.00  0.00     0.010 C 
HETATM   38  C28 UNL     1      -7.077 -30.848  25.248  1.00  0.00     0.005 C 
HETATM   39  C27 UNL     1      -7.591 -31.398  23.947  1.00  0.00     0.006 C 
ENDBRANCH  32  33
ENDBRANCH   1  32
BRANCH   2  40
HETATM   40  C8  UNL     1     -12.186 -30.131  21.947  1.00  0.00     0.054 A 
HETATM   41  C9  UNL     1     -12.577 -29.594  23.301  1.00  0.00     0.013 A 
HETATM   42  C10 UNL     1     -13.595 -29.873  22.250  1.00  0.00     0.013 A 
ENDBRANCH   2  40
TORSDOF 9
ENDMDL
MODEL 5
REMARK VINA RESULT: -7.865425740      5.343      9.286
REMARK  9 active torsions:
REMARK  status: ('A' for Active; 'I' for Inactive)
REMARK    1  A    between atoms: C5_5  and  C6_6 
REMARK    2  A    between atoms: C6_6  and  N1_7 
REMARK    3  A    between atoms: C7_8  and  C8_9 
REMARK    4  A    between atoms: C12_15  and  N3_16 
REMARK    5  A    between atoms: C18_25  and  N5_26 
REMARK    6  A    between atoms: C23_31  and  C24_32 
REMARK    7  A    between atoms: C24_32  and  O2_33 
REMARK    8  A    between atoms: C24_32  and  C25_35 
REMARK    9  A    between atoms: C25_35  and  O3_36 
ROOT
HETATM    1  N1  UNL     1     -12.089 -35.035  21.931  1.00  0.00    -0.320 N 
HETATM    2  C7  UNL     1     -11.088 -35.959  22.046  1.00  0.00     0.089 A 
HETATM    3  N2  UNL     1     -11.446 -37.032  21.325  1.00  0.00    -0.339 N 
ATOM      4  H2  UNL     1     -10.895 -37.884  21.222  1.00  0.00     0.167 HD
HETATM    5  C11 UNL     1     -12.653 -36.808  20.755  1.00  0.00     0.124 A 
HETATM    6  C12 UNL     1     -13.493 -37.524  19.941  1.00  0.00     0.150 A 
HETATM    7  N4  UNL     1     -14.658 -37.022  19.533  1.00  0.00    -0.174 N 
ATOM      8  H4  UNL     1     -15.253 -37.589  18.928  1.00  0.00     0.186 HD
HETATM    9  C18 UNL     1     -15.084 -35.784  19.896  1.00  0.00     0.684 A 
HETATM   10  N6  UNL     1     -14.238 -35.108  20.694  1.00  0.00    -0.174 N 
ATOM     11  H6  UNL     1     -14.526 -34.173  20.985  1.00  0.00     0.186 HD
HETATM   12  C26 UNL     1     -13.054 -35.543  21.142  1.00  0.00     0.155 A 
ENDROOT
BRANCH   9  13
HETATM   13  N5  UNL     1     -16.323 -35.251  19.469  1.00  0.00    -0.206 N 
HETATM   14  C19 UNL     1     -17.598 -35.842  19.668  1.00  0.00     0.098 C 
HETATM   15  C20 UNL     1     -17.680 -36.756  20.870  1.00  0.00     0.033 C 
HETATM   16  C21 UNL     1     -18.555 -34.704  19.870  1.00  0.00     0.027 C 
HETATM   17  C22 UNL     1     -17.788 -33.515  19.318  1.00  0.00     0.030 C 
HETATM   18  C23 UNL     1     -16.504 -34.018  18.757  1.00  0.00     0.133 C 
BRANCH  18  19
HETATM   19  C24 UNL     1     -16.467 -34.156  17.273  1.00  0.00     0.165 C 
BRANCH  19  20
HETATM   20  O2  UNL     1     -17.515 -33.563  16.593  1.00  0.00    -0.391 OA
ATOM     21  H2  UNL     1     -17.270 -33.042  15.837  1.00  0.00     0.210 HD
ENDBRANCH  19  20
BRANCH  19  22
HETATM   22  C25 UNL     1     -15.170 -33.773  16.621  1.00  0.00     0.197 C 
BRANCH  22  23
HETATM   23  O3  UNL     1     -14.184 -33.344  17.471  1.00  0.00    -0.398 OA
ATOM     24  H3  UNL     1     -14.242 -32.435  17.740  1.00  0.00     0.209 HD
ENDBRANCH  22  23
ENDBRANCH  19  22
ENDBRANCH  18  19
ENDBRANCH   9  13
BRANCH   6  25
HETATM   25  N3  UNL     1     -13.110 -38.821  19.534  1.00  0.00    -0.356 N 
HETATM   26  C13 UNL     1     -12.247 -38.968  18.351  1.00  0.00     0.151 C 
HETATM   27  C14 UNL     1     -11.130 -39.949  18.679  1.00  0.00     0.187 C 
HETATM   28  O1  UNL     1     -11.715 -41.154  19.035  1.00  0.00    -0.388 OA
HETATM   29  C15 UNL     1     -12.308 -40.982  20.289  1.00  0.00     0.192 C 
HETATM   30  C16 UNL     1     -13.504 -40.036  20.188  1.00  0.00     0.105 C 
HETATM   31  C17 UNL     1     -14.019 -39.824  21.590  1.00  0.00     0.034 C 
ENDBRANCH   6  25
BRANCH   1  32
HETATM   32  C6  UNL     1     -12.089 -33.763  22.568  1.00  0.00     0.136 C 
BRANCH  32  33
HETATM   33  C5  UNL     1     -11.306 -32.676  21.878  1.00  0.00     0.004 C 
HETATM   34  C4  UNL     1     -11.247 -31.496  22.822  1.00  0.00     0.006 C 
HETATM   35  C3  UNL     1     -11.651 -30.206  22.139  1.00  0.00     0.005 C 
HETATM   36  C2  UNL     1     -10.722 -30.069  20.945  1.00  0.00    -0.019 C 
HETATM   37  C1  UNL     1      -9.277 -30.194  21.344  1.00  0.00     0.010 C 
HETATM   38  C28 UNL     1     -11.174 -31.070  19.941  1.00  0.00     0.005 C 
HETATM   39  C27 UNL     1     -11.778 -32.322  20.511  1.00  0.00     0.006 C 
ENDBRANCH  32  33
ENDBRANCH   1  32
BRANCH   2  40
HETATM   40  C8  UNL     1      -9.817 -35.862  22.808  1.00  0.00     0.054 A 
HETATM   41  C9  UNL     1      -8.601 -35.290  22.124  1.00  0.00     0.013 A 
HETATM   42  C10 UNL     1      -8.685 -36.733  22.481  1.00  0.00     0.013 A 
ENDBRANCH   2  40
TORSDOF 9
ENDMDL
