MODEL 1
REMARK VINA RESULT: -5.257298459      0.000      0.000
REMARK  2 active torsions:
REMARK  status: ('A' for Active; 'I' for Inactive)
REMARK    1  A    between atoms: N1_2  and  N2_3 
REMARK    2  A    between atoms: N2_3  and  C2_4 
ROOT
HETATM    1  C2  UNL     1      29.134  16.687  18.349  1.00  0.00     0.051 C 
HETATM    2  C3  UNL     1      28.988  16.325  16.885  1.00  0.00     0.033 C 
HETATM    3  C4  UNL     1      27.481  16.316  16.738  1.00  0.00    -0.012 C 
HETATM    4  C5  UNL     1      26.939  15.283  17.678  1.00  0.00     0.010 C 
HETATM    5  C6  UNL     1      27.362  15.828  19.030  1.00  0.00    -0.006 C 
HETATM    6  C7  UNL     1      28.842  15.480  19.251  1.00  0.00     0.033 C 
HETATM    7  C8  UNL     1      27.824  17.245  18.804  1.00  0.00     0.016 C 
HETATM    8  C9  UNL     1      27.148  17.607  17.504  1.00  0.00     0.012 C 
ENDROOT
BRANCH   1   9
HETATM    9  N2  UNL     1      30.302  17.435  18.701  1.00  0.00    -0.138 NA
BRANCH   9  10
HETATM   10  N1  UNL     1      30.696  18.149  17.550  1.00  0.00    -0.152 NA
HETATM   11  C1  UNL     1      30.451  19.565  17.700  1.00  0.00     0.154 C 
ENDBRANCH   9  10
ENDBRANCH   1   9
TORSDOF 2
ENDMDL
MODEL 2
REMARK VINA RESULT: -5.156636513      1.260      1.419
REMARK  2 active torsions:
REMARK  status: ('A' for Active; 'I' for Inactive)
REMARK    1  A    between atoms: N1_2  and  N2_3 
REMARK    2  A    between atoms: N2_3  and  C2_4 
ROOT
HETATM    1  C2  UNL     1      29.623  17.924  17.989  1.00  0.00     0.051 C 
HETATM    2  C3  UNL     1      29.637  17.131  16.698  1.00  0.00     0.033 C 
HETATM    3  C4  UNL     1      28.360  16.329  16.837  1.00  0.00    -0.012 C 
HETATM    4  C5  UNL     1      28.485  15.486  18.070  1.00  0.00     0.010 C 
HETATM    5  C6  UNL     1      28.605  16.533  19.162  1.00  0.00    -0.006 C 
HETATM    6  C7  UNL     1      30.051  17.053  19.179  1.00  0.00     0.033 C 
HETATM    7  C8  UNL     1      28.234  17.856  18.540  1.00  0.00     0.016 C 
HETATM    8  C9  UNL     1      27.422  17.438  17.339  1.00  0.00     0.012 C 
ENDROOT
BRANCH   1   9
HETATM    9  N2  UNL     1      30.227  19.220  17.941  1.00  0.00    -0.138 NA
BRANCH   9  10
HETATM   10  N1  UNL     1      31.241  19.165  16.963  1.00  0.00    -0.152 NA
HETATM   11  C1  UNL     1      31.554  20.481  16.456  1.00  0.00     0.154 C 
ENDBRANCH   9  10
ENDBRANCH   1   9
TORSDOF 2
ENDMDL
MODEL 3
REMARK VINA RESULT: -5.102805394      2.409      3.664
REMARK  2 active torsions:
REMARK  status: ('A' for Active; 'I' for Inactive)
REMARK    1  A    between atoms: N1_2  and  N2_3 
REMARK    2  A    between atoms: N2_3  and  C2_4 
ROOT
HETATM    1  C2  UNL     1      27.343  15.823  17.874  1.00  0.00     0.051 C 
HETATM    2  C3  UNL     1      28.653  15.578  18.596  1.00  0.00     0.033 C 
HETATM    3  C4  UNL     1      29.433  16.816  18.207  1.00  0.00    -0.012 C 
HETATM    4  C5  UNL     1      29.553  16.827  16.713  1.00  0.00     0.010 C 
HETATM    5  C6  UNL     1      28.103  16.924  16.276  1.00  0.00    -0.006 C 
HETATM    6  C7  UNL     1      27.473  15.526  16.373  1.00  0.00     0.033 C 
HETATM    7  C8  UNL     1      27.300  17.271  17.504  1.00  0.00     0.016 C 
HETATM    8  C9  UNL     1      28.339  17.876  18.416  1.00  0.00     0.012 C 
ENDROOT
BRANCH   1   9
HETATM    9  N2  UNL     1      26.170  15.288  18.496  1.00  0.00    -0.138 NA
BRANCH   9  10
HETATM   10  N1  UNL     1      26.529  14.932  19.813  1.00  0.00    -0.152 NA
HETATM   11  C1  UNL     1      25.851  15.759  20.785  1.00  0.00     0.154 C 
ENDBRANCH   9  10
ENDBRANCH   1   9
TORSDOF 2
ENDMDL
MODEL 4
REMARK VINA RESULT: -5.074773920      2.003      3.472
REMARK  2 active torsions:
REMARK  status: ('A' for Active; 'I' for Inactive)
REMARK    1  A    between atoms: N1_2  and  N2_3 
REMARK    2  A    between atoms: N2_3  and  C2_4 
ROOT
HETATM    1  C2  UNL     1      28.045  17.327  18.895  1.00  0.00     0.051 C 
HETATM    2  C3  UNL     1      27.249  17.636  17.643  1.00  0.00     0.033 C 
HETATM    3  C4  UNL     1      28.063  16.905  16.595  1.00  0.00    -0.012 C 
HETATM    4  C5  UNL     1      29.442  17.492  16.601  1.00  0.00     0.010 C 
HETATM    5  C6  UNL     1      29.922  17.168  18.004  1.00  0.00    -0.006 C 
HETATM    6  C7  UNL     1      29.312  18.191  18.974  1.00  0.00     0.033 C 
HETATM    7  C8  UNL     1      28.945  16.175  18.580  1.00  0.00     0.016 C 
HETATM    8  C9  UNL     1      28.308  15.586  17.345  1.00  0.00     0.012 C 
ENDROOT
BRANCH   1   9
HETATM    9  N2  UNL     1      27.298  17.239  20.112  1.00  0.00    -0.138 NA
BRANCH   9  10
HETATM   10  N1  UNL     1      26.230  16.349  19.875  1.00  0.00    -0.152 NA
HETATM   11  C1  UNL     1      25.915  15.581  21.058  1.00  0.00     0.154 C 
ENDBRANCH   9  10
ENDBRANCH   1   9
TORSDOF 2
ENDMDL
MODEL 5
REMARK VINA RESULT: -5.068072783      2.240      3.583
REMARK  2 active torsions:
REMARK  status: ('A' for Active; 'I' for Inactive)
REMARK    1  A    between atoms: N1_2  and  N2_3 
REMARK    2  A    between atoms: N2_3  and  C2_4 
ROOT
HETATM    1  C2  UNL     1      27.414  16.627  18.887  1.00  0.00     0.051 C 
HETATM    2  C3  UNL     1      28.887  16.342  19.103  1.00  0.00     0.033 C 
HETATM    3  C4  UNL     1      29.472  16.844  17.800  1.00  0.00    -0.012 C 
HETATM    4  C5  UNL     1      28.854  16.051  16.689  1.00  0.00     0.010 C 
HETATM    5  C6  UNL     1      27.386  16.414  16.814  1.00  0.00    -0.006 C 
HETATM    6  C7  UNL     1      26.778  15.585  17.956  1.00  0.00     0.033 C 
HETATM    7  C8  UNL     1      27.307  17.593  17.751  1.00  0.00     0.016 C 
HETATM    8  C9  UNL     1      28.701  18.168  17.674  1.00  0.00     0.012 C 
ENDROOT
BRANCH   1   9
HETATM    9  N2  UNL     1      26.652  16.934  20.059  1.00  0.00    -0.138 NA
BRANCH   9  10
HETATM   10  N1  UNL     1      25.721  15.888  20.230  1.00  0.00    -0.152 NA
HETATM   11  C1  UNL     1      25.792  15.335  21.563  1.00  0.00     0.154 C 
ENDBRANCH   9  10
ENDBRANCH   1   9
TORSDOF 2
ENDMDL
