MODEL 1
REMARK VINA RESULT: -6.044177319      0.000      0.000
REMARK  3 active torsions:
REMARK  status: ('A' for Active; 'I' for Inactive)
REMARK    1  A    between atoms: N1_1  and  C1_5 
REMARK    2  A    between atoms: C3_7  and  N2_8 
REMARK    3  A    between atoms: N2_8  and  C4_10 
ROOT
HETATM    1  N2  UNL     1      31.222  19.309  15.888  1.00  0.00    -0.411 N 
ATOM      2  H2  UNL     1      31.278  18.892  14.958  1.00  0.00     0.154 HD
ENDROOT
BRANCH   1   3
HETATM    3  C3  UNL     1      31.548  20.671  16.106  1.00  0.00     0.109 A 
HETATM    4  C1  UNL     1      32.967  21.059  16.225  1.00  0.00     0.207 A 
HETATM    5  C2  UNL     1      32.137  21.503  15.034  1.00  0.00     0.061 A 
BRANCH   4   6
HETATM    6  N1  UNL     1      34.034  20.151  15.919  1.00  0.00    -0.073 N 
ATOM      7  H13 UNL     1      33.658  19.280  15.546  1.00  0.00     0.274 HD
ATOM      8  H12 UNL     1      34.555  20.483  15.106  1.00  0.00     0.274 HD
ATOM      9  H11 UNL     1      34.673  19.957  16.690  1.00  0.00     0.274 HD
ENDBRANCH   4   6
ENDBRANCH   1   3
BRANCH   1  10
HETATM   10  C4  UNL     1      30.817  18.552  17.008  1.00  0.00     0.077 C 
HETATM   11  C5  UNL     1      30.125  19.371  18.079  1.00  0.00     0.024 C 
HETATM   12  C6  UNL     1      29.671  18.435  19.178  1.00  0.00     0.002 C 
HETATM   13  C7  UNL     1      28.569  17.512  18.680  1.00  0.00     0.000 C 
HETATM   14  C8  UNL     1      28.500  17.596  17.182  1.00  0.00     0.002 C 
HETATM   15  C9  UNL     1      29.849  17.480  16.513  1.00  0.00     0.024 C 
ENDBRANCH   1  10
TORSDOF 3
ENDMDL
MODEL 2
REMARK VINA RESULT: -5.881679183      0.442      1.548
REMARK  3 active torsions:
REMARK  status: ('A' for Active; 'I' for Inactive)
REMARK    1  A    between atoms: N1_1  and  C1_5 
REMARK    2  A    between atoms: C3_7  and  N2_8 
REMARK    3  A    between atoms: N2_8  and  C4_10 
ROOT
HETATM    1  N2  UNL     1      31.554  19.409  16.604  1.00  0.00    -0.411 N 
ATOM      2  H2  UNL     1      32.331  18.749  16.587  1.00  0.00     0.154 HD
ENDROOT
BRANCH   1   3
HETATM    3  C3  UNL     1      31.747  20.784  16.321  1.00  0.00     0.109 A 
HETATM    4  C1  UNL     1      33.106  21.269  16.014  1.00  0.00     0.207 A 
HETATM    5  C2  UNL     1      32.026  21.256  14.947  1.00  0.00     0.061 A 
BRANCH   4   6
HETATM    6  N1  UNL     1      34.202  20.373  15.782  1.00  0.00    -0.073 N 
ATOM      7  H13 UNL     1      34.858  20.785  15.119  1.00  0.00     0.274 HD
ATOM      8  H12 UNL     1      34.795  20.321  16.611  1.00  0.00     0.274 HD
ATOM      9  H11 UNL     1      33.938  19.436  15.479  1.00  0.00     0.274 HD
ENDBRANCH   4   6
ENDBRANCH   1   3
BRANCH   1  10
HETATM   10  C4  UNL     1      30.241  18.989  16.910  1.00  0.00     0.077 C 
HETATM   11  C5  UNL     1      29.998  17.515  16.653  1.00  0.00     0.024 C 
HETATM   12  C6  UNL     1      28.590  17.179  17.096  1.00  0.00     0.002 C 
HETATM   13  C7  UNL     1      28.457  17.295  18.607  1.00  0.00     0.000 C 
HETATM   14  C8  UNL     1      29.661  18.012  19.151  1.00  0.00     0.002 C 
HETATM   15  C9  UNL     1      30.001  19.272  18.391  1.00  0.00     0.024 C 
ENDBRANCH   1  10
TORSDOF 3
ENDMDL
MODEL 3
REMARK VINA RESULT: -5.825148141      1.955      4.786
REMARK  3 active torsions:
REMARK  status: ('A' for Active; 'I' for Inactive)
REMARK    1  A    between atoms: N1_1  and  C1_5 
REMARK    2  A    between atoms: C3_7  and  N2_8 
REMARK    3  A    between atoms: N2_8  and  C4_10 
ROOT
HETATM    1  N2  UNL     1      30.451  19.200  17.940  1.00  0.00    -0.411 N 
ATOM      2  H2  UNL     1      30.336  19.722  18.809  1.00  0.00     0.154 HD
ENDROOT
BRANCH   1   3
HETATM    3  C3  UNL     1      30.174  17.812  17.872  1.00  0.00     0.109 A 
HETATM    4  C1  UNL     1      29.964  17.060  19.124  1.00  0.00     0.207 A 
HETATM    5  C2  UNL     1      28.821  17.282  18.149  1.00  0.00     0.061 A 
BRANCH   4   6
HETATM    6  N1  UNL     1      29.818  17.714  20.391  1.00  0.00    -0.073 N 
ATOM      7  H13 UNL     1      30.302  18.612  20.381  1.00  0.00     0.274 HD
ATOM      8  H12 UNL     1      28.856  18.031  20.515  1.00  0.00     0.274 HD
ATOM      9  H11 UNL     1      30.114  17.166  21.199  1.00  0.00     0.274 HD
ENDBRANCH   4   6
ENDBRANCH   1   3
BRANCH   1  10
HETATM   10  C4  UNL     1      30.892  19.832  16.757  1.00  0.00     0.077 C 
HETATM   11  C5  UNL     1      31.400  21.243  16.972  1.00  0.00     0.024 C 
HETATM   12  C6  UNL     1      31.915  21.773  15.651  1.00  0.00     0.002 C 
HETATM   13  C7  UNL     1      33.161  21.017  15.216  1.00  0.00     0.000 C 
HETATM   14  C8  UNL     1      33.305  19.781  16.059  1.00  0.00     0.002 C 
HETATM   15  C9  UNL     1      32.026  18.988  16.180  1.00  0.00     0.024 C 
ENDBRANCH   1  10
TORSDOF 3
ENDMDL
MODEL 4
REMARK VINA RESULT: -5.576590964      1.360      2.161
REMARK  3 active torsions:
REMARK  status: ('A' for Active; 'I' for Inactive)
REMARK    1  A    between atoms: N1_1  and  C1_5 
REMARK    2  A    between atoms: C3_7  and  N2_8 
REMARK    3  A    between atoms: N2_8  and  C4_10 
ROOT
HETATM    1  N2  UNL     1      30.717  19.648  17.312  1.00  0.00    -0.411 N 
ATOM      2  H2  UNL     1      30.920  20.433  17.931  1.00  0.00     0.154 HD
ENDROOT
BRANCH   1   3
HETATM    3  C3  UNL     1      31.462  19.432  16.125  1.00  0.00     0.109 A 
HETATM    4  C1  UNL     1      31.915  20.598  15.342  1.00  0.00     0.207 A 
HETATM    5  C2  UNL     1      32.914  19.711  16.066  1.00  0.00     0.061 A 
BRANCH   4   6
HETATM    6  N1  UNL     1      31.816  21.938  15.841  1.00  0.00    -0.073 N 
ATOM      7  H13 UNL     1      31.792  22.601  15.067  1.00  0.00     0.274 HD
ATOM      8  H12 UNL     1      30.891  22.097  16.241  1.00  0.00     0.274 HD
ATOM      9  H11 UNL     1      32.539  22.206  16.509  1.00  0.00     0.274 HD
ENDBRANCH   4   6
ENDBRANCH   1   3
BRANCH   1  10
HETATM   10  C4  UNL     1      29.683  18.732  17.603  1.00  0.00     0.077 C 
HETATM   11  C5  UNL     1      29.803  17.419  16.855  1.00  0.00     0.024 C 
HETATM   12  C6  UNL     1      28.689  16.503  17.315  1.00  0.00     0.002 C 
HETATM   13  C7  UNL     1      28.892  16.096  18.767  1.00  0.00     0.000 C 
HETATM   14  C8  UNL     1      29.943  16.976  19.381  1.00  0.00     0.002 C 
HETATM   15  C9  UNL     1      29.731  18.445  19.102  1.00  0.00     0.024 C 
ENDBRANCH   1  10
TORSDOF 3
ENDMDL
MODEL 5
REMARK VINA RESULT: -5.572822604      1.947      4.568
REMARK  3 active torsions:
REMARK  status: ('A' for Active; 'I' for Inactive)
REMARK    1  A    between atoms: N1_1  and  C1_5 
REMARK    2  A    between atoms: C3_7  and  N2_8 
REMARK    3  A    between atoms: N2_8  and  C4_10 
ROOT
HETATM    1  N2  UNL     1      31.159  17.662  16.841  1.00  0.00    -0.411 N 
ATOM      2  H2  UNL     1      31.725  16.892  17.195  1.00  0.00     0.154 HD
ENDROOT
BRANCH   1   3
HETATM    3  C3  UNL     1      29.910  17.991  17.426  1.00  0.00     0.109 A 
HETATM    4  C1  UNL     1      29.557  17.408  18.735  1.00  0.00     0.207 A 
HETATM    5  C2  UNL     1      29.821  18.897  18.592  1.00  0.00     0.061 A 
BRANCH   4   6
HETATM    6  N1  UNL     1      30.509  16.695  19.535  1.00  0.00    -0.073 N 
ATOM      7  H13 UNL     1      30.862  17.296  20.280  1.00  0.00     0.274 HD
ATOM      8  H12 UNL     1      30.038  15.980  20.090  1.00  0.00     0.274 HD
ATOM      9  H11 UNL     1      31.286  16.283  19.019  1.00  0.00     0.274 HD
ENDBRANCH   4   6
ENDBRANCH   1   3
BRANCH   1  10
HETATM   10  C4  UNL     1      31.587  18.445  15.747  1.00  0.00     0.077 C 
HETATM   11  C5  UNL     1      30.451  19.051  14.949  1.00  0.00     0.024 C 
HETATM   12  C6  UNL     1      31.042  19.926  13.864  1.00  0.00     0.002 C 
HETATM   13  C7  UNL     1      31.729  21.142  14.467  1.00  0.00     0.000 C 
HETATM   14  C8  UNL     1      31.888  20.932  15.946  1.00  0.00     0.002 C 
HETATM   15  C9  UNL     1      32.451  19.576  16.301  1.00  0.00     0.024 C 
ENDBRANCH   1  10
TORSDOF 3
ENDMDL
