MODEL 1
REMARK VINA RESULT: -5.509387993      0.000      0.000
REMARK  3 active torsions:
REMARK  status: ('A' for Active; 'I' for Inactive)
REMARK    1  A    between atoms: C2_2  and  C4_4 
REMARK    2  A    between atoms: C7_10  and  C8_11 
REMARK    3  A    between atoms: C8_11  and  N2_13 
ROOT
HETATM    1  C4  UNL     1      29.223  18.006  17.420  1.00  0.00     0.195 C 
HETATM    2  N1  UNL     1      28.899  17.224  16.198  1.00  0.00    -0.070 N 
ATOM      3  H11 UNL     1      29.686  16.721  15.787  1.00  0.00     0.277 HD
ATOM      4  H12 UNL     1      28.698  17.783  15.370  1.00  0.00     0.277 HD
HETATM    5  C5  UNL     1      27.792  16.375  16.658  1.00  0.00     0.233 C 
HETATM    6  C6  UNL     1      28.437  15.829  17.910  1.00  0.00     0.036 C 
HETATM    7  C7  UNL     1      28.925  17.159  18.517  1.00  0.00     0.048 C 
ENDROOT
BRANCH   7   8
HETATM    8  C8  UNL     1      29.814  16.861  19.661  1.00  0.00     0.185 C 
HETATM    9  C9  UNL     1      29.379  15.729  20.553  1.00  0.00     0.040 C 
BRANCH   8  10
HETATM   10  N2  UNL     1      29.885  18.054  20.530  1.00  0.00    -0.075 N 
ATOM     11  H23 UNL     1      29.365  18.846  20.149  1.00  0.00     0.274 HD
ATOM     12  H22 UNL     1      29.354  17.940  21.394  1.00  0.00     0.274 HD
ATOM     13  H21 UNL     1      30.866  18.277  20.701  1.00  0.00     0.274 HD
ENDBRANCH   8  10
ENDBRANCH   7   8
BRANCH   1  14
HETATM   14  C2  UNL     1      30.452  18.744  17.137  1.00  0.00     0.008 C 
HETATM   15  C1  UNL     1      30.956  18.618  15.707  1.00  0.00     0.011 C 
HETATM   16  C3  UNL     1      30.623  20.135  17.611  1.00  0.00     0.011 C 
ENDBRANCH   1  14
TORSDOF 3
ENDMDL
MODEL 2
REMARK VINA RESULT: -5.396238623      1.062      1.062
REMARK  3 active torsions:
REMARK  status: ('A' for Active; 'I' for Inactive)
REMARK    1  A    between atoms: C2_2  and  C4_4 
REMARK    2  A    between atoms: C7_10  and  C8_11 
REMARK    3  A    between atoms: C8_11  and  N2_13 
ROOT
HETATM    1  C4  UNL     1      28.944  17.832  17.506  1.00  0.00     0.195 C 
HETATM    2  N1  UNL     1      29.084  16.759  16.487  1.00  0.00    -0.070 N 
ATOM      3  H11 UNL     1      29.939  16.206  16.557  1.00  0.00     0.277 HD
ATOM      4  H12 UNL     1      29.258  17.087  15.538  1.00  0.00     0.277 HD
HETATM    5  C5  UNL     1      27.838  16.001  16.664  1.00  0.00     0.233 C 
HETATM    6  C6  UNL     1      27.905  15.810  18.161  1.00  0.00     0.036 C 
HETATM    7  C7  UNL     1      28.190  17.270  18.566  1.00  0.00     0.048 C 
ENDROOT
BRANCH   7   8
HETATM    8  C8  UNL     1      28.537  17.304  20.004  1.00  0.00     0.185 C 
HETATM    9  C9  UNL     1      29.489  16.236  20.475  1.00  0.00     0.040 C 
BRANCH   8  10
HETATM   10  N2  UNL     1      27.303  17.122  20.795  1.00  0.00    -0.075 N 
ATOM     11  H23 UNL     1      26.734  17.968  20.833  1.00  0.00     0.274 HD
ATOM     12  H22 UNL     1      26.626  16.518  20.328  1.00  0.00     0.274 HD
ATOM     13  H21 UNL     1      27.556  16.780  21.723  1.00  0.00     0.274 HD
ENDBRANCH   8  10
ENDBRANCH   7   8
BRANCH   1  14
HETATM   14  C2  UNL     1      30.225  18.533  17.562  1.00  0.00     0.008 C 
HETATM   15  C1  UNL     1      31.104  18.353  16.333  1.00  0.00     0.011 C 
HETATM   16  C3  UNL     1      30.300  19.933  18.034  1.00  0.00     0.011 C 
ENDBRANCH   1  14
TORSDOF 3
ENDMDL
MODEL 3
REMARK VINA RESULT: -5.376942482      1.103      3.035
REMARK  3 active torsions:
REMARK  status: ('A' for Active; 'I' for Inactive)
REMARK    1  A    between atoms: C2_2  and  C4_4 
REMARK    2  A    between atoms: C7_10  and  C8_11 
REMARK    3  A    between atoms: C8_11  and  N2_13 
ROOT
HETATM    1  C4  UNL     1      29.935  17.323  18.290  1.00  0.00     0.195 C 
HETATM    2  N1  UNL     1      30.168  17.801  19.678  1.00  0.00    -0.070 N 
ATOM      3  H11 UNL     1      29.719  18.688  19.910  1.00  0.00     0.277 HD
ATOM      4  H12 UNL     1      31.117  18.120  19.870  1.00  0.00     0.277 HD
HETATM    5  C5  UNL     1      29.724  16.653  20.480  1.00  0.00     0.233 C 
HETATM    6  C6  UNL     1      28.374  16.441  19.835  1.00  0.00     0.036 C 
HETATM    7  C7  UNL     1      28.821  16.448  18.360  1.00  0.00     0.048 C 
ENDROOT
BRANCH   7   8
HETATM    8  C8  UNL     1      27.618  16.491  17.499  1.00  0.00     0.185 C 
HETATM    9  C9  UNL     1      27.848  16.222  16.036  1.00  0.00     0.040 C 
BRANCH   8  10
HETATM   10  N2  UNL     1      27.031  17.846  17.572  1.00  0.00    -0.075 N 
ATOM     11  H23 UNL     1      26.314  17.999  16.863  1.00  0.00     0.274 HD
ATOM     12  H22 UNL     1      26.442  17.972  18.396  1.00  0.00     0.274 HD
ATOM     13  H21 UNL     1      27.784  18.532  17.522  1.00  0.00     0.274 HD
ENDBRANCH   8  10
ENDBRANCH   7   8
BRANCH   1  14
HETATM   14  C2  UNL     1      30.151  18.466  17.406  1.00  0.00     0.008 C 
HETATM   15  C1  UNL     1      30.254  19.808  18.114  1.00  0.00     0.011 C 
HETATM   16  C3  UNL     1      31.143  18.396  16.310  1.00  0.00     0.011 C 
ENDBRANCH   1  14
TORSDOF 3
ENDMDL
MODEL 4
REMARK VINA RESULT: -5.370530314      1.133      3.070
REMARK  3 active torsions:
REMARK  status: ('A' for Active; 'I' for Inactive)
REMARK    1  A    between atoms: C2_2  and  C4_4 
REMARK    2  A    between atoms: C7_10  and  C8_11 
REMARK    3  A    between atoms: C8_11  and  N2_13 
ROOT
HETATM    1  C4  UNL     1      29.878  17.394  18.157  1.00  0.00     0.195 C 
HETATM    2  N1  UNL     1      30.106  17.828  19.559  1.00  0.00    -0.070 N 
ATOM      3  H11 UNL     1      29.622  18.685  19.830  1.00  0.00     0.277 HD
ATOM      4  H12 UNL     1      31.043  18.181  19.754  1.00  0.00     0.277 HD
HETATM    5  C5  UNL     1      29.723  16.631  20.320  1.00  0.00     0.233 C 
HETATM    6  C6  UNL     1      28.376  16.385  19.681  1.00  0.00     0.036 C 
HETATM    7  C7  UNL     1      28.805  16.469  18.203  1.00  0.00     0.048 C 
ENDROOT
BRANCH   7   8
HETATM    8  C8  UNL     1      27.590  16.492  17.358  1.00  0.00     0.185 C 
HETATM    9  C9  UNL     1      26.356  15.878  17.965  1.00  0.00     0.040 C 
BRANCH   8  10
HETATM   10  N2  UNL     1      27.857  15.723  16.124  1.00  0.00    -0.075 N 
ATOM     11  H23 UNL     1      27.265  14.896  16.044  1.00  0.00     0.274 HD
ATOM     12  H22 UNL     1      27.535  16.207  15.286  1.00  0.00     0.274 HD
ATOM     13  H21 UNL     1      28.851  15.497  16.087  1.00  0.00     0.274 HD
ENDBRANCH   8  10
ENDBRANCH   7   8
BRANCH   1  14
HETATM   14  C2  UNL     1      30.033  18.578  17.315  1.00  0.00     0.008 C 
HETATM   15  C1  UNL     1      30.297  19.870  18.075  1.00  0.00     0.011 C 
HETATM   16  C3  UNL     1      30.867  18.533  16.094  1.00  0.00     0.011 C 
ENDBRANCH   1  14
TORSDOF 3
ENDMDL
MODEL 5
REMARK VINA RESULT: -5.044055357      0.549      1.164
REMARK  3 active torsions:
REMARK  status: ('A' for Active; 'I' for Inactive)
REMARK    1  A    between atoms: C2_2  and  C4_4 
REMARK    2  A    between atoms: C7_10  and  C8_11 
REMARK    3  A    between atoms: C8_11  and  N2_13 
ROOT
HETATM    1  C4  UNL     1      28.715  17.936  17.552  1.00  0.00     0.195 C 
HETATM    2  N1  UNL     1      28.198  17.121  16.422  1.00  0.00    -0.070 N 
ATOM      3  H11 UNL     1      28.912  16.638  15.876  1.00  0.00     0.277 HD
ATOM      4  H12 UNL     1      27.824  17.658  15.639  1.00  0.00     0.277 HD
HETATM    5  C5  UNL     1      27.229  16.243  17.092  1.00  0.00     0.233 C 
HETATM    6  C6  UNL     1      28.117  15.742  18.206  1.00  0.00     0.036 C 
HETATM    7  C7  UNL     1      28.659  17.099  18.695  1.00  0.00     0.048 C 
ENDROOT
BRANCH   7   8
HETATM    8  C8  UNL     1      29.758  16.853  19.656  1.00  0.00     0.185 C 
HETATM    9  C9  UNL     1      29.583  15.662  20.561  1.00  0.00     0.040 C 
BRANCH   8  10
HETATM   10  N2  UNL     1      29.877  18.024  20.549  1.00  0.00    -0.075 N 
ATOM     11  H23 UNL     1      30.768  18.510  20.440  1.00  0.00     0.274 HD
ATOM     12  H22 UNL     1      29.264  18.791  20.272  1.00  0.00     0.274 HD
ATOM     13  H21 UNL     1      29.713  17.721  21.510  1.00  0.00     0.274 HD
ENDBRANCH   8  10
ENDBRANCH   7   8
BRANCH   1  14
HETATM   14  C2  UNL     1      29.841  18.710  17.036  1.00  0.00     0.008 C 
HETATM   15  C1  UNL     1      30.274  19.871  17.919  1.00  0.00     0.011 C 
HETATM   16  C3  UNL     1      31.031  18.033  16.476  1.00  0.00     0.011 C 
ENDBRANCH   1  14
TORSDOF 3
ENDMDL
