MODEL 1
REMARK VINA RESULT: -7.616800773      0.000      0.000
REMARK  12 active torsions:
REMARK  status: ('A' for Active; 'I' for Inactive)
REMARK    1  A    between atoms: C4_8  and  C5_9 
REMARK    2  A    between atoms: C5_9  and  N3_10 
REMARK    3  A    between atoms: N3_10  and  C7_12 
REMARK    4  A    between atoms: C7_12  and  C8_13 
REMARK    5  A    between atoms: C7_12  and  C9_16 
REMARK    6  A    between atoms: C9_16  and  C10_18 
REMARK    7  A    between atoms: C10_18  and  C11_20 
REMARK    8  A    between atoms: C11_20  and  N4_21 
REMARK    9  A    between atoms: C11_20  and  C15_29 
REMARK   10  A    between atoms: N4_21  and  C12_23 
REMARK   11  A    between atoms: C15_29  and  O5_30 
REMARK   12  A    between atoms: N6_32  and  O6_34 
ROOT
HETATM    1  C12 UNL     1       4.519   5.544  -0.056  1.00  0.00     0.144 C 
HETATM    2  C13 UNL     1       5.915   6.022  -0.115  1.00  0.00     0.120 C 
HETATM    3  N5  UNL     1       6.997   6.414  -0.153  1.00  0.00    -0.190 NA
HETATM    4  C14 UNL     1       3.675   6.324   0.543  1.00  0.00     0.140 C 
HETATM    5 CL1  UNL     1       4.247   7.845   1.253  1.00  0.00    -0.068 Cl
HETATM    6 CL2  UNL     1       1.984   5.968   0.680  1.00  0.00    -0.068 Cl
ENDROOT
BRANCH   1   7
HETATM    7  N4  UNL     1       4.248   4.324  -0.664  1.00  0.00    -0.361 N 
ATOM      8  H4  UNL     1       3.386   4.310  -1.209  1.00  0.00     0.161 HD
BRANCH   7   9
HETATM    9  C11 UNL     1       4.957   3.093  -0.661  1.00  0.00     0.237 C 
BRANCH   9  10
HETATM   10  C10 UNL     1       3.949   1.988  -0.364  1.00  0.00     0.228 C 
HETATM   11  O4  UNL     1       4.254   0.812  -0.612  1.00  0.00    -0.286 OA
BRANCH  10  12
HETATM   12  C9  UNL     1       2.680   2.344   0.189  1.00  0.00     0.230 C 
HETATM   13  O3  UNL     1       2.629   2.997   1.312  1.00  0.00    -0.286 OA
BRANCH  12  14
HETATM   14  C7  UNL     1       1.397   1.995  -0.464  1.00  0.00     0.263 C 
BRANCH  14  15
HETATM   15  N3  UNL     1       1.070   0.653  -0.410  1.00  0.00    -0.371 N 
HETATM   16  C6  UNL     1       0.720  -0.008  -1.631  1.00  0.00     0.150 C 
BRANCH  15  17
HETATM   17  C5  UNL     1       1.154  -0.118   0.747  1.00  0.00     0.123 C 
BRANCH  17  18
HETATM   18  C4  UNL     1       1.668  -1.529   0.495  1.00  0.00     0.092 A 
HETATM   19  N2  UNL     1       2.867  -1.918   0.228  1.00  0.00    -0.334 N 
HETATM   20  C3  UNL     1       3.136  -3.202   0.026  1.00  0.00     0.131 A 
ATOM     21  H2  UNL     1       3.619  -1.231   0.170  1.00  0.00     0.168 HD
HETATM   22  N1  UNL     1       4.315  -3.754  -0.258  1.00  0.00    -0.339 N 
HETATM   23  C16 UNL     1       2.081  -4.059   0.118  1.00  0.00     0.093 A 
HETATM   24  C2  UNL     1       4.414  -5.026  -0.427  1.00  0.00     0.049 A 
ATOM     25  H1  UNL     1       5.144  -3.166  -0.342  1.00  0.00     0.168 HD
HETATM   26  C1  UNL     1       5.667  -5.816  -0.747  1.00  0.00     0.076 C 
HETATM   27  S2  UNL     1       2.817  -5.579  -0.198  1.00  0.00    -0.066 SA
HETATM   28  S1  UNL     1       0.784  -2.990   0.485  1.00  0.00    -0.060 SA
ENDBRANCH  17  18
ENDBRANCH  15  17
ENDBRANCH  14  15
BRANCH  14  29
HETATM   29  C8  UNL     1       1.238   2.709  -1.754  1.00  0.00     0.204 C 
HETATM   30  O1  UNL     1       0.147   3.272  -2.018  1.00  0.00    -0.646 OA
HETATM   31  O2  UNL     1       2.256   2.770  -2.666  1.00  0.00    -0.646 OA
ENDBRANCH  14  29
ENDBRANCH  12  14
ENDBRANCH  10  12
ENDBRANCH   9  10
BRANCH   9  32
HETATM   32  C15 UNL     1       5.673   2.776  -1.919  1.00  0.00     0.166 C 
HETATM   33  N6  UNL     1       6.860   3.063  -2.197  1.00  0.00    -0.249 N 
ATOM     34  H6  UNL     1       7.137   2.742  -3.125  1.00  0.00     0.196 HD
BRANCH  32  35
HETATM   35  O5  UNL     1       4.984   2.083  -2.941  1.00  0.00    -0.346 OA
ATOM     36  H5  UNL     1       5.439   1.891  -3.752  1.00  0.00     0.219 HD
ENDBRANCH  32  35
BRANCH  33  37
HETATM   37  O6  UNL     1       7.840   3.690  -1.557  1.00  0.00    -0.288 OA
ATOM     38  H6  UNL     1       8.707   3.993  -1.800  1.00  0.00     0.244 HD
ENDBRANCH  33  37
ENDBRANCH   9  32
ENDBRANCH   7   9
ENDBRANCH   1   7
TORSDOF 12
ENDMDL
MODEL 2
REMARK VINA RESULT: -7.353752887      3.164      5.717
REMARK  12 active torsions:
REMARK  status: ('A' for Active; 'I' for Inactive)
REMARK    1  A    between atoms: C4_8  and  C5_9 
REMARK    2  A    between atoms: C5_9  and  N3_10 
REMARK    3  A    between atoms: N3_10  and  C7_12 
REMARK    4  A    between atoms: C7_12  and  C8_13 
REMARK    5  A    between atoms: C7_12  and  C9_16 
REMARK    6  A    between atoms: C9_16  and  C10_18 
REMARK    7  A    between atoms: C10_18  and  C11_20 
REMARK    8  A    between atoms: C11_20  and  N4_21 
REMARK    9  A    between atoms: C11_20  and  C15_29 
REMARK   10  A    between atoms: N4_21  and  C12_23 
REMARK   11  A    between atoms: C15_29  and  O5_30 
REMARK   12  A    between atoms: N6_32  and  O6_34 
ROOT
HETATM    1  C12 UNL     1       4.725   4.985  -0.131  1.00  0.00     0.144 C 
HETATM    2  C13 UNL     1       4.478   6.198   0.674  1.00  0.00     0.120 C 
HETATM    3  N5  UNL     1       4.307   7.148   1.302  1.00  0.00    -0.190 NA
HETATM    4  C14 UNL     1       5.928   4.841  -0.589  1.00  0.00     0.140 C 
HETATM    5 CL1  UNL     1       7.143   6.088  -0.254  1.00  0.00    -0.068 Cl
HETATM    6 CL2  UNL     1       6.434   3.467  -1.518  1.00  0.00    -0.068 Cl
ENDROOT
BRANCH   1   7
HETATM    7  N4  UNL     1       3.654   4.114  -0.297  1.00  0.00    -0.361 N 
ATOM      8  H4  UNL     1       3.919   3.178  -0.604  1.00  0.00     0.161 HD
BRANCH   7   9
HETATM    9  C11 UNL     1       2.257   4.295  -0.115  1.00  0.00     0.237 C 
BRANCH   9  10
HETATM   10  C10 UNL     1       1.549   3.211  -0.921  1.00  0.00     0.228 C 
HETATM   11  O4  UNL     1       0.311   3.145  -0.885  1.00  0.00    -0.286 OA
BRANCH  10  12
HETATM   12  C9  UNL     1       2.337   2.302  -1.694  1.00  0.00     0.230 C 
HETATM   13  O3  UNL     1       3.003   2.742  -2.720  1.00  0.00    -0.286 OA
BRANCH  12  14
HETATM   14  C7  UNL     1       2.430   0.858  -1.379  1.00  0.00     0.263 C 
BRANCH  14  15
HETATM   15  N3  UNL     1       1.273   0.306  -0.862  1.00  0.00    -0.371 N 
HETATM   16  C6  UNL     1       0.213  -0.017  -1.769  1.00  0.00     0.150 C 
BRANCH  15  17
HETATM   17  C5  UNL     1       1.113  -0.043   0.477  1.00  0.00     0.123 C 
BRANCH  17  18
HETATM   18  C4  UNL     1      -0.273   0.277   1.022  1.00  0.00     0.092 A 
HETATM   19  N2  UNL     1      -0.766   1.420   1.359  1.00  0.00    -0.334 N 
HETATM   20  C3  UNL     1      -2.004   1.513   1.829  1.00  0.00     0.131 A 
ATOM     21  H2  UNL     1      -0.199   2.262   1.263  1.00  0.00     0.168 HD
HETATM   22  N1  UNL     1      -2.649   2.613   2.217  1.00  0.00    -0.339 N 
HETATM   23  C16 UNL     1      -2.699   0.346   1.930  1.00  0.00     0.093 A 
HETATM   24  C2  UNL     1      -3.857   2.538   2.653  1.00  0.00     0.049 A 
ATOM     25  H1  UNL     1      -2.182   3.519   2.166  1.00  0.00     0.168 HD
HETATM   26  C1  UNL     1      -4.735   3.680   3.127  1.00  0.00     0.076 C 
HETATM   27  S2  UNL     1      -4.208   0.873   2.559  1.00  0.00    -0.066 SA
HETATM   28  S1  UNL     1      -1.554  -0.802   1.351  1.00  0.00    -0.060 SA
ENDBRANCH  17  18
ENDBRANCH  15  17
ENDBRANCH  14  15
BRANCH  14  29
HETATM   29  C8  UNL     1       3.720   0.531  -0.725  1.00  0.00     0.204 C 
HETATM   30  O1  UNL     1       4.284  -0.562  -0.982  1.00  0.00    -0.646 OA
HETATM   31  O2  UNL     1       4.315   1.396   0.154  1.00  0.00    -0.646 OA
ENDBRANCH  14  29
ENDBRANCH  12  14
ENDBRANCH  10  12
ENDBRANCH   9  10
BRANCH   9  32
HETATM   32  C15 UNL     1       1.792   4.239   1.291  1.00  0.00     0.166 C 
HETATM   33  N6  UNL     1       1.475   5.213   2.013  1.00  0.00    -0.249 N 
ATOM     34  H6  UNL     1       1.185   4.931   2.949  1.00  0.00     0.196 HD
BRANCH  32  35
HETATM   35  O5  UNL     1       1.685   2.980   1.925  1.00  0.00    -0.346 OA
ATOM     36  H5  UNL     1       0.856   2.518   1.889  1.00  0.00     0.219 HD
ENDBRANCH  32  35
BRANCH  33  37
HETATM   37  O6  UNL     1       1.431   6.527   1.835  1.00  0.00    -0.288 OA
ATOM     38  H6  UNL     1       1.012   7.247   2.292  1.00  0.00     0.244 HD
ENDBRANCH  33  37
ENDBRANCH   9  32
ENDBRANCH   7   9
ENDBRANCH   1   7
TORSDOF 12
ENDMDL
MODEL 3
REMARK VINA RESULT: -7.284374703      1.214      1.733
REMARK  12 active torsions:
REMARK  status: ('A' for Active; 'I' for Inactive)
REMARK    1  A    between atoms: C4_8  and  C5_9 
REMARK    2  A    between atoms: C5_9  and  N3_10 
REMARK    3  A    between atoms: N3_10  and  C7_12 
REMARK    4  A    between atoms: C7_12  and  C8_13 
REMARK    5  A    between atoms: C7_12  and  C9_16 
REMARK    6  A    between atoms: C9_16  and  C10_18 
REMARK    7  A    between atoms: C10_18  and  C11_20 
REMARK    8  A    between atoms: C11_20  and  N4_21 
REMARK    9  A    between atoms: C11_20  and  C15_29 
REMARK   10  A    between atoms: N4_21  and  C12_23 
REMARK   11  A    between atoms: C15_29  and  O5_30 
REMARK   12  A    between atoms: N6_32  and  O6_34 
ROOT
HETATM    1  C12 UNL     1       4.514   5.438  -0.051  1.00  0.00     0.144 C 
HETATM    2  C13 UNL     1       5.901   5.944  -0.091  1.00  0.00     0.120 C 
HETATM    3  N5  UNL     1       6.975   6.358  -0.114  1.00  0.00    -0.190 NA
HETATM    4  C14 UNL     1       3.648   6.197   0.542  1.00  0.00     0.140 C 
HETATM    5 CL1  UNL     1       4.182   7.725   1.268  1.00  0.00    -0.068 Cl
HETATM    6 CL2  UNL     1       1.963   5.807   0.658  1.00  0.00    -0.068 Cl
ENDROOT
BRANCH   1   7
HETATM    7  N4  UNL     1       4.275   4.216  -0.669  1.00  0.00    -0.361 N 
ATOM      8  H4  UNL     1       3.392   4.171  -1.179  1.00  0.00     0.161 HD
BRANCH   7   9
HETATM    9  C11 UNL     1       5.039   3.020  -0.718  1.00  0.00     0.237 C 
BRANCH   9  10
HETATM   10  C10 UNL     1       4.081   1.857  -0.488  1.00  0.00     0.228 C 
HETATM   11  O4  UNL     1       4.544   0.720  -0.317  1.00  0.00    -0.286 OA
BRANCH  10  12
HETATM   12  C9  UNL     1       2.674   2.115  -0.478  1.00  0.00     0.230 C 
HETATM   13  O3  UNL     1       2.169   2.953  -1.334  1.00  0.00    -0.286 OA
BRANCH  12  14
HETATM   14  C7  UNL     1       1.749   1.465   0.479  1.00  0.00     0.263 C 
BRANCH  14  15
HETATM   15  N3  UNL     1       1.167   0.300   0.016  1.00  0.00    -0.371 N 
HETATM   16  C6  UNL     1       0.405  -0.488   0.936  1.00  0.00     0.150 C 
BRANCH  15  17
HETATM   17  C5  UNL     1       1.198  -0.103  -1.317  1.00  0.00     0.123 C 
BRANCH  17  18
HETATM   18  C4  UNL     1       1.871  -1.453  -1.523  1.00  0.00     0.092 A 
HETATM   19  N2  UNL     1       2.848  -1.979  -0.867  1.00  0.00    -0.334 N 
HETATM   20  C3  UNL     1       3.319  -3.177  -1.194  1.00  0.00     0.131 A 
ATOM     21  H2  UNL     1       3.264  -1.470  -0.088  1.00  0.00     0.168 HD
HETATM   22  N1  UNL     1       4.315  -3.847  -0.616  1.00  0.00    -0.339 N 
HETATM   23  C16 UNL     1       2.713  -3.795  -2.245  1.00  0.00     0.093 A 
HETATM   24  C2  UNL     1       4.656  -5.009  -1.053  1.00  0.00     0.049 A 
ATOM     25  H1  UNL     1       4.810  -3.437   0.177  1.00  0.00     0.168 HD
HETATM   26  C1  UNL     1       5.754  -5.906  -0.516  1.00  0.00     0.076 C 
HETATM   27  S2  UNL     1       3.582  -5.273  -2.350  1.00  0.00    -0.066 SA
HETATM   28  S1  UNL     1       1.519  -2.641  -2.698  1.00  0.00    -0.060 SA
ENDBRANCH  17  18
ENDBRANCH  15  17
ENDBRANCH  14  15
BRANCH  14  29
HETATM   29  C8  UNL     1       0.887   2.463   1.157  1.00  0.00     0.204 C 
HETATM   30  O1  UNL     1       1.254   2.952   2.255  1.00  0.00    -0.646 OA
HETATM   31  O2  UNL     1      -0.302   2.867   0.614  1.00  0.00    -0.646 OA
ENDBRANCH  14  29
ENDBRANCH  12  14
ENDBRANCH  10  12
ENDBRANCH   9  10
BRANCH   9  32
HETATM   32  C15 UNL     1       5.781   2.798  -1.982  1.00  0.00     0.166 C 
HETATM   33  N6  UNL     1       6.964   3.133  -2.223  1.00  0.00    -0.249 N 
ATOM     34  H6  UNL     1       7.262   2.876  -3.164  1.00  0.00     0.196 HD
BRANCH  32  35
HETATM   35  O5  UNL     1       5.125   2.151  -3.053  1.00  0.00    -0.346 OA
ATOM     36  H5  UNL     1       4.820   2.672  -3.786  1.00  0.00     0.219 HD
ENDBRANCH  32  35
BRANCH  33  37
HETATM   37  O6  UNL     1       7.917   3.746  -1.532  1.00  0.00    -0.288 OA
ATOM     38  H6  UNL     1       7.923   4.389  -0.832  1.00  0.00     0.244 HD
ENDBRANCH  33  37
ENDBRANCH   9  32
ENDBRANCH   7   9
ENDBRANCH   1   7
TORSDOF 12
ENDMDL
MODEL 4
REMARK VINA RESULT: -7.205679781      2.698      4.779
REMARK  12 active torsions:
REMARK  status: ('A' for Active; 'I' for Inactive)
REMARK    1  A    between atoms: C4_8  and  C5_9 
REMARK    2  A    between atoms: C5_9  and  N3_10 
REMARK    3  A    between atoms: N3_10  and  C7_12 
REMARK    4  A    between atoms: C7_12  and  C8_13 
REMARK    5  A    between atoms: C7_12  and  C9_16 
REMARK    6  A    between atoms: C9_16  and  C10_18 
REMARK    7  A    between atoms: C10_18  and  C11_20 
REMARK    8  A    between atoms: C11_20  and  N4_21 
REMARK    9  A    between atoms: C11_20  and  C15_29 
REMARK   10  A    between atoms: N4_21  and  C12_23 
REMARK   11  A    between atoms: C15_29  and  O5_30 
REMARK   12  A    between atoms: N6_32  and  O6_34 
ROOT
HETATM    1  C12 UNL     1       4.492   5.371  -0.034  1.00  0.00     0.144 C 
HETATM    2  C13 UNL     1       5.866   5.907  -0.120  1.00  0.00     0.120 C 
HETATM    3  N5  UNL     1       6.930   6.343  -0.179  1.00  0.00    -0.190 NA
HETATM    4  C14 UNL     1       3.617   6.139   0.535  1.00  0.00     0.140 C 
HETATM    5 CL1  UNL     1       4.125   7.711   1.178  1.00  0.00    -0.068 Cl
HETATM    6 CL2  UNL     1       1.943   5.716   0.695  1.00  0.00    -0.068 Cl
ENDROOT
BRANCH   1   7
HETATM    7  N4  UNL     1       4.273   4.116  -0.589  1.00  0.00    -0.361 N 
ATOM      8  H4  UNL     1       3.347   3.996  -1.000  1.00  0.00     0.161 HD
BRANCH   7   9
HETATM    9  C11 UNL     1       5.108   2.971  -0.686  1.00  0.00     0.237 C 
BRANCH   9  10
HETATM   10  C10 UNL     1       4.234   1.748  -0.429  1.00  0.00     0.228 C 
HETATM   11  O4  UNL     1       4.744   0.739   0.082  1.00  0.00    -0.286 OA
BRANCH  10  12
HETATM   12  C9  UNL     1       2.851   1.801  -0.789  1.00  0.00     0.230 C 
HETATM   13  O3  UNL     1       2.504   2.322  -1.927  1.00  0.00    -0.286 OA
BRANCH  12  14
HETATM   14  C7  UNL     1       1.776   1.285   0.090  1.00  0.00     0.263 C 
BRANCH  14  15
HETATM   15  N3  UNL     1       1.137   0.155  -0.386  1.00  0.00    -0.371 N 
HETATM   16  C6  UNL     1       1.942  -0.958  -0.791  1.00  0.00     0.150 C 
BRANCH  15  17
HETATM   17  C5  UNL     1      -0.247  -0.001  -0.404  1.00  0.00     0.123 C 
BRANCH  17  18
HETATM   18  C4  UNL     1      -0.855   0.174  -1.790  1.00  0.00     0.092 A 
HETATM   19  N2  UNL     1      -1.163   1.263  -2.407  1.00  0.00    -0.334 N 
HETATM   20  C3  UNL     1      -1.699   1.227  -3.621  1.00  0.00     0.131 A 
ATOM     21  H2  UNL     1      -0.993   2.162  -1.958  1.00  0.00     0.168 HD
HETATM   22  N1  UNL     1      -2.068   2.258  -4.381  1.00  0.00    -0.339 N 
HETATM   23  C16 UNL     1      -1.896  -0.010  -4.156  1.00  0.00     0.093 A 
HETATM   24  C2  UNL     1      -2.577   2.058  -5.546  1.00  0.00     0.049 A 
ATOM     25  H1  UNL     1      -1.947   3.211  -4.037  1.00  0.00     0.168 HD
HETATM   26  C1  UNL     1      -3.044   3.106  -6.537  1.00  0.00     0.076 C 
HETATM   27  S2  UNL     1      -2.585   0.359  -5.685  1.00  0.00    -0.066 SA
HETATM   28  S1  UNL     1      -1.310  -1.036  -2.905  1.00  0.00    -0.060 SA
ENDBRANCH  17  18
ENDBRANCH  15  17
ENDBRANCH  14  15
BRANCH  14  29
HETATM   29  C8  UNL     1       0.948   2.388   0.634  1.00  0.00     0.204 C 
HETATM   30  O1  UNL     1       0.960   2.619   1.868  1.00  0.00    -0.646 OA
HETATM   31  O2  UNL     1       0.169   3.164  -0.181  1.00  0.00    -0.646 OA
ENDBRANCH  14  29
ENDBRANCH  12  14
ENDBRANCH  10  12
ENDBRANCH   9  10
BRANCH   9  32
HETATM   32  C15 UNL     1       5.805   2.808  -1.983  1.00  0.00     0.166 C 
HETATM   33  N6  UNL     1       6.984   3.143  -2.246  1.00  0.00    -0.249 N 
ATOM     34  H6  UNL     1       7.249   2.933  -3.208  1.00  0.00     0.196 HD
BRANCH  32  35
HETATM   35  O5  UNL     1       5.108   2.224  -3.065  1.00  0.00    -0.346 OA
ATOM     36  H5  UNL     1       5.420   1.400  -3.420  1.00  0.00     0.219 HD
ENDBRANCH  32  35
BRANCH  33  37
HETATM   37  O6  UNL     1       7.966   3.710  -1.555  1.00  0.00    -0.288 OA
ATOM     38  H6  UNL     1       8.884   3.883  -1.723  1.00  0.00     0.244 HD
ENDBRANCH  33  37
ENDBRANCH   9  32
ENDBRANCH   7   9
ENDBRANCH   1   7
TORSDOF 12
ENDMDL
MODEL 5
REMARK VINA RESULT: -7.164825788      2.950      4.281
REMARK  12 active torsions:
REMARK  status: ('A' for Active; 'I' for Inactive)
REMARK    1  A    between atoms: C4_8  and  C5_9 
REMARK    2  A    between atoms: C5_9  and  N3_10 
REMARK    3  A    between atoms: N3_10  and  C7_12 
REMARK    4  A    between atoms: C7_12  and  C8_13 
REMARK    5  A    between atoms: C7_12  and  C9_16 
REMARK    6  A    between atoms: C9_16  and  C10_18 
REMARK    7  A    between atoms: C10_18  and  C11_20 
REMARK    8  A    between atoms: C11_20  and  N4_21 
REMARK    9  A    between atoms: C11_20  and  C15_29 
REMARK   10  A    between atoms: N4_21  and  C12_23 
REMARK   11  A    between atoms: C15_29  and  O5_30 
REMARK   12  A    between atoms: N6_32  and  O6_34 
ROOT
HETATM    1  C12 UNL     1       4.465   5.254  -0.013  1.00  0.00     0.144 C 
HETATM    2  C13 UNL     1       5.803   5.866  -0.141  1.00  0.00     0.120 C 
HETATM    3  N5  UNL     1       6.837   6.362  -0.234  1.00  0.00    -0.190 NA
HETATM    4  C14 UNL     1       3.545   6.000   0.511  1.00  0.00     0.140 C 
HETATM    5 CL1  UNL     1       3.955   7.639   1.050  1.00  0.00    -0.068 Cl
HETATM    6 CL2  UNL     1       1.901   5.486   0.707  1.00  0.00    -0.068 Cl
ENDROOT
BRANCH   1   7
HETATM    7  N4  UNL     1       4.323   3.954  -0.486  1.00  0.00    -0.361 N 
ATOM      8  H4  UNL     1       3.375   3.716  -0.779  1.00  0.00     0.161 HD
BRANCH   7   9
HETATM    9  C11 UNL     1       5.262   2.898  -0.634  1.00  0.00     0.237 C 
BRANCH   9  10
HETATM   10  C10 UNL     1       4.548   1.600  -0.273  1.00  0.00     0.228 C 
HETATM   11  O4  UNL     1       5.223   0.595  -0.006  1.00  0.00    -0.286 OA
BRANCH  10  12
HETATM   12  C9  UNL     1       3.118   1.582  -0.256  1.00  0.00     0.230 C 
HETATM   13  O3  UNL     1       2.479   2.204   0.690  1.00  0.00    -0.286 OA
BRANCH  12  14
HETATM   14  C7  UNL     1       2.315   0.876  -1.281  1.00  0.00     0.263 C 
BRANCH  14  15
HETATM   15  N3  UNL     1       1.095   1.462  -1.561  1.00  0.00    -0.371 N 
HETATM   16  C6  UNL     1       1.089   2.794  -2.087  1.00  0.00     0.150 C 
BRANCH  15  17
HETATM   17  C5  UNL     1      -0.126   0.799  -1.451  1.00  0.00     0.123 C 
BRANCH  17  18
HETATM   18  C4  UNL     1      -0.709   0.840  -0.045  1.00  0.00     0.092 A 
HETATM   19  N2  UNL     1      -0.096   0.790   1.088  1.00  0.00    -0.334 N 
HETATM   20  C3  UNL     1      -0.773   0.829   2.229  1.00  0.00     0.131 A 
ATOM     21  H2  UNL     1       0.921   0.720   1.108  1.00  0.00     0.168 HD
HETATM   22  N1  UNL     1      -0.286   0.787   3.469  1.00  0.00    -0.339 N 
HETATM   23  C16 UNL     1      -2.128   0.922   2.122  1.00  0.00     0.093 A 
HETATM   24  C2  UNL     1      -1.079   0.835   4.481  1.00  0.00     0.049 A 
ATOM     25  H1  UNL     1       0.722   0.717   3.616  1.00  0.00     0.168 HD
HETATM   26  C1  UNL     1      -0.698   0.804   5.948  1.00  0.00     0.076 C 
HETATM   27  S2  UNL     1      -2.623   0.945   3.767  1.00  0.00    -0.066 SA
HETATM   28  S1  UNL     1      -2.350   0.949   0.416  1.00  0.00    -0.060 SA
ENDBRANCH  17  18
ENDBRANCH  15  17
ENDBRANCH  14  15
BRANCH  14  29
HETATM   29  C8  UNL     1       2.363  -0.593  -1.084  1.00  0.00     0.204 C 
HETATM   30  O1  UNL     1       2.566  -1.343  -2.072  1.00  0.00    -0.646 OA
HETATM   31  O2  UNL     1       2.193  -1.154   0.152  1.00  0.00    -0.646 OA
ENDBRANCH  14  29
ENDBRANCH  12  14
ENDBRANCH  10  12
ENDBRANCH   9  10
BRANCH   9  32
HETATM   32  C15 UNL     1       5.856   2.769  -1.985  1.00  0.00     0.166 C 
HETATM   33  N6  UNL     1       7.008   3.120  -2.332  1.00  0.00    -0.249 N 
ATOM     34  H6  UNL     1       7.198   2.932  -3.316  1.00  0.00     0.196 HD
BRANCH  32  35
HETATM   35  O5  UNL     1       5.081   2.200  -3.020  1.00  0.00    -0.346 OA
ATOM     36  H5  UNL     1       5.468   1.526  -3.566  1.00  0.00     0.219 HD
ENDBRANCH  32  35
BRANCH  33  37
HETATM   37  O6  UNL     1       8.037   3.681  -1.708  1.00  0.00    -0.288 OA
ATOM     38  H6  UNL     1       8.210   3.942  -0.811  1.00  0.00     0.244 HD
ENDBRANCH  33  37
ENDBRANCH   9  32
ENDBRANCH   7   9
ENDBRANCH   1   7
TORSDOF 12
ENDMDL
