MODEL 1
REMARK VINA RESULT: -6.706583099      0.000      0.000
REMARK  17 active torsions:
REMARK  status: ('A' for Active; 'I' for Inactive)
REMARK    1  A    between atoms: O1_2  and  C2_3 
REMARK    2  A    between atoms: C4_5  and  C5_6 
REMARK    3  A    between atoms: C5_6  and  O3_8 
REMARK    4  A    between atoms: O3_8  and  N1_9 
REMARK    5  A    between atoms: N1_9  and  C6_11 
REMARK    6  A    between atoms: C6_11  and  C12_25 
REMARK    7  A    between atoms: C7_12  and  O4_13 
REMARK    8  A    between atoms: O4_13  and  C8_14 
REMARK    9  A    between atoms: C8_14  and  C9_16 
REMARK   10  A    between atoms: C9_16  and  N2_17 
REMARK   11  A    between atoms: C9_16  and  C10_21 
REMARK   12  A    between atoms: C10_21  and  O6_23 
REMARK   13  A    between atoms: C12_25  and  O8_27 
REMARK   14  A    between atoms: O8_27  and  C13_28 
REMARK   15  A    between atoms: C17_32  and  S1_33 
REMARK   16  A    between atoms: S1_33  and  C18_34 
REMARK   17  A    between atoms: C20_38  and  O9_39 
ROOT
HETATM    1  C6  UNL     1       0.788  -0.434   0.576  1.00  0.00     0.152 C 
HETATM    2  C7  UNL     1      -0.453  -0.823   1.204  1.00  0.00     0.183 C 
ENDROOT
BRANCH   1   3
HETATM    3  N1  UNL     1       1.329   0.826   0.694  1.00  0.00    -0.249 N 
ATOM      4  H1  UNL     1       0.785   1.462   1.277  1.00  0.00     0.195 HD
BRANCH   3   5
HETATM    5  O3  UNL     1       2.400   1.346   0.200  1.00  0.00    -0.194 OA
BRANCH   5   6
HETATM    6  C5  UNL     1       2.562   2.278  -0.853  1.00  0.00     0.316 C 
HETATM    7  O2  UNL     1       1.819   2.102  -1.818  1.00  0.00    -0.257 OA
BRANCH   6   8
HETATM    8  C4  UNL     1       3.563   3.304  -0.657  1.00  0.00     0.062 A 
HETATM    9  C3  UNL     1       4.875   3.114  -1.088  1.00  0.00     0.058 A 
HETATM   10  C2  UNL     1       5.850   4.090  -0.975  1.00  0.00     0.104 A 
HETATM   11  C20 UNL     1       5.480   5.305  -0.397  1.00  0.00     0.122 A 
HETATM   12  C19 UNL     1       4.185   5.520   0.043  1.00  0.00     0.087 A 
HETATM   13  C17 UNL     1       3.238   4.501  -0.095  1.00  0.00     0.043 A 
HETATM   14 CL1  UNL     1       3.747   7.067   0.761  1.00  0.00    -0.080 Cl
BRANCH  10  15
HETATM   15  O1  UNL     1       7.135   3.968  -1.385  1.00  0.00    -0.353 OA
HETATM   16  C1  UNL     1       7.624   2.855  -2.074  1.00  0.00     0.210 C 
ENDBRANCH  10  15
BRANCH  11  17
HETATM   17  O9  UNL     1       6.431   6.299  -0.282  1.00  0.00    -0.356 OA
ATOM     18  H9  UNL     1       6.514   6.934  -0.984  1.00  0.00     0.218 HD
ENDBRANCH  11  17
BRANCH  13  19
HETATM   19  S1  UNL     1       1.595   4.778   0.522  1.00  0.00    -0.096 SA
BRANCH  19  20
HETATM   20  C18 UNL     1       1.549   4.164   2.250  1.00  0.00     0.301 C 
HETATM   21  F1  UNL     1       2.887   4.074   2.674  1.00  0.00    -0.244 F 
ENDBRANCH  19  20
ENDBRANCH  13  19
ENDBRANCH   6   8
ENDBRANCH   5   6
ENDBRANCH   3   5
ENDBRANCH   1   3
BRANCH   1  22
HETATM   22  C12 UNL     1       1.838  -1.526   0.569  1.00  0.00     0.314 C 
HETATM   23  O7  UNL     1       2.557  -1.707   1.534  1.00  0.00    -0.257 OA
BRANCH  22  24
HETATM   24  O8  UNL     1       1.948  -2.317  -0.565  1.00  0.00    -0.306 OA
BRANCH  24  25
HETATM   25  C13 UNL     1       3.096  -2.411  -1.377  1.00  0.00     0.060 C 
HETATM   26  C14 UNL     1       3.944  -1.154  -1.290  1.00  0.00     0.046 C 
HETATM   27  C15 UNL     1       3.967  -3.590  -0.831  1.00  0.00     0.046 C 
HETATM   28  C16 UNL     1       2.698  -2.737  -2.780  1.00  0.00     0.046 C 
ENDBRANCH  24  25
ENDBRANCH  22  24
ENDBRANCH   1  22
BRANCH   2  29
HETATM   29  O4  UNL     1      -0.568  -0.761   2.610  1.00  0.00    -0.287 OA
BRANCH  29  30
HETATM   30  C8  UNL     1      -0.978   0.468   3.146  1.00  0.00     0.296 C 
HETATM   31  O5  UNL     1      -0.025   1.211   3.608  1.00  0.00    -0.262 OA
BRANCH  30  32
HETATM   32  C9  UNL     1      -2.318   1.024   3.244  1.00  0.00     0.310 C 
BRANCH  32  33
HETATM   33  N2  UNL     1      -2.718   1.451   4.544  1.00  0.00    -0.063 N 
ATOM     34  H23 UNL     1      -3.714   1.674   4.546  1.00  0.00     0.275 HD
ATOM     35  H22 UNL     1      -2.707   0.660   5.189  1.00  0.00     0.275 HD
ATOM     36  H21 UNL     1      -2.189   2.228   4.939  1.00  0.00     0.275 HD
ENDBRANCH  32  33
BRANCH  32  37
HETATM   37  C10 UNL     1      -2.683   1.996   2.150  1.00  0.00     0.154 C 
HETATM   38  C11 UNL     1      -3.974   2.706   2.386  1.00  0.00     0.042 C 
BRANCH  37  39
HETATM   39  O6  UNL     1      -1.673   2.967   1.975  1.00  0.00    -0.393 OA
ATOM     40  H6  UNL     1      -1.815   3.470   1.182  1.00  0.00     0.210 HD
ENDBRANCH  37  39
ENDBRANCH  32  37
ENDBRANCH  30  32
ENDBRANCH  29  30
ENDBRANCH   2  29
TORSDOF 17
ENDMDL
MODEL 2
REMARK VINA RESULT: -6.589300938      2.097      4.777
REMARK  17 active torsions:
REMARK  status: ('A' for Active; 'I' for Inactive)
REMARK    1  A    between atoms: O1_2  and  C2_3 
REMARK    2  A    between atoms: C4_5  and  C5_6 
REMARK    3  A    between atoms: C5_6  and  O3_8 
REMARK    4  A    between atoms: O3_8  and  N1_9 
REMARK    5  A    between atoms: N1_9  and  C6_11 
REMARK    6  A    between atoms: C6_11  and  C12_25 
REMARK    7  A    between atoms: C7_12  and  O4_13 
REMARK    8  A    between atoms: O4_13  and  C8_14 
REMARK    9  A    between atoms: C8_14  and  C9_16 
REMARK   10  A    between atoms: C9_16  and  N2_17 
REMARK   11  A    between atoms: C9_16  and  C10_21 
REMARK   12  A    between atoms: C10_21  and  O6_23 
REMARK   13  A    between atoms: C12_25  and  O8_27 
REMARK   14  A    between atoms: O8_27  and  C13_28 
REMARK   15  A    between atoms: C17_32  and  S1_33 
REMARK   16  A    between atoms: S1_33  and  C18_34 
REMARK   17  A    between atoms: C20_38  and  O9_39 
ROOT
HETATM    1  C6  UNL     1       0.503   0.067   0.487  1.00  0.00     0.152 C 
HETATM    2  C7  UNL     1       1.271  -1.091   0.095  1.00  0.00     0.183 C 
ENDROOT
BRANCH   1   3
HETATM    3  N1  UNL     1       1.052   1.321   0.632  1.00  0.00    -0.249 N 
ATOM      4  H1  UNL     1       0.446   1.991   1.106  1.00  0.00     0.195 HD
BRANCH   3   5
HETATM    5  O3  UNL     1       2.194   1.801   0.275  1.00  0.00    -0.194 OA
BRANCH   5   6
HETATM    6  C5  UNL     1       2.539   2.611  -0.833  1.00  0.00     0.316 C 
HETATM    7  O2  UNL     1       1.883   2.400  -1.852  1.00  0.00    -0.257 OA
BRANCH   6   8
HETATM    8  C4  UNL     1       3.601   3.571  -0.623  1.00  0.00     0.062 A 
HETATM    9  C3  UNL     1       4.903   3.300  -1.041  1.00  0.00     0.058 A 
HETATM   10  C2  UNL     1       5.936   4.211  -0.914  1.00  0.00     0.104 A 
HETATM   11  C20 UNL     1       5.638   5.446  -0.336  1.00  0.00     0.122 A 
HETATM   12  C19 UNL     1       4.354   5.741   0.092  1.00  0.00     0.087 A 
HETATM   13  C17 UNL     1       3.346   4.784  -0.060  1.00  0.00     0.043 A 
HETATM   14 CL1  UNL     1       4.007   7.311   0.811  1.00  0.00    -0.080 Cl
BRANCH  10  15
HETATM   15  O1  UNL     1       7.215   4.009  -1.311  1.00  0.00    -0.353 OA
HETATM   16  C1  UNL     1       7.632   2.891  -2.038  1.00  0.00     0.210 C 
ENDBRANCH  10  15
BRANCH  11  17
HETATM   17  O9  UNL     1       6.649   6.378  -0.207  1.00  0.00    -0.356 OA
ATOM     18  H9  UNL     1       7.336   6.396  -0.862  1.00  0.00     0.218 HD
ENDBRANCH  11  17
BRANCH  13  19
HETATM   19  S1  UNL     1       1.717   5.163   0.541  1.00  0.00    -0.096 SA
BRANCH  19  20
HETATM   20  C18 UNL     1       1.628   4.584   2.280  1.00  0.00     0.301 C 
HETATM   21  F1  UNL     1       2.917   4.130   2.613  1.00  0.00    -0.244 F 
ENDBRANCH  19  20
ENDBRANCH  13  19
ENDBRANCH   6   8
ENDBRANCH   5   6
ENDBRANCH   3   5
ENDBRANCH   1   3
BRANCH   1  22
HETATM   22  C12 UNL     1      -0.893   0.101  -0.099  1.00  0.00     0.314 C 
HETATM   23  O7  UNL     1      -1.744  -0.688   0.267  1.00  0.00    -0.257 OA
BRANCH  22  24
HETATM   24  O8  UNL     1      -1.174   1.065  -1.057  1.00  0.00    -0.306 OA
BRANCH  24  25
HETATM   25  C13 UNL     1      -1.611   0.797  -2.370  1.00  0.00     0.060 C 
HETATM   26  C14 UNL     1      -1.022  -0.499  -2.899  1.00  0.00     0.046 C 
HETATM   27  C15 UNL     1      -3.163   0.610  -2.324  1.00  0.00     0.046 C 
HETATM   28  C16 UNL     1      -1.309   1.966  -3.252  1.00  0.00     0.046 C 
ENDBRANCH  24  25
ENDBRANCH  22  24
ENDBRANCH   1  22
BRANCH   2  29
HETATM   29  O4  UNL     1       1.936  -1.093  -1.151  1.00  0.00    -0.287 OA
BRANCH  29  30
HETATM   30  C8  UNL     1       3.275  -1.508  -1.139  1.00  0.00     0.296 C 
HETATM   31  O5  UNL     1       4.147  -0.553  -1.131  1.00  0.00    -0.262 OA
BRANCH  30  32
HETATM   32  C9  UNL     1       3.816  -2.858  -1.124  1.00  0.00     0.310 C 
BRANCH  32  33
HETATM   33  N2  UNL     1       3.829  -3.507   0.146  1.00  0.00    -0.063 N 
ATOM     34  H23 UNL     1       4.117  -2.850   0.870  1.00  0.00     0.275 HD
ATOM     35  H22 UNL     1       2.873  -3.702   0.446  1.00  0.00     0.275 HD
ATOM     36  H21 UNL     1       4.391  -4.356   0.205  1.00  0.00     0.275 HD
ENDBRANCH  32  33
BRANCH  32  37
HETATM   37  C10 UNL     1       3.346  -3.743  -2.251  1.00  0.00     0.154 C 
HETATM   38  C11 UNL     1       2.139  -4.554  -1.911  1.00  0.00     0.042 C 
BRANCH  37  39
HETATM   39  O6  UNL     1       3.054  -2.984  -3.405  1.00  0.00    -0.393 OA
ATOM     40  H6  UNL     1       2.306  -3.341  -3.870  1.00  0.00     0.210 HD
ENDBRANCH  37  39
ENDBRANCH  32  37
ENDBRANCH  30  32
ENDBRANCH  29  30
ENDBRANCH   2  29
TORSDOF 17
ENDMDL
MODEL 3
REMARK VINA RESULT: -6.551443382      1.596      1.940
REMARK  17 active torsions:
REMARK  status: ('A' for Active; 'I' for Inactive)
REMARK    1  A    between atoms: O1_2  and  C2_3 
REMARK    2  A    between atoms: C4_5  and  C5_6 
REMARK    3  A    between atoms: C5_6  and  O3_8 
REMARK    4  A    between atoms: O3_8  and  N1_9 
REMARK    5  A    between atoms: N1_9  and  C6_11 
REMARK    6  A    between atoms: C6_11  and  C12_25 
REMARK    7  A    between atoms: C7_12  and  O4_13 
REMARK    8  A    between atoms: O4_13  and  C8_14 
REMARK    9  A    between atoms: C8_14  and  C9_16 
REMARK   10  A    between atoms: C9_16  and  N2_17 
REMARK   11  A    between atoms: C9_16  and  C10_21 
REMARK   12  A    between atoms: C10_21  and  O6_23 
REMARK   13  A    between atoms: C12_25  and  O8_27 
REMARK   14  A    between atoms: O8_27  and  C13_28 
REMARK   15  A    between atoms: C17_32  and  S1_33 
REMARK   16  A    between atoms: S1_33  and  C18_34 
REMARK   17  A    between atoms: C20_38  and  O9_39 
ROOT
HETATM    1  C6  UNL     1       0.437   0.253   0.390  1.00  0.00     0.152 C 
HETATM    2  C7  UNL     1      -0.530   0.134   1.455  1.00  0.00     0.183 C 
ENDROOT
BRANCH   1   3
HETATM    3  N1  UNL     1       1.611   0.960   0.514  1.00  0.00    -0.249 N 
ATOM      4  H1  UNL     1       2.399   0.408   0.851  1.00  0.00     0.195 HD
BRANCH   3   5
HETATM    5  O3  UNL     1       1.893   2.197   0.281  1.00  0.00    -0.194 OA
BRANCH   5   6
HETATM    6  C5  UNL     1       2.469   2.803  -0.861  1.00  0.00     0.316 C 
HETATM    7  O2  UNL     1       1.952   2.485  -1.931  1.00  0.00    -0.257 OA
BRANCH   6   8
HETATM    8  C4  UNL     1       3.573   3.707  -0.622  1.00  0.00     0.062 A 
HETATM    9  C3  UNL     1       4.861   3.392  -1.051  1.00  0.00     0.058 A 
HETATM   10  C2  UNL     1       5.934   4.253  -0.897  1.00  0.00     0.104 A 
HETATM   11  C20 UNL     1       5.691   5.481  -0.279  1.00  0.00     0.122 A 
HETATM   12  C19 UNL     1       4.422   5.818   0.160  1.00  0.00     0.087 A 
HETATM   13  C17 UNL     1       3.372   4.913  -0.020  1.00  0.00     0.043 A 
HETATM   14 CL1  UNL     1       4.145   7.378   0.929  1.00  0.00    -0.080 Cl
BRANCH  10  15
HETATM   15  O1  UNL     1       7.202   4.007  -1.303  1.00  0.00    -0.353 OA
HETATM   16  C1  UNL     1       7.570   2.893  -2.061  1.00  0.00     0.210 C 
ENDBRANCH  10  15
BRANCH  11  17
HETATM   17  O9  UNL     1       6.742   6.362  -0.123  1.00  0.00    -0.356 OA
ATOM     18  H9  UNL     1       6.864   7.045  -0.772  1.00  0.00     0.218 HD
ENDBRANCH  11  17
BRANCH  13  19
HETATM   19  S1  UNL     1       1.762   5.343   0.595  1.00  0.00    -0.096 SA
BRANCH  19  20
HETATM   20  C18 UNL     1       1.731   4.930   2.382  1.00  0.00     0.301 C 
HETATM   21  F1  UNL     1       2.896   4.183   2.636  1.00  0.00    -0.244 F 
ENDBRANCH  19  20
ENDBRANCH  13  19
ENDBRANCH   6   8
ENDBRANCH   5   6
ENDBRANCH   3   5
ENDBRANCH   1   3
BRANCH   1  22
HETATM   22  C12 UNL     1       0.596  -1.007  -0.435  1.00  0.00     0.314 C 
HETATM   23  O7  UNL     1      -0.115  -1.976  -0.240  1.00  0.00    -0.257 OA
BRANCH  22  24
HETATM   24  O8  UNL     1       1.568  -1.020  -1.425  1.00  0.00    -0.306 OA
BRANCH  24  25
HETATM   25  C13 UNL     1       2.834  -1.628  -1.308  1.00  0.00     0.060 C 
HETATM   26  C14 UNL     1       2.957  -2.412  -0.013  1.00  0.00     0.046 C 
HETATM   27  C15 UNL     1       2.976  -2.655  -2.479  1.00  0.00     0.046 C 
HETATM   28  C16 UNL     1       3.906  -0.598  -1.459  1.00  0.00     0.046 C 
ENDBRANCH  24  25
ENDBRANCH  22  24
ENDBRANCH   1  22
BRANCH   2  29
HETATM   29  O4  UNL     1      -0.148  -0.460   2.677  1.00  0.00    -0.287 OA
BRANCH  29  30
HETATM   30  C8  UNL     1       0.027   0.409   3.763  1.00  0.00     0.296 C 
HETATM   31  O5  UNL     1       0.312   1.631   3.449  1.00  0.00    -0.262 OA
BRANCH  30  32
HETATM   32  C9  UNL     1      -0.079   0.131   5.186  1.00  0.00     0.310 C 
BRANCH  32  33
HETATM   33  N2  UNL     1       1.114   0.317   5.945  1.00  0.00    -0.063 N 
ATOM     34  H23 UNL     1       1.907   0.452   5.318  1.00  0.00     0.275 HD
ATOM     35  H22 UNL     1       1.093   1.225   6.411  1.00  0.00     0.275 HD
ATOM     36  H21 UNL     1       1.329  -0.415   6.622  1.00  0.00     0.275 HD
ENDBRANCH  32  33
BRANCH  32  37
HETATM   37  C10 UNL     1      -1.311   0.690   5.852  1.00  0.00     0.154 C 
HETATM   38  C11 UNL     1      -1.013   1.575   7.017  1.00  0.00     0.042 C 
BRANCH  37  39
HETATM   39  O6  UNL     1      -2.097   1.421   4.934  1.00  0.00    -0.393 OA
ATOM     40  H6  UNL     1      -2.316   2.279   5.279  1.00  0.00     0.210 HD
ENDBRANCH  37  39
ENDBRANCH  32  37
ENDBRANCH  30  32
ENDBRANCH  29  30
ENDBRANCH   2  29
TORSDOF 17
ENDMDL
MODEL 4
REMARK VINA RESULT: -6.504043767      1.694      5.349
REMARK  17 active torsions:
REMARK  status: ('A' for Active; 'I' for Inactive)
REMARK    1  A    between atoms: O1_2  and  C2_3 
REMARK    2  A    between atoms: C4_5  and  C5_6 
REMARK    3  A    between atoms: C5_6  and  O3_8 
REMARK    4  A    between atoms: O3_8  and  N1_9 
REMARK    5  A    between atoms: N1_9  and  C6_11 
REMARK    6  A    between atoms: C6_11  and  C12_25 
REMARK    7  A    between atoms: C7_12  and  O4_13 
REMARK    8  A    between atoms: O4_13  and  C8_14 
REMARK    9  A    between atoms: C8_14  and  C9_16 
REMARK   10  A    between atoms: C9_16  and  N2_17 
REMARK   11  A    between atoms: C9_16  and  C10_21 
REMARK   12  A    between atoms: C10_21  and  O6_23 
REMARK   13  A    between atoms: C12_25  and  O8_27 
REMARK   14  A    between atoms: O8_27  and  C13_28 
REMARK   15  A    between atoms: C17_32  and  S1_33 
REMARK   16  A    between atoms: S1_33  and  C18_34 
REMARK   17  A    between atoms: C20_38  and  O9_39 
ROOT
HETATM    1  C6  UNL     1       1.251  -0.458   0.290  1.00  0.00     0.152 C 
HETATM    2  C7  UNL     1       1.335  -1.849  -0.087  1.00  0.00     0.183 C 
ENDROOT
BRANCH   1   3
HETATM    3  N1  UNL     1       2.227   0.464  -0.015  1.00  0.00    -0.249 N 
ATOM      4  H1  UNL     1       3.086   0.058  -0.384  1.00  0.00     0.195 HD
BRANCH   3   5
HETATM    5  O3  UNL     1       2.248   1.749   0.082  1.00  0.00    -0.194 OA
BRANCH   5   6
HETATM    6  C5  UNL     1       2.479   2.736  -0.906  1.00  0.00     0.316 C 
HETATM    7  O2  UNL     1       1.713   2.695  -1.867  1.00  0.00    -0.257 OA
BRANCH   6   8
HETATM    8  C4  UNL     1       3.571   3.653  -0.656  1.00  0.00     0.062 A 
HETATM    9  C3  UNL     1       4.863   3.362  -1.089  1.00  0.00     0.058 A 
HETATM   10  C2  UNL     1       5.924   4.235  -0.925  1.00  0.00     0.104 A 
HETATM   11  C20 UNL     1       5.663   5.452  -0.292  1.00  0.00     0.122 A 
HETATM   12  C19 UNL     1       4.390   5.766   0.152  1.00  0.00     0.087 A 
HETATM   13  C17 UNL     1       3.353   4.848  -0.040  1.00  0.00     0.043 A 
HETATM   14 CL1  UNL     1       4.092   7.312   0.940  1.00  0.00    -0.080 Cl
BRANCH  10  15
HETATM   15  O1  UNL     1       7.195   4.012  -1.334  1.00  0.00    -0.353 OA
HETATM   16  C1  UNL     1       7.582   2.902  -2.088  1.00  0.00     0.210 C 
ENDBRANCH  10  15
BRANCH  11  17
HETATM   17  O9  UNL     1       6.702   6.346  -0.125  1.00  0.00    -0.356 OA
ATOM     18  H9  UNL     1       6.915   6.636   0.754  1.00  0.00     0.218 HD
ENDBRANCH  11  17
BRANCH  13  19
HETATM   19  S1  UNL     1       1.738   5.248   0.582  1.00  0.00    -0.096 SA
BRANCH  19  20
HETATM   20  C18 UNL     1       1.740   4.892   2.381  1.00  0.00     0.301 C 
HETATM   21  F1  UNL     1       2.890   4.121   2.631  1.00  0.00    -0.244 F 
ENDBRANCH  19  20
ENDBRANCH  13  19
ENDBRANCH   6   8
ENDBRANCH   5   6
ENDBRANCH   3   5
ENDBRANCH   1   3
BRANCH   1  22
HETATM   22  C12 UNL     1      -0.148   0.116   0.203  1.00  0.00     0.314 C 
HETATM   23  O7  UNL     1      -0.598   0.506  -0.858  1.00  0.00    -0.257 OA
BRANCH  22  24
HETATM   24  O8  UNL     1      -0.901   0.174   1.367  1.00  0.00    -0.306 OA
BRANCH  24  25
HETATM   25  C13 UNL     1      -0.986   1.293   2.220  1.00  0.00     0.060 C 
HETATM   26  C14 UNL     1      -0.936   2.594   1.439  1.00  0.00     0.046 C 
HETATM   27  C15 UNL     1      -2.377   1.240   2.933  1.00  0.00     0.046 C 
HETATM   28  C16 UNL     1       0.078   1.212   3.267  1.00  0.00     0.046 C 
ENDBRANCH  24  25
ENDBRANCH  22  24
ENDBRANCH   1  22
BRANCH   2  29
HETATM   29  O4  UNL     1       1.420  -2.194  -1.453  1.00  0.00    -0.287 OA
BRANCH  29  30
HETATM   30  C8  UNL     1       2.665  -2.657  -1.900  1.00  0.00     0.296 C 
HETATM   31  O5  UNL     1       3.558  -1.739  -2.085  1.00  0.00    -0.262 OA
BRANCH  30  32
HETATM   32  C9  UNL     1       3.093  -4.019  -2.174  1.00  0.00     0.310 C 
BRANCH  32  33
HETATM   33  N2  UNL     1       3.738  -4.227  -3.429  1.00  0.00    -0.063 N 
ATOM     34  H23 UNL     1       3.121  -4.743  -4.055  1.00  0.00     0.275 HD
ATOM     35  H22 UNL     1       3.812  -3.342  -3.933  1.00  0.00     0.275 HD
ATOM     36  H21 UNL     1       4.651  -4.681  -3.390  1.00  0.00     0.275 HD
ENDBRANCH  32  33
BRANCH  32  37
HETATM   37  C10 UNL     1       3.776  -4.713  -1.022  1.00  0.00     0.154 C 
HETATM   38  C11 UNL     1       4.852  -5.658  -1.445  1.00  0.00     0.042 C 
BRANCH  37  39
HETATM   39  O6  UNL     1       4.339  -3.777  -0.127  1.00  0.00    -0.393 OA
ATOM     40  H6  UNL     1       4.490  -4.168   0.726  1.00  0.00     0.210 HD
ENDBRANCH  37  39
ENDBRANCH  32  37
ENDBRANCH  30  32
ENDBRANCH  29  30
ENDBRANCH   2  29
TORSDOF 17
ENDMDL
MODEL 5
REMARK VINA RESULT: -6.489323657      2.258      2.910
REMARK  17 active torsions:
REMARK  status: ('A' for Active; 'I' for Inactive)
REMARK    1  A    between atoms: O1_2  and  C2_3 
REMARK    2  A    between atoms: C4_5  and  C5_6 
REMARK    3  A    between atoms: C5_6  and  O3_8 
REMARK    4  A    between atoms: O3_8  and  N1_9 
REMARK    5  A    between atoms: N1_9  and  C6_11 
REMARK    6  A    between atoms: C6_11  and  C12_25 
REMARK    7  A    between atoms: C7_12  and  O4_13 
REMARK    8  A    between atoms: O4_13  and  C8_14 
REMARK    9  A    between atoms: C8_14  and  C9_16 
REMARK   10  A    between atoms: C9_16  and  N2_17 
REMARK   11  A    between atoms: C9_16  and  C10_21 
REMARK   12  A    between atoms: C10_21  and  O6_23 
REMARK   13  A    between atoms: C12_25  and  O8_27 
REMARK   14  A    between atoms: O8_27  and  C13_28 
REMARK   15  A    between atoms: C17_32  and  S1_33 
REMARK   16  A    between atoms: S1_33  and  C18_34 
REMARK   17  A    between atoms: C20_38  and  O9_39 
ROOT
HETATM    1  C6  UNL     1       3.282  -0.561  -0.773  1.00  0.00     0.152 C 
HETATM    2  C7  UNL     1       1.972  -0.391  -0.190  1.00  0.00     0.183 C 
ENDROOT
BRANCH   1   3
HETATM    3  N1  UNL     1       4.424  -0.023  -0.225  1.00  0.00    -0.249 N 
ATOM      4  H1  UNL     1       4.912  -0.644   0.420  1.00  0.00     0.195 HD
BRANCH   3   5
HETATM    5  O3  UNL     1       4.989   1.125  -0.383  1.00  0.00    -0.194 OA
BRANCH   5   6
HETATM    6  C5  UNL     1       4.645   2.204  -1.232  1.00  0.00     0.316 C 
HETATM    7  O2  UNL     1       4.373   1.884  -2.389  1.00  0.00    -0.257 OA
BRANCH   6   8
HETATM    8  C4  UNL     1       4.654   3.522  -0.635  1.00  0.00     0.062 A 
HETATM    9  C3  UNL     1       5.760   4.360  -0.768  1.00  0.00     0.058 A 
HETATM   10  C2  UNL     1       5.789   5.649  -0.265  1.00  0.00     0.104 A 
HETATM   11  C20 UNL     1       4.651   6.105   0.402  1.00  0.00     0.122 A 
HETATM   12  C19 UNL     1       3.540   5.293   0.553  1.00  0.00     0.087 A 
HETATM   13  C17 UNL     1       3.562   3.998   0.025  1.00  0.00     0.043 A 
HETATM   14 CL1  UNL     1       2.117   5.899   1.394  1.00  0.00    -0.080 Cl
BRANCH  10  15
HETATM   15  O1  UNL     1       6.828   6.511  -0.374  1.00  0.00    -0.353 OA
HETATM   16  C1  UNL     1       8.142   6.185  -0.029  1.00  0.00     0.210 C 
ENDBRANCH  10  15
BRANCH  11  17
HETATM   17  O9  UNL     1       4.651   7.390   0.905  1.00  0.00    -0.356 OA
ATOM     18  H9  UNL     1       5.196   7.584   1.658  1.00  0.00     0.218 HD
ENDBRANCH  11  17
BRANCH  13  19
HETATM   19  S1  UNL     1       2.145   2.955   0.272  1.00  0.00    -0.096 SA
BRANCH  19  20
HETATM   20  C18 UNL     1       0.999   3.248  -1.130  1.00  0.00     0.301 C 
HETATM   21  F1  UNL     1       1.354   2.326  -2.131  1.00  0.00    -0.244 F 
ENDBRANCH  19  20
ENDBRANCH  13  19
ENDBRANCH   6   8
ENDBRANCH   5   6
ENDBRANCH   3   5
ENDBRANCH   1   3
BRANCH   1  22
HETATM   22  C12 UNL     1       3.509  -1.931  -1.378  1.00  0.00     0.314 C 
HETATM   23  O7  UNL     1       4.263  -2.728  -0.852  1.00  0.00    -0.257 OA
BRANCH  22  24
HETATM   24  O8  UNL     1       2.825  -2.251  -2.541  1.00  0.00    -0.306 OA
BRANCH  24  25
HETATM   25  C13 UNL     1       1.947  -3.343  -2.689  1.00  0.00     0.060 C 
HETATM   26  C14 UNL     1       1.343  -3.755  -1.358  1.00  0.00     0.046 C 
HETATM   27  C15 UNL     1       0.767  -2.881  -3.605  1.00  0.00     0.046 C 
HETATM   28  C16 UNL     1       2.653  -4.470  -3.371  1.00  0.00     0.046 C 
ENDBRANCH  24  25
ENDBRANCH  22  24
ENDBRANCH   1  22
BRANCH   2  29
HETATM   29  O4  UNL     1       1.727  -0.864   1.117  1.00  0.00    -0.287 OA
BRANCH  29  30
HETATM   30  C8  UNL     1       0.558  -0.399   1.737  1.00  0.00     0.296 C 
HETATM   31  O5  UNL     1      -0.242   0.269   0.972  1.00  0.00    -0.262 OA
BRANCH  30  32
HETATM   32  C9  UNL     1       0.119  -0.573   3.112  1.00  0.00     0.310 C 
BRANCH  32  33
HETATM   33  N2  UNL     1       0.965  -1.372   3.938  1.00  0.00    -0.063 N 
ATOM     34  H23 UNL     1       1.893  -0.953   3.993  1.00  0.00     0.275 HD
ATOM     35  H22 UNL     1       0.672  -1.297   4.912  1.00  0.00     0.275 HD
ATOM     36  H21 UNL     1       1.043  -2.354   3.674  1.00  0.00     0.275 HD
ENDBRANCH  32  33
BRANCH  32  37
HETATM   37  C10 UNL     1      -0.368   0.685   3.786  1.00  0.00     0.154 C 
HETATM   38  C11 UNL     1      -0.095   0.723   5.254  1.00  0.00     0.042 C 
BRANCH  37  39
HETATM   39  O6  UNL     1       0.211   1.832   3.201  1.00  0.00    -0.393 OA
ATOM     40  H6  UNL     1       0.730   2.314   3.835  1.00  0.00     0.210 HD
ENDBRANCH  37  39
ENDBRANCH  32  37
ENDBRANCH  30  32
ENDBRANCH  29  30
ENDBRANCH   2  29
TORSDOF 17
ENDMDL
