MODEL 1
REMARK VINA RESULT: -6.986051489      0.000      0.000
REMARK  5 active torsions:
REMARK  status: ('A' for Active; 'I' for Inactive)
REMARK    1  A    between atoms: C1_2  and  C2_3 
REMARK       I    between atoms: C1_2  and  N3_13 
REMARK    2  A    between atoms: C2_3  and  N1_4 
REMARK    3  A    between atoms: N3_13  and  C8_15 
REMARK    4  A    between atoms: C10_17  and  C11_18 
REMARK    5  A    between atoms: C11_18  and  N4_19 
ROOT
HETATM    1  C8  UNL     1      -4.059   3.231  11.117  1.00  0.00     0.187 C 
HETATM    2  C9  UNL     1      -3.694   2.981  12.569  1.00  0.00     0.062 C 
HETATM    3  C10 UNL     1      -4.791   1.957  12.944  1.00  0.00     0.110 C 
HETATM    4  C17 UNL     1      -4.756   1.096  11.733  1.00  0.00     0.225 C 
HETATM    5  O2  UNL     1      -4.924  -0.146  11.706  1.00  0.00    -0.273 OA
HETATM    6  N5  UNL     1      -4.496   1.962  10.624  1.00  0.00    -0.340 N 
ATOM      7  H5  UNL     1      -4.604   1.714   9.640  1.00  0.00     0.164 HD
ENDROOT
BRANCH   1   8
HETATM    8  N3  UNL     1      -2.954   3.787  10.374  1.00  0.00    -0.339 N 
HETATM    9  C1  UNL     1      -1.903   3.041   9.829  1.00  0.00     0.236 C 
HETATM   10  O1  UNL     1      -1.873   1.782   9.974  1.00  0.00    -0.272 OA
ATOM     11  H3  UNL     1      -2.938   4.797  10.235  1.00  0.00     0.164 HD
BRANCH   9  12
HETATM   12  C2  UNL     1      -0.796   3.664   9.074  1.00  0.00     0.219 C 
BRANCH  12  13
HETATM   13  N1  UNL     1       0.490   3.530   9.645  1.00  0.00    -0.402 N 
HETATM   14  C3  UNL     1       0.655   3.872  11.008  1.00  0.00     0.119 C 
HETATM   15  C4  UNL     1       1.069   5.336  11.098  1.00  0.00     0.047 C 
HETATM   16  C5  UNL     1       2.525   5.450  10.718  1.00  0.00     0.234 C 
HETATM   17  N2  UNL     1       2.691   5.855   9.334  1.00  0.00    -0.074 N 
HETATM   18  C6  UNL     1       1.756   5.173   8.460  1.00  0.00     0.251 C 
ATOM     19  H22 UNL     1       2.624   6.867   9.232  1.00  0.00     0.277 HD
ATOM     20  H21 UNL     1       3.654   5.726   9.022  1.00  0.00     0.277 HD
HETATM   21  C7  UNL     1       1.612   3.720   8.799  1.00  0.00     0.144 C 
ENDBRANCH  12  13
ENDBRANCH   9  12
ENDBRANCH   1   8
BRANCH   3  22
HETATM   22  C11 UNL     1      -4.435   1.227  14.188  1.00  0.00     0.286 C 
BRANCH  22  23
HETATM   23  N4  UNL     1      -5.407   1.437  15.207  1.00  0.00     0.089 N 
HETATM   24  C12 UNL     1      -5.120   0.507  16.297  1.00  0.00     0.272 C 
HETATM   25  C13 UNL     1      -6.125   0.557  17.395  1.00  0.00     0.030 C 
HETATM   26  C14 UNL     1      -6.495   1.969  17.792  1.00  0.00     0.003 C 
HETATM   27  C15 UNL     1      -6.805   2.807  16.580  1.00  0.00     0.030 C 
HETATM   28  C16 UNL     1      -5.550   2.778  15.690  1.00  0.00     0.272 C 
ENDBRANCH  22  23
ENDBRANCH   3  22
TORSDOF 5
ENDMDL
MODEL 2
REMARK VINA RESULT: -6.880789573      1.315      1.526
REMARK  5 active torsions:
REMARK  status: ('A' for Active; 'I' for Inactive)
REMARK    1  A    between atoms: C1_2  and  C2_3 
REMARK       I    between atoms: C1_2  and  N3_13 
REMARK    2  A    between atoms: C2_3  and  N1_4 
REMARK    3  A    between atoms: N3_13  and  C8_15 
REMARK    4  A    between atoms: C10_17  and  C11_18 
REMARK    5  A    between atoms: C11_18  and  N4_19 
ROOT
HETATM    1  C8  UNL     1      -3.772   3.579  11.364  1.00  0.00     0.187 C 
HETATM    2  C9  UNL     1      -3.453   3.073  12.758  1.00  0.00     0.062 C 
HETATM    3  C10 UNL     1      -4.720   2.230  13.029  1.00  0.00     0.110 C 
HETATM    4  C17 UNL     1      -4.855   1.548  11.716  1.00  0.00     0.225 C 
HETATM    5  O2  UNL     1      -5.254   0.374  11.532  1.00  0.00    -0.273 OA
HETATM    6  N5  UNL     1      -4.442   2.492  10.722  1.00  0.00    -0.340 N 
ATOM      7  H5  UNL     1      -4.601   2.402   9.718  1.00  0.00     0.164 HD
ENDROOT
BRANCH   1   8
HETATM    8  N3  UNL     1      -2.586   4.015  10.666  1.00  0.00    -0.339 N 
HETATM    9  C1  UNL     1      -2.534   4.337   9.306  1.00  0.00     0.236 C 
HETATM   10  O1  UNL     1      -3.577   4.253   8.590  1.00  0.00    -0.272 OA
ATOM     11  H3  UNL     1      -1.724   4.095  11.204  1.00  0.00     0.164 HD
BRANCH   9  12
HETATM   12  C2  UNL     1      -1.290   4.779   8.643  1.00  0.00     0.219 C 
BRANCH  12  13
HETATM   13  N1  UNL     1      -0.307   3.782   8.447  1.00  0.00    -0.402 N 
HETATM   14  C3  UNL     1       0.675   3.606   9.450  1.00  0.00     0.119 C 
HETATM   15  C4  UNL     1       1.882   4.471   9.109  1.00  0.00     0.047 C 
HETATM   16  C5  UNL     1       2.655   3.806   7.998  1.00  0.00     0.234 C 
HETATM   17  N2  UNL     1       2.328   4.371   6.701  1.00  0.00    -0.074 N 
HETATM   18  C6  UNL     1       0.905   4.610   6.563  1.00  0.00     0.251 C 
ATOM     19  H22 UNL     1       2.867   5.217   6.517  1.00  0.00     0.277 HD
ATOM     20  H21 UNL     1       2.683   3.788   5.942  1.00  0.00     0.277 HD
HETATM   21  C7  UNL     1       0.080   3.487   7.115  1.00  0.00     0.144 C 
ENDBRANCH  12  13
ENDBRANCH   9  12
ENDBRANCH   1   8
BRANCH   3  22
HETATM   22  C11 UNL     1      -4.502   1.286  14.155  1.00  0.00     0.286 C 
BRANCH  22  23
HETATM   23  N4  UNL     1      -5.458   1.485  15.191  1.00  0.00     0.089 N 
HETATM   24  C12 UNL     1      -5.166   0.533  16.259  1.00  0.00     0.272 C 
HETATM   25  C13 UNL     1      -6.156   0.571  17.371  1.00  0.00     0.030 C 
HETATM   26  C14 UNL     1      -6.508   1.978  17.799  1.00  0.00     0.003 C 
HETATM   27  C15 UNL     1      -6.826   2.841  16.608  1.00  0.00     0.030 C 
HETATM   28  C16 UNL     1      -5.583   2.818  15.700  1.00  0.00     0.272 C 
ENDBRANCH  22  23
ENDBRANCH   3  22
TORSDOF 5
ENDMDL
MODEL 3
REMARK VINA RESULT: -6.867868388      0.441      1.068
REMARK  5 active torsions:
REMARK  status: ('A' for Active; 'I' for Inactive)
REMARK    1  A    between atoms: C1_2  and  C2_3 
REMARK       I    between atoms: C1_2  and  N3_13 
REMARK    2  A    between atoms: C2_3  and  N1_4 
REMARK    3  A    between atoms: N3_13  and  C8_15 
REMARK    4  A    between atoms: C10_17  and  C11_18 
REMARK    5  A    between atoms: C11_18  and  N4_19 
ROOT
HETATM    1  C8  UNL     1      -3.915   3.522  11.196  1.00  0.00     0.187 C 
HETATM    2  C9  UNL     1      -3.528   3.031  12.579  1.00  0.00     0.062 C 
HETATM    3  C10 UNL     1      -4.748   2.134  12.892  1.00  0.00     0.110 C 
HETATM    4  C17 UNL     1      -4.896   1.446  11.583  1.00  0.00     0.225 C 
HETATM    5  O2  UNL     1      -5.250   0.255  11.412  1.00  0.00    -0.273 OA
HETATM    6  N5  UNL     1      -4.559   2.405  10.576  1.00  0.00    -0.340 N 
ATOM      7  H5  UNL     1      -4.747   2.308   9.579  1.00  0.00     0.164 HD
ENDROOT
BRANCH   1   8
HETATM    8  N3  UNL     1      -2.774   4.008  10.459  1.00  0.00    -0.339 N 
HETATM    9  C1  UNL     1      -1.813   3.195   9.849  1.00  0.00     0.236 C 
HETATM   10  O1  UNL     1      -1.907   1.932   9.921  1.00  0.00    -0.272 OA
ATOM     11  H3  UNL     1      -2.659   5.018  10.378  1.00  0.00     0.164 HD
BRANCH   9  12
HETATM   12  C2  UNL     1      -0.662   3.748   9.105  1.00  0.00     0.219 C 
BRANCH  12  13
HETATM   13  N1  UNL     1       0.607   3.542   9.691  1.00  0.00    -0.402 N 
HETATM   14  C3  UNL     1       0.780   3.895  11.051  1.00  0.00     0.119 C 
HETATM   15  C4  UNL     1       1.285   5.331  11.123  1.00  0.00     0.047 C 
HETATM   16  C5  UNL     1       2.748   5.346  10.758  1.00  0.00     0.234 C 
HETATM   17  N2  UNL     1       2.954   5.718   9.369  1.00  0.00    -0.074 N 
HETATM   18  C6  UNL     1       1.987   5.083   8.496  1.00  0.00     0.251 C 
ATOM     19  H22 UNL     1       2.953   6.731   9.252  1.00  0.00     0.277 HD
ATOM     20  H21 UNL     1       3.909   5.524   9.070  1.00  0.00     0.277 HD
HETATM   21  C7  UNL     1       1.747   3.647   8.854  1.00  0.00     0.144 C 
ENDBRANCH  12  13
ENDBRANCH   9  12
ENDBRANCH   1   8
BRANCH   3  22
HETATM   22  C11 UNL     1      -4.451   1.201  14.009  1.00  0.00     0.286 C 
BRANCH  22  23
HETATM   23  N4  UNL     1      -4.969   1.690  15.242  1.00  0.00     0.089 N 
HETATM   24  C12 UNL     1      -6.028   2.648  14.934  1.00  0.00     0.272 C 
HETATM   25  C13 UNL     1      -6.595   3.309  16.142  1.00  0.00     0.030 C 
HETATM   26  C14 UNL     1      -6.868   2.340  17.272  1.00  0.00     0.003 C 
HETATM   27  C15 UNL     1      -5.684   1.442  17.510  1.00  0.00     0.030 C 
HETATM   28  C16 UNL     1      -5.412   0.707  16.185  1.00  0.00     0.272 C 
ENDBRANCH  22  23
ENDBRANCH   3  22
TORSDOF 5
ENDMDL
MODEL 4
REMARK VINA RESULT: -6.746303661      4.757      8.823
REMARK  5 active torsions:
REMARK  status: ('A' for Active; 'I' for Inactive)
REMARK    1  A    between atoms: C1_2  and  C2_3 
REMARK       I    between atoms: C1_2  and  N3_13 
REMARK    2  A    between atoms: C2_3  and  N1_4 
REMARK    3  A    between atoms: N3_13  and  C8_15 
REMARK    4  A    between atoms: C10_17  and  C11_18 
REMARK    5  A    between atoms: C11_18  and  N4_19 
ROOT
HETATM    1  C8  UNL     1      -4.825   6.632  12.144  1.00  0.00     0.187 C 
HETATM    2  C9  UNL     1      -6.252   6.660  11.630  1.00  0.00     0.062 C 
HETATM    3  C10 UNL     1      -5.997   7.097  10.169  1.00  0.00     0.110 C 
HETATM    4  C17 UNL     1      -4.828   6.237   9.849  1.00  0.00     0.225 C 
HETATM    5  O2  UNL     1      -4.588   5.702   8.742  1.00  0.00    -0.273 OA
HETATM    6  N5  UNL     1      -4.047   6.149  11.045  1.00  0.00    -0.340 N 
ATOM      7  H5  UNL     1      -3.092   5.798  11.104  1.00  0.00     0.164 HD
ENDROOT
BRANCH   1   8
HETATM    8  N3  UNL     1      -4.699   5.825  13.334  1.00  0.00    -0.339 N 
HETATM    9  C1  UNL     1      -4.724   4.427  13.357  1.00  0.00     0.236 C 
HETATM   10  O1  UNL     1      -4.867   3.774  12.280  1.00  0.00    -0.272 OA
ATOM     11  H3  UNL     1      -4.583   6.310  14.224  1.00  0.00     0.164 HD
BRANCH   9  12
HETATM   12  C2  UNL     1      -4.589   3.651  14.608  1.00  0.00     0.219 C 
BRANCH  12  13
HETATM   13  N1  UNL     1      -5.471   2.557  14.752  1.00  0.00    -0.402 N 
HETATM   14  C3  UNL     1      -6.738   2.793  15.337  1.00  0.00     0.119 C 
HETATM   15  C4  UNL     1      -6.637   2.554  16.838  1.00  0.00     0.047 C 
HETATM   16  C5  UNL     1      -6.610   1.067  17.089  1.00  0.00     0.234 C 
HETATM   17  N2  UNL     1      -5.256   0.575  17.276  1.00  0.00    -0.074 N 
HETATM   18  C6  UNL     1      -4.333   1.177  16.335  1.00  0.00     0.251 C 
ATOM     19  H22 UNL     1      -4.944   0.705  18.238  1.00  0.00     0.277 HD
ATOM     20  H21 UNL     1      -5.221  -0.443  17.233  1.00  0.00     0.277 HD
HETATM   21  C7  UNL     1      -4.905   1.272  14.953  1.00  0.00     0.144 C 
ENDBRANCH  12  13
ENDBRANCH   9  12
ENDBRANCH   1   8
BRANCH   3  22
HETATM   22  C11 UNL     1      -7.179   6.814   9.314  1.00  0.00     0.286 C 
BRANCH  22  23
HETATM   23  N4  UNL     1      -7.506   7.933   8.496  1.00  0.00     0.089 N 
HETATM   24  C12 UNL     1      -8.952   7.929   8.291  1.00  0.00     0.272 C 
HETATM   25  C13 UNL     1      -9.420   9.000   7.368  1.00  0.00     0.030 C 
HETATM   26  C14 UNL     1      -8.782  10.342   7.651  1.00  0.00     0.003 C 
HETATM   27  C15 UNL     1      -7.290  10.210   7.800  1.00  0.00     0.030 C 
HETATM   28  C16 UNL     1      -7.047   9.212   8.946  1.00  0.00     0.272 C 
ENDBRANCH  22  23
ENDBRANCH   3  22
TORSDOF 5
ENDMDL
MODEL 5
REMARK VINA RESULT: -6.729725000      1.808      8.864
REMARK  5 active torsions:
REMARK  status: ('A' for Active; 'I' for Inactive)
REMARK    1  A    between atoms: C1_2  and  C2_3 
REMARK       I    between atoms: C1_2  and  N3_13 
REMARK    2  A    between atoms: C2_3  and  N1_4 
REMARK    3  A    between atoms: N3_13  and  C8_15 
REMARK    4  A    between atoms: C10_17  and  C11_18 
REMARK    5  A    between atoms: C11_18  and  N4_19 
ROOT
HETATM    1  C8  UNL     1      -2.148   2.553  11.049  1.00  0.00     0.187 C 
HETATM    2  C9  UNL     1      -0.637   2.408  11.061  1.00  0.00     0.062 C 
HETATM    3  C10 UNL     1      -0.250   3.613  10.172  1.00  0.00     0.110 C 
HETATM    4  C17 UNL     1      -1.168   4.640  10.729  1.00  0.00     0.225 C 
HETATM    5  O2  UNL     1      -0.913   5.860  10.867  1.00  0.00    -0.273 OA
HETATM    6  N5  UNL     1      -2.382   3.963  11.068  1.00  0.00    -0.340 N 
ATOM      7  H5  UNL     1      -3.271   4.413  11.287  1.00  0.00     0.164 HD
ENDROOT
BRANCH   1   8
HETATM    8  N3  UNL     1      -2.762   1.854  12.153  1.00  0.00    -0.339 N 
HETATM    9  C1  UNL     1      -4.139   1.800  12.395  1.00  0.00     0.236 C 
HETATM   10  O1  UNL     1      -4.947   2.392  11.618  1.00  0.00    -0.272 OA
ATOM     11  H3  UNL     1      -2.148   1.364  12.803  1.00  0.00     0.164 HD
BRANCH   9  12
HETATM   12  C2  UNL     1      -4.714   1.067  13.542  1.00  0.00     0.219 C 
BRANCH  12  13
HETATM   13  N1  UNL     1      -4.423   1.596  14.820  1.00  0.00    -0.402 N 
HETATM   14  C3  UNL     1      -4.407   0.710  15.923  1.00  0.00     0.119 C 
HETATM   15  C4  UNL     1      -5.794   0.688  16.552  1.00  0.00     0.047 C 
HETATM   16  C5  UNL     1      -5.980   1.952  17.355  1.00  0.00     0.234 C 
HETATM   17  N2  UNL     1      -6.720   2.958  16.613  1.00  0.00    -0.074 N 
HETATM   18  C6  UNL     1      -6.294   3.023  15.229  1.00  0.00     0.251 C 
ATOM     19  H22 UNL     1      -7.726   2.808  16.686  1.00  0.00     0.277 HD
ATOM     20  H21 UNL     1      -6.661   3.870  17.065  1.00  0.00     0.277 HD
HETATM   21  C7  UNL     1      -4.805   2.936  15.083  1.00  0.00     0.144 C 
ENDBRANCH  12  13
ENDBRANCH   9  12
ENDBRANCH   1   8
BRANCH   3  22
HETATM   22  C11 UNL     1       1.184   3.960  10.341  1.00  0.00     0.286 C 
BRANCH  22  23
HETATM   23  N4  UNL     1       1.950   3.563   9.209  1.00  0.00     0.089 N 
HETATM   24  C12 UNL     1       1.168   3.865   8.012  1.00  0.00     0.272 C 
HETATM   25  C13 UNL     1       1.819   3.409   6.752  1.00  0.00     0.030 C 
HETATM   26  C14 UNL     1       3.294   3.742   6.697  1.00  0.00     0.003 C 
HETATM   27  C15 UNL     1       3.985   3.343   7.973  1.00  0.00     0.030 C 
HETATM   28  C16 UNL     1       3.276   4.096   9.113  1.00  0.00     0.272 C 
ENDBRANCH  22  23
ENDBRANCH   3  22
TORSDOF 5
ENDMDL
