MODEL 1
REMARK VINA RESULT: -4.926585122      0.000      0.000
REMARK  6 active torsions:
REMARK  status: ('A' for Active; 'I' for Inactive)
REMARK    1  A    between atoms: C3_3  and  O1_4 
REMARK    2  A    between atoms: O1_4  and  C4_5 
REMARK    3  A    between atoms: C7_9  and  O2_10 
REMARK    4  A    between atoms: C7_9  and  C8_12 
REMARK    5  A    between atoms: C9_13  and  C10_14 
REMARK    6  A    between atoms: C18_23  and  O3_24 
ROOT
HETATM    1  C1  UNL     1      85.200 100.603 -43.990  1.00  0.00     0.019 C 
HETATM    2  C2  UNL     1      86.223  99.782 -44.029  1.00  0.00    -0.031 C 
HETATM    3  C3  UNL     1      86.729  98.865 -45.088  1.00  0.00     0.158 C 
HETATM    4  C5  UNL     1      88.264  98.930 -44.941  1.00  0.00     0.035 C 
HETATM    5  C6  UNL     1      88.763  97.543 -44.860  1.00  0.00     0.060 C 
HETATM    6  C7  UNL     1      90.160  97.450 -45.469  1.00  0.00     0.124 C 
HETATM    7  C12 UNL     1      90.941  98.645 -44.928  1.00  0.00     0.030 C 
HETATM    8  C13 UNL     1      92.414  98.355 -45.224  1.00  0.00     0.014 C 
HETATM    9  C14 UNL     1      90.712  98.659 -43.438  1.00  0.00     0.025 C 
HETATM   10  C15 UNL     1      89.701  99.645 -42.980  1.00  0.00     0.070 C 
HETATM   11 BR2  UNL     1      90.659 101.331 -42.688  1.00  0.00    -0.090 Br
HETATM   12  C16 UNL     1      88.496  99.813 -43.790  1.00  0.00     0.005 C 
HETATM   13  C17 UNL     1      88.291 101.256 -44.282  1.00  0.00     0.020 C 
HETATM   14  C18 UNL     1      87.246  99.541 -42.930  1.00  0.00     0.158 C 
ENDROOT
BRANCH   6  15
HETATM   15  O2  UNL     1      90.061  97.545 -46.842  1.00  0.00    -0.377 OA
ATOM     16  H2  UNL     1      90.794  98.051 -47.173  1.00  0.00     0.211 HD
ENDBRANCH   6  15
BRANCH   6  17
HETATM   17  C8  UNL     1      90.797  96.245 -45.003  1.00  0.00    -0.068 C 
HETATM   18  C9  UNL     1      91.308  95.246 -44.607  1.00  0.00    -0.104 C 
BRANCH  18  19
HETATM   19  C10 UNL     1      91.924  94.003 -44.097  1.00  0.00     0.089 C 
HETATM   20  C11 UNL     1      91.924  94.064 -42.565  1.00  0.00     0.018 C 
ENDBRANCH  18  19
ENDBRANCH   6  17
BRANCH   3  21
HETATM   21  O1  UNL     1      86.328  99.172 -46.356  1.00  0.00    -0.371 OA
BRANCH  21  22
HETATM   22  C4  UNL     1      86.028  98.026 -47.084  1.00  0.00     0.253 C 
HETATM   23 BR1  UNL     1      85.181  96.695 -45.973  1.00  0.00    -0.068 Br
ENDBRANCH  21  22
ENDBRANCH   3  21
BRANCH  14  24
HETATM   24  O3  UNL     1      87.118 100.441 -41.906  1.00  0.00    -0.390 OA
ATOM     25  H3  UNL     1      86.674 100.063 -41.156  1.00  0.00     0.210 HD
ENDBRANCH  14  24
TORSDOF 6
ENDMDL
MODEL 2
REMARK VINA RESULT: -4.920557249      2.410      3.226
REMARK  6 active torsions:
REMARK  status: ('A' for Active; 'I' for Inactive)
REMARK    1  A    between atoms: C3_3  and  O1_4 
REMARK    2  A    between atoms: O1_4  and  C4_5 
REMARK    3  A    between atoms: C7_9  and  O2_10 
REMARK    4  A    between atoms: C7_9  and  C8_12 
REMARK    5  A    between atoms: C9_13  and  C10_14 
REMARK    6  A    between atoms: C18_23  and  O3_24 
ROOT
HETATM    1  C1  UNL     1      85.230  96.739 -47.395  1.00  0.00     0.019 C 
HETATM    2  C2  UNL     1      86.191  96.826 -46.505  1.00  0.00    -0.031 C 
HETATM    3  C3  UNL     1      87.673  96.742 -46.624  1.00  0.00     0.158 C 
HETATM    4  C5  UNL     1      88.193  97.759 -45.585  1.00  0.00     0.035 C 
HETATM    5  C6  UNL     1      89.191  97.068 -44.746  1.00  0.00     0.060 C 
HETATM    6  C7  UNL     1      90.255  98.056 -44.272  1.00  0.00     0.124 C 
HETATM    7  C12 UNL     1      89.503  99.301 -43.810  1.00  0.00     0.030 C 
HETATM    8  C13 UNL     1      90.509 100.124 -43.001  1.00  0.00     0.014 C 
HETATM    9  C14 UNL     1      88.396  98.816 -42.909  1.00  0.00     0.025 C 
HETATM   10  C15 UNL     1      87.060  98.759 -43.551  1.00  0.00     0.070 C 
HETATM   11 BR2  UNL     1      86.253 100.532 -43.321  1.00  0.00    -0.090 Br
HETATM   12  C16 UNL     1      86.985  98.279 -44.930  1.00  0.00     0.005 C 
HETATM   13  C17 UNL     1      86.355  99.299 -45.894  1.00  0.00     0.020 C 
HETATM   14  C18 UNL     1      86.037  97.067 -45.012  1.00  0.00     0.158 C 
ENDROOT
BRANCH   6  15
HETATM   15  O2  UNL     1      91.076  98.377 -45.332  1.00  0.00    -0.377 OA
ATOM     16  H2  UNL     1      91.877  97.869 -45.270  1.00  0.00     0.211 HD
ENDBRANCH   6  15
BRANCH   6  17
HETATM   17  C8  UNL     1      90.944  97.496 -43.137  1.00  0.00    -0.068 C 
HETATM   18  C9  UNL     1      91.502  97.018 -42.200  1.00  0.00    -0.104 C 
BRANCH  18  19
HETATM   19  C10 UNL     1      92.177  96.406 -41.038  1.00  0.00     0.089 C 
HETATM   20  C11 UNL     1      91.897  94.899 -41.062  1.00  0.00     0.018 C 
ENDBRANCH  18  19
ENDBRANCH   6  17
BRANCH   3  21
HETATM   21  O1  UNL     1      88.167  96.995 -47.871  1.00  0.00    -0.371 OA
BRANCH  21  22
HETATM   22  C4  UNL     1      88.931  95.931 -48.339  1.00  0.00     0.253 C 
HETATM   23 BR1  UNL     1      87.997  94.952 -49.714  1.00  0.00    -0.068 Br
ENDBRANCH  21  22
ENDBRANCH   3  21
BRANCH  14  24
HETATM   24  O3  UNL     1      84.751  97.394 -44.676  1.00  0.00    -0.390 OA
ATOM     25  H3  UNL     1      84.645  97.502 -43.738  1.00  0.00     0.210 HD
ENDBRANCH  14  24
TORSDOF 6
ENDMDL
MODEL 3
REMARK VINA RESULT: -4.900490473      3.979      6.530
REMARK  6 active torsions:
REMARK  status: ('A' for Active; 'I' for Inactive)
REMARK    1  A    between atoms: C3_3  and  O1_4 
REMARK    2  A    between atoms: O1_4  and  C4_5 
REMARK    3  A    between atoms: C7_9  and  O2_10 
REMARK    4  A    between atoms: C7_9  and  C8_12 
REMARK    5  A    between atoms: C9_13  and  C10_14 
REMARK    6  A    between atoms: C18_23  and  O3_24 
ROOT
HETATM    1  C1  UNL     1      90.634  96.673 -44.857  1.00  0.00     0.019 C 
HETATM    2  C2  UNL     1      90.727  97.716 -44.066  1.00  0.00    -0.031 C 
HETATM    3  C3  UNL     1      91.249  97.877 -42.681  1.00  0.00     0.158 C 
HETATM    4  C5  UNL     1      91.912  99.271 -42.686  1.00  0.00     0.035 C 
HETATM    5  C6  UNL     1      91.378 100.023 -41.535  1.00  0.00     0.060 C 
HETATM    6  C7  UNL     1      92.431 100.995 -41.007  1.00  0.00     0.124 C 
HETATM    7  C12 UNL     1      93.035 101.674 -42.232  1.00  0.00     0.030 C 
HETATM    8  C13 UNL     1      93.800 102.891 -41.704  1.00  0.00     0.014 C 
HETATM    9  C14 UNL     1      91.874 102.128 -43.079  1.00  0.00     0.025 C 
HETATM   10  C15 UNL     1      91.573 101.248 -44.235  1.00  0.00     0.070 C 
HETATM   11 BR2  UNL     1      92.694 101.873 -45.719  1.00  0.00    -0.090 Br
HETATM   12  C16 UNL     1      91.660  99.802 -44.033  1.00  0.00     0.005 C 
HETATM   13  C17 UNL     1      92.656  99.115 -44.982  1.00  0.00     0.020 C 
HETATM   14  C18 UNL     1      90.311  99.144 -44.382  1.00  0.00     0.158 C 
ENDROOT
BRANCH   6  15
HETATM   15  O2  UNL     1      93.408 100.283 -40.342  1.00  0.00    -0.377 OA
ATOM     16  H2  UNL     1      93.123  99.383 -40.241  1.00  0.00     0.211 HD
ENDBRANCH   6  15
BRANCH   6  17
HETATM   17  C8  UNL     1      91.782 102.001 -40.205  1.00  0.00    -0.068 C 
HETATM   18  C9  UNL     1      91.242 102.819 -39.529  1.00  0.00    -0.104 C 
BRANCH  18  19
HETATM   19  C10 UNL     1      90.565 103.815 -38.674  1.00  0.00     0.089 C 
HETATM   20  C11 UNL     1      90.912 103.505 -37.214  1.00  0.00     0.018 C 
ENDBRANCH  18  19
ENDBRANCH   6  17
BRANCH   3  21
HETATM   21  O1  UNL     1      92.118  96.905 -42.276  1.00  0.00    -0.371 OA
BRANCH  21  22
HETATM   22  C4  UNL     1      91.551  96.096 -41.296  1.00  0.00     0.253 C 
HETATM   23 BR1  UNL     1      92.021  94.244 -41.561  1.00  0.00    -0.068 Br
ENDBRANCH  21  22
ENDBRANCH   3  21
BRANCH  14  24
HETATM   24  O3  UNL     1      89.986  99.302 -45.703  1.00  0.00    -0.390 OA
ATOM     25  H3  UNL     1      90.198 100.172 -46.019  1.00  0.00     0.210 HD
ENDBRANCH  14  24
TORSDOF 6
ENDMDL
MODEL 4
REMARK VINA RESULT: -4.861596302      1.839      2.518
REMARK  6 active torsions:
REMARK  status: ('A' for Active; 'I' for Inactive)
REMARK    1  A    between atoms: C3_3  and  O1_4 
REMARK    2  A    between atoms: O1_4  and  C4_5 
REMARK    3  A    between atoms: C7_9  and  O2_10 
REMARK    4  A    between atoms: C7_9  and  C8_12 
REMARK    5  A    between atoms: C9_13  and  C10_14 
REMARK    6  A    between atoms: C18_23  and  O3_24 
ROOT
HETATM    1  C1  UNL     1      86.453  99.284 -47.743  1.00  0.00     0.019 C 
HETATM    2  C2  UNL     1      87.246  98.655 -46.907  1.00  0.00    -0.031 C 
HETATM    3  C3  UNL     1      88.535  97.935 -47.102  1.00  0.00     0.158 C 
HETATM    4  C5  UNL     1      89.339  98.247 -45.822  1.00  0.00     0.035 C 
HETATM    5  C6  UNL     1      89.820  96.964 -45.274  1.00  0.00     0.060 C 
HETATM    6  C7  UNL     1      91.155  97.164 -44.560  1.00  0.00     0.124 C 
HETATM    7  C12 UNL     1      90.998  98.421 -43.709  1.00  0.00     0.030 C 
HETATM    8  C13 UNL     1      92.170  98.412 -42.725  1.00  0.00     0.014 C 
HETATM    9  C14 UNL     1      89.699  98.264 -42.960  1.00  0.00     0.025 C 
HETATM   10  C15 UNL     1      88.560  99.019 -43.537  1.00  0.00     0.070 C 
HETATM   11 BR2  UNL     1      88.618 100.811 -42.742  1.00  0.00    -0.090 Br
HETATM   12  C16 UNL     1      88.430  99.051 -44.993  1.00  0.00     0.005 C 
HETATM   13  C17 UNL     1      88.436 100.476 -45.572  1.00  0.00     0.020 C 
HETATM   14  C18 UNL     1      87.054  98.496 -45.407  1.00  0.00     0.158 C 
ENDROOT
BRANCH   6  15
HETATM   15  O2  UNL     1      92.144  97.361 -45.501  1.00  0.00    -0.377 OA
ATOM     16  H2  UNL     1      92.966  97.026 -45.162  1.00  0.00     0.211 HD
ENDBRANCH   6  15
BRANCH   6  17
HETATM   17  C8  UNL     1      91.389  96.047 -43.679  1.00  0.00    -0.068 C 
HETATM   18  C9  UNL     1      91.563  95.125 -42.948  1.00  0.00    -0.104 C 
BRANCH  18  19
HETATM   19  C10 UNL     1      91.755  93.982 -42.032  1.00  0.00     0.089 C 
HETATM   20  C11 UNL     1      93.065  94.198 -41.266  1.00  0.00     0.018 C 
ENDBRANCH  18  19
ENDBRANCH   6  17
BRANCH   3  21
HETATM   21  O1  UNL     1      89.224  98.281 -48.229  1.00  0.00    -0.371 OA
BRANCH  21  22
HETATM   22  C4  UNL     1      88.970  97.393 -49.270  1.00  0.00     0.253 C 
HETATM   23 BR1  UNL     1      88.586  95.625 -48.601  1.00  0.00    -0.068 Br
ENDBRANCH  21  22
ENDBRANCH   3  21
BRANCH  14  24
HETATM   24  O3  UNL     1      86.023  99.266 -44.939  1.00  0.00    -0.390 OA
ATOM     25  H3  UNL     1      85.184  98.831 -45.033  1.00  0.00     0.210 HD
ENDBRANCH  14  24
TORSDOF 6
ENDMDL
MODEL 5
REMARK VINA RESULT: -4.841224942      1.545      1.726
REMARK  6 active torsions:
REMARK  status: ('A' for Active; 'I' for Inactive)
REMARK    1  A    between atoms: C3_3  and  O1_4 
REMARK    2  A    between atoms: O1_4  and  C4_5 
REMARK    3  A    between atoms: C7_9  and  O2_10 
REMARK    4  A    between atoms: C7_9  and  C8_12 
REMARK    5  A    between atoms: C9_13  and  C10_14 
REMARK    6  A    between atoms: C18_23  and  O3_24 
ROOT
HETATM    1  C1  UNL     1      84.049  98.722 -45.457  1.00  0.00     0.019 C 
HETATM    2  C2  UNL     1      85.229  98.177 -45.274  1.00  0.00    -0.031 C 
HETATM    3  C3  UNL     1      86.179  97.512 -46.207  1.00  0.00     0.158 C 
HETATM    4  C5  UNL     1      87.572  97.929 -45.689  1.00  0.00     0.035 C 
HETATM    5  C6  UNL     1      88.376  96.701 -45.534  1.00  0.00     0.060 C 
HETATM    6  C7  UNL     1      89.851  97.003 -45.788  1.00  0.00     0.124 C 
HETATM    7  C12 UNL     1      90.157  98.294 -45.033  1.00  0.00     0.030 C 
HETATM    8  C13 UNL     1      91.683  98.394 -44.971  1.00  0.00     0.014 C 
HETATM    9  C14 UNL     1      89.599  98.113 -43.645  1.00  0.00     0.025 C 
HETATM   10  C15 UNL     1      88.293  98.780 -43.414  1.00  0.00     0.070 C 
HETATM   11 BR2  UNL     1      88.697 100.612 -42.841  1.00  0.00    -0.090 Br
HETATM   12  C16 UNL     1      87.302  98.730 -44.487  1.00  0.00     0.005 C 
HETATM   13  C17 UNL     1      86.853 100.121 -44.965  1.00  0.00     0.020 C 
HETATM   14  C18 UNL     1      86.002  98.087 -43.967  1.00  0.00     0.158 C 
ENDROOT
BRANCH   6  15
HETATM   15  O2  UNL     1      90.046  97.199 -47.139  1.00  0.00    -0.377 OA
ATOM     16  H2  UNL     1      89.578  96.528 -47.622  1.00  0.00     0.211 HD
ENDBRANCH   6  15
BRANCH   6  17
HETATM   17  C8  UNL     1      90.652  95.947 -45.221  1.00  0.00    -0.068 C 
HETATM   18  C9  UNL     1      91.317  95.087 -44.738  1.00  0.00    -0.104 C 
BRANCH  18  19
HETATM   19  C10 UNL     1      92.151  94.035 -44.120  1.00  0.00     0.089 C 
HETATM   20  C11 UNL     1      91.921  94.073 -42.605  1.00  0.00     0.018 C 
ENDBRANCH  18  19
ENDBRANCH   6  17
BRANCH   3  21
HETATM   21  O1  UNL     1      86.012  97.831 -47.524  1.00  0.00    -0.371 OA
BRANCH  21  22
HETATM   22  C4  UNL     1      85.624  96.722 -48.269  1.00  0.00     0.253 C 
HETATM   23 BR1  UNL     1      87.154  95.788 -48.980  1.00  0.00    -0.068 Br
ENDBRANCH  21  22
ENDBRANCH   3  21
BRANCH  14  24
HETATM   24  O3  UNL     1      85.418  98.830 -42.976  1.00  0.00    -0.390 OA
ATOM     25  H3  UNL     1      85.516  99.763 -43.127  1.00  0.00     0.210 HD
ENDBRANCH  14  24
TORSDOF 6
ENDMDL
