MODEL 1
REMARK VINA RESULT: -4.702380643      0.000      0.000
REMARK  0 active torsions:
REMARK  status: ('A' for Active; 'I' for Inactive)
ROOT
HETATM    1  F1  UNL     1      91.351  94.277 -41.642  1.00  0.00    -0.238 F 
HETATM    2  C1  UNL     1      90.930  93.085 -42.173  1.00  0.00     0.274 C 
HETATM    3  C2  UNL     1      89.514  93.116 -42.606  1.00  0.00     0.113 C 
HETATM    4  S1  UNL     1      88.287  93.791 -41.785  1.00  0.00    -0.062 SA
HETATM    5  N1  UNL     1      89.375  92.467 -43.858  1.00  0.00    -0.348 N 
ATOM      6  H1  UNL     1      88.556  92.466 -44.468  1.00  0.00     0.163 HD
HETATM    7  C3  UNL     1      90.662  91.794 -44.090  1.00  0.00     0.207 C 
HETATM    8  S2  UNL     1      90.914  91.476 -45.839  1.00  0.00    -0.042 SA
HETATM    9 CL1  UNL     1      90.661  90.339 -43.104  1.00  0.00    -0.079 Cl
HETATM   10  C4  UNL     1      91.608  92.823 -43.526  1.00  0.00     0.199 C 
HETATM   11 CL2  UNL     1      93.245  92.235 -43.339  1.00  0.00    -0.093 Cl
HETATM   12 CL3  UNL     1      91.495  94.317 -44.463  1.00  0.00    -0.093 Cl
ENDROOT
TORSDOF 0
ENDMDL
MODEL 2
REMARK VINA RESULT: -4.658802026      2.506      2.680
REMARK  0 active torsions:
REMARK  status: ('A' for Active; 'I' for Inactive)
ROOT
HETATM    1  F1  UNL     1      91.905  90.143 -41.537  1.00  0.00    -0.238 F 
HETATM    2  C1  UNL     1      91.517  90.533 -42.793  1.00  0.00     0.274 C 
HETATM    3  C2  UNL     1      90.045  90.589 -42.948  1.00  0.00     0.113 C 
HETATM    4  S1  UNL     1      88.990  89.489 -42.387  1.00  0.00    -0.062 SA
HETATM    5  N1  UNL     1      89.676  91.755 -43.664  1.00  0.00    -0.348 N 
ATOM      6  H1  UNL     1      88.737  92.135 -43.788  1.00  0.00     0.163 HD
HETATM    7  C3  UNL     1      90.937  92.301 -44.190  1.00  0.00     0.207 C 
HETATM    8  S2  UNL     1      90.776  94.052 -44.552  1.00  0.00    -0.042 SA
HETATM    9 CL1  UNL     1      91.367  91.330 -45.589  1.00  0.00    -0.079 Cl
HETATM   10  C4  UNL     1      91.858  92.011 -43.032  1.00  0.00     0.199 C 
HETATM   11 CL2  UNL     1      93.549  92.243 -43.414  1.00  0.00    -0.093 Cl
HETATM   12 CL3  UNL     1      91.325  92.906 -41.605  1.00  0.00    -0.093 Cl
ENDROOT
TORSDOF 0
ENDMDL
MODEL 3
REMARK VINA RESULT: -4.533538357      1.677      3.553
REMARK  0 active torsions:
REMARK  status: ('A' for Active; 'I' for Inactive)
ROOT
HETATM    1  F1  UNL     1      92.878  91.154 -44.073  1.00  0.00    -0.238 F 
HETATM    2  C1  UNL     1      91.995  92.201 -44.131  1.00  0.00     0.274 C 
HETATM    3  C2  UNL     1      90.901  91.976 -45.102  1.00  0.00     0.113 C 
HETATM    4  S1  UNL     1      91.067  91.343 -46.588  1.00  0.00    -0.062 SA
HETATM    5  N1  UNL     1      89.665  92.395 -44.548  1.00  0.00    -0.348 N 
ATOM      6  H1  UNL     1      88.729  92.225 -44.919  1.00  0.00     0.163 HD
HETATM    7  C3  UNL     1      90.020  93.129 -43.323  1.00  0.00     0.207 C 
HETATM    8  S2  UNL     1      88.638  93.174 -42.179  1.00  0.00    -0.042 SA
HETATM    9 CL1  UNL     1      90.569  94.721 -43.825  1.00  0.00    -0.079 Cl
HETATM   10  C4  UNL     1      91.175  92.293 -42.835  1.00  0.00     0.199 C 
HETATM   11 CL2  UNL     1      92.077  93.042 -41.537  1.00  0.00    -0.093 Cl
HETATM   12 CL3  UNL     1      90.615  90.660 -42.457  1.00  0.00    -0.093 Cl
ENDROOT
TORSDOF 0
ENDMDL
MODEL 4
REMARK VINA RESULT: -4.401544642      2.905      3.683
REMARK  0 active torsions:
REMARK  status: ('A' for Active; 'I' for Inactive)
ROOT
HETATM    1  F1  UNL     1      91.243  89.827 -42.613  1.00  0.00    -0.238 F 
HETATM    2  C1  UNL     1      91.320  91.174 -42.371  1.00  0.00     0.274 C 
HETATM    3  C2  UNL     1      92.670  91.727 -42.622  1.00  0.00     0.113 C 
HETATM    4  S1  UNL     1      94.074  91.033 -42.194  1.00  0.00    -0.062 SA
HETATM    5  N1  UNL     1      92.569  92.967 -43.302  1.00  0.00    -0.348 N 
ATOM      6  H1  UNL     1      93.323  93.499 -43.738  1.00  0.00     0.163 HD
HETATM    7  C3  UNL     1      91.142  93.323 -43.245  1.00  0.00     0.207 C 
HETATM    8  S2  UNL     1      90.716  94.474 -44.555  1.00  0.00    -0.042 SA
HETATM    9 CL1  UNL     1      90.838  93.949 -41.632  1.00  0.00    -0.079 Cl
HETATM   10  C4  UNL     1      90.519  91.961 -43.419  1.00  0.00     0.199 C 
HETATM   11 CL2  UNL     1      88.801  91.936 -43.090  1.00  0.00    -0.093 Cl
HETATM   12 CL3  UNL     1      90.947  91.304 -45.002  1.00  0.00    -0.093 Cl
ENDROOT
TORSDOF 0
ENDMDL
MODEL 5
REMARK VINA RESULT: -4.228939785      7.859      8.944
REMARK  0 active torsions:
REMARK  status: ('A' for Active; 'I' for Inactive)
ROOT
HETATM    1  F1  UNL     1      87.614  85.774 -41.900  1.00  0.00    -0.238 F 
HETATM    2  C1  UNL     1      87.395  85.751 -40.547  1.00  0.00     0.274 C 
HETATM    3  C2  UNL     1      88.146  86.803 -39.824  1.00  0.00     0.113 C 
HETATM    4  S1  UNL     1      89.689  87.226 -40.101  1.00  0.00    -0.062 SA
HETATM    5  N1  UNL     1      87.319  87.403 -38.841  1.00  0.00    -0.348 N 
ATOM      6  H1  UNL     1      87.510  88.247 -38.301  1.00  0.00     0.163 HD
HETATM    7  C3  UNL     1      86.125  86.546 -38.767  1.00  0.00     0.207 C 
HETATM    8  S2  UNL     1      84.729  87.450 -38.090  1.00  0.00    -0.042 SA
HETATM    9 CL1  UNL     1      86.571  85.132 -37.823  1.00  0.00    -0.079 Cl
HETATM   10  C4  UNL     1      85.959  86.189 -40.222  1.00  0.00     0.199 C 
HETATM   11 CL2  UNL     1      84.801  84.907 -40.496  1.00  0.00    -0.093 Cl
HETATM   12 CL3  UNL     1      85.635  87.649 -41.163  1.00  0.00    -0.093 Cl
ENDROOT
TORSDOF 0
ENDMDL
