MODEL 1
REMARK VINA RESULT: -11.252868390      0.000      0.000
REMARK  5 active torsions:
REMARK  status: ('A' for Active; 'I' for Inactive)
REMARK    1  A    between atoms: C5_5  and  N1_6 
REMARK    2  A    between atoms: N2_12  and  C11_13 
REMARK    3  A    between atoms: C14_16  and  N3_17 
REMARK       I    between atoms: N3_17  and  C15_19 
REMARK    4  A    between atoms: C15_19  and  C16_21 
REMARK    5  A    between atoms: C19_24  and  C20_25 
ROOT
HETATM    1  C11 UNL     1     -10.456 -29.510 -28.656  1.00  0.00     0.086 C 
HETATM    2  C12 UNL     1      -9.082 -29.235 -28.151  1.00  0.00     0.027 C 
HETATM    3  C13 UNL     1      -8.671 -30.294 -27.105  1.00  0.00     0.030 C 
HETATM    4  C14 UNL     1      -9.005 -31.644 -27.695  1.00  0.00     0.118 C 
HETATM    5  C21 UNL     1     -10.506 -31.763 -27.703  1.00  0.00     0.194 C 
HETATM    6  F4  UNL     1     -10.865 -32.434 -26.540  1.00  0.00    -0.247 F 
HETATM    7  C22 UNL     1     -11.242 -30.447 -27.838  1.00  0.00     0.064 C 
ENDROOT
BRANCH   1   8
HETATM    8  N2  UNL     1     -11.116 -28.295 -29.015  1.00  0.00    -0.386 N 
HETATM    9  C10 UNL     1     -12.088 -27.816 -28.085  1.00  0.00     0.123 C 
HETATM   10  C9  UNL     1     -11.586 -26.528 -27.418  1.00  0.00     0.034 C 
HETATM   11  C8  UNL     1     -11.248 -25.436 -28.394  1.00  0.00     0.017 C 
HETATM   12  C7  UNL     1      -9.954 -24.741 -28.087  1.00  0.00     0.058 C 
HETATM   13  C24 UNL     1     -11.147 -26.038 -29.765  1.00  0.00     0.218 C 
HETATM   14  C25 UNL     1     -12.261 -24.299 -28.328  1.00  0.00     0.135 C 
HETATM   15  C6  UNL     1     -10.239 -23.343 -28.592  1.00  0.00     0.059 C 
HETATM   16  N1  UNL     1     -11.535 -23.069 -28.188  1.00  0.00    -0.388 N 
HETATM   17  C23 UNL     1     -10.316 -27.311 -29.625  1.00  0.00     0.096 C 
HETATM   18  F5  UNL     1     -12.356 -26.267 -30.363  1.00  0.00    -0.243 F 
BRANCH  16  19
HETATM   19  C5  UNL     1     -11.861 -22.240 -27.127  1.00  0.00     0.083 C 
HETATM   20  C4  UNL     1     -12.824 -22.902 -26.149  1.00  0.00     0.026 C 
HETATM   21  C3  UNL     1     -12.867 -22.087 -24.862  1.00  0.00     0.006 C 
HETATM   22  C2  UNL     1     -11.641 -22.498 -24.089  1.00  0.00    -0.019 C 
HETATM   23  C1  UNL     1     -11.427 -21.695 -22.839  1.00  0.00     0.010 C 
HETATM   24  C27 UNL     1     -10.472 -22.477 -25.029  1.00  0.00     0.006 C 
HETATM   25  C26 UNL     1     -10.757 -21.668 -26.291  1.00  0.00     0.026 C 
ENDBRANCH  16  19
ENDBRANCH   1   8
BRANCH   4  26
HETATM   26  N3  UNL     1      -8.423 -32.743 -26.951  1.00  0.00    -0.348 N 
HETATM   27  C15 UNL     1      -8.240 -34.106 -27.516  1.00  0.00     0.275 C 
HETATM   28  O1  UNL     1      -8.518 -34.426 -28.505  1.00  0.00    -0.265 OA
ATOM     29  H3  UNL     1      -8.124 -32.572 -25.990  1.00  0.00     0.163 HD
BRANCH  27  30
HETATM   30  C16 UNL     1      -7.588 -34.936 -26.331  1.00  0.00     0.143 A 
HETATM   31  C17 UNL     1      -8.249 -34.889 -25.179  1.00  0.00     0.046 A 
HETATM   32  C18 UNL     1      -7.543 -35.718 -24.327  1.00  0.00     0.045 A 
HETATM   33  C19 UNL     1      -6.503 -36.130 -25.152  1.00  0.00     0.159 A 
HETATM   34  O2  UNL     1      -6.577 -35.603 -26.361  1.00  0.00    -0.300 OA
BRANCH  33  35
HETATM   35  C20 UNL     1      -5.296 -36.969 -24.701  1.00  0.00     0.439 C 
HETATM   36  F1  UNL     1      -4.862 -36.714 -23.471  1.00  0.00    -0.164 F 
HETATM   37  F2  UNL     1      -4.564 -37.513 -25.572  1.00  0.00    -0.164 F 
HETATM   38  F3  UNL     1      -6.290 -38.189 -24.323  1.00  0.00    -0.164 F 
ENDBRANCH  33  35
ENDBRANCH  27  30
ENDBRANCH   4  26
TORSDOF 5
ENDMDL
MODEL 2
REMARK VINA RESULT: -11.066535176      1.534      1.964
REMARK  5 active torsions:
REMARK  status: ('A' for Active; 'I' for Inactive)
REMARK    1  A    between atoms: C5_5  and  N1_6 
REMARK    2  A    between atoms: N2_12  and  C11_13 
REMARK    3  A    between atoms: C14_16  and  N3_17 
REMARK       I    between atoms: N3_17  and  C15_19 
REMARK    4  A    between atoms: C15_19  and  C16_21 
REMARK    5  A    between atoms: C19_24  and  C20_25 
ROOT
HETATM    1  C11 UNL     1     -10.889 -31.043 -28.925  1.00  0.00     0.086 C 
HETATM    2  C12 UNL     1      -9.495 -30.629 -28.607  1.00  0.00     0.027 C 
HETATM    3  C13 UNL     1      -8.819 -31.671 -27.689  1.00  0.00     0.030 C 
HETATM    4  C14 UNL     1      -9.085 -33.028 -28.298  1.00  0.00     0.118 C 
HETATM    5  C21 UNL     1     -10.549 -33.320 -28.099  1.00  0.00     0.194 C 
HETATM    6  F4  UNL     1     -10.657 -34.072 -26.934  1.00  0.00    -0.247 F 
HETATM    7  C22 UNL     1     -11.438 -32.096 -28.057  1.00  0.00     0.064 C 
ENDROOT
BRANCH   1   8
HETATM    8  N2  UNL     1     -11.724 -29.901 -29.121  1.00  0.00    -0.386 N 
HETATM    9  C10 UNL     1     -12.323 -29.359 -27.944  1.00  0.00     0.123 C 
HETATM   10  C9  UNL     1     -11.712 -27.987 -27.627  1.00  0.00     0.034 C 
HETATM   11  C8  UNL     1     -11.837 -26.998 -28.752  1.00  0.00     0.017 C 
HETATM   12  C7  UNL     1     -10.577 -26.225 -29.010  1.00  0.00     0.058 C 
HETATM   13  C24 UNL     1     -12.198 -27.743 -30.004  1.00  0.00     0.218 C 
HETATM   14  C25 UNL     1     -12.839 -25.900 -28.417  1.00  0.00     0.135 C 
HETATM   15  C6  UNL     1     -11.131 -24.903 -29.495  1.00  0.00     0.059 C 
HETATM   16  N1  UNL     1     -12.208 -24.636 -28.665  1.00  0.00    -0.388 N 
HETATM   17  C23 UNL     1     -11.280 -28.961 -30.069  1.00  0.00     0.096 C 
HETATM   18  F5  UNL     1     -13.521 -28.082 -30.087  1.00  0.00    -0.243 F 
BRANCH  16  19
HETATM   19  C5  UNL     1     -12.186 -23.707 -27.638  1.00  0.00     0.083 C 
HETATM   20  C4  UNL     1     -11.655 -24.295 -26.336  1.00  0.00     0.026 C 
HETATM   21  C3  UNL     1     -11.339 -23.161 -25.368  1.00  0.00     0.006 C 
HETATM   22  C2  UNL     1      -9.994 -22.634 -25.796  1.00  0.00    -0.019 C 
HETATM   23  C1  UNL     1      -9.567 -21.409 -25.043  1.00  0.00     0.010 C 
HETATM   24  C27 UNL     1     -10.021 -22.452 -27.284  1.00  0.00     0.006 C 
HETATM   25  C26 UNL     1     -11.441 -22.422 -27.840  1.00  0.00     0.026 C 
ENDBRANCH  16  19
ENDBRANCH   1   8
BRANCH   4  26
HETATM   26  N3  UNL     1      -8.283 -34.077 -27.704  1.00  0.00    -0.348 N 
HETATM   27  C15 UNL     1      -7.395 -34.972 -28.494  1.00  0.00     0.275 C 
HETATM   28  O1  UNL     1      -7.259 -34.951 -29.561  1.00  0.00    -0.265 OA
ATOM     29  H3  UNL     1      -8.329 -34.210 -26.694  1.00  0.00     0.163 HD
BRANCH  27  30
HETATM   30  C16 UNL     1      -6.754 -35.941 -27.412  1.00  0.00     0.143 A 
HETATM   31  C17 UNL     1      -6.139 -37.009 -27.907  1.00  0.00     0.046 A 
HETATM   32  C18 UNL     1      -5.616 -37.662 -26.806  1.00  0.00     0.045 A 
HETATM   33  C19 UNL     1      -6.049 -36.839 -25.773  1.00  0.00     0.159 A 
HETATM   34  O2  UNL     1      -6.757 -35.812 -26.208  1.00  0.00    -0.300 OA
BRANCH  33  35
HETATM   35  C20 UNL     1      -5.889 -37.142 -24.275  1.00  0.00     0.439 C 
HETATM   36  F1  UNL     1      -4.771 -36.682 -23.724  1.00  0.00    -0.164 F 
HETATM   37  F2  UNL     1      -6.550 -38.087 -23.762  1.00  0.00    -0.164 F 
HETATM   38  F3  UNL     1      -6.832 -35.875 -23.921  1.00  0.00    -0.164 F 
ENDBRANCH  33  35
ENDBRANCH  27  30
ENDBRANCH   4  26
TORSDOF 5
ENDMDL
MODEL 3
REMARK VINA RESULT: -10.884694447      1.203      1.622
REMARK  5 active torsions:
REMARK  status: ('A' for Active; 'I' for Inactive)
REMARK    1  A    between atoms: C5_5  and  N1_6 
REMARK    2  A    between atoms: N2_12  and  C11_13 
REMARK    3  A    between atoms: C14_16  and  N3_17 
REMARK       I    between atoms: N3_17  and  C15_19 
REMARK    4  A    between atoms: C15_19  and  C16_21 
REMARK    5  A    between atoms: C19_24  and  C20_25 
ROOT
HETATM    1  C11 UNL     1     -10.256 -29.605 -28.067  1.00  0.00     0.086 C 
HETATM    2  C12 UNL     1     -10.988 -30.846 -28.442  1.00  0.00     0.027 C 
HETATM    3  C13 UNL     1     -10.012 -32.037 -28.549  1.00  0.00     0.030 C 
HETATM    4  C14 UNL     1      -9.154 -32.012 -27.305  1.00  0.00     0.118 C 
HETATM    5  C21 UNL     1      -8.234 -30.826 -27.429  1.00  0.00     0.194 C 
HETATM    6  F4  UNL     1      -7.041 -31.294 -27.969  1.00  0.00    -0.247 F 
HETATM    7  C22 UNL     1      -8.795 -29.672 -28.232  1.00  0.00     0.064 C 
ENDROOT
BRANCH   1   8
HETATM    8  N2  UNL     1     -10.892 -28.454 -28.624  1.00  0.00    -0.386 N 
HETATM    9  C10 UNL     1     -11.952 -27.893 -27.851  1.00  0.00     0.123 C 
HETATM   10  C9  UNL     1     -11.530 -26.526 -27.294  1.00  0.00     0.034 C 
HETATM   11  C8  UNL     1     -11.112 -25.546 -28.355  1.00  0.00     0.017 C 
HETATM   12  C7  UNL     1      -9.860 -24.793 -28.013  1.00  0.00     0.058 C 
HETATM   13  C24 UNL     1     -10.876 -26.299 -29.632  1.00  0.00     0.218 C 
HETATM   14  C25 UNL     1     -12.139 -24.431 -28.516  1.00  0.00     0.135 C 
HETATM   15  C6  UNL     1     -10.112 -23.468 -28.701  1.00  0.00     0.059 C 
HETATM   16  N1  UNL     1     -11.443 -23.178 -28.453  1.00  0.00    -0.388 N 
HETATM   17  C23 UNL     1     -10.049 -27.529 -29.269  1.00  0.00     0.096 C 
HETATM   18  F5  UNL     1     -12.021 -26.621 -30.308  1.00  0.00    -0.243 F 
BRANCH  16  19
HETATM   19  C5  UNL     1     -11.876 -22.240 -27.531  1.00  0.00     0.083 C 
HETATM   20  C4  UNL     1     -13.066 -22.735 -26.715  1.00  0.00     0.026 C 
HETATM   21  C3  UNL     1     -13.266 -21.816 -25.516  1.00  0.00     0.006 C 
HETATM   22  C2  UNL     1     -12.251 -22.265 -24.497  1.00  0.00    -0.019 C 
HETATM   23  C1  UNL     1     -12.195 -21.384 -23.284  1.00  0.00     0.010 C 
HETATM   24  C27 UNL     1     -10.932 -22.421 -25.194  1.00  0.00     0.006 C 
HETATM   25  C26 UNL     1     -10.896 -21.697 -26.536  1.00  0.00     0.026 C 
ENDBRANCH  16  19
ENDBRANCH   1   8
BRANCH   4  26
HETATM   26  N3  UNL     1      -8.382 -33.225 -27.130  1.00  0.00    -0.348 N 
HETATM   27  C15 UNL     1      -8.642 -34.209 -26.045  1.00  0.00     0.275 C 
HETATM   28  O1  UNL     1      -9.400 -34.131 -25.286  1.00  0.00    -0.265 OA
ATOM     29  H3  UNL     1      -7.621 -33.413 -27.783  1.00  0.00     0.163 HD
BRANCH  27  30
HETATM   30  C16 UNL     1      -7.544 -35.334 -26.267  1.00  0.00     0.143 A 
HETATM   31  C17 UNL     1      -7.156 -35.501 -27.527  1.00  0.00     0.046 A 
HETATM   32  C18 UNL     1      -6.171 -36.470 -27.471  1.00  0.00     0.045 A 
HETATM   33  C19 UNL     1      -6.148 -36.755 -26.111  1.00  0.00     0.159 A 
HETATM   34  O2  UNL     1      -7.025 -36.038 -25.430  1.00  0.00    -0.300 OA
BRANCH  33  35
HETATM   35  C20 UNL     1      -5.333 -37.881 -25.457  1.00  0.00     0.439 C 
HETATM   36  F1  UNL     1      -4.018 -37.686 -25.438  1.00  0.00    -0.164 F 
HETATM   37  F2  UNL     1      -5.842 -39.030 -25.351  1.00  0.00    -0.164 F 
HETATM   38  F3  UNL     1      -5.656 -37.262 -23.997  1.00  0.00    -0.164 F 
ENDBRANCH  33  35
ENDBRANCH  27  30
ENDBRANCH   4  26
TORSDOF 5
ENDMDL
MODEL 4
REMARK VINA RESULT: -10.557543563      1.513      1.794
REMARK  5 active torsions:
REMARK  status: ('A' for Active; 'I' for Inactive)
REMARK    1  A    between atoms: C5_5  and  N1_6 
REMARK    2  A    between atoms: N2_12  and  C11_13 
REMARK    3  A    between atoms: C14_16  and  N3_17 
REMARK       I    between atoms: N3_17  and  C15_19 
REMARK    4  A    between atoms: C15_19  and  C16_21 
REMARK    5  A    between atoms: C19_24  and  C20_25 
ROOT
HETATM    1  C11 UNL     1     -10.628 -30.982 -28.975  1.00  0.00     0.086 C 
HETATM    2  C12 UNL     1      -9.365 -30.549 -28.317  1.00  0.00     0.027 C 
HETATM    3  C13 UNL     1      -8.862 -31.640 -27.346  1.00  0.00     0.030 C 
HETATM    4  C14 UNL     1      -8.914 -32.951 -28.097  1.00  0.00     0.118 C 
HETATM    5  C21 UNL     1     -10.367 -33.307 -28.261  1.00  0.00     0.194 C 
HETATM    6  F4  UNL     1     -10.697 -34.156 -27.210  1.00  0.00    -0.247 F 
HETATM    7  C22 UNL     1     -11.304 -32.121 -28.335  1.00  0.00     0.064 C 
ENDROOT
BRANCH   1   8
HETATM    8  N2  UNL     1     -11.455 -29.856 -29.273  1.00  0.00    -0.386 N 
HETATM    9  C10 UNL     1     -12.361 -29.460 -28.244  1.00  0.00     0.123 C 
HETATM   10  C9  UNL     1     -11.933 -28.107 -27.659  1.00  0.00     0.034 C 
HETATM   11  C8  UNL     1     -11.832 -27.013 -28.684  1.00  0.00     0.017 C 
HETATM   12  C7  UNL     1     -10.596 -26.173 -28.541  1.00  0.00     0.058 C 
HETATM   13  C24 UNL     1     -11.822 -27.638 -30.049  1.00  0.00     0.218 C 
HETATM   14  C25 UNL     1     -12.951 -25.991 -28.518  1.00  0.00     0.135 C 
HETATM   15  C6  UNL     1     -11.091 -24.828 -29.030  1.00  0.00     0.059 C 
HETATM   16  N1  UNL     1     -12.354 -24.686 -28.481  1.00  0.00    -0.388 N 
HETATM   17  C23 UNL     1     -10.845 -28.808 -29.988  1.00  0.00     0.096 C 
HETATM   18  F5  UNL     1     -13.059 -28.013 -30.498  1.00  0.00    -0.243 F 
BRANCH  16  19
HETATM   19  C5  UNL     1     -12.647 -23.868 -27.403  1.00  0.00     0.083 C 
HETATM   20  C4  UNL     1     -12.277 -24.510 -26.071  1.00  0.00     0.026 C 
HETATM   21  C3  UNL     1     -12.302 -23.447 -24.980  1.00  0.00     0.006 C 
HETATM   22  C2  UNL     1     -10.991 -22.715 -25.106  1.00  0.00    -0.019 C 
HETATM   23  C1  UNL     1     -10.882 -21.526 -24.198  1.00  0.00     0.010 C 
HETATM   24  C27 UNL     1     -10.779 -22.392 -26.555  1.00  0.00     0.006 C 
HETATM   25  C26 UNL     1     -12.068 -22.486 -27.366  1.00  0.00     0.026 C 
ENDBRANCH  16  19
ENDBRANCH   1   8
BRANCH   4  26
HETATM   26  N3  UNL     1      -8.213 -34.018 -27.414  1.00  0.00    -0.348 N 
HETATM   27  C15 UNL     1      -6.738 -34.200 -27.478  1.00  0.00     0.275 C 
HETATM   28  O1  UNL     1      -6.046 -33.587 -28.029  1.00  0.00    -0.265 OA
ATOM     29  H3  UNL     1      -8.758 -34.679 -26.861  1.00  0.00     0.163 HD
BRANCH  27  30
HETATM   30  C16 UNL     1      -6.464 -35.488 -26.593  1.00  0.00     0.143 A 
HETATM   31  C17 UNL     1      -6.317 -35.257 -25.293  1.00  0.00     0.046 A 
HETATM   32  C18 UNL     1      -6.152 -36.507 -24.724  1.00  0.00     0.045 A 
HETATM   33  C19 UNL     1      -6.209 -37.324 -25.847  1.00  0.00     0.159 A 
HETATM   34  O2  UNL     1      -6.384 -36.639 -26.963  1.00  0.00    -0.300 OA
BRANCH  33  35
HETATM   35  C20 UNL     1      -5.938 -38.837 -25.854  1.00  0.00     0.439 C 
HETATM   36  F1  UNL     1      -6.227 -39.465 -24.719  1.00  0.00    -0.164 F 
HETATM   37  F2  UNL     1      -5.136 -39.316 -26.701  1.00  0.00    -0.164 F 
HETATM   38  F3  UNL     1      -7.356 -39.083 -26.595  1.00  0.00    -0.164 F 
ENDBRANCH  33  35
ENDBRANCH  27  30
ENDBRANCH   4  26
TORSDOF 5
ENDMDL
MODEL 5
REMARK VINA RESULT: -10.406737471      1.400      1.891
REMARK  5 active torsions:
REMARK  status: ('A' for Active; 'I' for Inactive)
REMARK    1  A    between atoms: C5_5  and  N1_6 
REMARK    2  A    between atoms: N2_12  and  C11_13 
REMARK    3  A    between atoms: C14_16  and  N3_17 
REMARK       I    between atoms: N3_17  and  C15_19 
REMARK    4  A    between atoms: C15_19  and  C16_21 
REMARK    5  A    between atoms: C19_24  and  C20_25 
ROOT
HETATM    1  C11 UNL     1     -10.117 -29.777 -27.835  1.00  0.00     0.086 C 
HETATM    2  C12 UNL     1     -10.962 -31.000 -27.916  1.00  0.00     0.027 C 
HETATM    3  C13 UNL     1     -10.077 -32.265 -27.970  1.00  0.00     0.030 C 
HETATM    4  C14 UNL     1      -9.050 -32.126 -26.870  1.00  0.00     0.118 C 
HETATM    5  C21 UNL     1      -8.094 -31.043 -27.293  1.00  0.00     0.194 C 
HETATM    6  F4  UNL     1      -7.018 -31.671 -27.910  1.00  0.00    -0.247 F 
HETATM    7  C22 UNL     1      -8.701 -29.977 -28.180  1.00  0.00     0.064 C 
ENDROOT
BRANCH   1   8
HETATM    8  N2  UNL     1     -10.762 -28.673 -28.471  1.00  0.00    -0.386 N 
HETATM    9  C10 UNL     1     -11.851 -28.092 -27.755  1.00  0.00     0.123 C 
HETATM   10  C9  UNL     1     -11.470 -26.687 -27.267  1.00  0.00     0.034 C 
HETATM   11  C8  UNL     1     -11.047 -25.760 -28.372  1.00  0.00     0.017 C 
HETATM   12  C7  UNL     1      -9.819 -24.962 -28.044  1.00  0.00     0.058 C 
HETATM   13  C24 UNL     1     -10.765 -26.578 -29.598  1.00  0.00     0.218 C 
HETATM   14  C25 UNL     1     -12.092 -24.678 -28.619  1.00  0.00     0.135 C 
HETATM   15  C6  UNL     1     -10.080 -23.684 -28.811  1.00  0.00     0.059 C 
HETATM   16  N1  UNL     1     -11.423 -23.409 -28.611  1.00  0.00    -0.388 N 
HETATM   17  C23 UNL     1      -9.922 -27.768 -29.147  1.00  0.00     0.096 C 
HETATM   18  F5  UNL     1     -11.887 -26.962 -30.281  1.00  0.00    -0.243 F 
BRANCH  16  19
HETATM   19  C5  UNL     1     -11.897 -22.430 -27.754  1.00  0.00     0.083 C 
HETATM   20  C4  UNL     1     -13.133 -22.881 -26.985  1.00  0.00     0.026 C 
HETATM   21  C3  UNL     1     -13.390 -21.912 -25.838  1.00  0.00     0.006 C 
HETATM   22  C2  UNL     1     -12.436 -22.325 -24.746  1.00  0.00    -0.019 C 
HETATM   23  C1  UNL     1     -12.438 -21.394 -23.570  1.00  0.00     0.010 C 
HETATM   24  C27 UNL     1     -11.083 -22.520 -25.363  1.00  0.00     0.006 C 
HETATM   25  C26 UNL     1     -10.967 -21.853 -26.730  1.00  0.00     0.026 C 
ENDBRANCH  16  19
ENDBRANCH   1   8
BRANCH   4  26
HETATM   26  N3  UNL     1      -8.328 -33.356 -26.616  1.00  0.00    -0.348 N 
HETATM   27  C15 UNL     1      -8.727 -34.337 -25.572  1.00  0.00     0.275 C 
HETATM   28  O1  UNL     1      -9.563 -34.245 -24.901  1.00  0.00    -0.265 OA
ATOM     29  H3  UNL     1      -7.504 -33.559 -27.183  1.00  0.00     0.163 HD
BRANCH  27  30
HETATM   30  C16 UNL     1      -7.636 -35.485 -25.678  1.00  0.00     0.143 A 
HETATM   31  C17 UNL     1      -6.906 -35.671 -24.583  1.00  0.00     0.046 A 
HETATM   32  C18 UNL     1      -6.082 -36.740 -24.881  1.00  0.00     0.045 A 
HETATM   33  C19 UNL     1      -6.462 -37.018 -26.189  1.00  0.00     0.159 A 
HETATM   34  O2  UNL     1      -7.405 -36.203 -26.626  1.00  0.00    -0.300 OA
BRANCH  33  35
HETATM   35  C20 UNL     1      -5.774 -38.037 -27.112  1.00  0.00     0.439 C 
HETATM   36  F1  UNL     1      -5.693 -37.676 -28.388  1.00  0.00    -0.164 F 
HETATM   37  F2  UNL     1      -5.696 -39.243 -26.750  1.00  0.00    -0.164 F 
HETATM   38  F3  UNL     1      -4.328 -37.478 -26.645  1.00  0.00    -0.164 F 
ENDBRANCH  33  35
ENDBRANCH  27  30
ENDBRANCH   4  26
TORSDOF 5
ENDMDL
