MODEL 1
REMARK VINA RESULT: -7.168074651      0.000      0.000
REMARK  7 active torsions:
REMARK  status: ('A' for Active; 'I' for Inactive)
REMARK    1  A    between atoms: O1_2  and  C2_3 
REMARK    2  A    between atoms: C6_8  and  O3_9 
REMARK    3  A    between atoms: C6_8  and  C7_11 
REMARK    4  A    between atoms: C7_11  and  C8_12 
REMARK    5  A    between atoms: C9_15  and  O5_17 
REMARK    6  A    between atoms: C11_19  and  O6_20 
REMARK    7  A    between atoms: C12_22  and  O7_23 
ROOT
HETATM    1  C2  UNL     1       9.343  -5.094  -2.637  1.00  0.00     0.294 C 
HETATM    2  O2  UNL     1       9.918  -6.325  -2.827  1.00  0.00    -0.319 OA
HETATM    3  C3  UNL     1      11.264  -6.362  -2.968  1.00  0.00     0.203 C 
HETATM    4  C4  UNL     1      11.703  -7.828  -2.828  1.00  0.00     0.077 C 
HETATM    5  C5  UNL     1      11.685  -8.368  -4.249  1.00  0.00     0.074 C 
HETATM    6  C6  UNL     1      11.503  -7.134  -5.058  1.00  0.00     0.166 C 
HETATM    7  O4  UNL     1      11.727  -6.045  -4.221  1.00  0.00    -0.316 OA
HETATM    8  C9  UNL     1      11.993  -5.609  -1.882  1.00  0.00     0.139 C 
HETATM    9  C10 UNL     1      13.469  -5.633  -2.053  1.00  0.00     0.054 C 
HETATM   10  C11 UNL     1      11.513  -4.175  -1.915  1.00  0.00     0.191 C 
HETATM   11  C12 UNL     1      10.022  -4.249  -1.593  1.00  0.00     0.205 C 
ENDROOT
BRANCH   8  12
HETATM   12  O5  UNL     1      11.624  -6.148  -0.661  1.00  0.00    -0.382 OA
ATOM     13  H5  UNL     1      12.415  -6.383  -0.190  1.00  0.00     0.210 HD
ENDBRANCH   8  12
BRANCH   1  14
HETATM   14  O1  UNL     1       9.251  -4.331  -3.792  1.00  0.00    -0.363 OA
HETATM   15  C1  UNL     1       8.028  -4.538  -4.446  1.00  0.00     0.204 C 
ENDBRANCH   1  14
BRANCH   6  16
HETATM   16  O3  UNL     1      10.217  -7.044  -5.598  1.00  0.00    -0.365 OA
ATOM     17  H3  UNL     1      10.205  -7.237  -6.528  1.00  0.00     0.213 HD
ENDBRANCH   6  16
BRANCH   6  18
HETATM   18  C7  UNL     1      12.471  -7.019  -6.208  1.00  0.00     0.079 C 
BRANCH  18  19
HETATM   19  C8  UNL     1      12.726  -8.323  -6.895  1.00  0.00     0.091 C 
HETATM   20  S1  UNL     1      12.523  -8.278  -8.666  1.00  0.00    -0.097 SA
ENDBRANCH  18  19
ENDBRANCH   6  18
BRANCH  10  21
HETATM   21  O6  UNL     1      12.205  -3.399  -1.023  1.00  0.00    -0.390 OA
ATOM     22  H6  UNL     1      11.665  -2.694  -0.688  1.00  0.00     0.210 HD
ENDBRANCH  10  21
BRANCH  11  23
HETATM   23  O7  UNL     1       9.522  -2.965  -1.678  1.00  0.00    -0.388 OA
ATOM     24  H7  UNL     1      10.063  -2.396  -1.143  1.00  0.00     0.210 HD
ENDBRANCH  11  23
TORSDOF 7
ENDMDL
MODEL 2
REMARK VINA RESULT: -6.939300002      2.624      4.283
REMARK  7 active torsions:
REMARK  status: ('A' for Active; 'I' for Inactive)
REMARK    1  A    between atoms: O1_2  and  C2_3 
REMARK    2  A    between atoms: C6_8  and  O3_9 
REMARK    3  A    between atoms: C6_8  and  C7_11 
REMARK    4  A    between atoms: C7_11  and  C8_12 
REMARK    5  A    between atoms: C9_15  and  O5_17 
REMARK    6  A    between atoms: C11_19  and  O6_20 
REMARK    7  A    between atoms: C12_22  and  O7_23 
ROOT
HETATM    1  C2  UNL     1      10.079  -7.151  -4.699  1.00  0.00     0.294 C 
HETATM    2  O2  UNL     1      10.706  -7.250  -3.482  1.00  0.00    -0.319 OA
HETATM    3  C3  UNL     1      10.878  -6.104  -2.782  1.00  0.00     0.203 C 
HETATM    4  C4  UNL     1      11.277  -6.493  -1.350  1.00  0.00     0.077 C 
HETATM    5  C5  UNL     1      12.797  -6.535  -1.377  1.00  0.00     0.074 C 
HETATM    6  C6  UNL     1      13.111  -5.930  -2.698  1.00  0.00     0.166 C 
HETATM    7  O4  UNL     1      11.946  -5.337  -3.176  1.00  0.00    -0.316 OA
HETATM    8  C9  UNL     1       9.610  -5.296  -2.651  1.00  0.00     0.139 C 
HETATM    9  C10 UNL     1       9.809  -4.027  -1.901  1.00  0.00     0.054 C 
HETATM   10  C11 UNL     1       9.122  -4.975  -4.045  1.00  0.00     0.191 C 
HETATM   11  C12 UNL     1       8.817  -6.331  -4.679  1.00  0.00     0.205 C 
ENDROOT
BRANCH   8  12
HETATM   12  O5  UNL     1       8.653  -6.089  -2.041  1.00  0.00    -0.382 OA
ATOM     13  H5  UNL     1       8.734  -5.982  -1.101  1.00  0.00     0.210 HD
ENDBRANCH   8  12
BRANCH   1  14
HETATM   14  O1  UNL     1      10.885  -6.646  -5.709  1.00  0.00    -0.363 OA
HETATM   15  C1  UNL     1      11.679  -7.651  -6.280  1.00  0.00     0.204 C 
ENDBRANCH   1  14
BRANCH   6  16
HETATM   16  O3  UNL     1      13.556  -6.880  -3.620  1.00  0.00    -0.365 OA
ATOM     17  H3  UNL     1      13.855  -6.482  -4.428  1.00  0.00     0.213 HD
ENDBRANCH   6  16
BRANCH   6  18
HETATM   18  C7  UNL     1      14.164  -4.853  -2.632  1.00  0.00     0.079 C 
BRANCH  18  19
HETATM   19  C8  UNL     1      14.225  -4.171  -1.302  1.00  0.00     0.091 C 
HETATM   20  S1  UNL     1      13.152  -2.755  -1.147  1.00  0.00    -0.097 SA
ENDBRANCH  18  19
ENDBRANCH   6  18
BRANCH  10  21
HETATM   21  O6  UNL     1       8.027  -4.153  -4.011  1.00  0.00    -0.390 OA
ATOM     22  H6  UNL     1       7.380  -4.414  -4.655  1.00  0.00     0.210 HD
ENDBRANCH  10  21
BRANCH  11  23
HETATM   23  O7  UNL     1       8.429  -6.094  -5.982  1.00  0.00    -0.388 OA
ATOM     24  H7  UNL     1       8.281  -5.162  -6.088  1.00  0.00     0.210 HD
ENDBRANCH  11  23
TORSDOF 7
ENDMDL
MODEL 3
REMARK VINA RESULT: -6.492139550      1.134      1.205
REMARK  7 active torsions:
REMARK  status: ('A' for Active; 'I' for Inactive)
REMARK    1  A    between atoms: O1_2  and  C2_3 
REMARK    2  A    between atoms: C6_8  and  O3_9 
REMARK    3  A    between atoms: C6_8  and  C7_11 
REMARK    4  A    between atoms: C7_11  and  C8_12 
REMARK    5  A    between atoms: C9_15  and  O5_17 
REMARK    6  A    between atoms: C11_19  and  O6_20 
REMARK    7  A    between atoms: C12_22  and  O7_23 
ROOT
HETATM    1  C2  UNL     1      10.058  -5.084  -2.905  1.00  0.00     0.294 C 
HETATM    2  O2  UNL     1      10.699  -6.265  -2.628  1.00  0.00    -0.319 OA
HETATM    3  C3  UNL     1      11.991  -6.371  -3.017  1.00  0.00     0.203 C 
HETATM    4  C4  UNL     1      12.584  -7.606  -2.321  1.00  0.00     0.077 C 
HETATM    5  C5  UNL     1      12.346  -8.746  -3.298  1.00  0.00     0.074 C 
HETATM    6  C6  UNL     1      11.899  -8.030  -4.522  1.00  0.00     0.166 C 
HETATM    7  O4  UNL     1      12.176  -6.678  -4.343  1.00  0.00    -0.316 OA
HETATM    8  C9  UNL     1      12.839  -5.203  -2.577  1.00  0.00     0.139 C 
HETATM    9  C10 UNL     1      14.252  -5.313  -3.026  1.00  0.00     0.054 C 
HETATM   10  C11 UNL     1      12.230  -3.947  -3.159  1.00  0.00     0.191 C 
HETATM   11  C12 UNL     1      10.841  -3.854  -2.532  1.00  0.00     0.205 C 
ENDROOT
BRANCH   8  12
HETATM   12  O5  UNL     1      12.761  -5.109  -1.198  1.00  0.00    -0.382 OA
ATOM     13  H5  UNL     1      13.336  -5.765  -0.823  1.00  0.00     0.210 HD
ENDBRANCH   8  12
BRANCH   1  14
HETATM   14  O1  UNL     1       9.678  -4.946  -4.232  1.00  0.00    -0.363 OA
HETATM   15  C1  UNL     1       8.296  -5.130  -4.390  1.00  0.00     0.204 C 
ENDBRANCH   1  14
BRANCH   6  16
HETATM   16  O3  UNL     1      10.532  -8.194  -4.758  1.00  0.00    -0.365 OA
ATOM     17  H3  UNL     1      10.292  -7.963  -5.647  1.00  0.00     0.213 HD
ENDBRANCH   6  16
BRANCH   6  18
HETATM   18  C7  UNL     1      12.617  -8.470  -5.773  1.00  0.00     0.079 C 
BRANCH  18  19
HETATM   19  C8  UNL     1      12.445  -7.517  -6.914  1.00  0.00     0.091 C 
HETATM   20  S1  UNL     1      12.676  -8.244  -8.526  1.00  0.00    -0.097 SA
ENDBRANCH  18  19
ENDBRANCH   6  18
BRANCH  10  21
HETATM   21  O6  UNL     1      13.004  -2.850  -2.889  1.00  0.00    -0.390 OA
ATOM     22  H6  UNL     1      12.494  -2.162  -2.478  1.00  0.00     0.210 HD
ENDBRANCH  10  21
BRANCH  11  23
HETATM   23  O7  UNL     1      10.217  -2.754  -3.085  1.00  0.00    -0.388 OA
ATOM     24  H7  UNL     1       9.292  -2.794  -2.873  1.00  0.00     0.210 HD
ENDBRANCH  11  23
TORSDOF 7
ENDMDL
MODEL 4
REMARK VINA RESULT: -6.432524849      5.524      8.782
REMARK  7 active torsions:
REMARK  status: ('A' for Active; 'I' for Inactive)
REMARK    1  A    between atoms: O1_2  and  C2_3 
REMARK    2  A    between atoms: C6_8  and  O3_9 
REMARK    3  A    between atoms: C6_8  and  C7_11 
REMARK    4  A    between atoms: C7_11  and  C8_12 
REMARK    5  A    between atoms: C9_15  and  O5_17 
REMARK    6  A    between atoms: C11_19  and  O6_20 
REMARK    7  A    between atoms: C12_22  and  O7_23 
ROOT
HETATM    1  C2  UNL     1      15.026 -11.140  -9.639  1.00  0.00     0.294 C 
HETATM    2  O2  UNL     1      13.867 -11.405  -8.954  1.00  0.00    -0.319 OA
HETATM    3  C3  UNL     1      12.943 -10.418  -8.898  1.00  0.00     0.203 C 
HETATM    4  C4  UNL     1      11.632 -11.039  -8.393  1.00  0.00     0.077 C 
HETATM    5  C5  UNL     1      11.689 -10.874  -6.883  1.00  0.00     0.074 C 
HETATM    6  C6  UNL     1      12.856  -9.971  -6.703  1.00  0.00     0.166 C 
HETATM    7  O4  UNL     1      13.182  -9.451  -7.952  1.00  0.00    -0.316 OA
HETATM    8  C9  UNL     1      12.625  -9.828 -10.251  1.00  0.00     0.139 C 
HETATM    9  C10 UNL     1      11.627  -8.728 -10.181  1.00  0.00     0.054 C 
HETATM   10  C11 UNL     1      13.913  -9.293 -10.834  1.00  0.00     0.191 C 
HETATM   11  C12 UNL     1      14.815 -10.516 -10.992  1.00  0.00     0.205 C 
ENDROOT
BRANCH   8  12
HETATM   12  O5  UNL     1      12.183 -10.851 -11.074  1.00  0.00    -0.382 OA
ATOM     13  H5  UNL     1      11.245 -10.754 -11.188  1.00  0.00     0.210 HD
ENDBRANCH   8  12
BRANCH   1  14
HETATM   14  O1  UNL     1      15.918 -10.334  -8.946  1.00  0.00    -0.363 OA
HETATM   15  C1  UNL     1      16.848 -11.100  -8.229  1.00  0.00     0.204 C 
ENDBRANCH   1  14
BRANCH   6  16
HETATM   16  O3  UNL     1      13.965 -10.642  -6.180  1.00  0.00    -0.365 OA
ATOM     17  H3  UNL     1      13.977 -11.559  -6.428  1.00  0.00     0.213 HD
ENDBRANCH   6  16
BRANCH   6  18
HETATM   18  C7  UNL     1      12.580  -8.802  -5.792  1.00  0.00     0.079 C 
BRANCH  18  19
HETATM   19  C8  UNL     1      11.268  -8.138  -6.069  1.00  0.00     0.091 C 
HETATM   20  S1  UNL     1      10.428  -7.527  -4.620  1.00  0.00    -0.097 SA
ENDBRANCH  18  19
ENDBRANCH   6  18
BRANCH  10  21
HETATM   21  O6  UNL     1      13.690  -8.647 -12.021  1.00  0.00    -0.390 OA
ATOM     22  H6  UNL     1      13.636  -9.262 -12.742  1.00  0.00     0.210 HD
ENDBRANCH  10  21
BRANCH  11  23
HETATM   23  O7  UNL     1      16.033 -10.067 -11.461  1.00  0.00    -0.388 OA
ATOM     24  H7  UNL     1      16.114 -10.315 -12.374  1.00  0.00     0.210 HD
ENDBRANCH  11  23
TORSDOF 7
ENDMDL
MODEL 5
REMARK VINA RESULT: -6.421398380      1.516      1.826
REMARK  7 active torsions:
REMARK  status: ('A' for Active; 'I' for Inactive)
REMARK    1  A    between atoms: O1_2  and  C2_3 
REMARK    2  A    between atoms: C6_8  and  O3_9 
REMARK    3  A    between atoms: C6_8  and  C7_11 
REMARK    4  A    between atoms: C7_11  and  C8_12 
REMARK    5  A    between atoms: C9_15  and  O5_17 
REMARK    6  A    between atoms: C11_19  and  O6_20 
REMARK    7  A    between atoms: C12_22  and  O7_23 
ROOT
HETATM    1  C2  UNL     1      11.099  -4.001  -2.696  1.00  0.00     0.294 C 
HETATM    2  O2  UNL     1      10.541  -5.237  -2.907  1.00  0.00    -0.319 OA
HETATM    3  C3  UNL     1      11.390  -6.284  -3.028  1.00  0.00     0.203 C 
HETATM    4  C4  UNL     1      10.557  -7.570  -2.917  1.00  0.00     0.077 C 
HETATM    5  C5  UNL     1      10.174  -7.901  -4.350  1.00  0.00     0.074 C 
HETATM    6  C6  UNL     1      11.016  -6.959  -5.133  1.00  0.00     0.166 C 
HETATM    7  O4  UNL     1      11.966  -6.426  -4.266  1.00  0.00    -0.316 OA
HETATM    8  C9  UNL     1      12.406  -6.354  -1.913  1.00  0.00     0.139 C 
HETATM    9  C10 UNL     1      13.351  -7.492  -2.063  1.00  0.00     0.054 C 
HETATM   10  C11 UNL     1      13.186  -5.058  -1.919  1.00  0.00     0.191 C 
HETATM   11  C12 UNL     1      12.153  -3.973  -1.622  1.00  0.00     0.205 C 
ENDROOT
BRANCH   8  12
HETATM   12  O5  UNL     1      11.723  -6.428  -0.711  1.00  0.00    -0.382 OA
ATOM     13  H5  UNL     1      10.796  -6.325  -0.890  1.00  0.00     0.210 HD
ENDBRANCH   8  12
BRANCH   1  14
HETATM   14  O1  UNL     1      11.652  -3.431  -3.834  1.00  0.00    -0.363 OA
HETATM   15  C1  UNL     1      10.683  -2.758  -4.591  1.00  0.00     0.204 C 
ENDBRANCH   1  14
BRANCH   6  16
HETATM   16  O3  UNL     1      10.266  -5.920  -5.689  1.00  0.00    -0.365 OA
ATOM     17  H3  UNL     1       9.470  -5.752  -5.199  1.00  0.00     0.213 HD
ENDBRANCH   6  16
BRANCH   6  18
HETATM   18  C7  UNL     1      11.765  -7.616  -6.264  1.00  0.00     0.079 C 
BRANCH  18  19
HETATM   19  C8  UNL     1      11.529  -9.091  -6.346  1.00  0.00     0.091 C 
HETATM   20  S1  UNL     1      10.915  -9.656  -7.922  1.00  0.00    -0.097 SA
ENDBRANCH  18  19
ENDBRANCH   6  18
BRANCH  10  21
HETATM   21  O6  UNL     1      14.200  -5.085  -1.000  1.00  0.00    -0.390 OA
ATOM     22  H6  UNL     1      14.003  -4.532  -0.254  1.00  0.00     0.210 HD
ENDBRANCH  10  21
BRANCH  11  23
HETATM   23  O7  UNL     1      12.807  -2.760  -1.683  1.00  0.00    -0.388 OA
ATOM     24  H7  UNL     1      13.408  -2.704  -0.950  1.00  0.00     0.210 HD
ENDBRANCH  11  23
TORSDOF 7
ENDMDL
