MODEL 1
REMARK VINA RESULT: -8.149190122      0.000      0.000
REMARK  7 active torsions:
REMARK  status: ('A' for Active; 'I' for Inactive)
REMARK    1  A    between atoms: C5_6  and  O2_7 
REMARK    2  A    between atoms: C6_9  and  C7_10 
REMARK    3  A    between atoms: C7_10  and  O3_11 
REMARK    4  A    between atoms: C7_10  and  C8_13 
REMARK    5  A    between atoms: C8_13  and  O4_14 
REMARK    6  A    between atoms: C8_13  and  N1_16 
REMARK    7  A    between atoms: N1_16  and  C9_18 
ROOT
HETATM    1  C8  UNL     1      12.342 -10.436  -9.417  1.00  0.00     0.280 C 
ENDROOT
BRANCH   1   2
HETATM    2  C7  UNL     1      13.498  -9.463  -9.446  1.00  0.00     0.128 C 
BRANCH   2   3
HETATM    3  C6  UNL     1      14.683  -9.920 -10.153  1.00  0.00     0.146 A 
HETATM    4  C5  UNL     1      14.873  -9.516 -11.507  1.00  0.00     0.153 A 
HETATM    5  C4  UNL     1      16.021  -9.994 -12.084  1.00  0.00     0.210 A 
HETATM    6  C3  UNL     1      16.892 -10.799 -11.352  1.00  0.00     0.090 A 
HETATM    7  O1  UNL     1      16.275  -9.699 -13.289  1.00  0.00    -0.285 OA
HETATM    8  C2  UNL     1      16.651 -11.149 -10.049  1.00  0.00     0.054 A 
HETATM    9  C1  UNL     1      17.570 -12.012  -9.229  1.00  0.00     0.077 C 
HETATM   10  O7  UNL     1      15.547 -10.677  -9.540  1.00  0.00    -0.310 OA
BRANCH   4  11
HETATM   11  O2  UNL     1      13.935  -8.712 -12.124  1.00  0.00    -0.355 OA
ATOM     12  H2  UNL     1      12.994  -8.761 -12.000  1.00  0.00     0.218 HD
ENDBRANCH   4  11
ENDBRANCH   2   3
BRANCH   2  13
HETATM   13  O3  UNL     1      13.241  -8.151  -9.488  1.00  0.00    -0.358 OA
ATOM     14  H3  UNL     1      12.354  -7.883  -9.277  1.00  0.00     0.217 HD
ENDBRANCH   2  13
ENDBRANCH   1   2
BRANCH   1  15
HETATM   15  O4  UNL     1      12.705 -11.751  -9.513  1.00  0.00    -0.370 OA
ATOM     16  H4  UNL     1      12.104 -12.357  -9.095  1.00  0.00     0.212 HD
ENDBRANCH   1  15
BRANCH   1  17
HETATM   17  N1  UNL     1      11.462 -10.218  -8.316  1.00  0.00    -0.340 N 
ATOM     18  H1  UNL     1      10.485 -10.021  -8.532  1.00  0.00     0.164 HD
BRANCH  17  19
HETATM   19  C9  UNL     1      11.829 -10.250  -6.947  1.00  0.00     0.169 A 
HETATM   20  N2  UNL     1      12.077 -11.341  -6.336  1.00  0.00    -0.363 N 
HETATM   21  C10 UNL     1      12.454 -11.515  -4.971  1.00  0.00     0.224 A 
ATOM     22  H2  UNL     1      11.998 -12.193  -6.891  1.00  0.00     0.161 HD
HETATM   23  C11 UNL     1      12.616 -10.261  -4.218  1.00  0.00     0.242 A 
HETATM   24  O5  UNL     1      12.988 -10.269  -3.034  1.00  0.00    -0.271 OA
HETATM   25  N3  UNL     1      12.338  -9.007  -4.867  1.00  0.00    -0.289 N 
HETATM   26  C12 UNL     1      11.948  -8.993  -6.225  1.00  0.00     0.291 A 
ATOM     27  H3  UNL     1      12.421  -8.133  -4.349  1.00  0.00     0.172 HD
HETATM   28  O6  UNL     1      11.698  -7.908  -6.831  1.00  0.00    -0.264 OA
ENDBRANCH  17  19
ENDBRANCH   1  17
TORSDOF 7
ENDMDL
MODEL 2
REMARK VINA RESULT: -7.731920031      0.954      1.439
REMARK  7 active torsions:
REMARK  status: ('A' for Active; 'I' for Inactive)
REMARK    1  A    between atoms: C5_6  and  O2_7 
REMARK    2  A    between atoms: C6_9  and  C7_10 
REMARK    3  A    between atoms: C7_10  and  O3_11 
REMARK    4  A    between atoms: C7_10  and  C8_13 
REMARK    5  A    between atoms: C8_13  and  O4_14 
REMARK    6  A    between atoms: C8_13  and  N1_16 
REMARK    7  A    between atoms: N1_16  and  C9_18 
ROOT
HETATM    1  C8  UNL     1      12.193 -10.381  -9.282  1.00  0.00     0.280 C 
ENDROOT
BRANCH   1   2
HETATM    2  C7  UNL     1      13.370  -9.433  -9.266  1.00  0.00     0.128 C 
BRANCH   2   3
HETATM    3  C6  UNL     1      14.546  -9.883  -9.992  1.00  0.00     0.146 A 
HETATM    4  C5  UNL     1      14.706  -9.488 -11.352  1.00  0.00     0.153 A 
HETATM    5  C4  UNL     1      15.847  -9.959 -11.947  1.00  0.00     0.210 A 
HETATM    6  C3  UNL     1      16.740 -10.749 -11.227  1.00  0.00     0.090 A 
HETATM    7  O1  UNL     1      16.075  -9.670 -13.159  1.00  0.00    -0.285 OA
HETATM    8  C2  UNL     1      16.528 -11.092  -9.916  1.00  0.00     0.054 A 
HETATM    9  C1  UNL     1      17.471 -11.939  -9.107  1.00  0.00     0.077 C 
HETATM   10  O7  UNL     1      15.429 -10.627  -9.390  1.00  0.00    -0.310 OA
BRANCH   4  11
HETATM   11  O2  UNL     1      13.747  -8.698 -11.957  1.00  0.00    -0.355 OA
ATOM     12  H2  UNL     1      12.816  -8.715 -11.770  1.00  0.00     0.218 HD
ENDBRANCH   4  11
ENDBRANCH   2   3
BRANCH   2  13
HETATM   13  O3  UNL     1      13.142  -8.115  -9.248  1.00  0.00    -0.358 OA
ATOM     14  H3  UNL     1      12.728  -7.764  -8.468  1.00  0.00     0.217 HD
ENDBRANCH   2  13
ENDBRANCH   1   2
BRANCH   1  15
HETATM   15  O4  UNL     1      12.526 -11.696  -9.453  1.00  0.00    -0.370 OA
ATOM     16  H4  UNL     1      11.904 -12.311  -9.080  1.00  0.00     0.212 HD
ENDBRANCH   1  15
BRANCH   1  17
HETATM   17  N1  UNL     1      11.325 -10.204  -8.164  1.00  0.00    -0.340 N 
ATOM     18  H1  UNL     1      10.322 -10.205  -8.348  1.00  0.00     0.164 HD
BRANCH  17  19
HETATM   19  C9  UNL     1      11.736 -10.027  -6.819  1.00  0.00     0.169 A 
HETATM   20  N2  UNL     1      11.860  -8.873  -6.293  1.00  0.00    -0.363 N 
HETATM   21  C10 UNL     1      12.264  -8.555  -4.962  1.00  0.00     0.224 A 
ATOM     22  H2  UNL     1      11.644  -8.080  -6.897  1.00  0.00     0.161 HD
HETATM   23  C11 UNL     1      12.510  -9.725  -4.103  1.00  0.00     0.242 A 
HETATM   24  O5  UNL     1      12.820  -9.588  -2.910  1.00  0.00    -0.271 OA
HETATM   25  N3  UNL     1      12.390 -11.046  -4.659  1.00  0.00    -0.289 N 
HETATM   26  C12 UNL     1      12.003 -11.206  -6.009  1.00  0.00     0.291 A 
ATOM     27  H3  UNL     1      12.584 -11.864  -4.082  1.00  0.00     0.172 HD
HETATM   28  O6  UNL     1      11.883 -12.354  -6.533  1.00  0.00    -0.264 OA
ENDBRANCH  17  19
ENDBRANCH   1  17
TORSDOF 7
ENDMDL
MODEL 3
REMARK VINA RESULT: -7.731716138      1.127      2.412
REMARK  7 active torsions:
REMARK  status: ('A' for Active; 'I' for Inactive)
REMARK    1  A    between atoms: C5_6  and  O2_7 
REMARK    2  A    between atoms: C6_9  and  C7_10 
REMARK    3  A    between atoms: C7_10  and  O3_11 
REMARK    4  A    between atoms: C7_10  and  C8_13 
REMARK    5  A    between atoms: C8_13  and  O4_14 
REMARK    6  A    between atoms: C8_13  and  N1_16 
REMARK    7  A    between atoms: N1_16  and  C9_18 
ROOT
HETATM    1  C8  UNL     1      12.696  -9.240  -9.469  1.00  0.00     0.280 C 
ENDROOT
BRANCH   1   2
HETATM    2  C7  UNL     1      13.141 -10.588  -9.987  1.00  0.00     0.128 C 
BRANCH   2   3
HETATM    3  C6  UNL     1      14.569 -10.729 -10.220  1.00  0.00     0.146 A 
HETATM    4  C5  UNL     1      15.421 -11.003  -9.111  1.00  0.00     0.153 A 
HETATM    5  C4  UNL     1      16.748 -11.123  -9.433  1.00  0.00     0.210 A 
HETATM    6  C3  UNL     1      17.165 -10.983 -10.756  1.00  0.00     0.090 A 
HETATM    7  O1  UNL     1      17.588 -11.356  -8.515  1.00  0.00    -0.285 OA
HETATM    8  C2  UNL     1      16.290 -10.723 -11.779  1.00  0.00     0.054 A 
HETATM    9  C1  UNL     1      16.704 -10.570 -13.217  1.00  0.00     0.077 C 
HETATM   10  O7  UNL     1      15.039 -10.612 -11.429  1.00  0.00    -0.310 OA
BRANCH   4  11
HETATM   11  O2  UNL     1      14.886 -11.120  -7.843  1.00  0.00    -0.355 OA
ATOM     12  H2  UNL     1      14.180 -11.704  -7.591  1.00  0.00     0.218 HD
ENDBRANCH   4  11
ENDBRANCH   2   3
BRANCH   2  13
HETATM   13  O3  UNL     1      12.484 -11.684  -9.591  1.00  0.00    -0.358 OA
ATOM     14  H3  UNL     1      12.848 -12.520  -9.860  1.00  0.00     0.217 HD
ENDBRANCH   2  13
ENDBRANCH   1   2
BRANCH   1  15
HETATM   15  O4  UNL     1      12.305  -8.360 -10.440  1.00  0.00    -0.370 OA
ATOM     16  H4  UNL     1      11.901  -7.565 -10.112  1.00  0.00     0.212 HD
ENDBRANCH   1  15
BRANCH   1  17
HETATM   17  N1  UNL     1      11.721  -9.339  -8.433  1.00  0.00    -0.340 N 
ATOM     18  H1  UNL     1      10.746  -9.193  -8.695  1.00  0.00     0.164 HD
BRANCH  17  19
HETATM   19  C9  UNL     1      11.990  -9.624  -7.071  1.00  0.00     0.169 A 
HETATM   20  N2  UNL     1      12.108 -10.817  -6.637  1.00  0.00    -0.363 N 
HETATM   21  C10 UNL     1      12.375 -11.241  -5.300  1.00  0.00     0.224 A 
ATOM     22  H2  UNL     1      11.998 -11.558  -7.329  1.00  0.00     0.161 HD
HETATM   23  C11 UNL     1      12.585 -10.143  -4.342  1.00  0.00     0.242 A 
HETATM   24  O5  UNL     1      12.874 -10.375  -3.158  1.00  0.00    -0.271 OA
HETATM   25  N3  UNL     1      12.453  -8.782  -4.789  1.00  0.00    -0.289 N 
HETATM   26  C12 UNL     1      12.159  -8.515  -6.145  1.00  0.00     0.291 A 
ATOM     27  H3  UNL     1      12.570  -8.013  -4.129  1.00  0.00     0.172 HD
HETATM   28  O6  UNL     1      12.039  -7.329  -6.576  1.00  0.00    -0.264 OA
ENDBRANCH  17  19
ENDBRANCH   1  17
TORSDOF 7
ENDMDL
MODEL 4
REMARK VINA RESULT: -7.717326317      1.975      6.107
REMARK  7 active torsions:
REMARK  status: ('A' for Active; 'I' for Inactive)
REMARK    1  A    between atoms: C5_6  and  O2_7 
REMARK    2  A    between atoms: C6_9  and  C7_10 
REMARK    3  A    between atoms: C7_10  and  O3_11 
REMARK    4  A    between atoms: C7_10  and  C8_13 
REMARK    5  A    between atoms: C8_13  and  O4_14 
REMARK    6  A    between atoms: C8_13  and  N1_16 
REMARK    7  A    between atoms: N1_16  and  C9_18 
ROOT
HETATM    1  C8  UNL     1      12.038  -8.405  -8.038  1.00  0.00     0.280 C 
ENDROOT
BRANCH   1   2
HETATM    2  C7  UNL     1      11.094  -9.065  -7.059  1.00  0.00     0.128 C 
BRANCH   2   3
HETATM    3  C6  UNL     1      11.728  -9.794  -5.973  1.00  0.00     0.146 A 
HETATM    4  C5  UNL     1      12.000 -11.183  -6.145  1.00  0.00     0.153 A 
HETATM    5  C4  UNL     1      12.602 -11.779  -5.068  1.00  0.00     0.210 A 
HETATM    6  C3  UNL     1      12.902 -11.034  -3.929  1.00  0.00     0.090 A 
HETATM    7  O1  UNL     1      12.876 -13.015  -5.119  1.00  0.00    -0.285 OA
HETATM    8  C2  UNL     1      12.615  -9.696  -3.828  1.00  0.00     0.054 A 
HETATM    9  C1  UNL     1      12.928  -8.861  -2.618  1.00  0.00     0.077 C 
HETATM   10  O7  UNL     1      12.040  -9.170  -4.873  1.00  0.00    -0.310 OA
BRANCH   4  11
HETATM   11  O2  UNL     1      11.654 -11.811  -7.326  1.00  0.00    -0.355 OA
ATOM     12  H2  UNL     1      11.351 -12.707  -7.409  1.00  0.00     0.218 HD
ENDBRANCH   4  11
ENDBRANCH   2   3
BRANCH   2  13
HETATM   13  O3  UNL     1       9.925  -8.474  -6.785  1.00  0.00    -0.358 OA
ATOM     14  H3  UNL     1       9.140  -8.969  -6.987  1.00  0.00     0.217 HD
ENDBRANCH   2  13
ENDBRANCH   1   2
BRANCH   1  15
HETATM   15  O4  UNL     1      13.148  -7.846  -7.467  1.00  0.00    -0.370 OA
ATOM     16  H4  UNL     1      13.969  -8.094  -7.877  1.00  0.00     0.212 HD
ENDBRANCH   1  15
BRANCH   1  17
HETATM   17  N1  UNL     1      12.385  -9.254  -9.130  1.00  0.00    -0.340 N 
ATOM     18  H1  UNL     1      11.639  -9.513  -9.775  1.00  0.00     0.164 HD
BRANCH  17  19
HETATM   19  C9  UNL     1      13.679  -9.770  -9.396  1.00  0.00     0.169 A 
HETATM   20  N2  UNL     1      14.333 -10.440  -8.532  1.00  0.00    -0.363 N 
HETATM   21  C10 UNL     1      15.634 -11.011  -8.668  1.00  0.00     0.224 A 
ATOM     22  H2  UNL     1      13.871 -10.587  -7.635  1.00  0.00     0.161 HD
HETATM   23  C11 UNL     1      16.245 -10.830  -9.995  1.00  0.00     0.242 A 
HETATM   24  O5  UNL     1      17.353 -11.320 -10.261  1.00  0.00    -0.271 OA
HETATM   25  N3  UNL     1      15.543 -10.072 -10.997  1.00  0.00    -0.289 N 
HETATM   26  C12 UNL     1      14.265  -9.543 -10.708  1.00  0.00     0.291 A 
ATOM     27  H3  UNL     1      15.966  -9.917 -11.911  1.00  0.00     0.172 HD
HETATM   28  O6  UNL     1      13.615  -8.874 -11.566  1.00  0.00    -0.264 OA
ENDBRANCH  17  19
ENDBRANCH   1  17
TORSDOF 7
ENDMDL
MODEL 5
REMARK VINA RESULT: -7.694040291      4.279      6.558
REMARK  7 active torsions:
REMARK  status: ('A' for Active; 'I' for Inactive)
REMARK    1  A    between atoms: C5_6  and  O2_7 
REMARK    2  A    between atoms: C6_9  and  C7_10 
REMARK    3  A    between atoms: C7_10  and  O3_11 
REMARK    4  A    between atoms: C7_10  and  C8_13 
REMARK    5  A    between atoms: C8_13  and  O4_14 
REMARK    6  A    between atoms: C8_13  and  N1_16 
REMARK    7  A    between atoms: N1_16  and  C9_18 
ROOT
HETATM    1  C8  UNL     1      10.218  -6.850  -4.143  1.00  0.00     0.280 C 
ENDROOT
BRANCH   1   2
HETATM    2  C7  UNL     1      11.072  -8.050  -4.484  1.00  0.00     0.128 C 
BRANCH   2   3
HETATM    3  C6  UNL     1      11.175  -8.363  -5.900  1.00  0.00     0.146 A 
HETATM    4  C5  UNL     1      12.225  -7.771  -6.660  1.00  0.00     0.153 A 
HETATM    5  C4  UNL     1      12.240  -8.131  -7.981  1.00  0.00     0.210 A 
HETATM    6  C3  UNL     1      11.282  -9.012  -8.480  1.00  0.00     0.090 A 
HETATM    7  O1  UNL     1      13.130  -7.649  -8.743  1.00  0.00    -0.285 OA
HETATM    8  C2  UNL     1      10.297  -9.550  -7.693  1.00  0.00     0.054 A 
HETATM    9  C1  UNL     1       9.251 -10.506  -8.196  1.00  0.00     0.077 C 
HETATM   10  O7  UNL     1      10.317  -9.178  -6.444  1.00  0.00    -0.310 OA
BRANCH   4  11
HETATM   11  O2  UNL     1      13.117  -6.910  -6.048  1.00  0.00    -0.355 OA
ATOM     12  H2  UNL     1      13.477  -7.013  -5.175  1.00  0.00     0.218 HD
ENDBRANCH   4  11
ENDBRANCH   2   3
BRANCH   2  13
HETATM   13  O3  UNL     1      12.142  -8.321  -3.729  1.00  0.00    -0.358 OA
ATOM     14  H3  UNL     1      11.975  -8.617  -2.841  1.00  0.00     0.217 HD
ENDBRANCH   2  13
ENDBRANCH   1   2
BRANCH   1  15
HETATM   15  O4  UNL     1       9.530  -6.961  -2.967  1.00  0.00    -0.370 OA
ATOM     16  H4  UNL     1      10.079  -7.029  -2.194  1.00  0.00     0.212 HD
ENDBRANCH   1  15
BRANCH   1  17
HETATM   17  N1  UNL     1      10.939  -5.621  -4.211  1.00  0.00    -0.340 N 
ATOM     18  H1  UNL     1      10.700  -4.982  -4.969  1.00  0.00     0.164 HD
BRANCH  17  19
HETATM   19  C9  UNL     1      11.960  -5.212  -3.317  1.00  0.00     0.169 A 
HETATM   20  N2  UNL     1      13.185  -5.507  -3.503  1.00  0.00    -0.363 N 
HETATM   21  C10 UNL     1      14.304  -5.163  -2.686  1.00  0.00     0.224 A 
ATOM     22  H2  UNL     1      13.391  -6.057  -4.337  1.00  0.00     0.161 HD
HETATM   23  C11 UNL     1      13.976  -4.320  -1.525  1.00  0.00     0.242 A 
HETATM   24  O5  UNL     1      14.863  -3.910  -0.762  1.00  0.00    -0.271 OA
HETATM   25  N3  UNL     1      12.603  -3.970  -1.273  1.00  0.00    -0.289 N 
HETATM   26  C12 UNL     1      11.594  -4.408  -2.161  1.00  0.00     0.291 A 
ATOM     27  H3  UNL     1      12.359  -3.409  -0.457  1.00  0.00     0.172 HD
HETATM   28  O6  UNL     1      10.375  -4.115  -1.973  1.00  0.00    -0.264 OA
ENDBRANCH  17  19
ENDBRANCH   1  17
TORSDOF 7
ENDMDL
