MODEL 1
REMARK VINA RESULT: -4.608665414      0.000      0.000
REMARK  4 active torsions:
REMARK  status: ('A' for Active; 'I' for Inactive)
REMARK    1  A    between atoms: C1_4  and  N2_5 
REMARK    2  A    between atoms: C1_4  and  C2_10 
REMARK    3  A    between atoms: N2_5  and  N3_7 
REMARK    4  A    between atoms: C2_10  and  N4_11 
ROOT
HETATM    1  N1  UNL     1      25.481 141.255 147.055  1.00  0.00    -0.386 N 
ATOM      2  H11 UNL     1      26.320 141.738 147.377  1.00  0.00     0.157 HD
ATOM      3  H12 UNL     1      25.016 140.530 147.603  1.00  0.00     0.157 HD
HETATM    4  C1  UNL     1      25.066 141.627 145.913  1.00  0.00     0.125 C 
ENDROOT
BRANCH   4   5
HETATM    5  N2  UNL     1      23.884 140.947 145.459  1.00  0.00    -0.294 N 
ATOM      6  H2  UNL     1      22.957 141.280 145.723  1.00  0.00     0.187 HD
BRANCH   5   7
HETATM    7  N3  UNL     1      24.031 139.833 144.661  1.00  0.00    -0.344 N 
ATOM      8  H32 UNL     1      24.920 139.659 144.193  1.00  0.00     0.176 HD
ATOM      9  H31 UNL     1      23.237 139.201 144.555  1.00  0.00     0.176 HD
ENDBRANCH   5   7
ENDBRANCH   4   5
BRANCH   4  10
HETATM   10  C2  UNL     1      25.728 142.658 145.134  1.00  0.00     0.182 C 
HETATM   11  C3  UNL     1      25.186 142.882 143.739  1.00  0.00     0.047 C 
HETATM   12  C4  UNL     1      24.176 143.834 144.407  1.00  0.00     0.006 C 
HETATM   13  C5  UNL     1      25.284 144.058 145.438  1.00  0.00     0.047 C 
BRANCH  10  14
HETATM   14  N4  UNL     1      27.169 142.585 145.247  1.00  0.00    -0.063 N 
ATOM     15  H43 UNL     1      27.464 142.597 146.223  1.00  0.00     0.275 HD
ATOM     16  H42 UNL     1      27.514 141.661 144.985  1.00  0.00     0.275 HD
ATOM     17  H41 UNL     1      27.633 143.319 144.711  1.00  0.00     0.275 HD
ENDBRANCH  10  14
ENDBRANCH   4  10
TORSDOF 4
ENDMDL
MODEL 2
REMARK VINA RESULT: -4.459547632      1.250      2.552
REMARK  4 active torsions:
REMARK  status: ('A' for Active; 'I' for Inactive)
REMARK    1  A    between atoms: C1_4  and  N2_5 
REMARK    2  A    between atoms: C1_4  and  C2_10 
REMARK    3  A    between atoms: N2_5  and  N3_7 
REMARK    4  A    between atoms: C2_10  and  N4_11 
ROOT
HETATM    1  N1  UNL     1      24.276 140.245 145.111  1.00  0.00    -0.386 N 
ATOM      2  H11 UNL     1      23.692 140.373 144.284  1.00  0.00     0.157 HD
ATOM      3  H12 UNL     1      24.671 139.342 145.374  1.00  0.00     0.157 HD
HETATM    4  C1  UNL     1      24.466 141.303 145.789  1.00  0.00     0.125 C 
ENDROOT
BRANCH   4   5
HETATM    5  N2  UNL     1      25.288 141.122 146.954  1.00  0.00    -0.294 N 
ATOM      6  H2  UNL     1      25.170 141.717 147.774  1.00  0.00     0.187 HD
BRANCH   5   7
HETATM    7  N3  UNL     1      26.242 140.126 146.939  1.00  0.00    -0.344 N 
ATOM      8  H32 UNL     1      26.641 139.795 147.817  1.00  0.00     0.176 HD
ATOM      9  H31 UNL     1      26.528 139.739 146.040  1.00  0.00     0.176 HD
ENDBRANCH   5   7
ENDBRANCH   4   5
BRANCH   4  10
HETATM   10  C2  UNL     1      23.903 142.588 145.416  1.00  0.00     0.182 C 
HETATM   11  C3  UNL     1      24.651 143.806 145.911  1.00  0.00     0.047 C 
HETATM   12  C4  UNL     1      25.513 143.653 144.643  1.00  0.00     0.006 C 
HETATM   13  C5  UNL     1      24.248 143.046 144.030  1.00  0.00     0.047 C 
BRANCH  10  14
HETATM   14  N4  UNL     1      22.466 142.621 145.579  1.00  0.00    -0.063 N 
ATOM     15  H43 UNL     1      22.206 142.618 146.565  1.00  0.00     0.275 HD
ATOM     16  H42 UNL     1      22.085 143.531 145.314  1.00  0.00     0.275 HD
ATOM     17  H41 UNL     1      22.004 141.866 145.072  1.00  0.00     0.275 HD
ENDBRANCH  10  14
ENDBRANCH   4  10
TORSDOF 4
ENDMDL
MODEL 3
REMARK VINA RESULT: -4.418628849      1.225      1.621
REMARK  4 active torsions:
REMARK  status: ('A' for Active; 'I' for Inactive)
REMARK    1  A    between atoms: C1_4  and  N2_5 
REMARK    2  A    between atoms: C1_4  and  C2_10 
REMARK    3  A    between atoms: N2_5  and  N3_7 
REMARK    4  A    between atoms: C2_10  and  N4_11 
ROOT
HETATM    1  N1  UNL     1      25.415 141.397 146.921  1.00  0.00    -0.386 N 
ATOM      2  H11 UNL     1      26.132 142.055 147.227  1.00  0.00     0.157 HD
ATOM      3  H12 UNL     1      25.333 140.452 147.299  1.00  0.00     0.157 HD
HETATM    4  C1  UNL     1      24.635 141.850 146.026  1.00  0.00     0.125 C 
ENDROOT
BRANCH   4   5
HETATM    5  N2  UNL     1      23.624 140.923 145.594  1.00  0.00    -0.294 N 
ATOM      6  H2  UNL     1      22.654 141.034 145.889  1.00  0.00     0.187 HD
BRANCH   5   7
HETATM    7  N3  UNL     1      23.994 139.880 144.772  1.00  0.00    -0.344 N 
ATOM      8  H32 UNL     1      24.004 138.928 145.137  1.00  0.00     0.176 HD
ATOM      9  H31 UNL     1      24.253 140.087 143.808  1.00  0.00     0.176 HD
ENDBRANCH   5   7
ENDBRANCH   4   5
BRANCH   4  10
HETATM   10  C2  UNL     1      24.750 143.193 145.488  1.00  0.00     0.182 C 
HETATM   11  C3  UNL     1      26.079 143.538 144.851  1.00  0.00     0.047 C 
HETATM   12  C4  UNL     1      25.497 142.919 143.567  1.00  0.00     0.006 C 
HETATM   13  C5  UNL     1      24.148 143.379 144.126  1.00  0.00     0.047 C 
BRANCH  10  14
HETATM   14  N4  UNL     1      24.203 144.188 146.384  1.00  0.00    -0.063 N 
ATOM     15  H43 UNL     1      23.318 143.878 146.785  1.00  0.00     0.275 HD
ATOM     16  H42 UNL     1      24.753 144.256 147.242  1.00  0.00     0.275 HD
ATOM     17  H41 UNL     1      24.107 145.099 145.934  1.00  0.00     0.275 HD
ENDBRANCH  10  14
ENDBRANCH   4  10
TORSDOF 4
ENDMDL
MODEL 4
REMARK VINA RESULT: -4.329485104      5.787      6.807
REMARK  4 active torsions:
REMARK  status: ('A' for Active; 'I' for Inactive)
REMARK    1  A    between atoms: C1_4  and  N2_5 
REMARK    2  A    between atoms: C1_4  and  C2_10 
REMARK    3  A    between atoms: N2_5  and  N3_7 
REMARK    4  A    between atoms: C2_10  and  N4_11 
ROOT
HETATM    1  N1  UNL     1      29.814 136.977 146.532  1.00  0.00    -0.386 N 
ATOM      2  H11 UNL     1      30.304 137.733 147.011  1.00  0.00     0.157 HD
ATOM      3  H12 UNL     1      30.268 136.367 145.851  1.00  0.00     0.157 HD
HETATM    4  C1  UNL     1      28.589 136.861 146.850  1.00  0.00     0.125 C 
ENDROOT
BRANCH   4   5
HETATM    5  N2  UNL     1      27.898 135.796 146.176  1.00  0.00    -0.294 N 
ATOM      6  H2  UNL     1      27.362 135.106 146.702  1.00  0.00     0.187 HD
BRANCH   5   7
HETATM    7  N3  UNL     1      27.977 135.726 144.801  1.00  0.00    -0.344 N 
ATOM      8  H32 UNL     1      28.284 136.541 144.270  1.00  0.00     0.176 HD
ATOM      9  H31 UNL     1      27.722 134.852 144.342  1.00  0.00     0.176 HD
ENDBRANCH   5   7
ENDBRANCH   4   5
BRANCH   4  10
HETATM   10  C2  UNL     1      27.943 137.728 147.818  1.00  0.00     0.182 C 
HETATM   11  C3  UNL     1      26.738 137.147 148.526  1.00  0.00     0.047 C 
HETATM   12  C4  UNL     1      27.751 136.552 149.522  1.00  0.00     0.006 C 
HETATM   13  C5  UNL     1      28.604 137.772 149.164  1.00  0.00     0.047 C 
BRANCH  10  14
HETATM   14  N4  UNL     1      27.792 139.080 147.324  1.00  0.00    -0.063 N 
ATOM     15  H43 UNL     1      28.695 139.551 147.255  1.00  0.00     0.275 HD
ATOM     16  H42 UNL     1      27.531 139.086 146.337  1.00  0.00     0.275 HD
ATOM     17  H41 UNL     1      27.134 139.622 147.884  1.00  0.00     0.275 HD
ENDBRANCH  10  14
ENDBRANCH   4  10
TORSDOF 4
ENDMDL
MODEL 5
REMARK VINA RESULT: -4.316399169      6.157      7.372
REMARK  4 active torsions:
REMARK  status: ('A' for Active; 'I' for Inactive)
REMARK    1  A    between atoms: C1_4  and  N2_5 
REMARK    2  A    between atoms: C1_4  and  C2_10 
REMARK    3  A    between atoms: N2_5  and  N3_7 
REMARK    4  A    between atoms: C2_10  and  N4_11 
ROOT
HETATM    1  N1  UNL     1      28.515 138.481 147.236  1.00  0.00    -0.386 N 
ATOM      2  H11 UNL     1      28.041 139.001 147.974  1.00  0.00     0.157 HD
ATOM      3  H12 UNL     1      29.140 138.925 146.562  1.00  0.00     0.157 HD
HETATM    4  C1  UNL     1      28.259 137.236 147.222  1.00  0.00     0.125 C 
ENDROOT
BRANCH   4   5
HETATM    5  N2  UNL     1      28.929 136.504 146.181  1.00  0.00    -0.294 N 
ATOM      6  H2  UNL     1      29.942 136.387 146.195  1.00  0.00     0.187 HD
BRANCH   5   7
HETATM    7  N3  UNL     1      28.171 135.964 145.164  1.00  0.00    -0.344 N 
ATOM      8  H32 UNL     1      28.617 135.706 144.284  1.00  0.00     0.176 HD
ATOM      9  H31 UNL     1      27.171 135.833 145.317  1.00  0.00     0.176 HD
ENDBRANCH   5   7
ENDBRANCH   4   5
BRANCH   4  10
HETATM   10  C2  UNL     1      27.370 136.606 148.180  1.00  0.00     0.182 C 
HETATM   11  C3  UNL     1      27.732 135.194 148.588  1.00  0.00     0.047 C 
HETATM   12  C4  UNL     1      28.637 135.852 149.646  1.00  0.00     0.006 C 
HETATM   13  C5  UNL     1      27.612 136.989 149.610  1.00  0.00     0.047 C 
BRANCH  10  14
HETATM   14  N4  UNL     1      25.977 136.832 147.861  1.00  0.00    -0.063 N 
ATOM     15  H43 UNL     1      25.418 136.948 148.707  1.00  0.00     0.275 HD
ATOM     16  H42 UNL     1      25.837 137.755 147.449  1.00  0.00     0.275 HD
ATOM     17  H41 UNL     1      25.595 136.099 147.263  1.00  0.00     0.275 HD
ENDBRANCH  10  14
ENDBRANCH   4  10
TORSDOF 4
ENDMDL
