MODEL 1
REMARK VINA RESULT: -8.286673037      0.000      0.000
REMARK  7 active torsions:
REMARK  status: ('A' for Active; 'I' for Inactive)
REMARK    1  A    between atoms: C5_5  and  C6_6 
REMARK    2  A    between atoms: C6_6  and  S1_8 
REMARK    3  A    between atoms: S1_8  and  C8_9 
REMARK    4  A    between atoms: C9_14  and  N3_15 
REMARK    5  A    between atoms: C11_17  and  C12_18 
REMARK    6  A    between atoms: C12_18  and  C13_19 
REMARK    7  A    between atoms: C13_19  and  O1_20 
ROOT
HETATM    1  C8  UNL     1     -11.355 -55.499 -30.955  1.00  0.00     0.130 A 
HETATM    2  N1  UNL     1     -11.912 -54.664 -31.820  1.00  0.00    -0.286 N 
ATOM      3  H1  UNL     1     -11.942 -53.666 -31.616  1.00  0.00     0.188 HD
HETATM    4  N2  UNL     1     -12.407 -55.099 -32.896  1.00  0.00    -0.278 N 
ATOM      5  H2  UNL     1     -12.834 -54.452 -33.558  1.00  0.00     0.189 HD
HETATM    6  C9  UNL     1     -12.371 -56.398 -33.168  1.00  0.00     0.165 A 
HETATM    7  S2  UNL     1     -11.565 -56.990 -31.756  1.00  0.00    -0.026 SA
ENDROOT
BRANCH   6   8
HETATM    8  N3  UNL     1     -12.859 -57.104 -34.307  1.00  0.00    -0.328 N 
HETATM    9  C10 UNL     1     -14.194 -57.635 -34.422  1.00  0.00     0.163 C 
HETATM   10  C11 UNL     1     -13.966 -58.877 -35.256  1.00  0.00     0.245 C 
HETATM   11  N4  UNL     1     -12.984 -58.393 -36.209  1.00  0.00     0.117 N 
HETATM   12  C14 UNL     1     -12.166 -59.481 -36.638  1.00  0.00     0.276 C 
HETATM   13  C17 UNL     1     -12.183 -57.432 -35.534  1.00  0.00     0.326 C 
HETATM   14  C15 UNL     1     -10.886 -59.433 -35.843  1.00  0.00     0.034 C 
HETATM   15  C16 UNL     1     -10.810 -58.008 -35.344  1.00  0.00     0.059 C 
BRANCH  10  16
HETATM   16  C12 UNL     1     -15.206 -59.395 -35.901  1.00  0.00     0.063 C 
BRANCH  16  17
HETATM   17  C13 UNL     1     -15.790 -58.440 -36.916  1.00  0.00     0.166 C 
BRANCH  17  18
HETATM   18  O1  UNL     1     -17.179 -58.388 -36.647  1.00  0.00    -0.401 OA
ATOM     19  H1  UNL     1     -17.475 -57.544 -36.966  1.00  0.00     0.209 HD
ENDBRANCH  17  18
ENDBRANCH  16  17
ENDBRANCH  10  16
ENDBRANCH   6   8
BRANCH   1  20
HETATM   20  S1  UNL     1     -10.572 -55.288 -29.378  1.00  0.00    -0.099 SA
BRANCH  20  21
HETATM   21  C6  UNL     1      -9.499 -53.871 -29.304  1.00  0.00     0.055 C 
HETATM   22  C7  UNL     1      -9.599 -53.088 -28.021  1.00  0.00     0.022 C 
BRANCH  21  23
HETATM   23  C5  UNL     1      -8.068 -54.345 -29.508  1.00  0.00     0.003 C 
HETATM   24  C4  UNL     1      -7.327 -54.125 -28.241  1.00  0.00     0.006 C 
HETATM   25  C3  UNL     1      -5.836 -54.081 -28.382  1.00  0.00     0.005 C 
HETATM   26  C2  UNL     1      -5.525 -53.019 -29.441  1.00  0.00    -0.018 C 
HETATM   27  C1  UNL     1      -4.056 -52.735 -29.451  1.00  0.00     0.010 C 
HETATM   28  C20 UNL     1      -6.021 -53.581 -30.754  1.00  0.00     0.009 C 
HETATM   29  C18 UNL     1      -7.514 -53.667 -30.705  1.00  0.00    -0.013 C 
HETATM   30  C19 UNL     1      -7.945 -54.482 -31.932  1.00  0.00     0.010 C 
ENDBRANCH  21  23
ENDBRANCH  20  21
ENDBRANCH   1  20
TORSDOF 7
ENDMDL
MODEL 2
REMARK VINA RESULT: -8.247748659      4.940      6.146
REMARK  7 active torsions:
REMARK  status: ('A' for Active; 'I' for Inactive)
REMARK    1  A    between atoms: C5_5  and  C6_6 
REMARK    2  A    between atoms: C6_6  and  S1_8 
REMARK    3  A    between atoms: S1_8  and  C8_9 
REMARK    4  A    between atoms: C9_14  and  N3_15 
REMARK    5  A    between atoms: C11_17  and  C12_18 
REMARK    6  A    between atoms: C12_18  and  C13_19 
REMARK    7  A    between atoms: C13_19  and  O1_20 
ROOT
HETATM    1  C8  UNL     1     -12.838 -56.352 -30.792  1.00  0.00     0.130 A 
HETATM    2  N1  UNL     1     -13.178 -57.510 -31.341  1.00  0.00    -0.286 N 
ATOM      3  H1  UNL     1     -12.653 -57.866 -32.138  1.00  0.00     0.188 HD
HETATM    4  N2  UNL     1     -14.147 -58.172 -30.880  1.00  0.00    -0.278 N 
ATOM      5  H2  UNL     1     -14.405 -59.062 -31.307  1.00  0.00     0.189 HD
HETATM    6  C9  UNL     1     -14.835 -57.711 -29.841  1.00  0.00     0.165 A 
HETATM    7  S2  UNL     1     -13.994 -56.230 -29.543  1.00  0.00    -0.026 SA
ENDROOT
BRANCH   6   8
HETATM    8  N3  UNL     1     -15.951 -58.284 -29.163  1.00  0.00    -0.328 N 
HETATM    9  C10 UNL     1     -17.316 -58.178 -29.613  1.00  0.00     0.163 C 
HETATM   10  C11 UNL     1     -18.075 -58.141 -28.304  1.00  0.00     0.245 C 
HETATM   11  N4  UNL     1     -17.339 -59.124 -27.531  1.00  0.00     0.117 N 
HETATM   12  C14 UNL     1     -17.431 -58.797 -26.144  1.00  0.00     0.276 C 
HETATM   13  C17 UNL     1     -15.981 -59.053 -27.947  1.00  0.00     0.326 C 
HETATM   14  C15 UNL     1     -16.164 -58.076 -25.758  1.00  0.00     0.034 C 
HETATM   15  C16 UNL     1     -15.171 -58.467 -26.828  1.00  0.00     0.059 C 
BRANCH  10  16
HETATM   16  C12 UNL     1     -19.522 -58.471 -28.449  1.00  0.00     0.063 C 
BRANCH  16  17
HETATM   17  C13 UNL     1     -20.075 -58.132 -29.814  1.00  0.00     0.166 C 
BRANCH  17  18
HETATM   18  O1  UNL     1     -20.711 -56.875 -29.675  1.00  0.00    -0.401 OA
ATOM     19  H1  UNL     1     -20.287 -56.297 -30.299  1.00  0.00     0.209 HD
ENDBRANCH  17  18
ENDBRANCH  16  17
ENDBRANCH  10  16
ENDBRANCH   6   8
BRANCH   1  20
HETATM   20  S1  UNL     1     -11.574 -55.156 -31.135  1.00  0.00    -0.099 SA
BRANCH  20  21
HETATM   21  C6  UNL     1      -9.970 -55.625 -30.524  1.00  0.00     0.055 C 
HETATM   22  C7  UNL     1      -9.284 -56.686 -31.344  1.00  0.00     0.022 C 
BRANCH  21  23
HETATM   23  C5  UNL     1      -9.100 -54.379 -30.462  1.00  0.00     0.003 C 
HETATM   24  C4  UNL     1      -8.067 -54.487 -31.522  1.00  0.00     0.006 C 
HETATM   25  C3  UNL     1      -6.862 -53.620 -31.319  1.00  0.00     0.005 C 
HETATM   26  C2  UNL     1      -6.317 -53.945 -29.924  1.00  0.00    -0.018 C 
HETATM   27  C1  UNL     1      -4.972 -53.311 -29.752  1.00  0.00     0.010 C 
HETATM   28  C20 UNL     1      -7.340 -53.419 -28.943  1.00  0.00     0.009 C 
HETATM   29  C18 UNL     1      -8.592 -54.229 -29.077  1.00  0.00    -0.013 C 
HETATM   30  C19 UNL     1      -9.673 -53.498 -28.269  1.00  0.00     0.010 C 
ENDBRANCH  21  23
ENDBRANCH  20  21
ENDBRANCH   1  20
TORSDOF 7
ENDMDL
MODEL 3
REMARK VINA RESULT: -7.993502954      5.584      6.664
REMARK  7 active torsions:
REMARK  status: ('A' for Active; 'I' for Inactive)
REMARK    1  A    between atoms: C5_5  and  C6_6 
REMARK    2  A    between atoms: C6_6  and  S1_8 
REMARK    3  A    between atoms: S1_8  and  C8_9 
REMARK    4  A    between atoms: C9_14  and  N3_15 
REMARK    5  A    between atoms: C11_17  and  C12_18 
REMARK    6  A    between atoms: C12_18  and  C13_19 
REMARK    7  A    between atoms: C13_19  and  O1_20 
ROOT
HETATM    1  C8  UNL     1     -13.144 -56.270 -30.724  1.00  0.00     0.130 A 
HETATM    2  N1  UNL     1     -13.878 -57.097 -31.455  1.00  0.00    -0.286 N 
ATOM      3  H1  UNL     1     -13.734 -57.146 -32.463  1.00  0.00     0.188 HD
HETATM    4  N2  UNL     1     -14.753 -57.822 -30.910  1.00  0.00    -0.278 N 
ATOM      5  H2  UNL     1     -15.315 -58.456 -31.477  1.00  0.00     0.189 HD
HETATM    6  C9  UNL     1     -14.945 -57.762 -29.597  1.00  0.00     0.165 A 
HETATM    7  S2  UNL     1     -13.767 -56.572 -29.165  1.00  0.00    -0.026 SA
ENDROOT
BRANCH   6   8
HETATM    8  N3  UNL     1     -15.864 -58.481 -28.777  1.00  0.00    -0.328 N 
HETATM    9  C10 UNL     1     -16.449 -57.962 -27.566  1.00  0.00     0.163 C 
HETATM   10  C11 UNL     1     -16.585 -59.212 -26.724  1.00  0.00     0.245 C 
HETATM   11  N4  UNL     1     -17.014 -60.172 -27.723  1.00  0.00     0.117 N 
HETATM   12  C14 UNL     1     -16.583 -61.477 -27.339  1.00  0.00     0.276 C 
HETATM   13  C17 UNL     1     -16.393 -59.807 -28.949  1.00  0.00     0.326 C 
HETATM   14  C15 UNL     1     -15.322 -61.787 -28.106  1.00  0.00     0.034 C 
HETATM   15  C16 UNL     1     -15.360 -60.843 -29.285  1.00  0.00     0.059 C 
BRANCH  10  16
HETATM   16  C12 UNL     1     -17.550 -59.065 -25.597  1.00  0.00     0.063 C 
BRANCH  16  17
HETATM   17  C13 UNL     1     -16.927 -59.328 -24.244  1.00  0.00     0.166 C 
BRANCH  17  18
HETATM   18  O1  UNL     1     -17.564 -58.439 -23.345  1.00  0.00    -0.401 OA
ATOM     19  H1  UNL     1     -18.472 -58.396 -23.619  1.00  0.00     0.209 HD
ENDBRANCH  17  18
ENDBRANCH  16  17
ENDBRANCH  10  16
ENDBRANCH   6   8
BRANCH   1  20
HETATM   20  S1  UNL     1     -11.849 -55.119 -31.103  1.00  0.00    -0.099 SA
BRANCH  20  21
HETATM   21  C6  UNL     1     -10.260 -55.606 -30.468  1.00  0.00     0.055 C 
HETATM   22  C7  UNL     1      -9.605 -56.724 -31.236  1.00  0.00     0.022 C 
BRANCH  21  23
HETATM   23  C5  UNL     1      -9.353 -54.385 -30.463  1.00  0.00     0.003 C 
HETATM   24  C4  UNL     1      -8.422 -54.500 -31.613  1.00  0.00     0.006 C 
HETATM   25  C3  UNL     1      -7.180 -53.669 -31.505  1.00  0.00     0.005 C 
HETATM   26  C2  UNL     1      -6.521 -54.035 -30.171  1.00  0.00    -0.018 C 
HETATM   27  C1  UNL     1      -5.150 -53.441 -30.109  1.00  0.00     0.010 C 
HETATM   28  C20 UNL     1      -7.438 -53.502 -29.093  1.00  0.00     0.009 C 
HETATM   29  C18 UNL     1      -8.718 -54.276 -29.127  1.00  0.00    -0.013 C 
HETATM   30  C19 UNL     1      -9.702 -53.533 -28.213  1.00  0.00     0.010 C 
ENDBRANCH  21  23
ENDBRANCH  20  21
ENDBRANCH   1  20
TORSDOF 7
ENDMDL
MODEL 4
REMARK VINA RESULT: -7.978833941      1.441      2.556
REMARK  7 active torsions:
REMARK  status: ('A' for Active; 'I' for Inactive)
REMARK    1  A    between atoms: C5_5  and  C6_6 
REMARK    2  A    between atoms: C6_6  and  S1_8 
REMARK    3  A    between atoms: S1_8  and  C8_9 
REMARK    4  A    between atoms: C9_14  and  N3_15 
REMARK    5  A    between atoms: C11_17  and  C12_18 
REMARK    6  A    between atoms: C12_18  and  C13_19 
REMARK    7  A    between atoms: C13_19  and  O1_20 
ROOT
HETATM    1  C8  UNL     1     -12.096 -55.772 -32.613  1.00  0.00     0.130 A 
HETATM    2  N1  UNL     1     -11.604 -55.559 -33.826  1.00  0.00    -0.286 N 
ATOM      3  H1  UNL     1     -10.843 -54.892 -33.954  1.00  0.00     0.188 HD
HETATM    4  N2  UNL     1     -12.071 -56.177 -34.820  1.00  0.00    -0.278 N 
ATOM      5  H2  UNL     1     -11.688 -56.009 -35.750  1.00  0.00     0.189 HD
HETATM    6  C9  UNL     1     -13.061 -57.047 -34.659  1.00  0.00     0.165 A 
HETATM    7  S2  UNL     1     -13.300 -56.933 -32.949  1.00  0.00    -0.026 SA
ENDROOT
BRANCH   6   8
HETATM    8  N3  UNL     1     -13.734 -57.851 -35.626  1.00  0.00    -0.328 N 
HETATM    9  C10 UNL     1     -14.927 -57.448 -36.327  1.00  0.00     0.163 C 
HETATM   10  C11 UNL     1     -15.648 -58.767 -36.503  1.00  0.00     0.245 C 
HETATM   11  N4  UNL     1     -14.538 -59.647 -36.818  1.00  0.00     0.117 N 
HETATM   12  C14 UNL     1     -14.849 -60.972 -36.387  1.00  0.00     0.276 C 
HETATM   13  C17 UNL     1     -13.407 -59.168 -36.103  1.00  0.00     0.326 C 
HETATM   14  C15 UNL     1     -14.175 -61.191 -35.056  1.00  0.00     0.034 C 
HETATM   15  C16 UNL     1     -13.079 -60.151 -35.017  1.00  0.00     0.059 C 
BRANCH  10  16
HETATM   16  C12 UNL     1     -16.693 -58.735 -37.565  1.00  0.00     0.063 C 
BRANCH  16  17
HETATM   17  C13 UNL     1     -18.079 -59.036 -37.043  1.00  0.00     0.166 C 
BRANCH  17  18
HETATM   18  O1  UNL     1     -18.658 -57.783 -36.731  1.00  0.00    -0.401 OA
ATOM     19  H1  UNL     1     -19.500 -57.767 -37.171  1.00  0.00     0.209 HD
ENDBRANCH  17  18
ENDBRANCH  16  17
ENDBRANCH  10  16
ENDBRANCH   6   8
BRANCH   1  20
HETATM   20  S1  UNL     1     -11.724 -55.121 -31.007  1.00  0.00    -0.099 SA
BRANCH  20  21
HETATM   21  C6  UNL     1     -10.121 -55.600 -30.402  1.00  0.00     0.055 C 
HETATM   22  C7  UNL     1      -9.479 -56.721 -31.178  1.00  0.00     0.022 C 
BRANCH  21  23
HETATM   23  C5  UNL     1      -9.217 -54.377 -30.423  1.00  0.00     0.003 C 
HETATM   24  C4  UNL     1      -8.267 -54.527 -31.553  1.00  0.00     0.006 C 
HETATM   25  C3  UNL     1      -7.029 -53.689 -31.452  1.00  0.00     0.005 C 
HETATM   26  C2  UNL     1      -6.392 -54.008 -30.096  1.00  0.00    -0.018 C 
HETATM   27  C1  UNL     1      -5.023 -53.408 -30.031  1.00  0.00     0.010 C 
HETATM   28  C20 UNL     1      -7.327 -53.443 -29.051  1.00  0.00     0.009 C 
HETATM   29  C18 UNL     1      -8.605 -54.221 -29.081  1.00  0.00    -0.013 C 
HETATM   30  C19 UNL     1      -9.606 -53.451 -28.208  1.00  0.00     0.010 C 
ENDBRANCH  21  23
ENDBRANCH  20  21
ENDBRANCH   1  20
TORSDOF 7
ENDMDL
MODEL 5
REMARK VINA RESULT: -7.950161662      1.893      2.083
REMARK  7 active torsions:
REMARK  status: ('A' for Active; 'I' for Inactive)
REMARK    1  A    between atoms: C5_5  and  C6_6 
REMARK    2  A    between atoms: C6_6  and  S1_8 
REMARK    3  A    between atoms: S1_8  and  C8_9 
REMARK    4  A    between atoms: C9_14  and  N3_15 
REMARK    5  A    between atoms: C11_17  and  C12_18 
REMARK    6  A    between atoms: C12_18  and  C13_19 
REMARK    7  A    between atoms: C13_19  and  O1_20 
ROOT
HETATM    1  C8  UNL     1     -11.188 -55.538 -30.786  1.00  0.00     0.130 A 
HETATM    2  N1  UNL     1     -11.851 -54.868 -31.718  1.00  0.00    -0.286 N 
ATOM      3  H1  UNL     1     -12.126 -53.901 -31.549  1.00  0.00     0.188 HD
HETATM    4  N2  UNL     1     -12.143 -55.421 -32.813  1.00  0.00    -0.278 N 
ATOM      5  H2  UNL     1     -12.653 -54.900 -33.526  1.00  0.00     0.189 HD
HETATM    6  C9  UNL     1     -11.787 -56.680 -33.039  1.00  0.00     0.165 A 
HETATM    7  S2  UNL     1     -10.984 -57.048 -31.553  1.00  0.00    -0.026 SA
ENDROOT
BRANCH   6   8
HETATM    8  N3  UNL     1     -12.006 -57.495 -34.189  1.00  0.00    -0.328 N 
HETATM    9  C10 UNL     1     -12.638 -58.791 -34.157  1.00  0.00     0.163 C 
HETATM   10  C11 UNL     1     -11.915 -59.519 -35.269  1.00  0.00     0.245 C 
HETATM   11  N4  UNL     1     -11.811 -58.469 -36.265  1.00  0.00     0.117 N 
HETATM   12  C14 UNL     1     -10.654 -58.694 -37.070  1.00  0.00     0.276 C 
HETATM   13  C17 UNL     1     -11.671 -57.240 -35.564  1.00  0.00     0.326 C 
HETATM   14  C15 UNL     1      -9.552 -57.809 -36.546  1.00  0.00     0.034 C 
HETATM   15  C16 UNL     1     -10.275 -56.731 -35.773  1.00  0.00     0.059 C 
BRANCH  10  16
HETATM   16  C12 UNL     1     -12.642 -60.724 -35.759  1.00  0.00     0.063 C 
BRANCH  16  17
HETATM   17  C13 UNL     1     -11.992 -62.023 -35.338  1.00  0.00     0.166 C 
BRANCH  17  18
HETATM   18  O1  UNL     1     -10.601 -61.766 -35.300  1.00  0.00    -0.401 OA
ATOM     19  H1  UNL     1     -10.360 -61.505 -36.181  1.00  0.00     0.209 HD
ENDBRANCH  17  18
ENDBRANCH  16  17
ENDBRANCH  10  16
ENDBRANCH   6   8
BRANCH   1  20
HETATM   20  S1  UNL     1     -10.605 -55.128 -29.162  1.00  0.00    -0.099 SA
BRANCH  20  21
HETATM   21  C6  UNL     1      -9.483 -53.748 -29.140  1.00  0.00     0.055 C 
HETATM   22  C7  UNL     1      -9.502 -52.960 -27.856  1.00  0.00     0.022 C 
BRANCH  21  23
HETATM   23  C5  UNL     1      -8.079 -54.270 -29.403  1.00  0.00     0.003 C 
HETATM   24  C4  UNL     1      -7.281 -54.086 -28.166  1.00  0.00     0.006 C 
HETATM   25  C3  UNL     1      -5.797 -54.093 -28.366  1.00  0.00     0.005 C 
HETATM   26  C2  UNL     1      -5.491 -53.034 -29.430  1.00  0.00    -0.018 C 
HETATM   27  C1  UNL     1      -4.015 -52.802 -29.497  1.00  0.00     0.010 C 
HETATM   28  C20 UNL     1      -6.058 -53.569 -30.726  1.00  0.00     0.009 C 
HETATM   29  C18 UNL     1      -7.550 -53.603 -30.618  1.00  0.00    -0.013 C 
HETATM   30  C19 UNL     1      -8.058 -54.393 -31.832  1.00  0.00     0.010 C 
ENDBRANCH  21  23
ENDBRANCH  20  21
ENDBRANCH   1  20
TORSDOF 7
ENDMDL
