MODEL 1
REMARK VINA RESULT: -6.165882926      0.000      0.000
REMARK  7 active torsions:
REMARK  status: ('A' for Active; 'I' for Inactive)
REMARK    1  A    between atoms: C3_3  and  C4_4 
REMARK    2  A    between atoms: C13_13  and  O1_14 
REMARK    3  A    between atoms: C13_13  and  C14_16 
REMARK    4  A    between atoms: C14_16  and  C15_17 
REMARK    5  A    between atoms: C14_16  and  C17_20 
REMARK    6  A    between atoms: C15_17  and  O2_18 
REMARK    7  A    between atoms: C17_20  and  O4_22 
ROOT
HETATM    1  C1  UNL     1      10.817  -7.831  -3.971  1.00  0.00     0.112 C 
HETATM    2  C2  UNL     1      10.604  -9.020  -4.824  1.00  0.00    -0.111 C 
HETATM    3  C3  UNL     1      10.454  -9.986  -5.516  1.00  0.00    -0.101 C 
ENDROOT
BRANCH   3   4
HETATM    4  C4  UNL     1      10.298 -11.150  -6.348  1.00  0.00     0.073 C 
HETATM    5  C5  UNL     1       9.190 -12.067  -5.890  1.00  0.00     0.002 C 
HETATM    6  C6  UNL     1       9.029 -13.104  -7.001  1.00  0.00     0.014 C 
HETATM    7  C12 UNL     1       9.571 -12.736  -4.614  1.00  0.00     0.014 C 
HETATM    8  C7  UNL     1      10.230 -13.970  -7.100  1.00  0.00     0.026 C 
HETATM    9  C8  UNL     1      11.342 -12.981  -7.560  1.00  0.00     0.014 C 
HETATM   10  C13 UNL     1      10.769 -14.596  -5.878  1.00  0.00     0.096 C 
HETATM   11  C9  UNL     1      11.566 -11.989  -6.442  1.00  0.00     0.002 C 
HETATM   12  C10 UNL     1      11.909 -12.613  -5.120  1.00  0.00     0.014 C 
HETATM   13  C11 UNL     1      10.792 -13.611  -4.750  1.00  0.00     0.026 C 
BRANCH  10  14
HETATM   14  O1  UNL     1      12.177 -14.765  -6.184  1.00  0.00    -0.384 OA
ATOM     15  H1  UNL     1      12.610 -14.420  -5.412  1.00  0.00     0.211 HD
ENDBRANCH  10  14
BRANCH  10  16
HETATM   16  C14 UNL     1      10.412 -15.982  -5.546  1.00  0.00     0.053 C 
BRANCH  16  17
HETATM   17  C15 UNL     1       9.102 -16.553  -5.846  1.00  0.00     0.210 C 
BRANCH  17  18
HETATM   18  O2  UNL     1       9.047 -17.932  -5.904  1.00  0.00    -0.391 OA
HETATM   19  C16 UNL     1       7.862 -18.462  -5.471  1.00  0.00     0.201 C 
ENDBRANCH  17  18
ENDBRANCH  16  17
BRANCH  16  20
HETATM   20  C17 UNL     1      10.925 -16.357  -4.180  1.00  0.00     0.290 C 
HETATM   21  O3  UNL     1      12.122 -16.646  -3.951  1.00  0.00    -0.260 OA
BRANCH  20  22
HETATM   22  O4  UNL     1      10.062 -16.398  -3.093  1.00  0.00    -0.323 OA
HETATM   23  C18 UNL     1      10.441 -16.962  -1.850  1.00  0.00     0.213 C 
ENDBRANCH  20  22
ENDBRANCH  16  20
ENDBRANCH  10  16
ENDBRANCH   3   4
TORSDOF 7
ENDMDL
MODEL 2
REMARK VINA RESULT: -6.075707871      0.836      2.174
REMARK  7 active torsions:
REMARK  status: ('A' for Active; 'I' for Inactive)
REMARK    1  A    between atoms: C3_3  and  C4_4 
REMARK    2  A    between atoms: C13_13  and  O1_14 
REMARK    3  A    between atoms: C13_13  and  C14_16 
REMARK    4  A    between atoms: C14_16  and  C15_17 
REMARK    5  A    between atoms: C14_16  and  C17_20 
REMARK    6  A    between atoms: C15_17  and  O2_18 
REMARK    7  A    between atoms: C17_20  and  O4_22 
ROOT
HETATM    1  C1  UNL     1      10.840  -7.682  -4.123  1.00  0.00     0.112 C 
HETATM    2  C2  UNL     1      10.623  -8.901  -4.931  1.00  0.00    -0.111 C 
HETATM    3  C3  UNL     1      10.470  -9.890  -5.589  1.00  0.00    -0.101 C 
ENDROOT
BRANCH   3   4
HETATM    4  C4  UNL     1      10.310 -11.080  -6.384  1.00  0.00     0.073 C 
HETATM    5  C5  UNL     1       9.137 -11.929  -5.957  1.00  0.00     0.002 C 
HETATM    6  C6  UNL     1       8.994 -13.003  -7.035  1.00  0.00     0.014 C 
HETATM    7  C12 UNL     1       9.414 -12.560  -4.635  1.00  0.00     0.014 C 
HETATM    8  C7  UNL     1      10.159 -13.922  -7.028  1.00  0.00     0.026 C 
HETATM    9  C8  UNL     1      11.339 -13.002  -7.459  1.00  0.00     0.014 C 
HETATM   10  C13 UNL     1      10.597 -14.521  -5.754  1.00  0.00     0.096 C 
HETATM   11  C9  UNL     1      11.543 -11.976  -6.369  1.00  0.00     0.002 C 
HETATM   12  C10 UNL     1      11.780 -12.559  -5.006  1.00  0.00     0.014 C 
HETATM   13  C11 UNL     1      10.600 -13.492  -4.665  1.00  0.00     0.026 C 
BRANCH  10  14
HETATM   14  O1  UNL     1      12.012 -14.761  -5.968  1.00  0.00    -0.384 OA
ATOM     15  H1  UNL     1      12.020 -15.382  -6.687  1.00  0.00     0.211 HD
ENDBRANCH  10  14
BRANCH  10  16
HETATM   16  C14 UNL     1      10.160 -15.875  -5.390  1.00  0.00     0.053 C 
BRANCH  16  17
HETATM   17  C15 UNL     1      10.647 -16.567  -4.200  1.00  0.00     0.210 C 
BRANCH  17  18
HETATM   18  O2  UNL     1       9.769 -16.619  -3.134  1.00  0.00    -0.391 OA
HETATM   19  C16 UNL     1      10.360 -16.933  -1.940  1.00  0.00     0.201 C 
ENDBRANCH  17  18
ENDBRANCH  16  17
BRANCH  16  20
HETATM   20  C17 UNL     1      10.087 -16.762  -6.605  1.00  0.00     0.290 C 
HETATM   21  O3  UNL     1      11.100 -17.216  -7.187  1.00  0.00    -0.260 OA
BRANCH  20  22
HETATM   22  O4  UNL     1       8.857 -17.120  -7.141  1.00  0.00    -0.323 OA
HETATM   23  C18 UNL     1       7.634 -16.663  -6.591  1.00  0.00     0.213 C 
ENDBRANCH  20  22
ENDBRANCH  16  20
ENDBRANCH  10  16
ENDBRANCH   3   4
TORSDOF 7
ENDMDL
MODEL 3
REMARK VINA RESULT: -6.047983598      0.977      1.228
REMARK  7 active torsions:
REMARK  status: ('A' for Active; 'I' for Inactive)
REMARK    1  A    between atoms: C3_3  and  C4_4 
REMARK    2  A    between atoms: C13_13  and  O1_14 
REMARK    3  A    between atoms: C13_13  and  C14_16 
REMARK    4  A    between atoms: C14_16  and  C15_17 
REMARK    5  A    between atoms: C14_16  and  C17_20 
REMARK    6  A    between atoms: C15_17  and  O2_18 
REMARK    7  A    between atoms: C17_20  and  O4_22 
ROOT
HETATM    1  C1  UNL     1      10.486  -8.008  -4.382  1.00  0.00     0.112 C 
HETATM    2  C2  UNL     1      10.545  -9.256  -5.173  1.00  0.00    -0.111 C 
HETATM    3  C3  UNL     1      10.614 -10.269  -5.808  1.00  0.00    -0.101 C 
ENDROOT
BRANCH   3   4
HETATM    4  C4  UNL     1      10.721 -11.488  -6.566  1.00  0.00     0.073 C 
HETATM    5  C5  UNL     1       9.520 -12.390  -6.419  1.00  0.00     0.002 C 
HETATM    6  C6  UNL     1       9.711 -13.501  -7.451  1.00  0.00     0.014 C 
HETATM    7  C12 UNL     1       9.475 -12.966  -5.045  1.00  0.00     0.014 C 
HETATM    8  C7  UNL     1      10.876 -14.352  -7.107  1.00  0.00     0.026 C 
HETATM    9  C8  UNL     1      12.083 -13.379  -7.260  1.00  0.00     0.014 C 
HETATM   10  C13 UNL     1      10.999 -14.888  -5.739  1.00  0.00     0.096 C 
HETATM   11  C9  UNL     1      11.950 -12.312  -6.198  1.00  0.00     0.002 C 
HETATM   12  C10 UNL     1      11.854 -12.841  -4.797  1.00  0.00     0.014 C 
HETATM   13  C11 UNL     1      10.671 -13.830  -4.730  1.00  0.00     0.026 C 
BRANCH  10  14
HETATM   14  O1  UNL     1      12.430 -15.054  -5.573  1.00  0.00    -0.384 OA
ATOM     15  H1  UNL     1      12.504 -15.461  -4.718  1.00  0.00     0.211 HD
ENDBRANCH  10  14
BRANCH  10  16
HETATM   16  C14 UNL     1      10.547 -16.254  -5.443  1.00  0.00     0.053 C 
BRANCH  16  17
HETATM   17  C15 UNL     1       9.329 -16.823  -6.013  1.00  0.00     0.210 C 
BRANCH  17  18
HETATM   18  O2  UNL     1       8.187 -16.056  -5.877  1.00  0.00    -0.391 OA
HETATM   19  C16 UNL     1       7.226 -16.316  -6.816  1.00  0.00     0.201 C 
ENDBRANCH  17  18
ENDBRANCH  16  17
BRANCH  16  20
HETATM   20  C17 UNL     1      10.725 -16.575  -3.981  1.00  0.00     0.290 C 
HETATM   21  O3  UNL     1       9.767 -16.691  -3.182  1.00  0.00    -0.260 OA
BRANCH  20  22
HETATM   22  O4  UNL     1      11.995 -16.758  -3.452  1.00  0.00    -0.323 OA
HETATM   23  C18 UNL     1      12.446 -18.021  -2.994  1.00  0.00     0.213 C 
ENDBRANCH  20  22
ENDBRANCH  16  20
ENDBRANCH  10  16
ENDBRANCH   3   4
TORSDOF 7
ENDMDL
MODEL 4
REMARK VINA RESULT: -6.009848911      1.721      2.939
REMARK  7 active torsions:
REMARK  status: ('A' for Active; 'I' for Inactive)
REMARK    1  A    between atoms: C3_3  and  C4_4 
REMARK    2  A    between atoms: C13_13  and  O1_14 
REMARK    3  A    between atoms: C13_13  and  C14_16 
REMARK    4  A    between atoms: C14_16  and  C15_17 
REMARK    5  A    between atoms: C14_16  and  C17_20 
REMARK    6  A    between atoms: C15_17  and  O2_18 
REMARK    7  A    between atoms: C17_20  and  O4_22 
ROOT
HETATM    1  C1  UNL     1      10.066  -7.229  -6.180  1.00  0.00     0.112 C 
HETATM    2  C2  UNL     1      10.312  -8.631  -5.778  1.00  0.00    -0.111 C 
HETATM    3  C3  UNL     1      10.490  -9.770  -5.455  1.00  0.00    -0.101 C 
ENDROOT
BRANCH   3   4
HETATM    4  C4  UNL     1      10.680 -11.144  -5.066  1.00  0.00     0.073 C 
HETATM    5  C5  UNL     1      11.542 -11.922  -6.029  1.00  0.00     0.002 C 
HETATM    6  C6  UNL     1      11.812 -13.263  -5.346  1.00  0.00     0.014 C 
HETATM    7  C12 UNL     1      10.815 -12.136  -7.312  1.00  0.00     0.014 C 
HETATM    8  C7  UNL     1      10.564 -14.056  -5.217  1.00  0.00     0.026 C 
HETATM    9  C8  UNL     1       9.707 -13.209  -4.230  1.00  0.00     0.014 C 
HETATM   10  C13 UNL     1       9.702 -14.239  -6.400  1.00  0.00     0.096 C 
HETATM   11  C9  UNL     1       9.369 -11.906  -4.917  1.00  0.00     0.002 C 
HETATM   12  C10 UNL     1       8.675 -12.065  -6.239  1.00  0.00     0.014 C 
HETATM   13  C11 UNL     1       9.555 -12.949  -7.147  1.00  0.00     0.026 C 
BRANCH  10  14
HETATM   14  O1  UNL     1       8.383 -14.426  -5.824  1.00  0.00    -0.384 OA
ATOM     15  H1  UNL     1       7.801 -14.252  -6.554  1.00  0.00     0.211 HD
ENDBRANCH  10  14
BRANCH  10  16
HETATM   16  C14 UNL     1       9.806 -15.465  -7.201  1.00  0.00     0.053 C 
BRANCH  16  17
HETATM   17  C15 UNL     1       8.998 -15.698  -8.395  1.00  0.00     0.210 C 
BRANCH  17  18
HETATM   18  O2  UNL     1       7.634 -15.547  -8.236  1.00  0.00    -0.391 OA
HETATM   19  C16 UNL     1       7.042 -14.771  -9.196  1.00  0.00     0.201 C 
ENDBRANCH  17  18
ENDBRANCH  16  17
BRANCH  16  20
HETATM   20  C17 UNL     1       9.921 -16.679  -6.316  1.00  0.00     0.290 C 
HETATM   21  O3  UNL     1      10.947 -17.396  -6.262  1.00  0.00    -0.260 OA
BRANCH  20  22
HETATM   22  O4  UNL     1       8.860 -17.059  -5.504  1.00  0.00    -0.323 OA
HETATM   23  C18 UNL     1       8.045 -18.178  -5.804  1.00  0.00     0.213 C 
ENDBRANCH  20  22
ENDBRANCH  16  20
ENDBRANCH  10  16
ENDBRANCH   3   4
TORSDOF 7
ENDMDL
MODEL 5
REMARK VINA RESULT: -5.971693459      1.554      2.412
REMARK  7 active torsions:
REMARK  status: ('A' for Active; 'I' for Inactive)
REMARK    1  A    between atoms: C3_3  and  C4_4 
REMARK    2  A    between atoms: C13_13  and  O1_14 
REMARK    3  A    between atoms: C13_13  and  C14_16 
REMARK    4  A    between atoms: C14_16  and  C15_17 
REMARK    5  A    between atoms: C14_16  and  C17_20 
REMARK    6  A    between atoms: C15_17  and  O2_18 
REMARK    7  A    between atoms: C17_20  and  O4_22 
ROOT
HETATM    1  C1  UNL     1      10.134  -7.844  -5.167  1.00  0.00     0.112 C 
HETATM    2  C2  UNL     1      10.583  -9.215  -5.491  1.00  0.00    -0.111 C 
HETATM    3  C3  UNL     1      10.925 -10.332  -5.756  1.00  0.00    -0.101 C 
ENDROOT
BRANCH   3   4
HETATM    4  C4  UNL     1      11.313 -11.681  -6.076  1.00  0.00     0.073 C 
HETATM    5  C5  UNL     1      10.608 -12.232  -7.292  1.00  0.00     0.002 C 
HETATM    6  C6  UNL     1      11.302 -13.558  -7.602  1.00  0.00     0.014 C 
HETATM    7  C12 UNL     1       9.168 -12.463  -6.989  1.00  0.00     0.014 C 
HETATM    8  C7  UNL     1      11.055 -14.552  -6.529  1.00  0.00     0.026 C 
HETATM    9  C8  UNL     1      11.786 -13.935  -5.300  1.00  0.00     0.014 C 
HETATM   10  C13 UNL     1       9.674 -14.784  -6.065  1.00  0.00     0.096 C 
HETATM   11  C9  UNL     1      11.068 -12.657  -4.932  1.00  0.00     0.002 C 
HETATM   12  C10 UNL     1       9.602 -12.827  -4.661  1.00  0.00     0.014 C 
HETATM   13  C11 UNL     1       8.951 -13.482  -5.897  1.00  0.00     0.026 C 
BRANCH  10  14
HETATM   14  O1  UNL     1       9.853 -15.228  -4.696  1.00  0.00    -0.384 OA
ATOM     15  H1  UNL     1       9.908 -14.414  -4.209  1.00  0.00     0.211 HD
ENDBRANCH  10  14
BRANCH  10  16
HETATM   16  C14 UNL     1       8.900 -15.912  -6.600  1.00  0.00     0.053 C 
BRANCH  16  17
HETATM   17  C15 UNL     1       7.472 -15.821  -6.890  1.00  0.00     0.210 C 
BRANCH  17  18
HETATM   18  O2  UNL     1       7.110 -16.054  -8.203  1.00  0.00    -0.391 OA
HETATM   19  C16 UNL     1       7.379 -15.013  -9.049  1.00  0.00     0.201 C 
ENDBRANCH  17  18
ENDBRANCH  16  17
BRANCH  16  20
HETATM   20  C17 UNL     1       9.288 -17.201  -5.922  1.00  0.00     0.290 C 
HETATM   21  O3  UNL     1      10.313 -17.854  -6.223  1.00  0.00    -0.260 OA
BRANCH  20  22
HETATM   22  O4  UNL     1       8.497 -17.726  -4.908  1.00  0.00    -0.323 OA
HETATM   23  C18 UNL     1       9.009 -18.632  -3.947  1.00  0.00     0.213 C 
ENDBRANCH  20  22
ENDBRANCH  16  20
ENDBRANCH  10  16
ENDBRANCH   3   4
TORSDOF 7
ENDMDL
