MODEL 1
REMARK VINA RESULT: -5.277519926      0.000      0.000
REMARK  4 active torsions:
REMARK  status: ('A' for Active; 'I' for Inactive)
REMARK    1  A    between atoms: C2_2  and  C3_3 
REMARK    2  A    between atoms: C6_6  and  C7_7 
REMARK       I    between atoms: C7_7  and  N1_9 
REMARK    3  A    between atoms: C10_12  and  O2_14 
REMARK       I    between atoms: N2_18  and  C14_19 
REMARK    4  A    between atoms: C14_19  and  O4_21 
ROOT
HETATM    1  C3  UNL     1       9.435 -11.530  -5.329  1.00  0.00     0.003 C 
HETATM    2  C4  UNL     1      10.932 -11.564  -5.528  1.00  0.00     0.009 C 
HETATM    3  C5  UNL     1      11.225 -12.105  -6.888  1.00  0.00     0.035 C 
HETATM    4  C6  UNL     1      10.900 -13.602  -6.843  1.00  0.00     0.181 C 
HETATM    5  N2  UNL     1       9.479 -13.666  -6.580  1.00  0.00    -0.314 N 
HETATM    6  C14 UNL     1       8.737 -14.877  -6.563  1.00  0.00     0.363 C 
HETATM    7  O3  UNL     1       9.300 -16.001  -6.786  1.00  0.00    -0.238 OA
HETATM    8  C16 UNL     1       8.782 -12.427  -6.320  1.00  0.00     0.133 C 
ENDROOT
BRANCH   4   9
HETATM    9  C7  UNL     1      11.701 -14.190  -5.752  1.00  0.00     0.242 C 
HETATM   10  O1  UNL     1      11.249 -14.032  -4.566  1.00  0.00    -0.271 OA
HETATM   11  N1  UNL     1      12.891 -14.896  -5.892  1.00  0.00    -0.350 N 
HETATM   12  C8  UNL     1      13.539 -15.162  -7.168  1.00  0.00     0.129 C 
HETATM   13  C13 UNL     1      13.611 -15.453  -4.735  1.00  0.00     0.129 C 
HETATM   14  C9  UNL     1      14.346 -16.435  -7.088  1.00  0.00     0.057 C 
HETATM   15  C10 UNL     1      13.801 -17.444  -6.141  1.00  0.00     0.057 C 
HETATM   16  C11 UNL     1      14.922 -18.480  -5.938  1.00  0.00     0.046 C 
HETATM   17  C12 UNL     1      13.385 -16.948  -4.804  1.00  0.00     0.057 C 
BRANCH  15  18
HETATM   18  O2  UNL     1      12.729 -18.165  -6.703  1.00  0.00    -0.390 OA
ATOM     19  H2  UNL     1      12.109 -17.593  -7.142  1.00  0.00     0.210 HD
ENDBRANCH  15  18
ENDBRANCH   4   9
BRANCH   6  20
HETATM   20  O4  UNL     1       7.380 -14.928  -6.310  1.00  0.00    -0.309 OA
HETATM   21  C15 UNL     1       6.555 -16.014  -6.724  1.00  0.00     0.215 C 
ENDBRANCH   6  20
BRANCH   1  22
HETATM   22  C2  UNL     1       8.996 -10.088  -5.621  1.00  0.00     0.002 C 
HETATM   23  C1  UNL     1       9.773  -9.101  -4.813  1.00  0.00     0.005 C 
ENDBRANCH   1  22
TORSDOF 4
ENDMDL
MODEL 2
REMARK VINA RESULT: -5.237610356      3.024      4.689
REMARK  4 active torsions:
REMARK  status: ('A' for Active; 'I' for Inactive)
REMARK    1  A    between atoms: C2_2  and  C3_3 
REMARK    2  A    between atoms: C6_6  and  C7_7 
REMARK       I    between atoms: C7_7  and  N1_9 
REMARK    3  A    between atoms: C10_12  and  O2_14 
REMARK       I    between atoms: N2_18  and  C14_19 
REMARK    4  A    between atoms: C14_19  and  O4_21 
ROOT
HETATM    1  C3  UNL     1      10.104 -10.697  -6.003  1.00  0.00     0.003 C 
HETATM    2  C4  UNL     1       9.326 -11.728  -5.221  1.00  0.00     0.009 C 
HETATM    3  C5  UNL     1      10.221 -12.886  -4.927  1.00  0.00     0.035 C 
HETATM    4  C6  UNL     1      10.434 -13.622  -6.254  1.00  0.00     0.181 C 
HETATM    5  N2  UNL     1      11.117 -12.670  -7.103  1.00  0.00    -0.314 N 
HETATM    6  C14 UNL     1      11.603 -12.981  -8.400  1.00  0.00     0.363 C 
HETATM    7  O3  UNL     1      11.459 -14.148  -8.899  1.00  0.00    -0.238 OA
HETATM    8  C16 UNL     1      11.312 -11.331  -6.597  1.00  0.00     0.133 C 
ENDROOT
BRANCH   4   9
HETATM    9  C7  UNL     1       9.100 -13.981  -6.773  1.00  0.00     0.242 C 
HETATM   10  O1  UNL     1       8.487 -13.078  -7.439  1.00  0.00    -0.271 OA
HETATM   11  N1  UNL     1       8.452 -15.202  -6.609  1.00  0.00    -0.350 N 
HETATM   12  C8  UNL     1       9.009 -16.331  -5.879  1.00  0.00     0.129 C 
HETATM   13  C13 UNL     1       7.119 -15.463  -7.177  1.00  0.00     0.129 C 
HETATM   14  C9  UNL     1       8.458 -17.627  -6.423  1.00  0.00     0.057 C 
HETATM   15  C10 UNL     1       8.118 -17.584  -7.870  1.00  0.00     0.057 C 
HETATM   16  C11 UNL     1       7.264 -18.837  -8.138  1.00  0.00     0.046 C 
HETATM   17  C12 UNL     1       7.358 -16.399  -8.343  1.00  0.00     0.057 C 
BRANCH  15  18
HETATM   18  O2  UNL     1       9.260 -17.735  -8.681  1.00  0.00    -0.390 OA
ATOM     19  H2  UNL     1       9.033 -17.992  -9.568  1.00  0.00     0.210 HD
ENDBRANCH  15  18
ENDBRANCH   4   9
BRANCH   6  20
HETATM   20  O4  UNL     1      12.254 -12.064  -9.203  1.00  0.00    -0.309 OA
HETATM   21  C15 UNL     1      13.594 -12.244  -9.654  1.00  0.00     0.215 C 
ENDBRANCH   6  20
BRANCH   1  22
HETATM   22  C2  UNL     1      10.562  -9.643  -4.986  1.00  0.00     0.002 C 
HETATM   23  C1  UNL     1       9.943  -8.311  -5.256  1.00  0.00     0.005 C 
ENDBRANCH   1  22
TORSDOF 4
ENDMDL
MODEL 3
REMARK VINA RESULT: -5.160542351      2.072      6.000
REMARK  4 active torsions:
REMARK  status: ('A' for Active; 'I' for Inactive)
REMARK    1  A    between atoms: C2_2  and  C3_3 
REMARK    2  A    between atoms: C6_6  and  C7_7 
REMARK       I    between atoms: C7_7  and  N1_9 
REMARK    3  A    between atoms: C10_12  and  O2_14 
REMARK       I    between atoms: N2_18  and  C14_19 
REMARK    4  A    between atoms: C14_19  and  O4_21 
ROOT
HETATM    1  C3  UNL     1      11.957 -15.311  -5.040  1.00  0.00     0.003 C 
HETATM    2  C4  UNL     1      11.574 -16.445  -5.961  1.00  0.00     0.009 C 
HETATM    3  C5  UNL     1      11.081 -15.874  -7.249  1.00  0.00     0.035 C 
HETATM    4  C6  UNL     1       9.709 -15.256  -6.957  1.00  0.00     0.181 C 
HETATM    5  N2  UNL     1       9.974 -14.193  -6.012  1.00  0.00    -0.314 N 
HETATM    6  C14 UNL     1       8.983 -13.285  -5.553  1.00  0.00     0.363 C 
HETATM    7  O3  UNL     1       7.775 -13.362  -5.959  1.00  0.00    -0.238 OA
HETATM    8  C16 UNL     1      11.323 -14.051  -5.513  1.00  0.00     0.133 C 
ENDROOT
BRANCH   4   9
HETATM    9  C7  UNL     1       8.864 -16.320  -6.382  1.00  0.00     0.242 C 
HETATM   10  O1  UNL     1       8.953 -16.497  -5.118  1.00  0.00    -0.271 OA
HETATM   11  N1  UNL     1       7.984 -17.142  -7.080  1.00  0.00    -0.350 N 
HETATM   12  C8  UNL     1       7.767 -17.072  -8.517  1.00  0.00     0.129 C 
HETATM   13  C13 UNL     1       7.175 -18.172  -6.408  1.00  0.00     0.129 C 
HETATM   14  C9  UNL     1       6.373 -17.542  -8.857  1.00  0.00     0.057 C 
HETATM   15  C10 UNL     1       5.367 -17.285  -7.793  1.00  0.00     0.057 C 
HETATM   16  C11 UNL     1       4.136 -18.132  -8.164  1.00  0.00     0.046 C 
HETATM   17  C12 UNL     1       5.762 -17.631  -6.403  1.00  0.00     0.057 C 
BRANCH  15  18
HETATM   18  O2  UNL     1       4.916 -15.950  -7.809  1.00  0.00    -0.390 OA
ATOM     19  H2  UNL     1       4.852 -15.587  -6.933  1.00  0.00     0.210 HD
ENDBRANCH  15  18
ENDBRANCH   4   9
BRANCH   6  20
HETATM   20  O4  UNL     1       9.247 -12.273  -4.650  1.00  0.00    -0.309 OA
HETATM   21  C15 UNL     1       9.372 -10.906  -5.034  1.00  0.00     0.215 C 
ENDBRANCH   6  20
BRANCH   1  22
HETATM   22  C2  UNL     1      13.480 -15.158  -5.158  1.00  0.00     0.002 C 
HETATM   23  C1  UNL     1      14.201 -16.256  -4.448  1.00  0.00     0.005 C 
ENDBRANCH   1  22
TORSDOF 4
ENDMDL
MODEL 4
REMARK VINA RESULT: -5.119425920      2.541      3.852
REMARK  4 active torsions:
REMARK  status: ('A' for Active; 'I' for Inactive)
REMARK    1  A    between atoms: C2_2  and  C3_3 
REMARK    2  A    between atoms: C6_6  and  C7_7 
REMARK       I    between atoms: C7_7  and  N1_9 
REMARK    3  A    between atoms: C10_12  and  O2_14 
REMARK       I    between atoms: N2_18  and  C14_19 
REMARK    4  A    between atoms: C14_19  and  O4_21 
ROOT
HETATM    1  C3  UNL     1       9.511 -11.075  -6.467  1.00  0.00     0.003 C 
HETATM    2  C4  UNL     1       9.248 -12.012  -5.312  1.00  0.00     0.009 C 
HETATM    3  C5  UNL     1      10.481 -12.103  -4.475  1.00  0.00     0.035 C 
HETATM    4  C6  UNL     1      11.500 -12.913  -5.284  1.00  0.00     0.181 C 
HETATM    5  N2  UNL     1      11.758 -12.114  -6.462  1.00  0.00    -0.314 N 
HETATM    6  C14 UNL     1      12.734 -12.447  -7.439  1.00  0.00     0.363 C 
HETATM    7  O3  UNL     1      13.452 -13.497  -7.326  1.00  0.00    -0.238 OA
HETATM    8  C16 UNL     1      10.979 -10.912  -6.649  1.00  0.00     0.133 C 
ENDROOT
BRANCH   4   9
HETATM    9  C7  UNL     1      10.870 -14.206  -5.610  1.00  0.00     0.242 C 
HETATM   10  O1  UNL     1      10.649 -14.435  -6.848  1.00  0.00    -0.271 OA
HETATM   11  N1  UNL     1      10.498 -15.194  -4.703  1.00  0.00    -0.350 N 
HETATM   12  C8  UNL     1      10.679 -15.091  -3.263  1.00  0.00     0.129 C 
HETATM   13  C13 UNL     1       9.883 -16.460  -5.134  1.00  0.00     0.129 C 
HETATM   14  C9  UNL     1      10.834 -16.465  -2.657  1.00  0.00     0.057 C 
HETATM   15  C10 UNL     1      11.464 -17.463  -3.562  1.00  0.00     0.057 C 
HETATM   16  C11 UNL     1      11.209 -18.837  -2.916  1.00  0.00     0.046 C 
HETATM   17  C12 UNL     1      10.959 -17.509  -4.958  1.00  0.00     0.057 C 
BRANCH  15  18
HETATM   18  O2  UNL     1      12.866 -17.326  -3.598  1.00  0.00    -0.390 OA
ATOM     19  H2  UNL     1      13.281 -18.053  -4.047  1.00  0.00     0.210 HD
ENDBRANCH  15  18
ENDBRANCH   4   9
BRANCH   6  20
HETATM   20  O4  UNL     1      12.973 -11.677  -8.561  1.00  0.00    -0.309 OA
HETATM   21  C15 UNL     1      13.054 -12.227  -9.874  1.00  0.00     0.215 C 
ENDBRANCH   6  20
BRANCH   1  22
HETATM   22  C2  UNL     1       8.921  -9.717  -6.061  1.00  0.00     0.002 C 
HETATM   23  C1  UNL     1       9.989  -8.698  -5.835  1.00  0.00     0.005 C 
ENDBRANCH   1  22
TORSDOF 4
ENDMDL
MODEL 5
REMARK VINA RESULT: -5.106528976      1.703      2.003
REMARK  4 active torsions:
REMARK  status: ('A' for Active; 'I' for Inactive)
REMARK    1  A    between atoms: C2_2  and  C3_3 
REMARK    2  A    between atoms: C6_6  and  C7_7 
REMARK       I    between atoms: C7_7  and  N1_9 
REMARK    3  A    between atoms: C10_12  and  O2_14 
REMARK       I    between atoms: N2_18  and  C14_19 
REMARK    4  A    between atoms: C14_19  and  O4_21 
ROOT
HETATM    1  C3  UNL     1       9.287 -12.828  -4.825  1.00  0.00     0.003 C 
HETATM    2  C4  UNL     1      10.706 -13.230  -4.497  1.00  0.00     0.009 C 
HETATM    3  C5  UNL     1      11.352 -13.765  -5.732  1.00  0.00     0.035 C 
HETATM    4  C6  UNL     1      10.714 -15.132  -6.002  1.00  0.00     0.181 C 
HETATM    5  N2  UNL     1       9.318 -14.847  -6.256  1.00  0.00    -0.314 N 
HETATM    6  C14 UNL     1       8.376 -15.831  -6.659  1.00  0.00     0.363 C 
HETATM    7  O3  UNL     1       8.721 -17.050  -6.821  1.00  0.00    -0.238 OA
HETATM    8  C16 UNL     1       8.864 -13.486  -6.090  1.00  0.00     0.133 C 
ENDROOT
BRANCH   4   9
HETATM    9  C7  UNL     1      10.908 -15.952  -4.790  1.00  0.00     0.242 C 
HETATM   10  O1  UNL     1       9.854 -16.456  -4.270  1.00  0.00    -0.271 OA
HETATM   11  N1  UNL     1      12.121 -16.227  -4.166  1.00  0.00    -0.350 N 
HETATM   12  C8  UNL     1      13.408 -15.731  -4.628  1.00  0.00     0.129 C 
HETATM   13  C13 UNL     1      12.208 -17.068  -2.961  1.00  0.00     0.129 C 
HETATM   14  C9  UNL     1      14.509 -16.681  -4.224  1.00  0.00     0.057 C 
HETATM   15  C10 UNL     1      14.084 -18.104  -4.137  1.00  0.00     0.057 C 
HETATM   16  C11 UNL     1      15.212 -18.834  -3.386  1.00  0.00     0.046 C 
HETATM   17  C12 UNL     1      12.807 -18.377  -3.429  1.00  0.00     0.057 C 
BRANCH  15  18
HETATM   18  O2  UNL     1      14.031 -18.714  -5.406  1.00  0.00    -0.390 OA
ATOM     19  H2  UNL     1      14.843 -19.159  -5.619  1.00  0.00     0.210 HD
ENDBRANCH  15  18
ENDBRANCH   4   9
BRANCH   6  20
HETATM   20  O4  UNL     1       7.045 -15.549  -6.899  1.00  0.00    -0.309 OA
HETATM   21  C15 UNL     1       6.059 -16.562  -7.075  1.00  0.00     0.215 C 
ENDBRANCH   6  20
BRANCH   1  22
HETATM   22  C2  UNL     1       9.313 -11.311  -5.055  1.00  0.00     0.002 C 
HETATM   23  C1  UNL     1       9.251 -10.973  -6.509  1.00  0.00     0.005 C 
ENDBRANCH   1  22
TORSDOF 4
ENDMDL
