MODEL 1
REMARK VINA RESULT: -7.788802094      0.000      0.000
REMARK  4 active torsions:
REMARK  status: ('A' for Active; 'I' for Inactive)
REMARK    1  A    between atoms: C2_2  and  O1_5 
REMARK    2  A    between atoms: O1_5  and  N1_6 
REMARK    3  A    between atoms: C11_14  and  N2_15 
REMARK    4  A    between atoms: N2_15  and  C12_18 
ROOT
HETATM    1  C12 UNL     1      13.837 -31.935   0.737  1.00  0.00     0.356 C 
HETATM    2  C13 UNL     1      12.894 -32.665   1.598  1.00  0.00     0.086 C 
HETATM    3  N3  UNL     1      12.139 -33.234   2.263  1.00  0.00    -0.196 NA
ENDROOT
BRANCH   1   4
HETATM    4  N2  UNL     1      15.090 -31.692   1.416  1.00  0.00    -0.057 N 
ATOM      5  H22 UNL     1      15.840 -32.239   0.993  1.00  0.00     0.278 HD
ATOM      6  H21 UNL     1      15.080 -32.106   2.347  1.00  0.00     0.278 HD
BRANCH   4   7
HETATM    7  C11 UNL     1      15.449 -30.315   1.484  1.00  0.00     0.218 C 
HETATM    8  C10 UNL     1      16.964 -30.173   1.636  1.00  0.00     0.047 C 
HETATM    9  C7  UNL     1      17.244 -28.736   1.267  1.00  0.00    -0.072 C 
HETATM   10  C9  UNL     1      17.766 -30.576   0.447  1.00  0.00     0.015 C 
HETATM   11  C6  UNL     1      16.515 -27.862   1.961  1.00  0.00     0.031 C 
HETATM   12  C8  UNL     1      18.251 -29.133   0.263  1.00  0.00     0.035 C 
HETATM   13  C5  UNL     1      15.551 -28.329   2.968  1.00  0.00     0.052 C 
HETATM   14  N1  UNL     1      15.415 -27.640   4.027  1.00  0.00    -0.269 N 
HETATM   15  C14 UNL     1      14.805 -29.580   2.661  1.00  0.00     0.175 C 
ATOM     16  H1  UNL     1      16.000 -26.807   4.086  1.00  0.00     0.194 HD
HETATM   17  C15 UNL     1      14.786 -30.423   3.842  1.00  0.00     0.072 C 
HETATM   18  N4  UNL     1      14.763 -31.106   4.788  1.00  0.00    -0.196 NA
BRANCH  14  19
HETATM   19  O1  UNL     1      14.609 -27.854   5.083  1.00  0.00    -0.270 OA
BRANCH  19  20
HETATM   20  C2  UNL     1      13.947 -26.712   5.645  1.00  0.00     0.078 C 
HETATM   21  C1  UNL     1      14.301 -26.582   7.113  1.00  0.00     0.048 C 
HETATM   22  C3  UNL     1      14.563 -25.509   4.935  1.00  0.00     0.048 C 
HETATM   23  C4  UNL     1      12.457 -26.773   5.478  1.00  0.00     0.048 C 
ENDBRANCH  19  20
ENDBRANCH  14  19
ENDBRANCH   4   7
ENDBRANCH   1   4
TORSDOF 4
ENDMDL
MODEL 2
REMARK VINA RESULT: -7.744828348      1.720      2.272
REMARK  4 active torsions:
REMARK  status: ('A' for Active; 'I' for Inactive)
REMARK    1  A    between atoms: C2_2  and  O1_5 
REMARK    2  A    between atoms: O1_5  and  N1_6 
REMARK    3  A    between atoms: C11_14  and  N2_15 
REMARK    4  A    between atoms: N2_15  and  C12_18 
ROOT
HETATM    1  C12 UNL     1      12.248 -33.148   2.915  1.00  0.00     0.356 C 
HETATM    2  C13 UNL     1      11.563 -34.198   3.684  1.00  0.00     0.086 C 
HETATM    3  N3  UNL     1      11.010 -35.023   4.276  1.00  0.00    -0.196 NA
ENDROOT
BRANCH   1   4
HETATM    4  N2  UNL     1      13.324 -32.555   3.677  1.00  0.00    -0.057 N 
ATOM      5  H22 UNL     1      13.971 -33.273   4.003  1.00  0.00     0.278 HD
ATOM      6  H21 UNL     1      12.982 -32.212   4.574  1.00  0.00     0.278 HD
BRANCH   4   7
HETATM    7  C11 UNL     1      14.023 -31.527   2.981  1.00  0.00     0.218 C 
HETATM    8  C10 UNL     1      15.529 -31.666   3.212  1.00  0.00     0.047 C 
HETATM    9  C7  UNL     1      16.153 -30.832   2.119  1.00  0.00    -0.072 C 
HETATM   10  C9  UNL     1      16.164 -32.859   2.587  1.00  0.00     0.015 C 
HETATM   11  C6  UNL     1      15.692 -29.582   2.081  1.00  0.00     0.031 C 
HETATM   12  C8  UNL     1      16.993 -31.958   1.665  1.00  0.00     0.035 C 
HETATM   13  C5  UNL     1      14.673 -29.133   3.042  1.00  0.00     0.052 C 
HETATM   14  N1  UNL     1      14.750 -27.943   3.481  1.00  0.00    -0.269 N 
HETATM   15  C14 UNL     1      13.624 -30.118   3.424  1.00  0.00     0.175 C 
ATOM     16  H1  UNL     1      15.529 -27.393   3.120  1.00  0.00     0.194 HD
HETATM   17  C15 UNL     1      13.430 -30.070   4.861  1.00  0.00     0.072 C 
HETATM   18  N4  UNL     1      13.264 -30.035   6.016  1.00  0.00    -0.196 NA
BRANCH  14  19
HETATM   19  O1  UNL     1      13.950 -27.305   4.354  1.00  0.00    -0.270 OA
BRANCH  19  20
HETATM   20  C2  UNL     1      14.579 -26.671   5.477  1.00  0.00     0.078 C 
HETATM   21  C1  UNL     1      15.872 -27.386   5.815  1.00  0.00     0.048 C 
HETATM   22  C3  UNL     1      14.961 -25.279   4.982  1.00  0.00     0.048 C 
HETATM   23  C4  UNL     1      13.687 -26.624   6.682  1.00  0.00     0.048 C 
ENDBRANCH  19  20
ENDBRANCH  14  19
ENDBRANCH   4   7
ENDBRANCH   1   4
TORSDOF 4
ENDMDL
MODEL 3
REMARK VINA RESULT: -7.677407421      0.602      1.153
REMARK  4 active torsions:
REMARK  status: ('A' for Active; 'I' for Inactive)
REMARK    1  A    between atoms: C2_2  and  O1_5 
REMARK    2  A    between atoms: O1_5  and  N1_6 
REMARK    3  A    between atoms: C11_14  and  N2_15 
REMARK    4  A    between atoms: N2_15  and  C12_18 
ROOT
HETATM    1  C12 UNL     1      13.339 -32.200   1.648  1.00  0.00     0.356 C 
HETATM    2  C13 UNL     1      12.664 -32.959   2.712  1.00  0.00     0.086 C 
HETATM    3  N3  UNL     1      12.117 -33.548   3.542  1.00  0.00    -0.196 NA
ENDROOT
BRANCH   1   4
HETATM    4  N2  UNL     1      14.749 -32.044   1.926  1.00  0.00    -0.057 N 
ATOM      5  H22 UNL     1      15.303 -32.657   1.327  1.00  0.00     0.278 HD
ATOM      6  H21 UNL     1      14.982 -32.440   2.836  1.00  0.00     0.278 HD
BRANCH   4   7
HETATM    7  C11 UNL     1      15.209 -30.699   1.832  1.00  0.00     0.218 C 
HETATM    8  C10 UNL     1      16.737 -30.661   1.868  1.00  0.00     0.047 C 
HETATM    9  C7  UNL     1      17.090 -29.291   1.340  1.00  0.00    -0.072 C 
HETATM   10  C9  UNL     1      17.419 -31.236   0.675  1.00  0.00     0.015 C 
HETATM   11  C6  UNL     1      16.477 -28.302   1.990  1.00  0.00     0.031 C 
HETATM   12  C8  UNL     1      17.989 -29.858   0.315  1.00  0.00     0.035 C 
HETATM   13  C5  UNL     1      15.559 -28.595   3.100  1.00  0.00     0.052 C 
HETATM   14  N1  UNL     1      15.550 -27.800   4.092  1.00  0.00    -0.269 N 
HETATM   15  C14 UNL     1      14.706 -29.808   2.970  1.00  0.00     0.175 C 
ATOM     16  H1  UNL     1      16.195 -27.013   4.028  1.00  0.00     0.194 HD
HETATM   17  C15 UNL     1      14.715 -30.531   4.228  1.00  0.00     0.072 C 
HETATM   18  N4  UNL     1      14.714 -31.118   5.237  1.00  0.00    -0.196 NA
BRANCH  14  19
HETATM   19  O1  UNL     1      14.811 -27.851   5.215  1.00  0.00    -0.270 OA
BRANCH  19  20
HETATM   20  C2  UNL     1      14.115 -26.655   5.595  1.00  0.00     0.078 C 
HETATM   21  C1  UNL     1      12.628 -26.825   5.351  1.00  0.00     0.048 C 
HETATM   22  C3  UNL     1      14.304 -26.550   7.105  1.00  0.00     0.048 C 
HETATM   23  C4  UNL     1      14.620 -25.443   4.869  1.00  0.00     0.048 C 
ENDBRANCH  19  20
ENDBRANCH  14  19
ENDBRANCH   4   7
ENDBRANCH   1   4
TORSDOF 4
ENDMDL
MODEL 4
REMARK VINA RESULT: -7.635533349      0.934      1.215
REMARK  4 active torsions:
REMARK  status: ('A' for Active; 'I' for Inactive)
REMARK    1  A    between atoms: C2_2  and  O1_5 
REMARK    2  A    between atoms: O1_5  and  N1_6 
REMARK    3  A    between atoms: C11_14  and  N2_15 
REMARK    4  A    between atoms: N2_15  and  C12_18 
ROOT
HETATM    1  C12 UNL     1      14.507 -32.140   0.170  1.00  0.00     0.356 C 
HETATM    2  C13 UNL     1      15.009 -33.462  -0.236  1.00  0.00     0.086 C 
HETATM    3  N3  UNL     1      15.390 -34.501  -0.567  1.00  0.00    -0.196 NA
ENDROOT
BRANCH   1   4
HETATM    4  N2  UNL     1      15.053 -31.739   1.448  1.00  0.00    -0.057 N 
ATOM      5  H22 UNL     1      15.838 -32.338   1.706  1.00  0.00     0.278 HD
ATOM      6  H21 UNL     1      14.407 -31.967   2.202  1.00  0.00     0.278 HD
BRANCH   4   7
HETATM    7  C11 UNL     1      15.429 -30.366   1.506  1.00  0.00     0.218 C 
HETATM    8  C10 UNL     1      16.945 -30.241   1.669  1.00  0.00     0.047 C 
HETATM    9  C7  UNL     1      17.245 -28.811   1.290  1.00  0.00    -0.072 C 
HETATM   10  C9  UNL     1      17.750 -30.664   0.490  1.00  0.00     0.015 C 
HETATM   11  C6  UNL     1      16.521 -27.922   1.971  1.00  0.00     0.031 C 
HETATM   12  C8  UNL     1      18.254 -29.228   0.297  1.00  0.00     0.035 C 
HETATM   13  C5  UNL     1      15.544 -28.368   2.974  1.00  0.00     0.052 C 
HETATM   14  N1  UNL     1      15.408 -27.669   4.027  1.00  0.00    -0.269 N 
HETATM   15  C14 UNL     1      14.785 -29.613   2.673  1.00  0.00     0.175 C 
ATOM     16  H1  UNL     1      16.002 -26.842   4.083  1.00  0.00     0.194 HD
HETATM   17  C15 UNL     1      14.747 -30.445   3.860  1.00  0.00     0.072 C 
HETATM   18  N4  UNL     1      14.709 -31.120   4.812  1.00  0.00    -0.196 NA
BRANCH  14  19
HETATM   19  O1  UNL     1      14.591 -27.864   5.078  1.00  0.00    -0.270 OA
BRANCH  19  20
HETATM   20  C2  UNL     1      13.945 -26.708   5.629  1.00  0.00     0.078 C 
HETATM   21  C1  UNL     1      14.298 -26.571   7.097  1.00  0.00     0.048 C 
HETATM   22  C3  UNL     1      14.578 -25.520   4.911  1.00  0.00     0.048 C 
HETATM   23  C4  UNL     1      12.454 -26.751   5.461  1.00  0.00     0.048 C 
ENDBRANCH  19  20
ENDBRANCH  14  19
ENDBRANCH   4   7
ENDBRANCH   1   4
TORSDOF 4
ENDMDL
MODEL 5
REMARK VINA RESULT: -7.617500939      0.979      1.035
REMARK  4 active torsions:
REMARK  status: ('A' for Active; 'I' for Inactive)
REMARK    1  A    between atoms: C2_2  and  O1_5 
REMARK    2  A    between atoms: O1_5  and  N1_6 
REMARK    3  A    between atoms: C11_14  and  N2_15 
REMARK    4  A    between atoms: N2_15  and  C12_18 
ROOT
HETATM    1  C12 UNL     1      14.186 -31.610   0.030  1.00  0.00     0.356 C 
HETATM    2  C13 UNL     1      12.940 -30.827   0.046  1.00  0.00     0.086 C 
HETATM    3  N3  UNL     1      11.960 -30.215   0.041  1.00  0.00    -0.196 NA
ENDROOT
BRANCH   1   4
HETATM    4  N2  UNL     1      14.958 -31.395   1.234  1.00  0.00    -0.057 N 
ATOM      5  H22 UNL     1      15.738 -32.050   1.282  1.00  0.00     0.278 HD
ATOM      6  H21 UNL     1      14.433 -31.694   2.055  1.00  0.00     0.278 HD
BRANCH   4   7
HETATM    7  C11 UNL     1      15.416 -30.055   1.392  1.00  0.00     0.218 C 
HETATM    8  C10 UNL     1      16.940 -30.032   1.519  1.00  0.00     0.047 C 
HETATM    9  C7  UNL     1      17.316 -28.595   1.248  1.00  0.00    -0.072 C 
HETATM   10  C9  UNL     1      17.689 -30.402   0.287  1.00  0.00     0.015 C 
HETATM   11  C6  UNL     1      16.664 -27.725   2.019  1.00  0.00     0.031 C 
HETATM   12  C8  UNL     1      18.273 -28.987   0.195  1.00  0.00     0.035 C 
HETATM   13  C5  UNL     1      15.686 -28.195   3.012  1.00  0.00     0.052 C 
HETATM   14  N1  UNL     1      15.619 -27.578   4.121  1.00  0.00    -0.269 N 
HETATM   15  C14 UNL     1      14.847 -29.365   2.634  1.00  0.00     0.175 C 
ATOM     16  H1  UNL     1      16.263 -26.794   4.226  1.00  0.00     0.194 HD
HETATM   17  C15 UNL     1      14.789 -30.289   3.751  1.00  0.00     0.072 C 
HETATM   18  N4  UNL     1      14.734 -31.036   4.647  1.00  0.00    -0.196 NA
BRANCH  14  19
HETATM   19  O1  UNL     1      14.818 -27.811   5.177  1.00  0.00    -0.270 OA
BRANCH  19  20
HETATM   20  C2  UNL     1      14.059 -26.704   5.681  1.00  0.00     0.078 C 
HETATM   21  C1  UNL     1      14.192 -26.632   7.189  1.00  0.00     0.048 C 
HETATM   22  C3  UNL     1      14.746 -25.463   5.118  1.00  0.00     0.048 C 
HETATM   23  C4  UNL     1      12.610 -26.780   5.295  1.00  0.00     0.048 C 
ENDBRANCH  19  20
ENDBRANCH  14  19
ENDBRANCH   4   7
ENDBRANCH   1   4
TORSDOF 4
ENDMDL
