MODEL 1
REMARK VINA RESULT: -9.322272633      0.000      0.000
REMARK  17 active torsions:
REMARK  status: ('A' for Active; 'I' for Inactive)
REMARK    1  A    between atoms: N2_3  and  S1_5 
REMARK    2  A    between atoms: S1_5  and  N3_7 
REMARK    3  A    between atoms: S1_5  and  N13_49 
REMARK    4  A    between atoms: N3_7  and  C2_9 
REMARK    5  A    between atoms: C2_9  and  C3_10 
REMARK    6  A    between atoms: C3_10  and  O2_11 
REMARK    7  A    between atoms: O2_11  and  C4_12 
REMARK    8  A    between atoms: C6_14  and  C7_15 
REMARK    9  A    between atoms: C7_15  and  O3_16 
REMARK   10  A    between atoms: C8_18  and  N4_19 
REMARK       I    between atoms: N4_19  and  C9_21 
REMARK   11  A    between atoms: C9_21  and  C10_23 
REMARK   12  A    between atoms: N5_25  and  C12_26 
REMARK   13  A    between atoms: C14_31  and  N8_32 
REMARK   14  A    between atoms: C15_37  and  N10_38 
REMARK   15  A    between atoms: C16_44  and  C17_45 
REMARK   16  A    between atoms: C17_45  and  O5_46 
REMARK   17  A    between atoms: N13_49  and  N14_51 
ROOT
HETATM    1  N1  UNL     1      10.270 -12.064 -10.389  1.00  0.00    -0.171 NA
HETATM    2  C1  UNL     1      11.091 -12.726 -10.870  1.00  0.00     0.192 C 
HETATM    3  N2  UNL     1      12.090 -13.511 -11.436  1.00  0.00    -0.220 N 
ATOM      4  H2  UNL     1      12.582 -13.192 -12.272  1.00  0.00     0.191 HD
ENDROOT
BRANCH   3   5
HETATM    5  S1  UNL     1      12.456 -14.892 -10.780  1.00  0.00     0.221 S 
HETATM    6  O1  UNL     1      13.968 -14.961 -10.723  1.00  0.00    -0.204 OA
BRANCH   5   7
HETATM    7  N3  UNL     1      11.780 -15.051  -9.220  1.00  0.00    -0.316 N 
ATOM      8  H3  UNL     1      10.850 -15.429  -9.043  1.00  0.00     0.172 HD
BRANCH   7   9
HETATM    9  C2  UNL     1      12.673 -14.589  -8.174  1.00  0.00     0.158 C 
BRANCH   9  10
HETATM   10  C3  UNL     1      11.896 -13.734  -7.195  1.00  0.00     0.191 C 
BRANCH  10  11
HETATM   11  O2  UNL     1      10.536 -13.789  -7.350  1.00  0.00    -0.360 OA
BRANCH  11  12
HETATM   12  C4  UNL     1       9.852 -14.572  -6.459  1.00  0.00     0.260 C 
HETATM   13  C5  UNL     1       8.650 -13.826  -5.952  1.00  0.00     0.069 C 
HETATM   14  C6  UNL     1       7.465 -13.914  -6.856  1.00  0.00     0.039 C 
HETATM   15  C8  UNL     1       6.995 -15.378  -6.843  1.00  0.00     0.122 C 
HETATM   16  C16 UNL     1       8.199 -16.200  -6.497  1.00  0.00     0.171 C 
HETATM   17  O6  UNL     1       9.359 -15.724  -7.109  1.00  0.00    -0.352 OA
BRANCH  14  18
HETATM   18  C7  UNL     1       7.760 -13.472  -8.269  1.00  0.00     0.171 C 
BRANCH  18  19
HETATM   19  O3  UNL     1       8.154 -12.138  -8.289  1.00  0.00    -0.400 OA
ATOM     20  H3  UNL     1       9.097 -12.071  -8.386  1.00  0.00     0.209 HD
ENDBRANCH  18  19
ENDBRANCH  14  18
BRANCH  15  21
HETATM   21  N4  UNL     1       6.059 -15.465  -5.726  1.00  0.00    -0.348 N 
HETATM   22  C9  UNL     1       4.855 -16.184  -5.928  1.00  0.00     0.271 C 
HETATM   23  O4  UNL     1       4.591 -16.727  -7.021  1.00  0.00    -0.266 OA
ATOM     24  H4  UNL     1       6.266 -15.024  -4.831  1.00  0.00     0.163 HD
BRANCH  22  25
HETATM   25  C10 UNL     1       3.922 -16.272  -4.812  1.00  0.00     0.131 A 
HETATM   26  C11 UNL     1       3.234 -15.218  -4.260  1.00  0.00     0.151 A 
HETATM   27  N5  UNL     1       2.467 -15.672  -3.250  1.00  0.00    -0.242 N 
HETATM   28  N11 UNL     1       2.672 -16.978  -3.175  1.00  0.00    -0.015 NA
HETATM   29  N12 UNL     1       3.550 -17.356  -4.112  1.00  0.00    -0.277 N 
ATOM     30  H12 UNL     1       3.881 -18.308  -4.269  1.00  0.00     0.184 HD
BRANCH  27  31
HETATM   31  C12 UNL     1       1.601 -14.902  -2.422  1.00  0.00     0.139 A 
HETATM   32  C13 UNL     1       2.014 -14.440  -1.183  1.00  0.00     0.164 A 
HETATM   33  N6  UNL     1       3.325 -14.734  -0.718  1.00  0.00    -0.080 NA
HETATM   34  N7  UNL     1       1.163 -13.725  -0.449  1.00  0.00    -0.177 N 
HETATM   35  C14 UNL     1      -0.091 -13.437  -0.884  1.00  0.00     0.678 A 
ATOM     36  H7  UNL     1       1.462 -13.384   0.464  1.00  0.00     0.185 HD
HETATM   37  N9  UNL     1      -0.528 -13.872  -2.091  1.00  0.00    -0.175 N 
HETATM   38  C15 UNL     1       0.319 -14.594  -2.839  1.00  0.00     0.146 A 
ATOM     39  H9  UNL     1      -1.470 -13.659  -2.419  1.00  0.00     0.186 HD
BRANCH  35  40
HETATM   40  N8  UNL     1      -0.880 -12.747  -0.155  1.00  0.00    -0.234 N 
ATOM     41  H82 UNL     1      -1.041 -13.039   0.810  1.00  0.00     0.174 HD
ATOM     42  H81 UNL     1      -1.339 -11.920  -0.536  1.00  0.00     0.174 HD
ENDBRANCH  35  40
BRANCH  38  43
HETATM   43  N10 UNL     1      -0.074 -15.017  -3.986  1.00  0.00    -0.383 N 
ATOM     44 2H10 UNL     1       0.584 -15.006  -4.765  1.00  0.00     0.157 HD
ATOM     45 1H10 UNL     1      -1.034 -15.350  -4.081  1.00  0.00     0.157 HD
ENDBRANCH  38  43
ENDBRANCH  27  31
ENDBRANCH  22  25
ENDBRANCH  15  21
BRANCH  16  46
HETATM   46  C17 UNL     1       7.991 -17.609  -7.048  1.00  0.00     0.198 C 
BRANCH  46  47
HETATM   47  O5  UNL     1       8.724 -18.537  -6.328  1.00  0.00    -0.398 OA
ATOM     48  H5  UNL     1       9.614 -18.597  -6.658  1.00  0.00     0.209 HD
ENDBRANCH  46  47
ENDBRANCH  16  46
ENDBRANCH  11  12
ENDBRANCH  10  11
ENDBRANCH   9  10
ENDBRANCH   7   9
ENDBRANCH   5   7
BRANCH   5  49
HETATM   49  N13 UNL     1      11.937 -16.207 -11.750  1.00  0.00    -0.218 N 
ATOM     50  H13 UNL     1      12.328 -17.137 -11.602  1.00  0.00     0.200 HD
BRANCH  49  51
HETATM   51  N14 UNL     1      10.986 -16.003 -12.734  1.00  0.00    -0.235 N 
HETATM   52  C18 UNL     1       9.711 -15.693 -12.533  1.00  0.00     0.224 A 
HETATM   53  N15 UNL     1       9.155 -15.591 -13.770  1.00  0.00    -0.293 N 
HETATM   54  N16 UNL     1      10.045 -15.828 -14.699  1.00  0.00    -0.293 N 
ATOM     55  H15 UNL     1       8.178 -15.362 -13.949  1.00  0.00     0.187 HD
HETATM   56  C19 UNL     1      11.209 -16.090 -14.063  1.00  0.00     0.224 A 
ATOM     57  H16 UNL     1       9.892 -15.818 -15.707  1.00  0.00     0.187 HD
ENDBRANCH  49  51
ENDBRANCH   5  49
ENDBRANCH   3   5
TORSDOF 17
ENDMDL
MODEL 2
REMARK VINA RESULT: -8.837431834      1.414      1.828
REMARK  17 active torsions:
REMARK  status: ('A' for Active; 'I' for Inactive)
REMARK    1  A    between atoms: N2_3  and  S1_5 
REMARK    2  A    between atoms: S1_5  and  N3_7 
REMARK    3  A    between atoms: S1_5  and  N13_49 
REMARK    4  A    between atoms: N3_7  and  C2_9 
REMARK    5  A    between atoms: C2_9  and  C3_10 
REMARK    6  A    between atoms: C3_10  and  O2_11 
REMARK    7  A    between atoms: O2_11  and  C4_12 
REMARK    8  A    between atoms: C6_14  and  C7_15 
REMARK    9  A    between atoms: C7_15  and  O3_16 
REMARK   10  A    between atoms: C8_18  and  N4_19 
REMARK       I    between atoms: N4_19  and  C9_21 
REMARK   11  A    between atoms: C9_21  and  C10_23 
REMARK   12  A    between atoms: N5_25  and  C12_26 
REMARK   13  A    between atoms: C14_31  and  N8_32 
REMARK   14  A    between atoms: C15_37  and  N10_38 
REMARK   15  A    between atoms: C16_44  and  C17_45 
REMARK   16  A    between atoms: C17_45  and  O5_46 
REMARK   17  A    between atoms: N13_49  and  N14_51 
ROOT
HETATM    1  N1  UNL     1       9.320 -12.219 -10.146  1.00  0.00    -0.171 NA
HETATM    2  C1  UNL     1      10.422 -12.528 -10.329  1.00  0.00     0.192 C 
HETATM    3  N2  UNL     1      11.749 -12.894 -10.529  1.00  0.00    -0.220 N 
ATOM      4  H2  UNL     1      12.429 -12.205 -10.852  1.00  0.00     0.191 HD
ENDROOT
BRANCH   3   5
HETATM    5  S1  UNL     1      12.195 -14.376 -10.253  1.00  0.00     0.221 S 
HETATM    6  O1  UNL     1      13.264 -14.707 -11.272  1.00  0.00    -0.204 OA
BRANCH   5   7
HETATM    7  N3  UNL     1      12.786 -14.574  -8.663  1.00  0.00    -0.316 N 
ATOM      8  H3  UNL     1      13.567 -15.183  -8.422  1.00  0.00     0.172 HD
BRANCH   7   9
HETATM    9  C2  UNL     1      12.057 -13.780  -7.693  1.00  0.00     0.158 C 
BRANCH   9  10
HETATM   10  C3  UNL     1      10.851 -14.561  -7.212  1.00  0.00     0.191 C 
BRANCH  10  11
HETATM   11  O2  UNL     1      10.476 -14.288  -5.923  1.00  0.00    -0.360 OA
BRANCH  11  12
HETATM   12  C4  UNL     1       9.544 -15.124  -5.369  1.00  0.00     0.260 C 
HETATM   13  C5  UNL     1       8.469 -14.311  -4.705  1.00  0.00     0.069 C 
HETATM   14  C6  UNL     1       7.409 -13.840  -5.644  1.00  0.00     0.039 C 
HETATM   15  C8  UNL     1       6.650 -15.085  -6.130  1.00  0.00     0.122 C 
HETATM   16  C16 UNL     1       7.609 -16.231  -6.013  1.00  0.00     0.171 C 
HETATM   17  O6  UNL     1       8.907 -15.874  -6.381  1.00  0.00    -0.352 OA
BRANCH  14  18
HETATM   18  C7  UNL     1       7.956 -13.068  -6.821  1.00  0.00     0.171 C 
BRANCH  18  19
HETATM   19  O3  UNL     1       7.455 -13.580  -8.014  1.00  0.00    -0.400 OA
ATOM     20  H3  UNL     1       8.019 -13.342  -8.740  1.00  0.00     0.209 HD
ENDBRANCH  18  19
ENDBRANCH  14  18
BRANCH  15  21
HETATM   21  N4  UNL     1       5.589 -15.289  -5.148  1.00  0.00    -0.348 N 
HETATM   22  C9  UNL     1       4.268 -14.938  -5.520  1.00  0.00     0.271 C 
HETATM   23  O4  UNL     1       4.008 -14.467  -6.646  1.00  0.00    -0.266 OA
ATOM     24  H4  UNL     1       5.793 -15.672  -4.225  1.00  0.00     0.163 HD
BRANCH  22  25
HETATM   25  C10 UNL     1       3.210 -15.144  -4.539  1.00  0.00     0.131 A 
HETATM   26  C11 UNL     1       3.294 -14.852  -3.199  1.00  0.00     0.151 A 
HETATM   27  N5  UNL     1       2.129 -15.172  -2.603  1.00  0.00    -0.242 N 
HETATM   28  N11 UNL     1       1.337 -15.651  -3.550  1.00  0.00    -0.015 NA
HETATM   29  N12 UNL     1       1.977 -15.641  -4.727  1.00  0.00    -0.277 N 
ATOM     30  H12 UNL     1       1.591 -15.959  -5.616  1.00  0.00     0.184 HD
BRANCH  27  31
HETATM   31  C12 UNL     1       1.806 -15.025  -1.224  1.00  0.00     0.139 A 
HETATM   32  C13 UNL     1       2.080 -16.028  -0.310  1.00  0.00     0.164 A 
HETATM   33  N6  UNL     1       2.696 -17.234  -0.744  1.00  0.00    -0.080 NA
HETATM   34  N7  UNL     1       1.756 -15.838   0.968  1.00  0.00    -0.177 N 
HETATM   35  C14 UNL     1       1.168 -14.691   1.395  1.00  0.00     0.678 A 
ATOM     36  H7  UNL     1       1.955 -16.575   1.644  1.00  0.00     0.185 HD
HETATM   37  N9  UNL     1       0.885 -13.688   0.528  1.00  0.00    -0.175 N 
HETATM   38  C15 UNL     1       1.207 -13.868  -0.761  1.00  0.00     0.146 A 
ATOM     39  H9  UNL     1       0.443 -12.826   0.845  1.00  0.00     0.186 HD
BRANCH  35  40
HETATM   40  N8  UNL     1       0.872 -14.542   2.628  1.00  0.00    -0.234 N 
ATOM     41  H82 UNL     1       1.032 -15.318   3.270  1.00  0.00     0.174 HD
ATOM     42  H81 UNL     1       0.483 -13.658   2.958  1.00  0.00     0.174 HD
ENDBRANCH  35  40
BRANCH  38  43
HETATM   43  N10 UNL     1       0.948 -12.930  -1.601  1.00  0.00    -0.383 N 
ATOM     44 2H10 UNL     1       1.699 -12.583  -2.197  1.00  0.00     0.157 HD
ATOM     45 1H10 UNL     1      -0.003 -12.562  -1.644  1.00  0.00     0.157 HD
ENDBRANCH  38  43
ENDBRANCH  27  31
ENDBRANCH  22  25
ENDBRANCH  15  21
BRANCH  16  46
HETATM   46  C17 UNL     1       7.183 -17.314  -7.001  1.00  0.00     0.198 C 
BRANCH  46  47
HETATM   47  O5  UNL     1       5.855 -17.159  -7.365  1.00  0.00    -0.398 OA
ATOM     48  H5  UNL     1       5.781 -16.884  -8.271  1.00  0.00     0.209 HD
ENDBRANCH  46  47
ENDBRANCH  16  46
ENDBRANCH  11  12
ENDBRANCH  10  11
ENDBRANCH   9  10
ENDBRANCH   7   9
ENDBRANCH   5   7
BRANCH   5  49
HETATM   49  N13 UNL     1      10.906 -15.478 -10.510  1.00  0.00    -0.218 N 
ATOM     50  H13 UNL     1      10.446 -15.921  -9.715  1.00  0.00     0.200 HD
BRANCH  49  51
HETATM   51  N14 UNL     1      10.492 -15.764 -11.798  1.00  0.00    -0.235 N 
HETATM   52  C18 UNL     1      11.005 -16.697 -12.593  1.00  0.00     0.224 A 
HETATM   53  N15 UNL     1      10.299 -16.624 -13.753  1.00  0.00    -0.293 N 
HETATM   54  N16 UNL     1       9.389 -15.687 -13.683  1.00  0.00    -0.293 N 
ATOM     55  H15 UNL     1      10.458 -17.218 -14.566  1.00  0.00     0.187 HD
HETATM   56  C19 UNL     1       9.496 -15.133 -12.455  1.00  0.00     0.224 A 
ATOM     57  H16 UNL     1       8.727 -15.425 -14.414  1.00  0.00     0.187 HD
ENDBRANCH  49  51
ENDBRANCH   5  49
ENDBRANCH   3   5
TORSDOF 17
ENDMDL
MODEL 3
REMARK VINA RESULT: -8.678529355      3.170     11.459
REMARK  17 active torsions:
REMARK  status: ('A' for Active; 'I' for Inactive)
REMARK    1  A    between atoms: N2_3  and  S1_5 
REMARK    2  A    between atoms: S1_5  and  N3_7 
REMARK    3  A    between atoms: S1_5  and  N13_49 
REMARK    4  A    between atoms: N3_7  and  C2_9 
REMARK    5  A    between atoms: C2_9  and  C3_10 
REMARK    6  A    between atoms: C3_10  and  O2_11 
REMARK    7  A    between atoms: O2_11  and  C4_12 
REMARK    8  A    between atoms: C6_14  and  C7_15 
REMARK    9  A    between atoms: C7_15  and  O3_16 
REMARK   10  A    between atoms: C8_18  and  N4_19 
REMARK       I    between atoms: N4_19  and  C9_21 
REMARK   11  A    between atoms: C9_21  and  C10_23 
REMARK   12  A    between atoms: N5_25  and  C12_26 
REMARK   13  A    between atoms: C14_31  and  N8_32 
REMARK   14  A    between atoms: C15_37  and  N10_38 
REMARK   15  A    between atoms: C16_44  and  C17_45 
REMARK   16  A    between atoms: C17_45  and  O5_46 
REMARK   17  A    between atoms: N13_49  and  N14_51 
ROOT
HETATM    1  N1  UNL     1       2.411 -13.438  -6.644  1.00  0.00    -0.171 NA
HETATM    2  C1  UNL     1       2.680 -13.942  -5.635  1.00  0.00     0.192 C 
HETATM    3  N2  UNL     1       3.003 -14.527  -4.415  1.00  0.00    -0.220 N 
ATOM      4  H2  UNL     1       3.980 -14.674  -4.159  1.00  0.00     0.191 HD
ENDROOT
BRANCH   3   5
HETATM    5  S1  UNL     1       1.853 -14.961  -3.435  1.00  0.00     0.221 S 
HETATM    6  O1  UNL     1       0.760 -15.569  -4.288  1.00  0.00    -0.204 OA
BRANCH   5   7
HETATM    7  N3  UNL     1       2.406 -16.077  -2.266  1.00  0.00    -0.316 N 
ATOM      8  H3  UNL     1       1.977 -16.194  -1.348  1.00  0.00     0.172 HD
BRANCH   7   9
HETATM    9  C2  UNL     1       3.551 -16.841  -2.721  1.00  0.00     0.158 C 
BRANCH   9  10
HETATM   10  C3  UNL     1       4.785 -16.390  -1.968  1.00  0.00     0.191 C 
BRANCH  10  11
HETATM   11  O2  UNL     1       5.587 -15.523  -2.662  1.00  0.00    -0.360 OA
BRANCH  11  12
HETATM   12  C4  UNL     1       6.194 -16.019  -3.784  1.00  0.00     0.260 C 
HETATM   13  C5  UNL     1       6.764 -14.887  -4.592  1.00  0.00     0.069 C 
HETATM   14  C6  UNL     1       8.111 -14.440  -4.128  1.00  0.00     0.039 C 
HETATM   15  C8  UNL     1       9.090 -15.592  -4.407  1.00  0.00     0.122 C 
HETATM   16  C16 UNL     1       8.270 -16.846  -4.410  1.00  0.00     0.171 C 
HETATM   17  O6  UNL     1       7.285 -16.838  -3.421  1.00  0.00    -0.352 OA
BRANCH  14  18
HETATM   18  C7  UNL     1       8.144 -14.069  -2.664  1.00  0.00     0.171 C 
BRANCH  18  19
HETATM   19  O3  UNL     1       9.038 -13.026  -2.447  1.00  0.00    -0.400 OA
ATOM     20  H3  UNL     1       8.687 -12.413  -1.812  1.00  0.00     0.209 HD
ENDBRANCH  18  19
ENDBRANCH  14  18
BRANCH  15  21
HETATM   21  N4  UNL     1       9.563 -15.365  -5.769  1.00  0.00    -0.348 N 
HETATM   22  C9  UNL     1      10.370 -14.225  -6.007  1.00  0.00     0.271 C 
HETATM   23  O4  UNL     1      10.671 -13.432  -5.090  1.00  0.00    -0.266 OA
ATOM     24  H4  UNL     1       9.322 -16.006  -6.524  1.00  0.00     0.163 HD
BRANCH  22  25
HETATM   25  C10 UNL     1      10.843 -14.000  -7.367  1.00  0.00     0.131 A 
HETATM   26  C11 UNL     1      10.564 -14.796  -8.452  1.00  0.00     0.151 A 
HETATM   27  N5  UNL     1      11.167 -14.284  -9.542  1.00  0.00    -0.242 N 
HETATM   28  N11 UNL     1      11.805 -13.194  -9.146  1.00  0.00    -0.015 NA
HETATM   29  N12 UNL     1      11.620 -13.009  -7.833  1.00  0.00    -0.277 N 
ATOM     30  H12 UNL     1      12.004 -12.243  -7.279  1.00  0.00     0.184 HD
BRANCH  27  31
HETATM   31  C12 UNL     1      11.127 -14.807 -10.865  1.00  0.00     0.139 A 
HETATM   32  C13 UNL     1      10.005 -14.661 -11.664  1.00  0.00     0.164 A 
HETATM   33  N6  UNL     1       8.863 -13.976 -11.164  1.00  0.00    -0.080 NA
HETATM   34  N7  UNL     1      10.021 -15.171 -12.894  1.00  0.00    -0.177 N 
HETATM   35  C14 UNL     1      11.106 -15.827 -13.383  1.00  0.00     0.678 A 
ATOM     36  H7  UNL     1       9.196 -15.067 -13.485  1.00  0.00     0.185 HD
HETATM   37  N9  UNL     1      12.221 -15.989 -12.630  1.00  0.00    -0.175 N 
HETATM   38  C15 UNL     1      12.216 -15.479 -11.389  1.00  0.00     0.146 A 
ATOM     39  H9  UNL     1      13.036 -16.481 -12.994  1.00  0.00     0.186 HD
BRANCH  35  40
HETATM   40  N8  UNL     1      11.088 -16.302 -14.568  1.00  0.00    -0.234 N 
ATOM     41  H82 UNL     1      11.225 -15.668 -15.355  1.00  0.00     0.174 HD
ATOM     42  H81 UNL     1      10.938 -17.300 -14.717  1.00  0.00     0.174 HD
ENDBRANCH  35  40
BRANCH  38  43
HETATM   43  N10 UNL     1      13.262 -15.621 -10.658  1.00  0.00    -0.383 N 
ATOM     44 2H10 UNL     1      13.622 -16.561 -10.492  1.00  0.00     0.157 HD
ATOM     45 1H10 UNL     1      13.700 -14.787 -10.264  1.00  0.00     0.157 HD
ENDBRANCH  38  43
ENDBRANCH  27  31
ENDBRANCH  22  25
ENDBRANCH  15  21
BRANCH  16  46
HETATM   46  C17 UNL     1       9.187 -18.018  -4.068  1.00  0.00     0.198 C 
BRANCH  46  47
HETATM   47  O5  UNL     1      10.369 -17.573  -3.499  1.00  0.00    -0.398 OA
ATOM     48  H5  UNL     1      10.864 -18.297  -3.134  1.00  0.00     0.209 HD
ENDBRANCH  46  47
ENDBRANCH  16  46
ENDBRANCH  11  12
ENDBRANCH  10  11
ENDBRANCH   9  10
ENDBRANCH   7   9
ENDBRANCH   5   7
BRANCH   5  49
HETATM   49  N13 UNL     1       1.165 -13.610  -2.635  1.00  0.00    -0.218 N 
ATOM     50  H13 UNL     1       1.118 -12.707  -3.107  1.00  0.00     0.200 HD
BRANCH  49  51
HETATM   51  N14 UNL     1       0.674 -13.747  -1.350  1.00  0.00    -0.235 N 
HETATM   52  C18 UNL     1      -0.524 -14.217  -1.019  1.00  0.00     0.224 A 
HETATM   53  N15 UNL     1      -0.577 -14.171   0.339  1.00  0.00    -0.293 N 
HETATM   54  N16 UNL     1       0.536 -13.692   0.830  1.00  0.00    -0.293 N 
ATOM     55  H15 UNL     1      -1.377 -14.469   0.897  1.00  0.00     0.187 HD
HETATM   56  C19 UNL     1       1.339 -13.419  -0.222  1.00  0.00     0.224 A 
ATOM     57  H16 UNL     1       0.756 -13.552   1.816  1.00  0.00     0.187 HD
ENDBRANCH  49  51
ENDBRANCH   5  49
ENDBRANCH   3   5
TORSDOF 17
ENDMDL
MODEL 4
REMARK VINA RESULT: -8.655612992      3.149     11.371
REMARK  17 active torsions:
REMARK  status: ('A' for Active; 'I' for Inactive)
REMARK    1  A    between atoms: N2_3  and  S1_5 
REMARK    2  A    between atoms: S1_5  and  N3_7 
REMARK    3  A    between atoms: S1_5  and  N13_49 
REMARK    4  A    between atoms: N3_7  and  C2_9 
REMARK    5  A    between atoms: C2_9  and  C3_10 
REMARK    6  A    between atoms: C3_10  and  O2_11 
REMARK    7  A    between atoms: O2_11  and  C4_12 
REMARK    8  A    between atoms: C6_14  and  C7_15 
REMARK    9  A    between atoms: C7_15  and  O3_16 
REMARK   10  A    between atoms: C8_18  and  N4_19 
REMARK       I    between atoms: N4_19  and  C9_21 
REMARK   11  A    between atoms: C9_21  and  C10_23 
REMARK   12  A    between atoms: N5_25  and  C12_26 
REMARK   13  A    between atoms: C14_31  and  N8_32 
REMARK   14  A    between atoms: C15_37  and  N10_38 
REMARK   15  A    between atoms: C16_44  and  C17_45 
REMARK   16  A    between atoms: C17_45  and  O5_46 
REMARK   17  A    between atoms: N13_49  and  N14_51 
ROOT
HETATM    1  N1  UNL     1       2.565 -13.643  -6.633  1.00  0.00    -0.171 NA
HETATM    2  C1  UNL     1       2.856 -14.144  -5.629  1.00  0.00     0.192 C 
HETATM    3  N2  UNL     1       3.209 -14.725  -4.415  1.00  0.00    -0.220 N 
ATOM      4  H2  UNL     1       4.183 -14.959  -4.222  1.00  0.00     0.191 HD
ENDROOT
BRANCH   3   5
HETATM    5  S1  UNL     1       2.095 -15.020  -3.345  1.00  0.00     0.221 S 
HETATM    6  O1  UNL     1       1.057 -15.888  -4.023  1.00  0.00    -0.204 OA
BRANCH   5   7
HETATM    7  N3  UNL     1       2.734 -15.798  -1.965  1.00  0.00    -0.316 N 
ATOM      8  H3  UNL     1       2.545 -15.499  -1.009  1.00  0.00     0.172 HD
BRANCH   7   9
HETATM    9  C2  UNL     1       3.574 -16.932  -2.302  1.00  0.00     0.158 C 
BRANCH   9  10
HETATM   10  C3  UNL     1       4.992 -16.656  -1.848  1.00  0.00     0.191 C 
BRANCH  10  11
HETATM   11  O2  UNL     1       5.658 -15.725  -2.603  1.00  0.00    -0.360 OA
BRANCH  11  12
HETATM   12  C4  UNL     1       6.286 -16.188  -3.727  1.00  0.00     0.260 C 
HETATM   13  C5  UNL     1       6.776 -15.026  -4.545  1.00  0.00     0.069 C 
HETATM   14  C6  UNL     1       8.095 -14.492  -4.094  1.00  0.00     0.039 C 
HETATM   15  C8  UNL     1       9.144 -15.580  -4.376  1.00  0.00     0.122 C 
HETATM   16  C16 UNL     1       8.405 -16.884  -4.366  1.00  0.00     0.171 C 
HETATM   17  O6  UNL     1       7.430 -16.933  -3.369  1.00  0.00    -0.352 OA
BRANCH  14  18
HETATM   18  C7  UNL     1       8.116 -14.111  -2.633  1.00  0.00     0.171 C 
BRANCH  18  19
HETATM   19  O3  UNL     1       8.838 -12.936  -2.447  1.00  0.00    -0.400 OA
ATOM     20  H3  UNL     1       8.322 -12.184  -2.712  1.00  0.00     0.209 HD
ENDBRANCH  18  19
ENDBRANCH  14  18
BRANCH  15  21
HETATM   21  N4  UNL     1       9.590 -15.331  -5.743  1.00  0.00    -0.348 N 
HETATM   22  C9  UNL     1      10.311 -14.137  -5.996  1.00  0.00     0.271 C 
HETATM   23  O4  UNL     1      10.560 -13.318  -5.087  1.00  0.00    -0.266 OA
ATOM     24  H4  UNL     1       9.390 -15.993  -6.491  1.00  0.00     0.163 HD
BRANCH  22  25
HETATM   25  C10 UNL     1      10.758 -13.890  -7.360  1.00  0.00     0.131 A 
HETATM   26  C11 UNL     1      10.612 -14.756  -8.418  1.00  0.00     0.151 A 
HETATM   27  N5  UNL     1      11.141 -14.195  -9.523  1.00  0.00    -0.242 N 
HETATM   28  N11 UNL     1      11.605 -13.009  -9.162  1.00  0.00    -0.015 NA
HETATM   29  N12 UNL     1      11.381 -12.810  -7.857  1.00  0.00    -0.277 N 
ATOM     30  H12 UNL     1      11.641 -11.976  -7.329  1.00  0.00     0.184 HD
BRANCH  27  31
HETATM   31  C12 UNL     1      11.193 -14.763 -10.827  1.00  0.00     0.139 A 
HETATM   32  C13 UNL     1      12.332 -15.404 -11.288  1.00  0.00     0.164 A 
HETATM   33  N6  UNL     1      13.477 -15.503 -10.451  1.00  0.00    -0.080 NA
HETATM   34  N7  UNL     1      12.327 -15.917 -12.517  1.00  0.00    -0.177 N 
HETATM   35  C14 UNL     1      11.238 -15.830 -13.325  1.00  0.00     0.678 A 
ATOM     36  H7  UNL     1      13.164 -16.388 -12.861  1.00  0.00     0.185 HD
HETATM   37  N9  UNL     1      10.107 -15.210 -12.908  1.00  0.00    -0.175 N 
HETATM   38  C15 UNL     1      10.101 -14.690 -11.672  1.00  0.00     0.146 A 
ATOM     39  H9  UNL     1       9.289 -15.142 -13.512  1.00  0.00     0.186 HD
BRANCH  35  40
HETATM   40  N8  UNL     1      11.268 -16.334 -14.498  1.00  0.00    -0.234 N 
ATOM     41  H82 UNL     1      11.811 -17.183 -14.655  1.00  0.00     0.174 HD
ATOM     42  H81 UNL     1      10.754 -15.891 -15.259  1.00  0.00     0.174 HD
ENDBRANCH  35  40
BRANCH  38  43
HETATM   43  N10 UNL     1       9.040 -14.098 -11.255  1.00  0.00    -0.383 N 
ATOM     44 2H10 UNL     1       9.002 -13.783 -10.286  1.00  0.00     0.157 HD
ATOM     45 1H10 UNL     1       8.267 -13.962 -11.908  1.00  0.00     0.157 HD
ENDBRANCH  38  43
ENDBRANCH  27  31
ENDBRANCH  22  25
ENDBRANCH  15  21
BRANCH  16  46
HETATM   46  C17 UNL     1       9.398 -17.993  -4.026  1.00  0.00     0.198 C 
BRANCH  46  47
HETATM   47  O5  UNL     1       9.492 -18.909  -5.062  1.00  0.00    -0.398 OA
ATOM     48  H5  UNL     1      10.205 -19.520  -4.912  1.00  0.00     0.209 HD
ENDBRANCH  46  47
ENDBRANCH  16  46
ENDBRANCH  11  12
ENDBRANCH  10  11
ENDBRANCH   9  10
ENDBRANCH   7   9
ENDBRANCH   5   7
BRANCH   5  49
HETATM   49  N13 UNL     1       1.298 -13.583  -2.856  1.00  0.00    -0.218 N 
ATOM     50  H13 UNL     1       1.313 -12.760  -3.458  1.00  0.00     0.200 HD
BRANCH  49  51
HETATM   51  N14 UNL     1       0.633 -13.543  -1.643  1.00  0.00    -0.235 N 
HETATM   52  C18 UNL     1       1.184 -13.294  -0.461  1.00  0.00     0.224 A 
HETATM   53  N15 UNL     1       0.168 -13.357   0.441  1.00  0.00    -0.293 N 
HETATM   54  N16 UNL     1      -0.963 -13.634  -0.154  1.00  0.00    -0.293 N 
ATOM     55  H15 UNL     1       0.275 -13.208   1.444  1.00  0.00     0.187 HD
HETATM   56  C19 UNL     1      -0.689 -13.755  -1.472  1.00  0.00     0.224 A 
ATOM     57  H16 UNL     1      -1.875 -13.739   0.290  1.00  0.00     0.187 HD
ENDBRANCH  49  51
ENDBRANCH   5  49
ENDBRANCH   3   5
TORSDOF 17
ENDMDL
MODEL 5
REMARK VINA RESULT: -8.498576694      1.948      3.154
REMARK  17 active torsions:
REMARK  status: ('A' for Active; 'I' for Inactive)
REMARK    1  A    between atoms: N2_3  and  S1_5 
REMARK    2  A    between atoms: S1_5  and  N3_7 
REMARK    3  A    between atoms: S1_5  and  N13_49 
REMARK    4  A    between atoms: N3_7  and  C2_9 
REMARK    5  A    between atoms: C2_9  and  C3_10 
REMARK    6  A    between atoms: C3_10  and  O2_11 
REMARK    7  A    between atoms: O2_11  and  C4_12 
REMARK    8  A    between atoms: C6_14  and  C7_15 
REMARK    9  A    between atoms: C7_15  and  O3_16 
REMARK   10  A    between atoms: C8_18  and  N4_19 
REMARK       I    between atoms: N4_19  and  C9_21 
REMARK   11  A    between atoms: C9_21  and  C10_23 
REMARK   12  A    between atoms: N5_25  and  C12_26 
REMARK   13  A    between atoms: C14_31  and  N8_32 
REMARK   14  A    between atoms: C15_37  and  N10_38 
REMARK   15  A    between atoms: C16_44  and  C17_45 
REMARK   16  A    between atoms: C17_45  and  O5_46 
REMARK   17  A    between atoms: N13_49  and  N14_51 
ROOT
HETATM    1  N1  UNL     1       9.863 -15.410 -12.285  1.00  0.00    -0.171 NA
HETATM    2  C1  UNL     1       9.996 -15.048 -11.192  1.00  0.00     0.192 C 
HETATM    3  N2  UNL     1      10.177 -14.621  -9.881  1.00  0.00    -0.220 N 
ATOM      4  H2  UNL     1       9.993 -15.256  -9.104  1.00  0.00     0.191 HD
ENDROOT
BRANCH   3   5
HETATM    5  S1  UNL     1      10.665 -13.151  -9.604  1.00  0.00     0.221 S 
HETATM    6  O1  UNL     1      10.031 -12.275 -10.664  1.00  0.00    -0.204 OA
BRANCH   5   7
HETATM    7  N3  UNL     1      10.232 -12.624  -8.038  1.00  0.00    -0.316 N 
ATOM      8  H3  UNL     1       9.415 -12.046  -7.842  1.00  0.00     0.172 HD
BRANCH   7   9
HETATM    9  C2  UNL     1      11.152 -13.089  -7.018  1.00  0.00     0.158 C 
BRANCH   9  10
HETATM   10  C3  UNL     1      10.366 -13.676  -5.865  1.00  0.00     0.191 C 
BRANCH  10  11
HETATM   11  O2  UNL     1      10.026 -14.994  -6.023  1.00  0.00    -0.360 OA
BRANCH  11  12
HETATM   12  C4  UNL     1       9.191 -15.526  -5.077  1.00  0.00     0.260 C 
HETATM   13  C5  UNL     1       7.997 -14.631  -4.899  1.00  0.00     0.069 C 
HETATM   14  C6  UNL     1       6.919 -14.863  -5.904  1.00  0.00     0.039 C 
HETATM   15  C8  UNL     1       6.344 -16.264  -5.635  1.00  0.00     0.122 C 
HETATM   16  C16 UNL     1       7.438 -17.043  -4.970  1.00  0.00     0.171 C 
HETATM   17  O6  UNL     1       8.692 -16.770  -5.519  1.00  0.00    -0.352 OA
BRANCH  14  18
HETATM   18  C7  UNL     1       7.403 -14.762  -7.331  1.00  0.00     0.171 C 
BRANCH  18  19
HETATM   19  O3  UNL     1       7.349 -13.444  -7.771  1.00  0.00    -0.400 OA
ATOM     20  H3  UNL     1       8.163 -13.202  -8.196  1.00  0.00     0.209 HD
ENDBRANCH  18  19
ENDBRANCH  14  18
BRANCH  15  21
HETATM   21  N4  UNL     1       5.285 -16.056  -4.652  1.00  0.00    -0.348 N 
HETATM   22  C9  UNL     1       3.970 -15.838  -5.134  1.00  0.00     0.271 C 
HETATM   23  O4  UNL     1       3.715 -15.821  -6.356  1.00  0.00    -0.266 OA
ATOM     24  H4  UNL     1       5.484 -16.067  -3.653  1.00  0.00     0.163 HD
BRANCH  22  25
HETATM   25  C10 UNL     1       2.913 -15.632  -4.152  1.00  0.00     0.131 A 
HETATM   26  C11 UNL     1       3.100 -15.454  -2.802  1.00  0.00     0.151 A 
HETATM   27  N5  UNL     1       1.901 -15.293  -2.209  1.00  0.00    -0.242 N 
HETATM   28  N11 UNL     1       0.990 -15.369  -3.166  1.00  0.00    -0.015 NA
HETATM   29  N12 UNL     1       1.586 -15.574  -4.347  1.00  0.00    -0.277 N 
ATOM     30  H12 UNL     1       1.111 -15.671  -5.245  1.00  0.00     0.184 HD
BRANCH  27  31
HETATM   31  C12 UNL     1       1.657 -15.082  -0.822  1.00  0.00     0.139 A 
HETATM   32  C13 UNL     1       1.828 -16.099   0.102  1.00  0.00     0.164 A 
HETATM   33  N6  UNL     1       2.258 -17.384  -0.330  1.00  0.00    -0.080 NA
HETATM   34  N7  UNL     1       1.585 -15.847   1.387  1.00  0.00    -0.177 N 
HETATM   35  C14 UNL     1       1.175 -14.623   1.812  1.00  0.00     0.678 A 
ATOM     36  H7  UNL     1       1.709 -16.594   2.071  1.00  0.00     0.185 HD
HETATM   37  N9  UNL     1       0.997 -13.605   0.935  1.00  0.00    -0.175 N 
HETATM   38  C15 UNL     1       1.239 -13.847  -0.361  1.00  0.00     0.146 A 
ATOM     39  H9  UNL     1       0.688 -12.686   1.251  1.00  0.00     0.186 HD
BRANCH  35  40
HETATM   40  N8  UNL     1       0.952 -14.416   3.051  1.00  0.00    -0.234 N 
ATOM     41  H82 UNL     1       0.280 -15.011   3.537  1.00  0.00     0.174 HD
ATOM     42  H81 UNL     1       1.440 -13.666   3.542  1.00  0.00     0.174 HD
ENDBRANCH  35  40
BRANCH  38  43
HETATM   43  N10 UNL     1       1.076 -12.896  -1.210  1.00  0.00    -0.383 N 
ATOM     44 2H10 UNL     1       0.774 -13.129  -2.156  1.00  0.00     0.157 HD
ATOM     45 1H10 UNL     1       1.255 -11.937  -0.910  1.00  0.00     0.157 HD
ENDBRANCH  38  43
ENDBRANCH  27  31
ENDBRANCH  22  25
ENDBRANCH  15  21
BRANCH  16  46
HETATM   46  C17 UNL     1       7.190 -18.528  -5.226  1.00  0.00     0.198 C 
BRANCH  46  47
HETATM   47  O5  UNL     1       6.359 -19.066  -4.257  1.00  0.00    -0.398 OA
ATOM     48  H5  UNL     1       6.728 -18.950  -3.389  1.00  0.00     0.209 HD
ENDBRANCH  46  47
ENDBRANCH  16  46
ENDBRANCH  11  12
ENDBRANCH  10  11
ENDBRANCH   9  10
ENDBRANCH   7   9
ENDBRANCH   5   7
BRANCH   5  49
HETATM   49  N13 UNL     1      12.363 -13.007  -9.792  1.00  0.00    -0.218 N 
ATOM     50  H13 UNL     1      12.774 -12.109 -10.048  1.00  0.00     0.200 HD
BRANCH  49  51
HETATM   51  N14 UNL     1      13.173 -14.111  -9.597  1.00  0.00    -0.235 N 
HETATM   52  C18 UNL     1      13.608 -14.935 -10.542  1.00  0.00     0.224 A 
HETATM   53  N15 UNL     1      14.364 -15.867  -9.902  1.00  0.00    -0.293 N 
HETATM   54  N16 UNL     1      14.397 -15.632  -8.616  1.00  0.00    -0.293 N 
ATOM     55  H15 UNL     1      14.841 -16.642 -10.362  1.00  0.00     0.187 HD
HETATM   56  C19 UNL     1      13.649 -14.526  -8.404  1.00  0.00     0.224 A 
ATOM     57  H16 UNL     1      14.890 -16.178  -7.909  1.00  0.00     0.187 HD
ENDBRANCH  49  51
ENDBRANCH   5  49
ENDBRANCH   3   5
TORSDOF 17
ENDMDL
