MODEL 1
REMARK VINA RESULT: -8.230877597      0.000      0.000
REMARK  21 active torsions:
REMARK  status: ('A' for Active; 'I' for Inactive)
REMARK    1  A    between atoms: C1_4  and  O1_6 
REMARK    2  A    between atoms: O1_6  and  C2_7 
REMARK    3  A    between atoms: C2_7  and  C3_8 
REMARK    4  A    between atoms: N6_18  and  C7_19 
REMARK    5  A    between atoms: C7_19  and  O2_20 
REMARK    6  A    between atoms: O2_20  and  C8_21 
REMARK    7  A    between atoms: C8_21  and  N7_22 
REMARK    8  A    between atoms: C8_21  and  C9_25 
REMARK       I    between atoms: C9_25  and  N8_27 
REMARK    9  A    between atoms: N8_27  and  N9_29 
REMARK   10  A    between atoms: C10_32  and  N10_33 
REMARK   11  A    between atoms: N12_39  and  C12_40 
REMARK   12  A    between atoms: C12_40  and  N13_41 
REMARK   13  A    between atoms: N15_45  and  C14_46 
REMARK   14  A    between atoms: C15_48  and  C16_49 
REMARK   15  A    between atoms: C16_49  and  O4_50 
REMARK   16  A    between atoms: C16_49  and  N16_52 
REMARK   17  A    between atoms: N16_52  and  C17_54 
REMARK   18  A    between atoms: C17_54  and  C18_55 
REMARK   19  A    between atoms: C17_54  and  C19_58 
REMARK   20  A    between atoms: C19_58  and  N17_59 
REMARK   21  A    between atoms: C19_58  and  O7_63 
ROOT
HETATM    1  C3  UNL     1       6.283 -16.094  -3.051  1.00  0.00     0.112 A 
HETATM    2  N3  UNL     1       7.354 -15.337  -3.333  1.00  0.00    -0.339 N 
ATOM      3  H3  UNL     1       7.836 -15.347  -4.232  1.00  0.00     0.167 HD
HETATM    4  C4  UNL     1       7.717 -14.569  -2.305  1.00  0.00     0.109 A 
HETATM    5  C5  UNL     1       8.719 -13.650  -2.079  1.00  0.00     0.117 A 
HETATM    6  C6  UNL     1       8.829 -13.019  -0.860  1.00  0.00     0.124 A 
HETATM    7  N4  UNL     1       9.899 -12.200  -0.978  1.00  0.00    -0.280 N 
ATOM      8  H4  UNL     1      10.263 -11.582  -0.253  1.00  0.00     0.188 HD
HETATM    9  N5  UNL     1      10.392 -12.341  -2.199  1.00  0.00    -0.237 N 
ATOM     10  H5  UNL     1      11.204 -11.837  -2.555  1.00  0.00     0.208 HD
HETATM   11  N6  UNL     1       9.696 -13.218  -2.897  1.00  0.00    -0.249 N 
HETATM   12  C10 UNL     1       7.922 -13.325   0.119  1.00  0.00     0.131 A 
HETATM   13  N11 UNL     1       6.960 -14.223  -0.138  1.00  0.00    -0.325 N 
ATOM     14  H11 UNL     1       6.300 -14.429   0.613  1.00  0.00     0.169 HD
HETATM   15  C11 UNL     1       6.793 -14.873  -1.297  1.00  0.00     0.141 A 
HETATM   16  N12 UNL     1       5.949 -15.787  -1.777  1.00  0.00    -0.300 N 
ENDROOT
BRANCH  16  17
HETATM   17  C12 UNL     1       4.818 -16.410  -1.106  1.00  0.00     0.284 C 
BRANCH  17  18
HETATM   18  N13 UNL     1       3.752 -15.456  -0.879  1.00  0.00    -0.253 N 
HETATM   19  N14 UNL     1       3.647 -14.794   0.305  1.00  0.00    -0.290 N 
HETATM   20  C13 UNL     1       2.563 -14.050   0.311  1.00  0.00     0.203 A 
ATOM     21  H14 UNL     1       4.313 -14.865   1.075  1.00  0.00     0.188 HD
HETATM   22  N15 UNL     1       1.950 -14.235  -0.905  1.00  0.00    -0.310 N 
HETATM   23  C15 UNL     1       2.693 -15.098  -1.624  1.00  0.00     0.179 A 
BRANCH  22  24
HETATM   24  C14 UNL     1       0.703 -13.578  -1.270  1.00  0.00     0.246 C 
HETATM   25 CL1  UNL     1      -0.612 -14.781  -1.250  1.00  0.00    -0.108 Cl
ENDBRANCH  22  24
BRANCH  23  26
HETATM   26  C16 UNL     1       2.514 -15.486  -3.008  1.00  0.00     0.184 C 
BRANCH  26  27
HETATM   27  O4  UNL     1       2.268 -16.737  -3.282  1.00  0.00    -0.344 OA
ATOM     28  H4  UNL     1       2.787 -17.409  -2.856  1.00  0.00     0.219 HD
ENDBRANCH  26  27
BRANCH  26  29
HETATM   29  N16 UNL     1       2.564 -14.672  -4.144  1.00  0.00    -0.350 N 
ATOM     30  H16 UNL     1       3.457 -14.317  -4.484  1.00  0.00     0.162 HD
BRANCH  29  31
HETATM   31  C17 UNL     1       1.308 -14.332  -4.846  1.00  0.00     0.241 C 
BRANCH  31  32
HETATM   32  C18 UNL     1       1.539 -13.050  -5.559  1.00  0.00     0.201 C 
HETATM   33  O5  UNL     1       1.063 -11.965  -5.146  1.00  0.00    -0.646 OA
HETATM   34  O6  UNL     1       2.299 -13.052  -6.712  1.00  0.00    -0.646 OA
ENDBRANCH  31  32
BRANCH  31  35
HETATM   35  C19 UNL     1       0.922 -15.462  -5.782  1.00  0.00     0.349 C 
BRANCH  35  36
HETATM   36  N17 UNL     1       2.138 -16.014  -6.328  1.00  0.00    -0.051 N 
ATOM     37 3H17 UNL     1       2.245 -15.828  -7.326  1.00  0.00     0.277 HD
ATOM     38 2H17 UNL     1       2.974 -15.523  -6.010  1.00  0.00     0.277 HD
ATOM     39 1H17 UNL     1       2.153 -17.009  -6.106  1.00  0.00     0.277 HD
ENDBRANCH  35  36
BRANCH  35  40
HETATM   40  O7  UNL     1       0.082 -14.930  -6.753  1.00  0.00    -0.368 OA
ATOM     41  H7  UNL     1      -0.378 -15.655  -7.160  1.00  0.00     0.212 HD
ENDBRANCH  35  40
ENDBRANCH  31  35
ENDBRANCH  29  31
ENDBRANCH  26  29
ENDBRANCH  23  26
ENDBRANCH  17  18
ENDBRANCH  16  17
BRANCH   1  42
HETATM   42  C2  UNL     1       5.624 -17.080  -3.967  1.00  0.00     0.255 C 
BRANCH  42  43
HETATM   43  O1  UNL     1       4.927 -16.352  -5.001  1.00  0.00    -0.317 OA
BRANCH  43  44
HETATM   44  C1  UNL     1       5.563 -15.508  -5.878  1.00  0.00     0.225 C 
HETATM   45  N1  UNL     1       6.333 -16.062  -6.754  1.00  0.00    -0.368 N 
ATOM     46  H12 UNL     1       6.806 -15.435  -7.406  1.00  0.00     0.159 HD
ATOM     47  H11 UNL     1       6.426 -17.077  -6.746  1.00  0.00     0.159 HD
HETATM   48  N2  UNL     1       5.433 -14.083  -5.890  1.00  0.00    -0.057 NA
ENDBRANCH  43  44
ENDBRANCH  42  43
ENDBRANCH   1  42
BRANCH  12  49
HETATM   49  N10 UNL     1       8.011 -12.749   1.259  1.00  0.00    -0.383 N 
ATOM     50 2H10 UNL     1       8.909 -12.444   1.632  1.00  0.00     0.157 HD
ATOM     51 1H10 UNL     1       7.165 -12.592   1.807  1.00  0.00     0.157 HD
ENDBRANCH  12  49
BRANCH  11  52
HETATM   52  C7  UNL     1       9.886 -13.661  -4.260  1.00  0.00     0.328 C 
BRANCH  52  53
HETATM   53  O2  UNL     1       9.510 -12.598  -5.117  1.00  0.00    -0.310 OA
BRANCH  53  54
HETATM   54  C8  UNL     1       9.476 -12.732  -6.496  1.00  0.00     0.208 C 
BRANCH  54  55
HETATM   55  N7  UNL     1       8.305 -12.932  -7.007  1.00  0.00    -0.375 N 
ATOM     56  H72 UNL     1       7.641 -12.167  -7.131  1.00  0.00     0.158 HD
ATOM     57  H71 UNL     1       8.101 -13.895  -7.272  1.00  0.00     0.158 HD
ENDBRANCH  54  55
BRANCH  54  58
HETATM   58  C9  UNL     1      10.674 -12.655  -7.334  1.00  0.00     0.310 C 
HETATM   59  O3  UNL     1      10.935 -11.581  -7.960  1.00  0.00    -0.262 OA
HETATM   60  N8  UNL     1      11.509 -13.792  -7.419  1.00  0.00    -0.269 N 
ATOM     61  H8  UNL     1      11.269 -14.637  -6.902  1.00  0.00     0.189 HD
BRANCH  60  62
HETATM   62  N9  UNL     1      12.680 -13.761  -8.219  1.00  0.00    -0.342 N 
ATOM     63  H92 UNL     1      12.600 -13.489  -9.198  1.00  0.00     0.176 HD
ATOM     64  H91 UNL     1      13.584 -14.008  -7.816  1.00  0.00     0.176 HD
ENDBRANCH  60  62
ENDBRANCH  54  58
ENDBRANCH  53  54
ENDBRANCH  52  53
ENDBRANCH  11  52
TORSDOF 21
ENDMDL
MODEL 2
REMARK VINA RESULT: -8.035126620      1.341      1.514
REMARK  21 active torsions:
REMARK  status: ('A' for Active; 'I' for Inactive)
REMARK    1  A    between atoms: C1_4  and  O1_6 
REMARK    2  A    between atoms: O1_6  and  C2_7 
REMARK    3  A    between atoms: C2_7  and  C3_8 
REMARK    4  A    between atoms: N6_18  and  C7_19 
REMARK    5  A    between atoms: C7_19  and  O2_20 
REMARK    6  A    between atoms: O2_20  and  C8_21 
REMARK    7  A    between atoms: C8_21  and  N7_22 
REMARK    8  A    between atoms: C8_21  and  C9_25 
REMARK       I    between atoms: C9_25  and  N8_27 
REMARK    9  A    between atoms: N8_27  and  N9_29 
REMARK   10  A    between atoms: C10_32  and  N10_33 
REMARK   11  A    between atoms: N12_39  and  C12_40 
REMARK   12  A    between atoms: C12_40  and  N13_41 
REMARK   13  A    between atoms: N15_45  and  C14_46 
REMARK   14  A    between atoms: C15_48  and  C16_49 
REMARK   15  A    between atoms: C16_49  and  O4_50 
REMARK   16  A    between atoms: C16_49  and  N16_52 
REMARK   17  A    between atoms: N16_52  and  C17_54 
REMARK   18  A    between atoms: C17_54  and  C18_55 
REMARK   19  A    between atoms: C17_54  and  C19_58 
REMARK   20  A    between atoms: C19_58  and  N17_59 
REMARK   21  A    between atoms: C19_58  and  O7_63 
ROOT
HETATM    1  C3  UNL     1       6.014 -16.439  -3.040  1.00  0.00     0.112 A 
HETATM    2  N3  UNL     1       7.065 -15.712  -3.446  1.00  0.00    -0.339 N 
ATOM      3  H3  UNL     1       7.489 -15.792  -4.370  1.00  0.00     0.167 HD
HETATM    4  C4  UNL     1       7.495 -14.872  -2.503  1.00  0.00     0.109 A 
HETATM    5  C5  UNL     1       8.510 -13.945  -2.410  1.00  0.00     0.117 A 
HETATM    6  C6  UNL     1       8.699 -13.226  -1.251  1.00  0.00     0.124 A 
HETATM    7  N4  UNL     1       9.761 -12.424  -1.498  1.00  0.00    -0.280 N 
ATOM      8  H4  UNL     1      10.171 -11.756  -0.846  1.00  0.00     0.188 HD
HETATM    9  N5  UNL     1      10.174 -12.658  -2.734  1.00  0.00    -0.237 N 
ATOM     10  H5  UNL     1      10.962 -12.186  -3.177  1.00  0.00     0.208 HD
HETATM   11  N6  UNL     1       9.434 -13.581  -3.319  1.00  0.00    -0.249 N 
HETATM   12  C10 UNL     1       7.857 -13.453  -0.196  1.00  0.00     0.131 A 
HETATM   13  N11 UNL     1       6.879 -14.362  -0.323  1.00  0.00    -0.325 N 
ATOM     14  H11 UNL     1       6.269 -14.507   0.481  1.00  0.00     0.169 HD
HETATM   15  C11 UNL     1       6.637 -15.094  -1.418  1.00  0.00     0.141 A 
HETATM   16  N12 UNL     1       5.763 -16.037  -1.774  1.00  0.00    -0.300 N 
ENDROOT
BRANCH  16  17
HETATM   17  C12 UNL     1       4.677 -16.602  -0.987  1.00  0.00     0.284 C 
BRANCH  17  18
HETATM   18  N13 UNL     1       3.665 -15.605  -0.699  1.00  0.00    -0.253 N 
HETATM   19  N14 UNL     1       3.558 -15.058   0.542  1.00  0.00    -0.290 N 
HETATM   20  C13 UNL     1       2.524 -14.248   0.590  1.00  0.00     0.203 A 
ATOM     21  H14 UNL     1       4.189 -15.248   1.322  1.00  0.00     0.188 HD
HETATM   22  N15 UNL     1       1.946 -14.271  -0.656  1.00  0.00    -0.310 N 
HETATM   23  C15 UNL     1       2.660 -15.106  -1.435  1.00  0.00     0.179 A 
BRANCH  22  24
HETATM   24  C14 UNL     1       0.758 -13.500  -0.992  1.00  0.00     0.246 C 
HETATM   25 CL1  UNL     1      -0.623 -14.613  -1.168  1.00  0.00    -0.108 Cl
ENDBRANCH  22  24
BRANCH  23  26
HETATM   26  C16 UNL     1       2.508 -15.343  -2.856  1.00  0.00     0.184 C 
BRANCH  26  27
HETATM   27  O4  UNL     1       1.942 -16.450  -3.251  1.00  0.00    -0.344 OA
ATOM     28  H4  UNL     1       2.363 -17.277  -3.048  1.00  0.00     0.219 HD
ENDBRANCH  26  27
BRANCH  26  29
HETATM   29  N16 UNL     1       2.895 -14.514  -3.914  1.00  0.00    -0.350 N 
ATOM     30  H16 UNL     1       3.756 -13.972  -3.854  1.00  0.00     0.162 HD
BRANCH  29  31
HETATM   31  C17 UNL     1       2.043 -14.433  -5.119  1.00  0.00     0.241 C 
BRANCH  31  32
HETATM   32  C18 UNL     1       1.536 -13.040  -5.204  1.00  0.00     0.201 C 
HETATM   33  O5  UNL     1       0.823 -12.536  -4.303  1.00  0.00    -0.646 OA
HETATM   34  O6  UNL     1       1.858 -12.276  -6.308  1.00  0.00    -0.646 OA
ENDBRANCH  31  32
BRANCH  31  35
HETATM   35  C19 UNL     1       2.844 -14.841  -6.342  1.00  0.00     0.349 C 
BRANCH  35  36
HETATM   36  N17 UNL     1       2.913 -16.282  -6.359  1.00  0.00    -0.051 N 
ATOM     37 3H17 UNL     1       3.333 -16.669  -5.513  1.00  0.00     0.277 HD
ATOM     38 2H17 UNL     1       1.998 -16.724  -6.269  1.00  0.00     0.277 HD
ATOM     39 1H17 UNL     1       3.406 -16.558  -7.208  1.00  0.00     0.277 HD
ENDBRANCH  35  36
BRANCH  35  40
HETATM   40  O7  UNL     1       4.091 -14.237  -6.243  1.00  0.00    -0.368 OA
ATOM     41  H7  UNL     1       4.236 -13.751  -7.046  1.00  0.00     0.212 HD
ENDBRANCH  35  40
ENDBRANCH  31  35
ENDBRANCH  29  31
ENDBRANCH  26  29
ENDBRANCH  23  26
ENDBRANCH  17  18
ENDBRANCH  16  17
BRANCH   1  42
HETATM   42  C2  UNL     1       5.296 -17.487  -3.836  1.00  0.00     0.255 C 
BRANCH  42  43
HETATM   43  O1  UNL     1       6.226 -18.064  -4.778  1.00  0.00    -0.317 OA
BRANCH  43  44
HETATM   44  C1  UNL     1       6.201 -17.781  -6.122  1.00  0.00     0.225 C 
HETATM   45  N1  UNL     1       6.251 -18.790  -6.924  1.00  0.00    -0.368 N 
ATOM     46  H12 UNL     1       6.233 -18.580  -7.923  1.00  0.00     0.159 HD
ATOM     47  H11 UNL     1       6.306 -19.727  -6.524  1.00  0.00     0.159 HD
HETATM   48  N2  UNL     1       6.125 -16.467  -6.684  1.00  0.00    -0.057 NA
ENDBRANCH  43  44
ENDBRANCH  42  43
ENDBRANCH   1  42
BRANCH  12  49
HETATM   49  N10 UNL     1       8.020 -12.795   0.890  1.00  0.00    -0.383 N 
ATOM     50 2H10 UNL     1       8.853 -12.914   1.464  1.00  0.00     0.157 HD
ATOM     51 1H10 UNL     1       7.300 -12.136   1.188  1.00  0.00     0.157 HD
ENDBRANCH  12  49
BRANCH  11  52
HETATM   52  C7  UNL     1       9.535 -14.125  -4.655  1.00  0.00     0.328 C 
BRANCH  52  53
HETATM   53  O2  UNL     1       9.034 -13.154  -5.557  1.00  0.00    -0.310 OA
BRANCH  53  54
HETATM   54  C8  UNL     1       8.033 -13.437  -6.471  1.00  0.00     0.208 C 
BRANCH  54  55
HETATM   55  N7  UNL     1       6.834 -13.478  -5.988  1.00  0.00    -0.375 N 
ATOM     56  H72 UNL     1       6.658 -13.761  -5.024  1.00  0.00     0.158 HD
ATOM     57  H71 UNL     1       6.091 -13.210  -6.634  1.00  0.00     0.158 HD
ENDBRANCH  54  55
BRANCH  54  58
HETATM   58  C9  UNL     1       8.293 -13.675  -7.892  1.00  0.00     0.310 C 
HETATM   59  O3  UNL     1       7.682 -12.987  -8.767  1.00  0.00    -0.262 OA
HETATM   60  N8  UNL     1       9.228 -14.675  -8.244  1.00  0.00    -0.269 N 
ATOM     61  H8  UNL     1       9.701 -15.208  -7.515  1.00  0.00     0.189 HD
BRANCH  60  62
HETATM   62  N9  UNL     1       9.512 -14.939  -9.609  1.00  0.00    -0.342 N 
ATOM     63  H92 UNL     1       8.873 -14.587 -10.322  1.00  0.00     0.176 HD
ATOM     64  H91 UNL     1      10.342 -15.473  -9.867  1.00  0.00     0.176 HD
ENDBRANCH  60  62
ENDBRANCH  54  58
ENDBRANCH  53  54
ENDBRANCH  52  53
ENDBRANCH  11  52
TORSDOF 21
ENDMDL
MODEL 3
REMARK VINA RESULT: -8.011110022      3.151      4.850
REMARK  21 active torsions:
REMARK  status: ('A' for Active; 'I' for Inactive)
REMARK    1  A    between atoms: C1_4  and  O1_6 
REMARK    2  A    between atoms: O1_6  and  C2_7 
REMARK    3  A    between atoms: C2_7  and  C3_8 
REMARK    4  A    between atoms: N6_18  and  C7_19 
REMARK    5  A    between atoms: C7_19  and  O2_20 
REMARK    6  A    between atoms: O2_20  and  C8_21 
REMARK    7  A    between atoms: C8_21  and  N7_22 
REMARK    8  A    between atoms: C8_21  and  C9_25 
REMARK       I    between atoms: C9_25  and  N8_27 
REMARK    9  A    between atoms: N8_27  and  N9_29 
REMARK   10  A    between atoms: C10_32  and  N10_33 
REMARK   11  A    between atoms: N12_39  and  C12_40 
REMARK   12  A    between atoms: C12_40  and  N13_41 
REMARK   13  A    between atoms: N15_45  and  C14_46 
REMARK   14  A    between atoms: C15_48  and  C16_49 
REMARK   15  A    between atoms: C16_49  and  O4_50 
REMARK   16  A    between atoms: C16_49  and  N16_52 
REMARK   17  A    between atoms: N16_52  and  C17_54 
REMARK   18  A    between atoms: C17_54  and  C18_55 
REMARK   19  A    between atoms: C17_54  and  C19_58 
REMARK   20  A    between atoms: C19_58  and  N17_59 
REMARK   21  A    between atoms: C19_58  and  O7_63 
ROOT
HETATM    1  C3  UNL     1       5.275 -17.270  -6.686  1.00  0.00     0.112 A 
HETATM    2  N3  UNL     1       6.457 -16.721  -7.005  1.00  0.00    -0.339 N 
ATOM      3  H3  UNL     1       6.894 -16.807  -7.922  1.00  0.00     0.167 HD
HETATM    4  C4  UNL     1       6.995 -16.049  -5.986  1.00  0.00     0.109 A 
HETATM    5  C5  UNL     1       8.158 -15.336  -5.793  1.00  0.00     0.117 A 
HETATM    6  C6  UNL     1       8.430 -14.754  -4.575  1.00  0.00     0.124 A 
HETATM    7  N4  UNL     1       9.628 -14.146  -4.730  1.00  0.00    -0.280 N 
ATOM      8  H4  UNL     1      10.128 -13.618  -4.015  1.00  0.00     0.188 HD
HETATM    9  N5  UNL     1      10.040 -14.358  -5.970  1.00  0.00    -0.237 N 
ATOM     10  H5  UNL     1      10.918 -14.008  -6.354  1.00  0.00     0.208 HD
HETATM   11  N6  UNL     1       9.168 -15.081  -6.647  1.00  0.00    -0.249 N 
HETATM   12  C10 UNL     1       7.519 -14.901  -3.563  1.00  0.00     0.131 A 
HETATM   13  N11 UNL     1       6.398 -15.601  -3.788  1.00  0.00    -0.325 N 
ATOM     14  H11 UNL     1       5.740 -15.692  -3.013  1.00  0.00     0.169 HD
HETATM   15  C11 UNL     1       6.069 -16.191  -4.944  1.00  0.00     0.141 A 
HETATM   16  N12 UNL     1       5.052 -16.926  -5.398  1.00  0.00    -0.300 N 
ENDROOT
BRANCH  16  17
HETATM   17  C12 UNL     1       3.852 -17.338  -4.687  1.00  0.00     0.284 C 
BRANCH  17  18
HETATM   18  N13 UNL     1       2.833 -16.309  -4.737  1.00  0.00    -0.253 N 
HETATM   19  N14 UNL     1       2.140 -16.068  -5.883  1.00  0.00    -0.290 N 
HETATM   20  C13 UNL     1       1.335 -15.042  -5.716  1.00  0.00     0.203 A 
ATOM     21  H14 UNL     1       2.232 -16.605  -6.745  1.00  0.00     0.188 HD
HETATM   22  N15 UNL     1       1.512 -14.608  -4.424  1.00  0.00    -0.310 N 
HETATM   23  C15 UNL     1       2.431 -15.397  -3.837  1.00  0.00     0.179 A 
BRANCH  22  24
HETATM   24  C14 UNL     1       0.793 -13.472  -3.865  1.00  0.00     0.246 C 
HETATM   25 CL1  UNL     1       0.931 -12.092  -4.986  1.00  0.00    -0.108 Cl
ENDBRANCH  22  24
BRANCH  23  26
HETATM   26  C16 UNL     1       2.839 -15.404  -2.447  1.00  0.00     0.184 C 
BRANCH  26  27
HETATM   27  O4  UNL     1       4.093 -15.188  -2.159  1.00  0.00    -0.344 OA
ATOM     28  H4  UNL     1       4.304 -14.560  -1.478  1.00  0.00     0.219 HD
ENDBRANCH  26  27
BRANCH  26  29
HETATM   29  N16 UNL     1       2.043 -15.616  -1.317  1.00  0.00    -0.350 N 
ATOM     30  H16 UNL     1       1.732 -16.556  -1.074  1.00  0.00     0.162 HD
BRANCH  29  31
HETATM   31  C17 UNL     1       1.657 -14.462  -0.477  1.00  0.00     0.241 C 
BRANCH  31  32
HETATM   32  C18 UNL     1       0.178 -14.346  -0.546  1.00  0.00     0.201 C 
HETATM   33  O5  UNL     1      -0.529 -15.195  -1.140  1.00  0.00    -0.646 OA
HETATM   34  O6  UNL     1      -0.438 -13.269   0.061  1.00  0.00    -0.646 OA
ENDBRANCH  31  32
BRANCH  31  35
HETATM   35  C19 UNL     1       2.164 -14.665   0.938  1.00  0.00     0.349 C 
BRANCH  35  36
HETATM   36  N17 UNL     1       1.152 -15.390   1.666  1.00  0.00    -0.051 N 
ATOM     37 3H17 UNL     1       0.326 -15.592   1.102  1.00  0.00     0.277 HD
ATOM     38 2H17 UNL     1       1.420 -16.355   1.863  1.00  0.00     0.277 HD
ATOM     39 1H17 UNL     1       0.936 -14.859   2.509  1.00  0.00     0.277 HD
ENDBRANCH  35  36
BRANCH  35  40
HETATM   40  O7  UNL     1       2.422 -13.408   1.472  1.00  0.00    -0.368 OA
ATOM     41  H7  UNL     1       2.973 -13.532   2.236  1.00  0.00     0.212 HD
ENDBRANCH  35  40
ENDBRANCH  31  35
ENDBRANCH  29  31
ENDBRANCH  26  29
ENDBRANCH  23  26
ENDBRANCH  17  18
ENDBRANCH  16  17
BRANCH   1  42
HETATM   42  C2  UNL     1       4.410 -18.103  -7.583  1.00  0.00     0.255 C 
BRANCH  42  43
HETATM   43  O1  UNL     1       5.062 -19.374  -7.799  1.00  0.00    -0.317 OA
BRANCH  43  44
HETATM   44  C1  UNL     1       5.395 -19.840  -9.046  1.00  0.00     0.225 C 
HETATM   45  N1  UNL     1       4.899 -19.201 -10.052  1.00  0.00    -0.368 N 
ATOM     46  H12 UNL     1       5.146 -19.548 -10.979  1.00  0.00     0.159 HD
ATOM     47  H11 UNL     1       4.297 -18.399  -9.867  1.00  0.00     0.159 HD
HETATM   48  N2  UNL     1       6.240 -20.966  -9.305  1.00  0.00    -0.057 NA
ENDBRANCH  43  44
ENDBRANCH  42  43
ENDBRANCH   1  42
BRANCH  12  49
HETATM   49  N10 UNL     1       7.757 -14.369  -2.423  1.00  0.00    -0.383 N 
ATOM     50 2H10 UNL     1       8.608 -14.582  -1.904  1.00  0.00     0.157 HD
ATOM     51 1H10 UNL     1       7.080 -13.718  -2.025  1.00  0.00     0.157 HD
ENDBRANCH  12  49
BRANCH  11  52
HETATM   52  C7  UNL     1       9.220 -15.531  -8.020  1.00  0.00     0.328 C 
BRANCH  52  53
HETATM   53  O2  UNL     1      10.539 -15.323  -8.493  1.00  0.00    -0.310 OA
BRANCH  53  54
HETATM   54  C8  UNL     1      10.809 -14.609  -9.649  1.00  0.00     0.208 C 
BRANCH  54  55
HETATM   55  N7  UNL     1      11.400 -13.472  -9.476  1.00  0.00    -0.375 N 
ATOM     56  H72 UNL     1      11.028 -12.771  -8.834  1.00  0.00     0.158 HD
ATOM     57  H71 UNL     1      12.251 -13.333 -10.021  1.00  0.00     0.158 HD
ENDBRANCH  54  55
BRANCH  54  58
HETATM   58  C9  UNL     1      10.458 -15.093 -10.986  1.00  0.00     0.310 C 
HETATM   59  O3  UNL     1      11.259 -15.856 -11.609  1.00  0.00    -0.262 OA
HETATM   60  N8  UNL     1       9.223 -14.690 -11.543  1.00  0.00    -0.269 N 
ATOM     61  H8  UNL     1       8.603 -14.077 -11.014  1.00  0.00     0.189 HD
BRANCH  60  62
HETATM   62  N9  UNL     1       8.842 -15.135 -12.835  1.00  0.00    -0.342 N 
ATOM     63  H92 UNL     1       9.432 -15.813 -13.316  1.00  0.00     0.176 HD
ATOM     64  H91 UNL     1       7.991 -14.779 -13.271  1.00  0.00     0.176 HD
ENDBRANCH  60  62
ENDBRANCH  54  58
ENDBRANCH  53  54
ENDBRANCH  52  53
ENDBRANCH  11  52
TORSDOF 21
ENDMDL
MODEL 4
REMARK VINA RESULT: -7.994957815      2.987      8.417
REMARK  21 active torsions:
REMARK  status: ('A' for Active; 'I' for Inactive)
REMARK    1  A    between atoms: C1_4  and  O1_6 
REMARK    2  A    between atoms: O1_6  and  C2_7 
REMARK    3  A    between atoms: C2_7  and  C3_8 
REMARK    4  A    between atoms: N6_18  and  C7_19 
REMARK    5  A    between atoms: C7_19  and  O2_20 
REMARK    6  A    between atoms: O2_20  and  C8_21 
REMARK    7  A    between atoms: C8_21  and  N7_22 
REMARK    8  A    between atoms: C8_21  and  C9_25 
REMARK       I    between atoms: C9_25  and  N8_27 
REMARK    9  A    between atoms: N8_27  and  N9_29 
REMARK   10  A    between atoms: C10_32  and  N10_33 
REMARK   11  A    between atoms: N12_39  and  C12_40 
REMARK   12  A    between atoms: C12_40  and  N13_41 
REMARK   13  A    between atoms: N15_45  and  C14_46 
REMARK   14  A    between atoms: C15_48  and  C16_49 
REMARK   15  A    between atoms: C16_49  and  O4_50 
REMARK   16  A    between atoms: C16_49  and  N16_52 
REMARK   17  A    between atoms: N16_52  and  C17_54 
REMARK   18  A    between atoms: C17_54  and  C18_55 
REMARK   19  A    between atoms: C17_54  and  C19_58 
REMARK   20  A    between atoms: C19_58  and  N17_59 
REMARK   21  A    between atoms: C19_58  and  O7_63 
ROOT
HETATM    1  C3  UNL     1       3.898 -16.971  -2.140  1.00  0.00     0.112 A 
HETATM    2  N3  UNL     1       2.821 -16.290  -1.718  1.00  0.00    -0.339 N 
ATOM      3  H3  UNL     1       2.344 -16.471  -0.835  1.00  0.00     0.167 HD
HETATM    4  C4  UNL     1       2.446 -15.348  -2.584  1.00  0.00     0.109 A 
HETATM    5  C5  UNL     1       1.434 -14.413  -2.632  1.00  0.00     0.117 A 
HETATM    6  C6  UNL     1       1.312 -13.567  -3.712  1.00  0.00     0.124 A 
HETATM    7  N4  UNL     1       0.235 -12.795  -3.440  1.00  0.00    -0.280 N 
ATOM      8  H4  UNL     1      -0.138 -12.057  -4.037  1.00  0.00     0.188 HD
HETATM    9  N5  UNL     1      -0.250 -13.165  -2.265  1.00  0.00    -0.237 N 
ATOM     10  H5  UNL     1      -1.065 -12.744  -1.819  1.00  0.00     0.208 HD
HETATM   11  N6  UNL     1       0.457 -14.150  -1.744  1.00  0.00    -0.249 N 
HETATM   12  C10 UNL     1       2.216 -13.678  -4.734  1.00  0.00     0.131 A 
HETATM   13  N11 UNL     1       3.188 -14.598  -4.653  1.00  0.00    -0.325 N 
ATOM     14  H11 UNL     1       3.845 -14.655  -5.431  1.00  0.00     0.169 HD
HETATM   15  C11 UNL     1       3.367 -15.450  -3.635  1.00  0.00     0.141 A 
HETATM   16  N12 UNL     1       4.222 -16.429  -3.336  1.00  0.00    -0.300 N 
ENDROOT
BRANCH  16  17
HETATM   17  C12 UNL     1       5.354 -16.906  -4.115  1.00  0.00     0.284 C 
BRANCH  17  18
HETATM   18  N13 UNL     1       6.579 -16.237  -3.723  1.00  0.00    -0.253 N 
HETATM   19  N14 UNL     1       7.361 -16.739  -2.730  1.00  0.00    -0.290 N 
HETATM   20  C13 UNL     1       8.367 -15.926  -2.493  1.00  0.00     0.203 A 
ATOM     21  H14 UNL     1       7.192 -17.619  -2.241  1.00  0.00     0.188 HD
HETATM   22  N15 UNL     1       8.231 -14.868  -3.359  1.00  0.00    -0.310 N 
HETATM   23  C15 UNL     1       7.132 -15.076  -4.109  1.00  0.00     0.179 A 
BRANCH  22  24
HETATM   24  C14 UNL     1       9.159 -13.747  -3.390  1.00  0.00     0.246 C 
HETATM   25 CL1  UNL     1       9.203 -12.988  -1.777  1.00  0.00    -0.108 Cl
ENDBRANCH  22  24
BRANCH  23  26
HETATM   26  C16 UNL     1       6.668 -14.299  -5.240  1.00  0.00     0.184 C 
BRANCH  26  27
HETATM   27  O4  UNL     1       5.829 -13.323  -5.029  1.00  0.00    -0.344 OA
ATOM     28  H4  UNL     1       6.168 -12.439  -4.944  1.00  0.00     0.219 HD
ENDBRANCH  26  27
BRANCH  26  29
HETATM   29  N16 UNL     1       7.010 -14.452  -6.587  1.00  0.00    -0.350 N 
ATOM     30  H16 UNL     1       6.377 -14.930  -7.228  1.00  0.00     0.162 HD
BRANCH  29  31
HETATM   31  C17 UNL     1       8.298 -13.913  -7.072  1.00  0.00     0.241 C 
BRANCH  31  32
HETATM   32  C18 UNL     1       9.271 -15.033  -7.066  1.00  0.00     0.201 C 
HETATM   33  O5  UNL     1       8.920 -16.221  -7.268  1.00  0.00    -0.646 OA
HETATM   34  O6  UNL     1      10.605 -14.762  -6.830  1.00  0.00    -0.646 OA
ENDBRANCH  31  32
BRANCH  31  35
HETATM   35  C19 UNL     1       8.113 -13.304  -8.450  1.00  0.00     0.349 C 
BRANCH  35  36
HETATM   36  N17 UNL     1       9.035 -13.958  -9.345  1.00  0.00    -0.051 N 
ATOM     37 3H17 UNL     1       8.844 -14.954  -9.454  1.00  0.00     0.277 HD
ATOM     38 2H17 UNL     1       8.901 -13.688 -10.320  1.00  0.00     0.277 HD
ATOM     39 1H17 UNL     1       9.979 -13.770  -9.008  1.00  0.00     0.277 HD
ENDBRANCH  35  36
BRANCH  35  40
HETATM   40  O7  UNL     1       8.342 -11.938  -8.335  1.00  0.00    -0.368 OA
ATOM     41  H7  UNL     1       9.152 -11.746  -8.792  1.00  0.00     0.212 HD
ENDBRANCH  35  40
ENDBRANCH  31  35
ENDBRANCH  29  31
ENDBRANCH  26  29
ENDBRANCH  23  26
ENDBRANCH  17  18
ENDBRANCH  16  17
BRANCH   1  42
HETATM   42  C2  UNL     1       4.570 -18.103  -1.425  1.00  0.00     0.255 C 
BRANCH  42  43
HETATM   43  O1  UNL     1       5.612 -17.561  -0.584  1.00  0.00    -0.317 OA
BRANCH  43  44
HETATM   44  C1  UNL     1       5.372 -16.627   0.394  1.00  0.00     0.225 C 
HETATM   45  N1  UNL     1       6.221 -15.660   0.486  1.00  0.00    -0.368 N 
ATOM     46  H12 UNL     1       6.044 -14.966   1.213  1.00  0.00     0.159 HD
ATOM     47  H11 UNL     1       7.010 -15.642  -0.161  1.00  0.00     0.159 HD
HETATM   48  N2  UNL     1       4.266 -16.652   1.301  1.00  0.00    -0.057 NA
ENDBRANCH  43  44
ENDBRANCH  42  43
ENDBRANCH   1  42
BRANCH  12  49
HETATM   49  N10 UNL     1       2.116 -12.901  -5.748  1.00  0.00    -0.383 N 
ATOM     50 2H10 UNL     1       2.357 -11.912  -5.686  1.00  0.00     0.157 HD
ATOM     51 1H10 UNL     1       1.789 -13.279  -6.636  1.00  0.00     0.157 HD
ENDBRANCH  12  49
BRANCH  11  52
HETATM   52  C7  UNL     1       0.279 -14.840  -0.487  1.00  0.00     0.328 C 
BRANCH  52  53
HETATM   53  O2  UNL     1       0.552 -13.920   0.555  1.00  0.00    -0.310 OA
BRANCH  53  54
HETATM   54  C8  UNL     1       1.660 -14.037   1.377  1.00  0.00     0.208 C 
BRANCH  54  55
HETATM   55  N7  UNL     1       2.803 -13.854   0.801  1.00  0.00    -0.375 N 
ATOM     56  H72 UNL     1       2.972 -14.165  -0.157  1.00  0.00     0.158 HD
ATOM     57  H71 UNL     1       3.510 -13.384   1.366  1.00  0.00     0.158 HD
ENDBRANCH  54  55
BRANCH  54  58
HETATM   58  C9  UNL     1       1.565 -14.346   2.806  1.00  0.00     0.310 C 
HETATM   59  O3  UNL     1       1.021 -13.512   3.594  1.00  0.00    -0.262 OA
HETATM   60  N8  UNL     1       2.087 -15.577   3.263  1.00  0.00    -0.269 N 
ATOM     61  H8  UNL     1       2.517 -16.223   2.601  1.00  0.00     0.189 HD
BRANCH  60  62
HETATM   62  N9  UNL     1       2.016 -15.917   4.638  1.00  0.00    -0.342 N 
ATOM     63  H92 UNL     1       1.351 -15.424   5.233  1.00  0.00     0.176 HD
ATOM     64  H91 UNL     1       2.622 -16.643   5.020  1.00  0.00     0.176 HD
ENDBRANCH  60  62
ENDBRANCH  54  58
ENDBRANCH  53  54
ENDBRANCH  52  53
ENDBRANCH  11  52
TORSDOF 21
ENDMDL
MODEL 5
REMARK VINA RESULT: -7.994201832      2.887      4.694
REMARK  21 active torsions:
REMARK  status: ('A' for Active; 'I' for Inactive)
REMARK    1  A    between atoms: C1_4  and  O1_6 
REMARK    2  A    between atoms: O1_6  and  C2_7 
REMARK    3  A    between atoms: C2_7  and  C3_8 
REMARK    4  A    between atoms: N6_18  and  C7_19 
REMARK    5  A    between atoms: C7_19  and  O2_20 
REMARK    6  A    between atoms: O2_20  and  C8_21 
REMARK    7  A    between atoms: C8_21  and  N7_22 
REMARK    8  A    between atoms: C8_21  and  C9_25 
REMARK       I    between atoms: C9_25  and  N8_27 
REMARK    9  A    between atoms: N8_27  and  N9_29 
REMARK   10  A    between atoms: C10_32  and  N10_33 
REMARK   11  A    between atoms: N12_39  and  C12_40 
REMARK   12  A    between atoms: C12_40  and  N13_41 
REMARK   13  A    between atoms: N15_45  and  C14_46 
REMARK   14  A    between atoms: C15_48  and  C16_49 
REMARK   15  A    between atoms: C16_49  and  O4_50 
REMARK   16  A    between atoms: C16_49  and  N16_52 
REMARK   17  A    between atoms: N16_52  and  C17_54 
REMARK   18  A    between atoms: C17_54  and  C18_55 
REMARK   19  A    between atoms: C17_54  and  C19_58 
REMARK   20  A    between atoms: C19_58  and  N17_59 
REMARK   21  A    between atoms: C19_58  and  O7_63 
ROOT
HETATM    1  C3  UNL     1       5.391 -17.178  -6.723  1.00  0.00     0.112 A 
HETATM    2  N3  UNL     1       6.550 -16.585  -7.048  1.00  0.00    -0.339 N 
ATOM      3  H3  UNL     1       6.978 -16.642  -7.971  1.00  0.00     0.167 HD
HETATM    4  C4  UNL     1       7.078 -15.911  -6.025  1.00  0.00     0.109 A 
HETATM    5  C5  UNL     1       8.220 -15.162  -5.835  1.00  0.00     0.117 A 
HETATM    6  C6  UNL     1       8.487 -14.591  -4.611  1.00  0.00     0.124 A 
HETATM    7  N4  UNL     1       9.663 -13.941  -4.770  1.00  0.00    -0.280 N 
ATOM      8  H4  UNL     1      10.153 -13.407  -4.053  1.00  0.00     0.188 HD
HETATM    9  N5  UNL     1      10.065 -14.120  -6.019  1.00  0.00    -0.237 N 
ATOM     10  H5  UNL     1      10.926 -13.735  -6.407  1.00  0.00     0.208 HD
HETATM   11  N6  UNL     1       9.209 -14.861  -6.696  1.00  0.00    -0.249 N 
HETATM   12  C10 UNL     1       7.595 -14.784  -3.590  1.00  0.00     0.131 A 
HETATM   13  N11 UNL     1       6.495 -15.518  -3.813  1.00  0.00    -0.325 N 
ATOM     14  H11 UNL     1       5.850 -15.643  -3.032  1.00  0.00     0.169 HD
HETATM   15  C11 UNL     1       6.171 -16.100  -4.974  1.00  0.00     0.141 A 
HETATM   16  N12 UNL     1       5.173 -16.861  -5.427  1.00  0.00    -0.300 N 
ENDROOT
BRANCH  16  17
HETATM   17  C12 UNL     1       3.996 -17.324  -4.708  1.00  0.00     0.284 C 
BRANCH  17  18
HETATM   18  N13 UNL     1       2.933 -16.341  -4.753  1.00  0.00    -0.253 N 
HETATM   19  N14 UNL     1       2.228 -16.127  -5.897  1.00  0.00    -0.290 N 
HETATM   20  C13 UNL     1       1.379 -15.138  -5.726  1.00  0.00     0.203 A 
ATOM     21  H14 UNL     1       2.341 -16.658  -6.761  1.00  0.00     0.188 HD
HETATM   22  N15 UNL     1       1.539 -14.699  -4.433  1.00  0.00    -0.310 N 
HETATM   23  C15 UNL     1       2.494 -15.450  -3.850  1.00  0.00     0.179 A 
BRANCH  22  24
HETATM   24  C14 UNL     1       0.773 -13.597  -3.870  1.00  0.00     0.246 C 
HETATM   25 CL1  UNL     1       0.930 -12.179  -4.939  1.00  0.00    -0.108 Cl
ENDBRANCH  22  24
BRANCH  23  26
HETATM   26  C16 UNL     1       2.905 -15.442  -2.461  1.00  0.00     0.184 C 
BRANCH  26  27
HETATM   27  O4  UNL     1       4.157 -15.208  -2.178  1.00  0.00    -0.344 OA
ATOM     28  H4  UNL     1       4.659 -15.882  -1.735  1.00  0.00     0.219 HD
ENDBRANCH  26  27
BRANCH  26  29
HETATM   29  N16 UNL     1       2.114 -15.655  -1.328  1.00  0.00    -0.350 N 
ATOM     30  H16 UNL     1       1.818 -16.597  -1.076  1.00  0.00     0.162 HD
BRANCH  29  31
HETATM   31  C17 UNL     1       1.711 -14.499  -0.499  1.00  0.00     0.241 C 
BRANCH  31  32
HETATM   32  C18 UNL     1       0.229 -14.424  -0.542  1.00  0.00     0.201 C 
HETATM   33  O5  UNL     1      -0.465 -15.305  -1.106  1.00  0.00    -0.646 OA
HETATM   34  O6  UNL     1      -0.406 -13.353   0.055  1.00  0.00    -0.646 OA
ENDBRANCH  31  32
BRANCH  31  35
HETATM   35  C19 UNL     1       2.249 -14.665   0.910  1.00  0.00     0.349 C 
BRANCH  35  36
HETATM   36  N17 UNL     1       1.272 -15.408   1.667  1.00  0.00    -0.051 N 
ATOM     37 3H17 UNL     1       1.027 -16.299   1.233  1.00  0.00     0.277 HD
ATOM     38 2H17 UNL     1       1.646 -15.782   2.540  1.00  0.00     0.277 HD
ATOM     39 1H17 UNL     1       0.464 -14.801   1.809  1.00  0.00     0.277 HD
ENDBRANCH  35  36
BRANCH  35  40
HETATM   40  O7  UNL     1       2.481 -13.394   1.420  1.00  0.00    -0.368 OA
ATOM     41  H7  UNL     1       3.372 -13.378   1.751  1.00  0.00     0.212 HD
ENDBRANCH  35  40
ENDBRANCH  31  35
ENDBRANCH  29  31
ENDBRANCH  26  29
ENDBRANCH  23  26
ENDBRANCH  17  18
ENDBRANCH  16  17
BRANCH   1  42
HETATM   42  C2  UNL     1       4.543 -18.025  -7.623  1.00  0.00     0.255 C 
BRANCH  42  43
HETATM   43  O1  UNL     1       5.202 -19.297  -7.811  1.00  0.00    -0.317 OA
BRANCH  43  44
HETATM   44  C1  UNL     1       5.449 -19.834  -9.050  1.00  0.00     0.225 C 
HETATM   45  N1  UNL     1       4.903 -19.237 -10.056  1.00  0.00    -0.368 N 
ATOM     46  H12 UNL     1       5.086 -19.636 -10.977  1.00  0.00     0.159 HD
ATOM     47  H11 UNL     1       4.327 -18.414  -9.878  1.00  0.00     0.159 HD
HETATM   48  N2  UNL     1       6.256 -20.989  -9.300  1.00  0.00    -0.057 NA
ENDBRANCH  43  44
ENDBRANCH  42  43
ENDBRANCH   1  42
BRANCH  12  49
HETATM   49  N10 UNL     1       7.829 -14.262  -2.445  1.00  0.00    -0.383 N 
ATOM     50 2H10 UNL     1       8.334 -14.772  -1.721  1.00  0.00     0.157 HD
ATOM     51 1H10 UNL     1       7.504 -13.315  -2.252  1.00  0.00     0.157 HD
ENDBRANCH  12  49
BRANCH  11  52
HETATM   52  C7  UNL     1       9.259 -15.288  -8.077  1.00  0.00     0.328 C 
BRANCH  52  53
HETATM   53  O2  UNL     1      10.607 -15.593  -8.386  1.00  0.00    -0.310 OA
BRANCH  53  54
HETATM   54  C8  UNL     1      11.357 -14.833  -9.269  1.00  0.00     0.208 C 
BRANCH  54  55
HETATM   55  N7  UNL     1      10.677 -14.161 -10.141  1.00  0.00    -0.375 N 
ATOM     56  H72 UNL     1       9.958 -14.605 -10.712  1.00  0.00     0.158 HD
ATOM     57  H71 UNL     1      10.912 -13.171 -10.212  1.00  0.00     0.158 HD
ENDBRANCH  54  55
BRANCH  54  58
HETATM   58  C9  UNL     1      12.819 -14.779  -9.233  1.00  0.00     0.310 C 
HETATM   59  O3  UNL     1      13.403 -13.667  -9.040  1.00  0.00    -0.262 OA
HETATM   60  N8  UNL     1      13.540 -15.980  -9.416  1.00  0.00    -0.269 N 
ATOM     61  H8  UNL     1      13.038 -16.855  -9.568  1.00  0.00     0.189 HD
BRANCH  60  62
HETATM   62  N9  UNL     1      14.958 -15.975  -9.388  1.00  0.00    -0.342 N 
ATOM     63  H92 UNL     1      15.466 -15.718 -10.234  1.00  0.00     0.176 HD
ATOM     64  H91 UNL     1      15.456 -16.224  -8.533  1.00  0.00     0.176 HD
ENDBRANCH  60  62
ENDBRANCH  54  58
ENDBRANCH  53  54
ENDBRANCH  52  53
ENDBRANCH  11  52
TORSDOF 21
ENDMDL
