MODEL 1
REMARK VINA RESULT: -6.320995390      0.000      0.000
REMARK  6 active torsions:
REMARK  status: ('A' for Active; 'I' for Inactive)
REMARK    1  A    between atoms: C2_2  and  C3_3 
REMARK    2  A    between atoms: C3_3  and  C4_4 
REMARK    3  A    between atoms: C3_3  and  N1_6 
REMARK    4  A    between atoms: N1_6  and  C5_7 
REMARK    5  A    between atoms: N1_6  and  C9_11 
REMARK    6  A    between atoms: C5_7  and  C6_8 
ROOT
HETATM    1  N1  UNL     1      -0.208  -0.119   5.062  1.00  0.00    -0.383 N 
ENDROOT
BRANCH   1   2
HETATM    2  C3  UNL     1       0.207   1.082   4.465  1.00  0.00     0.093 C 
BRANCH   2   3
HETATM    3  C2  UNL     1      -0.929   1.933   3.961  1.00  0.00     0.021 C 
HETATM    4  C1  UNL     1      -1.707   2.713   4.948  1.00  0.00     0.007 C 
ENDBRANCH   2   3
BRANCH   2   5
HETATM    5  C4  UNL     1       1.304   1.094   3.487  1.00  0.00     0.111 C 
HETATM    6  S1  UNL     1       1.277   2.477   2.329  1.00  0.00    -0.096 SA
ENDBRANCH   2   5
ENDBRANCH   1   2
BRANCH   1   7
HETATM    7  C5  UNL     1      -0.937  -1.098   4.403  1.00  0.00     0.064 C 
BRANCH   7   8
HETATM    8  C6  UNL     1      -0.425  -1.680   3.127  1.00  0.00     0.024 A 
HETATM    9  C7  UNL     1      -1.482  -2.582   2.453  1.00  0.00     0.010 A 
HETATM   10  C8  UNL     1      -0.899  -1.415   1.775  1.00  0.00     0.010 A 
ENDBRANCH   7   8
ENDBRANCH   1   7
BRANCH   1  11
HETATM   11  C9  UNL     1       0.091  -0.375   6.407  1.00  0.00     0.084 C 
HETATM   12  C10 UNL     1       0.979   0.638   7.085  1.00  0.00     0.025 C 
HETATM   13  C11 UNL     1       1.693  -0.083   8.239  1.00  0.00     0.002 C 
HETATM   14  C12 UNL     1       0.819   0.054   9.453  1.00  0.00     0.000 C 
HETATM   15  C13 UNL     1      -0.113  -1.092   9.605  1.00  0.00     0.000 C 
HETATM   16  C14 UNL     1      -0.657  -1.690   8.359  1.00  0.00     0.002 C 
HETATM   17  C15 UNL     1      -1.100  -0.691   7.309  1.00  0.00     0.025 C 
ENDBRANCH   1  11
TORSDOF 6
ENDMDL
MODEL 2
REMARK VINA RESULT: -6.301286014      1.912      3.596
REMARK  6 active torsions:
REMARK  status: ('A' for Active; 'I' for Inactive)
REMARK    1  A    between atoms: C2_2  and  C3_3 
REMARK    2  A    between atoms: C3_3  and  C4_4 
REMARK    3  A    between atoms: C3_3  and  N1_6 
REMARK    4  A    between atoms: N1_6  and  C5_7 
REMARK    5  A    between atoms: N1_6  and  C9_11 
REMARK    6  A    between atoms: C5_7  and  C6_8 
ROOT
HETATM    1  N1  UNL     1       0.206   0.181   5.070  1.00  0.00    -0.383 N 
ENDROOT
BRANCH   1   2
HETATM    2  C3  UNL     1      -0.186  -1.028   4.470  1.00  0.00     0.093 C 
BRANCH   2   3
HETATM    3  C2  UNL     1       0.968  -1.860   3.978  1.00  0.00     0.021 C 
HETATM    4  C1  UNL     1       1.727  -2.654   4.968  1.00  0.00     0.007 C 
ENDBRANCH   2   3
BRANCH   2   5
HETATM    5  C4  UNL     1      -1.273  -1.056   3.482  1.00  0.00     0.111 C 
HETATM    6  S1  UNL     1      -1.272  -2.493   2.391  1.00  0.00    -0.096 SA
ENDBRANCH   2   5
ENDBRANCH   1   2
BRANCH   1   7
HETATM    7  C5  UNL     1       0.907   1.179   4.412  1.00  0.00     0.064 C 
BRANCH   7   8
HETATM    8  C6  UNL     1       0.416   1.698   3.100  1.00  0.00     0.024 A 
HETATM    9  C7  UNL     1       1.431   2.670   2.462  1.00  0.00     0.010 A 
HETATM   10  C8  UNL     1       0.977   1.451   1.779  1.00  0.00     0.010 A 
ENDBRANCH   7   8
ENDBRANCH   1   7
BRANCH   1  11
HETATM   11  C9  UNL     1      -0.091   0.423   6.419  1.00  0.00     0.084 C 
HETATM   12  C10 UNL     1      -0.906  -0.639   7.112  1.00  0.00     0.025 C 
HETATM   13  C11 UNL     1      -1.647   0.041   8.273  1.00  0.00     0.002 C 
HETATM   14  C12 UNL     1      -0.751  -0.037   9.475  1.00  0.00     0.000 C 
HETATM   15  C13 UNL     1       0.112   1.164   9.611  1.00  0.00     0.000 C 
HETATM   16  C14 UNL     1       0.603   1.788   8.357  1.00  0.00     0.002 C 
HETATM   17  C15 UNL     1       1.091   0.814   7.303  1.00  0.00     0.025 C 
ENDBRANCH   1  11
TORSDOF 6
ENDMDL
MODEL 3
REMARK VINA RESULT: -6.218631068      0.635      1.548
REMARK  6 active torsions:
REMARK  status: ('A' for Active; 'I' for Inactive)
REMARK    1  A    between atoms: C2_2  and  C3_3 
REMARK    2  A    between atoms: C3_3  and  C4_4 
REMARK    3  A    between atoms: C3_3  and  N1_6 
REMARK    4  A    between atoms: N1_6  and  C5_7 
REMARK    5  A    between atoms: N1_6  and  C9_11 
REMARK    6  A    between atoms: C5_7  and  C6_8 
ROOT
HETATM    1  N1  UNL     1       0.043  -0.055   5.080  1.00  0.00    -0.383 N 
ENDROOT
BRANCH   1   2
HETATM    2  C3  UNL     1       0.344   1.139   4.405  1.00  0.00     0.093 C 
BRANCH   2   3
HETATM    3  C2  UNL     1      -0.872   1.887   3.926  1.00  0.00     0.021 C 
HETATM    4  C1  UNL     1      -1.633   2.684   4.913  1.00  0.00     0.007 C 
ENDBRANCH   2   3
BRANCH   2   5
HETATM    5  C4  UNL     1       1.384   1.172   3.366  1.00  0.00     0.111 C 
HETATM    6  S1  UNL     1       1.335   2.615   2.285  1.00  0.00    -0.096 SA
ENDBRANCH   2   5
ENDBRANCH   1   2
BRANCH   1   7
HETATM    7  C5  UNL     1      -0.189  -1.265   4.444  1.00  0.00     0.064 C 
BRANCH   7   8
HETATM    8  C6  UNL     1      -1.337  -1.405   3.500  1.00  0.00     0.024 A 
HETATM    9  C7  UNL     1      -0.859  -1.450   2.032  1.00  0.00     0.010 A 
HETATM   10  C8  UNL     1      -1.644  -2.536   2.635  1.00  0.00     0.010 A 
ENDBRANCH   7   8
ENDBRANCH   1   7
BRANCH   1  11
HETATM   11  C9  UNL     1      -0.060  -0.065   6.478  1.00  0.00     0.084 C 
HETATM   12  C10 UNL     1      -1.316  -0.683   7.038  1.00  0.00     0.025 C 
HETATM   13  C11 UNL     1      -1.555  -0.055   8.420  1.00  0.00     0.002 C 
HETATM   14  C12 UNL     1      -0.835  -0.910   9.423  1.00  0.00     0.000 C 
HETATM   15  C13 UNL     1       0.545  -0.426   9.685  1.00  0.00     0.000 C 
HETATM   16  C14 UNL     1       1.284   0.158   8.538  1.00  0.00     0.002 C 
HETATM   17  C15 UNL     1       1.152  -0.604   7.234  1.00  0.00     0.025 C 
ENDBRANCH   1  11
TORSDOF 6
ENDMDL
MODEL 4
REMARK VINA RESULT: -6.215508006      1.827      3.353
REMARK  6 active torsions:
REMARK  status: ('A' for Active; 'I' for Inactive)
REMARK    1  A    between atoms: C2_2  and  C3_3 
REMARK    2  A    between atoms: C3_3  and  C4_4 
REMARK    3  A    between atoms: C3_3  and  N1_6 
REMARK    4  A    between atoms: N1_6  and  C5_7 
REMARK    5  A    between atoms: N1_6  and  C9_11 
REMARK    6  A    between atoms: C5_7  and  C6_8 
ROOT
HETATM    1  N1  UNL     1       0.086   0.006   5.151  1.00  0.00    -0.383 N 
ENDROOT
BRANCH   1   2
HETATM    2  C3  UNL     1      -0.280  -1.166   4.468  1.00  0.00     0.093 C 
BRANCH   2   3
HETATM    3  C2  UNL     1       0.894  -1.971   3.976  1.00  0.00     0.021 C 
HETATM    4  C1  UNL     1       1.669  -2.749   4.966  1.00  0.00     0.007 C 
ENDBRANCH   2   3
BRANCH   2   5
HETATM    5  C4  UNL     1      -1.326  -1.136   3.435  1.00  0.00     0.111 C 
HETATM    6  S1  UNL     1      -1.313  -2.537   2.298  1.00  0.00    -0.096 SA
ENDBRANCH   2   5
ENDBRANCH   1   2
BRANCH   1   7
HETATM    7  C5  UNL     1       0.425   1.194   4.521  1.00  0.00     0.064 C 
BRANCH   7   8
HETATM    8  C6  UNL     1       1.415   1.192   3.403  1.00  0.00     0.024 A 
HETATM    9  C7  UNL     1       1.107   2.302   2.375  1.00  0.00     0.010 A 
HETATM   10  C8  UNL     1       2.393   2.221   3.080  1.00  0.00     0.010 A 
ENDBRANCH   7   8
ENDBRANCH   1   7
BRANCH   1  11
HETATM   11  C9  UNL     1       0.146   0.012   6.551  1.00  0.00     0.084 C 
HETATM   12  C10 UNL     1       1.346   0.701   7.152  1.00  0.00     0.025 C 
HETATM   13  C11 UNL     1       1.580   0.080   8.538  1.00  0.00     0.002 C 
HETATM   14  C12 UNL     1       0.781   0.883   9.523  1.00  0.00     0.000 C 
HETATM   15  C13 UNL     1      -0.575   0.316   9.740  1.00  0.00     0.000 C 
HETATM   16  C14 UNL     1      -1.243  -0.304   8.568  1.00  0.00     0.002 C 
HETATM   17  C15 UNL     1      -1.118   0.473   7.273  1.00  0.00     0.025 C 
ENDBRANCH   1  11
TORSDOF 6
ENDMDL
MODEL 5
REMARK VINA RESULT: -6.179651362      1.055      1.616
REMARK  6 active torsions:
REMARK  status: ('A' for Active; 'I' for Inactive)
REMARK    1  A    between atoms: C2_2  and  C3_3 
REMARK    2  A    between atoms: C3_3  and  C4_4 
REMARK    3  A    between atoms: C3_3  and  N1_6 
REMARK    4  A    between atoms: N1_6  and  C5_7 
REMARK    5  A    between atoms: N1_6  and  C9_11 
REMARK    6  A    between atoms: C5_7  and  C6_8 
ROOT
HETATM    1  N1  UNL     1       0.415  -0.330   4.568  1.00  0.00    -0.383 N 
ENDROOT
BRANCH   1   2
HETATM    2  C3  UNL     1       0.627   1.004   4.184  1.00  0.00     0.093 C 
BRANCH   2   3
HETATM    3  C2  UNL     1      -0.621   1.705   3.714  1.00  0.00     0.021 C 
HETATM    4  C1  UNL     1      -1.462   2.382   4.724  1.00  0.00     0.007 C 
ENDBRANCH   2   3
BRANCH   2   5
HETATM    5  C4  UNL     1       1.753   1.363   3.310  1.00  0.00     0.111 C 
HETATM    6  S1  UNL     1       1.383   2.617   2.068  1.00  0.00    -0.096 SA
ENDBRANCH   2   5
ENDBRANCH   1   2
BRANCH   1   7
HETATM    7  C5  UNL     1       0.279  -1.380   3.672  1.00  0.00     0.064 C 
BRANCH   7   8
HETATM    8  C6  UNL     1      -0.867  -1.403   2.715  1.00  0.00     0.024 A 
HETATM    9  C7  UNL     1      -1.286  -2.849   2.371  1.00  0.00     0.010 A 
HETATM   10  C8  UNL     1      -2.221  -1.881   2.961  1.00  0.00     0.010 A 
ENDBRANCH   7   8
ENDBRANCH   1   7
BRANCH   1  11
HETATM   11  C9  UNL     1       0.306  -0.661   5.925  1.00  0.00     0.084 C 
HETATM   12  C10 UNL     1      -1.100  -0.820   6.450  1.00  0.00     0.025 C 
HETATM   13  C11 UNL     1      -1.057  -0.536   7.960  1.00  0.00     0.002 C 
HETATM   14  C12 UNL     1      -0.784  -1.843   8.647  1.00  0.00     0.000 C 
HETATM   15  C13 UNL     1       0.667  -2.068   8.870  1.00  0.00     0.000 C 
HETATM   16  C14 UNL     1       1.596  -1.569   7.826  1.00  0.00     0.002 C 
HETATM   17  C15 UNL     1       1.160  -1.835   6.399  1.00  0.00     0.025 C 
ENDBRANCH   1  11
TORSDOF 6
ENDMDL
