MODEL 1
REMARK VINA RESULT: -8.582863609      0.000      0.000
REMARK  14 active torsions:
REMARK  status: ('A' for Active; 'I' for Inactive)
REMARK    1  A    between atoms: C2_2  and  C3_3 
REMARK    2  A    between atoms: C3_3  and  C4_4 
REMARK    3  A    between atoms: C4_4  and  N1_5 
REMARK    4  A    between atoms: C4_4  and  C27_38 
REMARK       I    between atoms: N1_5  and  C5_7 
REMARK    5  A    between atoms: C5_7  and  C6_9 
REMARK    6  A    between atoms: N2_13  and  C10_14 
REMARK    7  A    between atoms: C10_14  and  C11_15 
REMARK    8  A    between atoms: C10_14  and  C15_22 
REMARK    9  A    between atoms: C11_15  and  C12_16 
REMARK   10  A    between atoms: C12_16  and  S1_17 
REMARK   11  A    between atoms: S1_17  and  C13_20 
REMARK       I    between atoms: C15_22  and  N3_24 
REMARK   12  A    between atoms: C23_32  and  C24_33 
REMARK   13  A    between atoms: C27_38  and  O7_39 
REMARK   14  A    between atoms: C27_38  and  C28_41 
ROOT
HETATM    1  C10 UNL     1      14.802  21.237  17.319  1.00  0.00     0.315 C 
ENDROOT
BRANCH   1   2
HETATM    2  N2  UNL     1      15.212  20.769  15.982  1.00  0.00     0.103 N 
HETATM    3  C9  UNL     1      15.856  21.892  15.347  1.00  0.00     0.273 C 
HETATM    4  C8  UNL     1      15.324  22.142  13.951  1.00  0.00     0.031 C 
HETATM    5  C7  UNL     1      13.857  22.443  14.130  1.00  0.00     0.017 C 
HETATM    6  C6  UNL     1      13.185  21.209  14.655  1.00  0.00     0.106 C 
HETATM    7  C26 UNL     1      14.148  20.219  15.231  1.00  0.00     0.287 C 
BRANCH   6   8
HETATM    8  C5  UNL     1      12.336  20.634  13.593  1.00  0.00     0.224 C 
HETATM    9  N1  UNL     1      10.938  20.648  13.591  1.00  0.00    -0.353 N 
ATOM     10  H1  UNL     1      10.458  21.086  14.378  1.00  0.00     0.163 HD
HETATM   11  O1  UNL     1      12.904  20.082  12.601  1.00  0.00    -0.273 OA
BRANCH   9  12
HETATM   12  C4  UNL     1      10.118  20.061  12.508  1.00  0.00     0.123 C 
BRANCH  12  13
HETATM   13  C3  UNL     1       8.958  20.874  12.105  1.00  0.00     0.028 C 
BRANCH  13  14
HETATM   14  C2  UNL     1       8.757  22.069  12.974  1.00  0.00    -0.002 C 
HETATM   15  C1  UNL     1       7.728  23.029  12.438  1.00  0.00     0.005 C 
ENDBRANCH  13  14
ENDBRANCH  12  13
BRANCH  12  16
HETATM   16  C27 UNL     1       9.673  18.736  13.087  1.00  0.00     0.241 C 
BRANCH  16  17
HETATM   17  O7  UNL     1       8.574  18.336  12.464  1.00  0.00    -0.383 OA
ATOM     18  H7  UNL     1       7.915  18.111  13.109  1.00  0.00     0.210 HD
ENDBRANCH  16  17
BRANCH  16  19
HETATM   19  C28 UNL     1      10.161  17.901  14.075  1.00  0.00     0.205 C 
HETATM   20  O8  UNL     1      11.238  17.292  14.133  1.00  0.00    -0.646 OA
HETATM   21  O9  UNL     1       9.337  17.672  15.222  1.00  0.00    -0.646 OA
ENDBRANCH  16  19
ENDBRANCH  12  16
ENDBRANCH   9  12
ENDBRANCH   6   8
ENDBRANCH   1   2
BRANCH   1  22
HETATM   22  C11 UNL     1      14.171  19.957  17.939  1.00  0.00     0.060 C 
BRANCH  22  23
HETATM   23  C12 UNL     1      12.974  20.246  18.760  1.00  0.00     0.143 C 
BRANCH  23  24
HETATM   24  S1  UNL     1      11.933  18.844  18.916  1.00  0.00     0.144 S 
HETATM   25  O2  UNL     1      11.358  18.778  20.342  1.00  0.00    -0.228 OA
HETATM   26  O3  UNL     1      10.674  19.040  18.058  1.00  0.00    -0.228 OA
BRANCH  24  27
HETATM   27  C13 UNL     1      12.610  17.305  18.453  1.00  0.00     0.136 C 
HETATM   28  C14 UNL     1      11.636  16.476  17.673  1.00  0.00     0.021 C 
ENDBRANCH  24  27
ENDBRANCH  23  24
ENDBRANCH  22  23
ENDBRANCH   1  22
BRANCH   1  29
HETATM   29  C15 UNL     1      15.964  21.649  18.116  1.00  0.00     0.253 C 
HETATM   30  O4  UNL     1      16.601  20.693  18.689  1.00  0.00    -0.271 OA
HETATM   31  N3  UNL     1      16.460  22.950  18.325  1.00  0.00    -0.349 N 
HETATM   32  C16 UNL     1      15.939  24.160  17.742  1.00  0.00     0.126 C 
HETATM   33  C25 UNL     1      17.607  23.144  19.210  1.00  0.00     0.141 C 
HETATM   34  C17 UNL     1      16.975  25.267  17.934  1.00  0.00     0.030 C 
HETATM   35  C18 UNL     1      18.307  24.765  17.436  1.00  0.00    -0.024 C 
HETATM   36  C19 UNL     1      18.101  24.207  16.032  1.00  0.00     0.010 C 
HETATM   37  C22 UNL     1      19.278  25.907  17.261  1.00  0.00     0.010 C 
HETATM   38  C23 UNL     1      18.763  23.673  18.337  1.00  0.00     0.113 C 
HETATM   39  C20 UNL     1      19.409  24.460  15.309  1.00  0.00     0.001 C 
HETATM   40  C21 UNL     1      20.080  25.611  16.024  1.00  0.00     0.001 C 
BRANCH  38  41
HETATM   41  C24 UNL     1      19.912  23.998  19.202  1.00  0.00     0.179 C 
HETATM   42  O5  UNL     1      21.078  23.678  18.853  1.00  0.00    -0.648 OA
HETATM   43  O6  UNL     1      19.720  24.664  20.415  1.00  0.00    -0.648 OA
ENDBRANCH  38  41
ENDBRANCH   1  29
TORSDOF 14
ENDMDL
MODEL 2
REMARK VINA RESULT: -8.461977280      1.632      2.087
REMARK  14 active torsions:
REMARK  status: ('A' for Active; 'I' for Inactive)
REMARK    1  A    between atoms: C2_2  and  C3_3 
REMARK    2  A    between atoms: C3_3  and  C4_4 
REMARK    3  A    between atoms: C4_4  and  N1_5 
REMARK    4  A    between atoms: C4_4  and  C27_38 
REMARK       I    between atoms: N1_5  and  C5_7 
REMARK    5  A    between atoms: C5_7  and  C6_9 
REMARK    6  A    between atoms: N2_13  and  C10_14 
REMARK    7  A    between atoms: C10_14  and  C11_15 
REMARK    8  A    between atoms: C10_14  and  C15_22 
REMARK    9  A    between atoms: C11_15  and  C12_16 
REMARK   10  A    between atoms: C12_16  and  S1_17 
REMARK   11  A    between atoms: S1_17  and  C13_20 
REMARK       I    between atoms: C15_22  and  N3_24 
REMARK   12  A    between atoms: C23_32  and  C24_33 
REMARK   13  A    between atoms: C27_38  and  O7_39 
REMARK   14  A    between atoms: C27_38  and  C28_41 
ROOT
HETATM    1  C10 UNL     1      16.068  21.721  17.910  1.00  0.00     0.315 C 
ENDROOT
BRANCH   1   2
HETATM    2  N2  UNL     1      16.116  21.767  16.437  1.00  0.00     0.103 N 
HETATM    3  C9  UNL     1      16.305  23.152  16.086  1.00  0.00     0.273 C 
HETATM    4  C8  UNL     1      15.322  23.613  15.029  1.00  0.00     0.031 C 
HETATM    5  C7  UNL     1      13.957  23.435  15.648  1.00  0.00     0.017 C 
HETATM    6  C6  UNL     1      13.728  21.969  15.867  1.00  0.00     0.106 C 
HETATM    7  C26 UNL     1      14.992  21.167  15.822  1.00  0.00     0.287 C 
BRANCH   6   8
HETATM    8  C5  UNL     1      12.711  21.492  14.910  1.00  0.00     0.224 C 
HETATM    9  N1  UNL     1      11.330  21.567  15.108  1.00  0.00    -0.353 N 
ATOM     10  H1  UNL     1      10.987  21.981  15.975  1.00  0.00     0.163 HD
HETATM   11  O1  UNL     1      13.105  20.970  13.821  1.00  0.00    -0.273 OA
BRANCH   9  12
HETATM   12  C4  UNL     1      10.337  21.077  14.125  1.00  0.00     0.123 C 
BRANCH  12  13
HETATM   13  C3  UNL     1       9.174  21.960  13.933  1.00  0.00     0.028 C 
BRANCH  13  14
HETATM   14  C2  UNL     1       8.546  21.809  12.589  1.00  0.00    -0.002 C 
HETATM   15  C1  UNL     1       7.629  22.948  12.229  1.00  0.00     0.005 C 
ENDBRANCH  13  14
ENDBRANCH  12  13
BRANCH  12  16
HETATM   16  C27 UNL     1       9.912  19.742  14.695  1.00  0.00     0.241 C 
BRANCH  16  17
HETATM   17  O7  UNL     1       8.995  19.942  15.631  1.00  0.00    -0.383 OA
ATOM     18  H7  UNL     1       8.870  19.137  16.121  1.00  0.00     0.210 HD
ENDBRANCH  16  17
BRANCH  16  19
HETATM   19  C28 UNL     1      10.262  18.428  14.444  1.00  0.00     0.205 C 
HETATM   20  O8  UNL     1      11.274  17.972  13.896  1.00  0.00    -0.646 OA
HETATM   21  O9  UNL     1       9.351  17.405  14.857  1.00  0.00    -0.646 OA
ENDBRANCH  16  19
ENDBRANCH  12  16
ENDBRANCH   9  12
ENDBRANCH   6   8
ENDBRANCH   1   2
BRANCH   1  22
HETATM   22  C11 UNL     1      15.324  20.381  18.178  1.00  0.00     0.060 C 
BRANCH  22  23
HETATM   23  C12 UNL     1      14.390  20.462  19.322  1.00  0.00     0.143 C 
BRANCH  23  24
HETATM   24  S1  UNL     1      13.168  19.207  19.260  1.00  0.00     0.144 S 
HETATM   25  O2  UNL     1      13.840  17.833  19.088  1.00  0.00    -0.228 OA
HETATM   26  O3  UNL     1      12.492  19.077  20.634  1.00  0.00    -0.228 OA
BRANCH  24  27
HETATM   27  C13 UNL     1      11.885  19.414  18.097  1.00  0.00     0.136 C 
HETATM   28  C14 UNL     1      10.894  18.291  18.150  1.00  0.00     0.021 C 
ENDBRANCH  24  27
ENDBRANCH  23  24
ENDBRANCH  22  23
ENDBRANCH   1  22
BRANCH   1  29
HETATM   29  C15 UNL     1      17.419  21.656  18.481  1.00  0.00     0.253 C 
HETATM   30  O4  UNL     1      18.117  20.639  18.123  1.00  0.00    -0.271 OA
HETATM   31  N3  UNL     1      18.038  22.563  19.363  1.00  0.00    -0.349 N 
HETATM   32  C16 UNL     1      17.466  23.791  19.854  1.00  0.00     0.126 C 
HETATM   33  C25 UNL     1      19.382  22.275  19.860  1.00  0.00     0.141 C 
HETATM   34  C17 UNL     1      18.588  24.626  20.471  1.00  0.00     0.030 C 
HETATM   35  C18 UNL     1      19.713  24.725  19.472  1.00  0.00    -0.024 C 
HETATM   36  C19 UNL     1      19.121  25.183  18.144  1.00  0.00     0.010 C 
HETATM   37  C22 UNL     1      20.681  25.815  19.862  1.00  0.00     0.010 C 
HETATM   38  C23 UNL     1      20.310  23.373  19.303  1.00  0.00     0.113 C 
HETATM   39  C20 UNL     1      20.216  25.994  17.481  1.00  0.00     0.001 C 
HETATM   40  C21 UNL     1      21.122  26.483  18.589  1.00  0.00     0.001 C 
BRANCH  38  41
HETATM   41  C24 UNL     1      21.660  23.197  19.871  1.00  0.00     0.179 C 
HETATM   42  O5  UNL     1      21.800  22.849  21.072  1.00  0.00    -0.648 OA
HETATM   43  O6  UNL     1      22.794  23.412  19.084  1.00  0.00    -0.648 OA
ENDBRANCH  38  41
ENDBRANCH   1  29
TORSDOF 14
ENDMDL
MODEL 3
REMARK VINA RESULT: -8.401793625      2.103      4.357
REMARK  14 active torsions:
REMARK  status: ('A' for Active; 'I' for Inactive)
REMARK    1  A    between atoms: C2_2  and  C3_3 
REMARK    2  A    between atoms: C3_3  and  C4_4 
REMARK    3  A    between atoms: C4_4  and  N1_5 
REMARK    4  A    between atoms: C4_4  and  C27_38 
REMARK       I    between atoms: N1_5  and  C5_7 
REMARK    5  A    between atoms: C5_7  and  C6_9 
REMARK    6  A    between atoms: N2_13  and  C10_14 
REMARK    7  A    between atoms: C10_14  and  C11_15 
REMARK    8  A    between atoms: C10_14  and  C15_22 
REMARK    9  A    between atoms: C11_15  and  C12_16 
REMARK   10  A    between atoms: C12_16  and  S1_17 
REMARK   11  A    between atoms: S1_17  and  C13_20 
REMARK       I    between atoms: C15_22  and  N3_24 
REMARK   12  A    between atoms: C23_32  and  C24_33 
REMARK   13  A    between atoms: C27_38  and  O7_39 
REMARK   14  A    between atoms: C27_38  and  C28_41 
ROOT
HETATM    1  C10 UNL     1      15.700  21.145  18.001  1.00  0.00     0.315 C 
ENDROOT
BRANCH   1   2
HETATM    2  N2  UNL     1      14.485  21.181  18.837  1.00  0.00     0.103 N 
HETATM    3  C9  UNL     1      14.821  20.495  20.058  1.00  0.00     0.273 C 
HETATM    4  C8  UNL     1      13.785  19.454  20.432  1.00  0.00     0.031 C 
HETATM    5  C7  UNL     1      13.779  18.468  19.290  1.00  0.00     0.017 C 
HETATM    6  C6  UNL     1      13.286  19.174  18.062  1.00  0.00     0.106 C 
HETATM    7  C26 UNL     1      13.342  20.666  18.184  1.00  0.00     0.287 C 
BRANCH   6   8
HETATM    8  C5  UNL     1      11.938  18.675  17.728  1.00  0.00     0.224 C 
HETATM    9  N1  UNL     1      11.663  17.689  16.777  1.00  0.00    -0.353 N 
ATOM     10  H1  UNL     1      12.446  17.275  16.270  1.00  0.00     0.163 HD
HETATM   11  O1  UNL     1      10.942  19.171  18.341  1.00  0.00    -0.273 OA
BRANCH   9  12
HETATM   12  C4  UNL     1      10.296  17.212  16.467  1.00  0.00     0.123 C 
BRANCH  12  13
HETATM   13  C3  UNL     1      10.195  15.767  16.199  1.00  0.00     0.028 C 
BRANCH  13  14
HETATM   14  C2  UNL     1      10.536  14.931  17.385  1.00  0.00    -0.002 C 
HETATM   15  C1  UNL     1       9.781  13.629  17.433  1.00  0.00     0.005 C 
ENDBRANCH  13  14
ENDBRANCH  12  13
BRANCH  12  16
HETATM   16  C27 UNL     1       9.917  18.016  15.244  1.00  0.00     0.241 C 
BRANCH  16  17
HETATM   17  O7  UNL     1       9.303  19.127  15.627  1.00  0.00    -0.383 OA
ATOM     18  H7  UNL     1       8.777  19.456  14.908  1.00  0.00     0.210 HD
ENDBRANCH  16  17
BRANCH  16  19
HETATM   19  C28 UNL     1      10.080  17.840  13.882  1.00  0.00     0.205 C 
HETATM   20  O8  UNL     1       9.245  17.911  12.971  1.00  0.00    -0.646 OA
HETATM   21  O9  UNL     1      11.391  17.527  13.403  1.00  0.00    -0.646 OA
ENDBRANCH  16  19
ENDBRANCH  12  16
ENDBRANCH   9  12
ENDBRANCH   6   8
ENDBRANCH   1   2
BRANCH   1  22
HETATM   22  C11 UNL     1      15.271  21.971  16.754  1.00  0.00     0.060 C 
BRANCH  22  23
HETATM   23  C12 UNL     1      15.897  21.490  15.503  1.00  0.00     0.143 C 
BRANCH  23  24
HETATM   24  S1  UNL     1      14.792  21.571  14.145  1.00  0.00     0.144 S 
HETATM   25  O2  UNL     1      14.149  22.968  14.078  1.00  0.00    -0.228 OA
HETATM   26  O3  UNL     1      15.586  21.507  12.831  1.00  0.00    -0.228 OA
BRANCH  24  27
HETATM   27  C13 UNL     1      13.573  20.328  14.045  1.00  0.00     0.136 C 
HETATM   28  C14 UNL     1      12.228  20.825  14.480  1.00  0.00     0.021 C 
ENDBRANCH  24  27
ENDBRANCH  23  24
ENDBRANCH  22  23
ENDBRANCH   1  22
BRANCH   1  29
HETATM   29  C15 UNL     1      16.824  21.811  18.671  1.00  0.00     0.253 C 
HETATM   30  O4  UNL     1      17.570  21.043  19.380  1.00  0.00    -0.271 OA
HETATM   31  N3  UNL     1      17.181  23.171  18.630  1.00  0.00    -0.349 N 
HETATM   32  C16 UNL     1      16.522  24.198  17.863  1.00  0.00     0.126 C 
HETATM   33  C25 UNL     1      18.315  23.638  19.425  1.00  0.00     0.141 C 
HETATM   34  C17 UNL     1      17.436  25.423  17.820  1.00  0.00     0.030 C 
HETATM   35  C18 UNL     1      18.806  24.979  17.370  1.00  0.00    -0.024 C 
HETATM   36  C19 UNL     1      18.637  24.161  16.095  1.00  0.00     0.010 C 
HETATM   37  C22 UNL     1      19.645  26.165  16.962  1.00  0.00     0.010 C 
HETATM   38  C23 UNL     1      19.393  24.118  18.432  1.00  0.00     0.113 C 
HETATM   39  C20 UNL     1      19.898  24.414  15.292  1.00  0.00     0.001 C 
HETATM   40  C21 UNL     1      20.454  25.737  15.768  1.00  0.00     0.001 C 
BRANCH  38  41
HETATM   41  C24 UNL     1      20.514  24.710  19.185  1.00  0.00     0.179 C 
HETATM   42  O5  UNL     1      21.701  24.470  18.843  1.00  0.00    -0.648 OA
HETATM   43  O6  UNL     1      20.272  25.541  20.281  1.00  0.00    -0.648 OA
ENDBRANCH  38  41
ENDBRANCH   1  29
TORSDOF 14
ENDMDL
MODEL 4
REMARK VINA RESULT: -8.290288410      1.446      2.251
REMARK  14 active torsions:
REMARK  status: ('A' for Active; 'I' for Inactive)
REMARK    1  A    between atoms: C2_2  and  C3_3 
REMARK    2  A    between atoms: C3_3  and  C4_4 
REMARK    3  A    between atoms: C4_4  and  N1_5 
REMARK    4  A    between atoms: C4_4  and  C27_38 
REMARK       I    between atoms: N1_5  and  C5_7 
REMARK    5  A    between atoms: C5_7  and  C6_9 
REMARK    6  A    between atoms: N2_13  and  C10_14 
REMARK    7  A    between atoms: C10_14  and  C11_15 
REMARK    8  A    between atoms: C10_14  and  C15_22 
REMARK    9  A    between atoms: C11_15  and  C12_16 
REMARK   10  A    between atoms: C12_16  and  S1_17 
REMARK   11  A    between atoms: S1_17  and  C13_20 
REMARK       I    between atoms: C15_22  and  N3_24 
REMARK   12  A    between atoms: C23_32  and  C24_33 
REMARK   13  A    between atoms: C27_38  and  O7_39 
REMARK   14  A    between atoms: C27_38  and  C28_41 
ROOT
HETATM    1  C10 UNL     1      14.706  21.056  17.347  1.00  0.00     0.315 C 
ENDROOT
BRANCH   1   2
HETATM    2  N2  UNL     1      14.798  20.756  15.906  1.00  0.00     0.103 N 
HETATM    3  C9  UNL     1      15.029  22.018  15.250  1.00  0.00     0.273 C 
HETATM    4  C8  UNL     1      14.090  22.236  14.081  1.00  0.00     0.031 C 
HETATM    5  C7  UNL     1      12.703  22.229  14.677  1.00  0.00     0.017 C 
HETATM    6  C6  UNL     1      12.434  20.859  15.223  1.00  0.00     0.106 C 
HETATM    7  C26 UNL     1      13.678  20.048  15.409  1.00  0.00     0.287 C 
BRANCH   6   8
HETATM    8  C5  UNL     1      11.434  20.188  14.369  1.00  0.00     0.224 C 
HETATM    9  N1  UNL     1      10.874  20.735  13.212  1.00  0.00    -0.353 N 
ATOM     10  H1  UNL     1      11.171  21.668  12.927  1.00  0.00     0.163 HD
HETATM   11  O1  UNL     1      11.044  19.025  14.699  1.00  0.00    -0.273 OA
BRANCH   9  12
HETATM   12  C4  UNL     1       9.872  20.032  12.379  1.00  0.00     0.123 C 
BRANCH  12  13
HETATM   13  C3  UNL     1      10.354  19.627  11.048  1.00  0.00     0.028 C 
BRANCH  13  14
HETATM   14  C2  UNL     1      11.478  18.649  11.111  1.00  0.00    -0.002 C 
HETATM   15  C1  UNL     1      11.058  17.291  11.608  1.00  0.00     0.005 C 
ENDBRANCH  13  14
ENDBRANCH  12  13
BRANCH  12  16
HETATM   16  C27 UNL     1       8.748  21.038  12.263  1.00  0.00     0.241 C 
BRANCH  16  17
HETATM   17  O7  UNL     1       7.955  20.689  11.261  1.00  0.00    -0.383 OA
ATOM     18  H7  UNL     1       8.468  20.240  10.599  1.00  0.00     0.210 HD
ENDBRANCH  16  17
BRANCH  16  19
HETATM   19  C28 UNL     1       8.398  22.180  12.959  1.00  0.00     0.205 C 
HETATM   20  O8  UNL     1       7.886  23.230  12.548  1.00  0.00    -0.646 OA
HETATM   21  O9  UNL     1       8.642  22.202  14.369  1.00  0.00    -0.646 OA
ENDBRANCH  16  19
ENDBRANCH  12  16
ENDBRANCH   9  12
ENDBRANCH   6   8
ENDBRANCH   1   2
BRANCH   1  22
HETATM   22  C11 UNL     1      14.335  19.671  17.952  1.00  0.00     0.060 C 
BRANCH  22  23
HETATM   23  C12 UNL     1      13.485  19.780  19.158  1.00  0.00     0.143 C 
BRANCH  23  24
HETATM   24  S1  UNL     1      12.052  18.776  19.042  1.00  0.00     0.144 S 
HETATM   25  O2  UNL     1      11.308  18.773  20.389  1.00  0.00    -0.228 OA
HETATM   26  O3  UNL     1      11.035  19.439  18.101  1.00  0.00    -0.228 OA
BRANCH  24  27
HETATM   27  C13 UNL     1      12.276  17.148  18.458  1.00  0.00     0.136 C 
HETATM   28  C14 UNL     1      11.183  16.734  17.520  1.00  0.00     0.021 C 
ENDBRANCH  24  27
ENDBRANCH  23  24
ENDBRANCH  22  23
ENDBRANCH   1  22
BRANCH   1  29
HETATM   29  C15 UNL     1      16.001  21.495  17.880  1.00  0.00     0.253 C 
HETATM   30  O4  UNL     1      16.848  20.556  18.102  1.00  0.00    -0.271 OA
HETATM   31  N3  UNL     1      16.424  22.805  18.174  1.00  0.00    -0.349 N 
HETATM   32  C16 UNL     1      15.663  24.010  17.957  1.00  0.00     0.126 C 
HETATM   33  C25 UNL     1      17.747  23.017  18.758  1.00  0.00     0.141 C 
HETATM   34  C17 UNL     1      16.615  25.201  18.064  1.00  0.00     0.030 C 
HETATM   35  C18 UNL     1      17.800  24.947  17.166  1.00  0.00    -0.024 C 
HETATM   36  C19 UNL     1      17.269  24.571  15.787  1.00  0.00     0.010 C 
HETATM   37  C22 UNL     1      18.586  26.216  16.946  1.00  0.00     0.010 C 
HETATM   38  C23 UNL     1      18.574  23.805  17.722  1.00  0.00     0.113 C 
HETATM   39  C20 UNL     1      18.305  25.087  14.809  1.00  0.00     0.001 C 
HETATM   40  C21 UNL     1      19.046  26.202  15.514  1.00  0.00     0.001 C 
BRANCH  38  41
HETATM   41  C24 UNL     1      19.882  24.148  18.310  1.00  0.00     0.179 C 
HETATM   42  O5  UNL     1      20.900  24.239  17.575  1.00  0.00    -0.648 OA
HETATM   43  O6  UNL     1      20.006  24.376  19.682  1.00  0.00    -0.648 OA
ENDBRANCH  38  41
ENDBRANCH   1  29
TORSDOF 14
ENDMDL
MODEL 5
REMARK VINA RESULT: -8.281217283      2.066      2.911
REMARK  14 active torsions:
REMARK  status: ('A' for Active; 'I' for Inactive)
REMARK    1  A    between atoms: C2_2  and  C3_3 
REMARK    2  A    between atoms: C3_3  and  C4_4 
REMARK    3  A    between atoms: C4_4  and  N1_5 
REMARK    4  A    between atoms: C4_4  and  C27_38 
REMARK       I    between atoms: N1_5  and  C5_7 
REMARK    5  A    between atoms: C5_7  and  C6_9 
REMARK    6  A    between atoms: N2_13  and  C10_14 
REMARK    7  A    between atoms: C10_14  and  C11_15 
REMARK    8  A    between atoms: C10_14  and  C15_22 
REMARK    9  A    between atoms: C11_15  and  C12_16 
REMARK   10  A    between atoms: C12_16  and  S1_17 
REMARK   11  A    between atoms: S1_17  and  C13_20 
REMARK       I    between atoms: C15_22  and  N3_24 
REMARK   12  A    between atoms: C23_32  and  C24_33 
REMARK   13  A    between atoms: C27_38  and  O7_39 
REMARK   14  A    between atoms: C27_38  and  C28_41 
ROOT
HETATM    1  C10 UNL     1      17.050  22.153  18.474  1.00  0.00     0.315 C 
ENDROOT
BRANCH   1   2
HETATM    2  N2  UNL     1      17.075  22.108  17.001  1.00  0.00     0.103 N 
HETATM    3  C9  UNL     1      17.221  23.474  16.563  1.00  0.00     0.273 C 
HETATM    4  C8  UNL     1      16.211  23.843  15.495  1.00  0.00     0.031 C 
HETATM    5  C7  UNL     1      14.861  23.667  16.144  1.00  0.00     0.017 C 
HETATM    6  C6  UNL     1      14.675  22.212  16.457  1.00  0.00     0.106 C 
HETATM    7  C26 UNL     1      15.959  21.443  16.442  1.00  0.00     0.287 C 
BRANCH   6   8
HETATM    8  C5  UNL     1      13.658  21.650  15.548  1.00  0.00     0.224 C 
HETATM    9  N1  UNL     1      12.360  21.292  15.923  1.00  0.00    -0.353 N 
ATOM     10  H1  UNL     1      12.085  21.425  16.896  1.00  0.00     0.163 HD
HETATM   11  O1  UNL     1      13.971  21.471  14.330  1.00  0.00    -0.273 OA
BRANCH   9  12
HETATM   12  C4  UNL     1      11.365  20.729  14.982  1.00  0.00     0.123 C 
BRANCH  12  13
HETATM   13  C3  UNL     1      10.568  21.733  14.257  1.00  0.00     0.028 C 
BRANCH  13  14
HETATM   14  C2  UNL     1       9.677  21.131  13.224  1.00  0.00    -0.002 C 
HETATM   15  C1  UNL     1       8.545  22.035  12.815  1.00  0.00     0.005 C 
ENDBRANCH  13  14
ENDBRANCH  12  13
BRANCH  12  16
HETATM   16  C27 UNL     1      10.484  19.882  15.874  1.00  0.00     0.241 C 
BRANCH  16  17
HETATM   17  O7  UNL     1       9.992  20.640  16.844  1.00  0.00    -0.383 OA
ATOM     18  H7  UNL     1       9.044  20.575  16.839  1.00  0.00     0.210 HD
ENDBRANCH  16  17
BRANCH  16  19
HETATM   19  C28 UNL     1      10.102  18.554  15.875  1.00  0.00     0.205 C 
HETATM   20  O8  UNL     1       9.420  17.928  15.052  1.00  0.00    -0.646 OA
HETATM   21  O9  UNL     1      10.533  17.737  16.967  1.00  0.00    -0.646 OA
ENDBRANCH  16  19
ENDBRANCH  12  16
ENDBRANCH   9  12
ENDBRANCH   6   8
ENDBRANCH   1   2
BRANCH   1  22
HETATM   22  C11 UNL     1      16.328  20.823  18.836  1.00  0.00     0.060 C 
BRANCH  22  23
HETATM   23  C12 UNL     1      15.071  21.037  19.586  1.00  0.00     0.143 C 
BRANCH  23  24
HETATM   24  S1  UNL     1      13.907  19.759  19.292  1.00  0.00     0.144 S 
HETATM   25  O2  UNL     1      12.669  20.335  18.583  1.00  0.00    -0.228 OA
HETATM   26  O3  UNL     1      14.467  18.785  18.244  1.00  0.00    -0.228 OA
BRANCH  24  27
HETATM   27  C13 UNL     1      13.437  18.790  20.664  1.00  0.00     0.136 C 
HETATM   28  C14 UNL     1      12.560  17.643  20.265  1.00  0.00     0.021 C 
ENDBRANCH  24  27
ENDBRANCH  23  24
ENDBRANCH  22  23
ENDBRANCH   1  22
BRANCH   1  29
HETATM   29  C15 UNL     1      18.409  22.141  19.028  1.00  0.00     0.253 C 
HETATM   30  O4  UNL     1      19.074  21.061  18.825  1.00  0.00    -0.271 OA
HETATM   31  N3  UNL     1      19.068  23.158  19.746  1.00  0.00    -0.349 N 
HETATM   32  C16 UNL     1      18.537  24.464  20.044  1.00  0.00     0.126 C 
HETATM   33  C25 UNL     1      20.414  22.915  20.261  1.00  0.00     0.141 C 
HETATM   34  C17 UNL     1      19.692  25.355  20.504  1.00  0.00     0.030 C 
HETATM   35  C18 UNL     1      20.800  25.262  19.485  1.00  0.00    -0.024 C 
HETATM   36  C19 UNL     1      20.194  25.521  18.110  1.00  0.00     0.010 C 
HETATM   37  C22 UNL     1      21.802  26.372  19.682  1.00  0.00     0.010 C 
HETATM   38  C23 UNL     1      21.359  23.884  19.523  1.00  0.00     0.113 C 
HETATM   39  C20 UNL     1      21.296  26.186  17.310  1.00  0.00     0.001 C 
HETATM   40  C21 UNL     1      22.235  26.818  18.312  1.00  0.00     0.001 C 
BRANCH  38  41
HETATM   41  C24 UNL     1      22.715  23.762  20.090  1.00  0.00     0.179 C 
HETATM   42  O5  UNL     1      22.887  23.831  21.335  1.00  0.00    -0.648 OA
HETATM   43  O6  UNL     1      23.818  23.569  19.256  1.00  0.00    -0.648 OA
ENDBRANCH  38  41
ENDBRANCH   1  29
TORSDOF 14
ENDMDL
