MODEL 1
REMARK VINA RESULT: -10.232829153      0.000      0.000
REMARK  12 active torsions:
REMARK  status: ('A' for Active; 'I' for Inactive)
REMARK    1  A    between atoms: C2_3  and  N2_4 
REMARK       I    between atoms: N2_4  and  C3_6 
REMARK    2  A    between atoms: C3_6  and  C4_8 
REMARK       I    between atoms: N3_13  and  C9_14 
REMARK    3  A    between atoms: C9_14  and  C10_16 
REMARK       I    between atoms: N4_17  and  C11_19 
REMARK    4  A    between atoms: C11_19  and  C12_21 
REMARK    5  A    between atoms: C12_21  and  C13_22 
REMARK    6  A    between atoms: C12_21  and  N5_26 
REMARK    7  A    between atoms: C13_22  and  C14_23 
REMARK       I    between atoms: N5_26  and  C15_28 
REMARK    8  A    between atoms: C15_28  and  C16_30 
REMARK    9  A    between atoms: C16_30  and  C17_31 
REMARK   10  A    between atoms: C16_30  and  C20_36 
REMARK   11  A    between atoms: C17_31  and  C18_32 
REMARK   12  A    between atoms: C18_32  and  C19_33 
ROOT
HETATM    1  N1  UNL     1      13.489  18.620  13.246  1.00  0.00    -0.195 NA
HETATM    2  C1  UNL     1      13.438  19.665  13.731  1.00  0.00     0.091 C 
HETATM    3  C2  UNL     1      13.383  20.967  14.353  1.00  0.00     0.122 C 
HETATM    4  C26 UNL     1      13.804  22.121  13.470  1.00  0.00     0.047 C 
HETATM    5  C27 UNL     1      12.694  22.944  14.101  1.00  0.00     0.007 C 
HETATM    6  C28 UNL     1      12.017  21.610  14.446  1.00  0.00     0.047 C 
ENDROOT
BRANCH   3   7
HETATM    7  N2  UNL     1      14.030  20.967  15.662  1.00  0.00    -0.337 N 
HETATM    8  C3  UNL     1      15.415  21.234  15.804  1.00  0.00     0.242 C 
HETATM    9  O1  UNL     1      16.072  21.477  14.745  1.00  0.00    -0.271 OA
ATOM     10  H2  UNL     1      13.473  20.770  16.493  1.00  0.00     0.164 HD
BRANCH   8  11
HETATM   11  C4  UNL     1      16.036  21.226  17.137  1.00  0.00     0.179 C 
HETATM   12  C5  UNL     1      15.786  19.926  17.887  1.00  0.00     0.035 C 
HETATM   13  C6  UNL     1      16.115  20.075  19.351  1.00  0.00     0.004 C 
HETATM   14  C7  UNL     1      15.365  21.177  20.027  1.00  0.00     0.020 C 
HETATM   15  C8  UNL     1      14.623  21.988  18.998  1.00  0.00     0.127 C 
HETATM   16  N3  UNL     1      15.582  22.353  17.955  1.00  0.00    -0.334 N 
HETATM   17  C9  UNL     1      16.020  23.687  17.771  1.00  0.00     0.259 C 
HETATM   18  O2  UNL     1      15.550  24.553  18.543  1.00  0.00    -0.267 OA
BRANCH  17  19
HETATM   19  C10 UNL     1      16.967  24.083  16.749  1.00  0.00     0.165 C 
HETATM   20  N4  UNL     1      17.392  25.279  16.677  1.00  0.00    -0.330 N 
HETATM   21  C11 UNL     1      18.315  25.724  15.704  1.00  0.00     0.245 C 
ATOM     22  H4  UNL     1      17.048  25.955  17.359  1.00  0.00     0.168 HD
HETATM   23  O3  UNL     1      17.955  25.785  14.510  1.00  0.00    -0.271 OA
BRANCH  21  24
HETATM   24  C12 UNL     1      19.687  26.100  16.170  1.00  0.00     0.186 C 
BRANCH  24  25
HETATM   25  C13 UNL     1      20.620  26.176  15.003  1.00  0.00     0.147 C 
BRANCH  25  26
HETATM   26  C14 UNL     1      21.078  27.535  14.693  1.00  0.00     0.175 C 
HETATM   27  O4  UNL     1      21.960  27.755  13.826  1.00  0.00    -0.648 OA
HETATM   28  O5  UNL     1      20.532  28.607  15.364  1.00  0.00    -0.648 OA
ENDBRANCH  25  26
ENDBRANCH  24  25
BRANCH  24  29
HETATM   29  N5  UNL     1      20.146  25.284  17.252  1.00  0.00    -0.347 N 
HETATM   30  C15 UNL     1      20.784  25.822  18.405  1.00  0.00     0.223 C 
HETATM   31  O6  UNL     1      20.944  27.062  18.464  1.00  0.00    -0.273 OA
ATOM     32  H5  UNL     1      20.012  24.275  17.194  1.00  0.00     0.163 HD
BRANCH  30  33
HETATM   33  C16 UNL     1      21.226  24.872  19.482  1.00  0.00     0.082 C 
BRANCH  33  34
HETATM   34  C17 UNL     1      20.697  25.398  20.761  1.00  0.00     0.023 C 
BRANCH  34  35
HETATM   35  C18 UNL     1      21.814  25.650  21.731  1.00  0.00     0.100 C 
BRANCH  35  36
HETATM   36  C19 UNL     1      21.825  26.969  22.367  1.00  0.00     0.231 C 
HETATM   37  N6  UNL     1      22.297  27.106  23.697  1.00  0.00    -0.062 NA
HETATM   38  O7  UNL     1      21.429  27.982  21.766  1.00  0.00    -0.277 OA
ENDBRANCH  35  36
ENDBRANCH  34  35
ENDBRANCH  33  34
BRANCH  33  39
HETATM   39  C20 UNL     1      20.755  23.487  19.137  1.00  0.00    -0.002 C 
HETATM   40  C21 UNL     1      21.664  22.487  19.815  1.00  0.00     0.005 C 
HETATM   41  C22 UNL     1      21.076  21.998  21.122  1.00  0.00     0.000 C 
HETATM   42  C23 UNL     1      19.833  21.183  20.870  1.00  0.00     0.000 C 
HETATM   43  C24 UNL     1      19.127  21.708  19.662  1.00  0.00     0.000 C 
HETATM   44  C25 UNL     1      19.339  23.212  19.469  1.00  0.00     0.005 C 
ENDBRANCH  33  39
ENDBRANCH  30  33
ENDBRANCH  24  29
ENDBRANCH  21  24
ENDBRANCH  17  19
ENDBRANCH   8  11
ENDBRANCH   3   7
TORSDOF 12
ENDMDL
MODEL 2
REMARK VINA RESULT: -9.637406358      0.612      1.244
REMARK  12 active torsions:
REMARK  status: ('A' for Active; 'I' for Inactive)
REMARK    1  A    between atoms: C2_3  and  N2_4 
REMARK       I    between atoms: N2_4  and  C3_6 
REMARK    2  A    between atoms: C3_6  and  C4_8 
REMARK       I    between atoms: N3_13  and  C9_14 
REMARK    3  A    between atoms: C9_14  and  C10_16 
REMARK       I    between atoms: N4_17  and  C11_19 
REMARK    4  A    between atoms: C11_19  and  C12_21 
REMARK    5  A    between atoms: C12_21  and  C13_22 
REMARK    6  A    between atoms: C12_21  and  N5_26 
REMARK    7  A    between atoms: C13_22  and  C14_23 
REMARK       I    between atoms: N5_26  and  C15_28 
REMARK    8  A    between atoms: C15_28  and  C16_30 
REMARK    9  A    between atoms: C16_30  and  C17_31 
REMARK   10  A    between atoms: C16_30  and  C20_36 
REMARK   11  A    between atoms: C17_31  and  C18_32 
REMARK   12  A    between atoms: C18_32  and  C19_33 
ROOT
HETATM    1  N1  UNL     1      12.500  23.376  13.813  1.00  0.00    -0.195 NA
HETATM    2  C1  UNL     1      12.881  22.309  14.031  1.00  0.00     0.091 C 
HETATM    3  C2  UNL     1      13.364  20.980  14.321  1.00  0.00     0.122 C 
HETATM    4  C26 UNL     1      12.359  19.869  14.108  1.00  0.00     0.047 C 
HETATM    5  C27 UNL     1      13.493  19.015  13.565  1.00  0.00     0.007 C 
HETATM    6  C28 UNL     1      14.223  20.330  13.259  1.00  0.00     0.047 C 
ENDROOT
BRANCH   3   7
HETATM    7  N2  UNL     1      14.034  20.920  15.617  1.00  0.00    -0.337 N 
HETATM    8  C3  UNL     1      15.382  21.328  15.773  1.00  0.00     0.242 C 
HETATM    9  O1  UNL     1      15.985  21.753  14.739  1.00  0.00    -0.271 OA
ATOM     10  H2  UNL     1      13.521  20.576  16.428  1.00  0.00     0.164 HD
BRANCH   8  11
HETATM   11  C4  UNL     1      16.028  21.255  17.093  1.00  0.00     0.179 C 
HETATM   12  C5  UNL     1      15.753  19.938  17.802  1.00  0.00     0.035 C 
HETATM   13  C6  UNL     1      16.114  20.025  19.263  1.00  0.00     0.004 C 
HETATM   14  C7  UNL     1      15.411  21.124  19.992  1.00  0.00     0.020 C 
HETATM   15  C8  UNL     1      14.676  21.993  19.006  1.00  0.00     0.127 C 
HETATM   16  N3  UNL     1      15.625  22.366  17.957  1.00  0.00    -0.334 N 
HETATM   17  C9  UNL     1      16.100  23.691  17.810  1.00  0.00     0.259 C 
HETATM   18  O2  UNL     1      15.672  24.544  18.621  1.00  0.00    -0.267 OA
BRANCH  17  19
HETATM   19  C10 UNL     1      17.039  24.094  16.784  1.00  0.00     0.165 C 
HETATM   20  N4  UNL     1      17.470  25.289  16.722  1.00  0.00    -0.330 N 
HETATM   21  C11 UNL     1      18.386  25.741  15.745  1.00  0.00     0.245 C 
ATOM     22  H4  UNL     1      17.136  25.959  17.416  1.00  0.00     0.168 HD
HETATM   23  O3  UNL     1      18.014  25.818  14.556  1.00  0.00    -0.271 OA
BRANCH  21  24
HETATM   24  C12 UNL     1      19.764  26.103  16.202  1.00  0.00     0.186 C 
BRANCH  24  25
HETATM   25  C13 UNL     1      20.688  26.176  15.028  1.00  0.00     0.147 C 
BRANCH  25  26
HETATM   26  C14 UNL     1      21.113  27.539  14.687  1.00  0.00     0.175 C 
HETATM   27  O4  UNL     1      21.980  27.762  13.805  1.00  0.00    -0.648 OA
HETATM   28  O5  UNL     1      20.552  28.611  15.344  1.00  0.00    -0.648 OA
ENDBRANCH  25  26
ENDBRANCH  24  25
BRANCH  24  29
HETATM   29  N5  UNL     1      20.225  25.280  17.277  1.00  0.00    -0.347 N 
HETATM   30  C15 UNL     1      20.842  25.812  18.444  1.00  0.00     0.223 C 
HETATM   31  O6  UNL     1      20.983  27.054  18.522  1.00  0.00    -0.273 OA
ATOM     32  H5  UNL     1      20.107  24.270  17.204  1.00  0.00     0.163 HD
BRANCH  30  33
HETATM   33  C16 UNL     1      21.289  24.854  19.513  1.00  0.00     0.082 C 
BRANCH  33  34
HETATM   34  C17 UNL     1      20.753  25.364  20.795  1.00  0.00     0.023 C 
BRANCH  34  35
HETATM   35  C18 UNL     1      21.870  25.657  21.755  1.00  0.00     0.100 C 
BRANCH  35  36
HETATM   36  C19 UNL     1      21.847  26.980  22.379  1.00  0.00     0.231 C 
HETATM   37  N6  UNL     1      22.274  27.133  23.723  1.00  0.00    -0.062 NA
HETATM   38  O7  UNL     1      21.462  27.985  21.756  1.00  0.00    -0.277 OA
ENDBRANCH  35  36
ENDBRANCH  34  35
ENDBRANCH  33  34
BRANCH  33  39
HETATM   39  C20 UNL     1      20.828  23.470  19.152  1.00  0.00    -0.002 C 
HETATM   40  C21 UNL     1      21.714  22.468  19.859  1.00  0.00     0.005 C 
HETATM   41  C22 UNL     1      21.084  21.980  21.146  1.00  0.00     0.000 C 
HETATM   42  C23 UNL     1      19.849  21.166  20.855  1.00  0.00     0.000 C 
HETATM   43  C24 UNL     1      19.182  21.693  19.625  1.00  0.00     0.000 C 
HETATM   44  C25 UNL     1      19.402  23.196  19.439  1.00  0.00     0.005 C 
ENDBRANCH  33  39
ENDBRANCH  30  33
ENDBRANCH  24  29
ENDBRANCH  21  24
ENDBRANCH  17  19
ENDBRANCH   8  11
ENDBRANCH   3   7
TORSDOF 12
ENDMDL
MODEL 3
REMARK VINA RESULT: -9.559773528      1.492      2.709
REMARK  12 active torsions:
REMARK  status: ('A' for Active; 'I' for Inactive)
REMARK    1  A    between atoms: C2_3  and  N2_4 
REMARK       I    between atoms: N2_4  and  C3_6 
REMARK    2  A    between atoms: C3_6  and  C4_8 
REMARK       I    between atoms: N3_13  and  C9_14 
REMARK    3  A    between atoms: C9_14  and  C10_16 
REMARK       I    between atoms: N4_17  and  C11_19 
REMARK    4  A    between atoms: C11_19  and  C12_21 
REMARK    5  A    between atoms: C12_21  and  C13_22 
REMARK    6  A    between atoms: C12_21  and  N5_26 
REMARK    7  A    between atoms: C13_22  and  C14_23 
REMARK       I    between atoms: N5_26  and  C15_28 
REMARK    8  A    between atoms: C15_28  and  C16_30 
REMARK    9  A    between atoms: C16_30  and  C17_31 
REMARK   10  A    between atoms: C16_30  and  C20_36 
REMARK   11  A    between atoms: C17_31  and  C18_32 
REMARK   12  A    between atoms: C18_32  and  C19_33 
ROOT
HETATM    1  N1  UNL     1      13.443  18.568  13.223  1.00  0.00    -0.195 NA
HETATM    2  C1  UNL     1      13.423  19.615  13.706  1.00  0.00     0.091 C 
HETATM    3  C2  UNL     1      13.407  20.919  14.326  1.00  0.00     0.122 C 
HETATM    4  C26 UNL     1      13.870  22.057  13.444  1.00  0.00     0.047 C 
HETATM    5  C27 UNL     1      12.784  22.917  14.067  1.00  0.00     0.007 C 
HETATM    6  C28 UNL     1      12.062  21.607  14.411  1.00  0.00     0.047 C 
ENDROOT
BRANCH   3   7
HETATM    7  N2  UNL     1      14.046  20.900  15.639  1.00  0.00    -0.337 N 
HETATM    8  C3  UNL     1      15.419  21.213  15.799  1.00  0.00     0.242 C 
HETATM    9  O1  UNL     1      16.073  21.514  14.753  1.00  0.00    -0.271 OA
ATOM     10  H2  UNL     1      13.492  20.656  16.459  1.00  0.00     0.164 HD
BRANCH   8  11
HETATM   11  C4  UNL     1      16.033  21.184  17.136  1.00  0.00     0.179 C 
HETATM   12  C5  UNL     1      15.755  19.883  17.874  1.00  0.00     0.035 C 
HETATM   13  C6  UNL     1      16.079  20.016  19.341  1.00  0.00     0.004 C 
HETATM   14  C7  UNL     1      15.345  21.126  20.021  1.00  0.00     0.020 C 
HETATM   15  C8  UNL     1      14.624  21.958  18.994  1.00  0.00     0.127 C 
HETATM   16  N3  UNL     1      15.595  22.313  17.959  1.00  0.00    -0.334 N 
HETATM   17  C9  UNL     1      16.057  23.640  17.787  1.00  0.00     0.259 C 
HETATM   18  O2  UNL     1      15.598  24.509  18.562  1.00  0.00    -0.267 OA
BRANCH  17  19
HETATM   19  C10 UNL     1      17.017  24.026  16.773  1.00  0.00     0.165 C 
HETATM   20  N4  UNL     1      17.355  25.242  16.620  1.00  0.00    -0.330 N 
HETATM   21  C11 UNL     1      18.285  25.679  15.650  1.00  0.00     0.245 C 
ATOM     22  H4  UNL     1      16.932  25.941  17.231  1.00  0.00     0.168 HD
HETATM   23  O3  UNL     1      17.975  25.619  14.442  1.00  0.00    -0.271 OA
BRANCH  21  24
HETATM   24  C12 UNL     1      19.604  26.195  16.136  1.00  0.00     0.186 C 
BRANCH  24  25
HETATM   25  C13 UNL     1      20.594  26.203  15.015  1.00  0.00     0.147 C 
BRANCH  25  26
HETATM   26  C14 UNL     1      21.084  27.540  14.662  1.00  0.00     0.175 C 
HETATM   27  O4  UNL     1      21.991  27.710  13.809  1.00  0.00    -0.648 OA
HETATM   28  O5  UNL     1      20.544  28.648  15.276  1.00  0.00    -0.648 OA
ENDBRANCH  25  26
ENDBRANCH  24  25
BRANCH  24  29
HETATM   29  N5  UNL     1      20.051  25.537  17.325  1.00  0.00    -0.347 N 
HETATM   30  C15 UNL     1      20.730  26.219  18.373  1.00  0.00     0.223 C 
HETATM   31  O6  UNL     1      20.940  27.445  18.238  1.00  0.00    -0.273 OA
ATOM     32  H5  UNL     1      19.875  24.537  17.426  1.00  0.00     0.163 HD
BRANCH  30  33
HETATM   33  C16 UNL     1      21.156  25.428  19.578  1.00  0.00     0.082 C 
BRANCH  33  34
HETATM   34  C17 UNL     1      21.028  23.998  19.219  1.00  0.00     0.023 C 
BRANCH  34  35
HETATM   35  C18 UNL     1      20.023  23.319  20.104  1.00  0.00     0.100 C 
BRANCH  35  36
HETATM   36  C19 UNL     1      19.586  21.990  19.675  1.00  0.00     0.231 C 
HETATM   37  N6  UNL     1      19.830  20.866  20.505  1.00  0.00    -0.062 NA
HETATM   38  O7  UNL     1      19.000  21.818  18.592  1.00  0.00    -0.277 OA
ENDBRANCH  35  36
ENDBRANCH  34  35
ENDBRANCH  33  34
BRANCH  33  39
HETATM   39  C20 UNL     1      22.544  25.849  19.973  1.00  0.00    -0.002 C 
HETATM   40  C21 UNL     1      22.818  25.348  21.374  1.00  0.00     0.005 C 
HETATM   41  C22 UNL     1      23.581  24.040  21.356  1.00  0.00     0.000 C 
HETATM   42  C23 UNL     1      24.972  24.246  20.812  1.00  0.00     0.000 C 
HETATM   43  C24 UNL     1      24.950  25.334  19.786  1.00  0.00     0.000 C 
HETATM   44  C25 UNL     1      23.612  25.414  19.046  1.00  0.00     0.005 C 
ENDBRANCH  33  39
ENDBRANCH  30  33
ENDBRANCH  24  29
ENDBRANCH  21  24
ENDBRANCH  17  19
ENDBRANCH   8  11
ENDBRANCH   3   7
TORSDOF 12
ENDMDL
MODEL 4
REMARK VINA RESULT: -9.371022032      2.675      8.693
REMARK  12 active torsions:
REMARK  status: ('A' for Active; 'I' for Inactive)
REMARK    1  A    between atoms: C2_3  and  N2_4 
REMARK       I    between atoms: N2_4  and  C3_6 
REMARK    2  A    between atoms: C3_6  and  C4_8 
REMARK       I    between atoms: N3_13  and  C9_14 
REMARK    3  A    between atoms: C9_14  and  C10_16 
REMARK       I    between atoms: N4_17  and  C11_19 
REMARK    4  A    between atoms: C11_19  and  C12_21 
REMARK    5  A    between atoms: C12_21  and  C13_22 
REMARK    6  A    between atoms: C12_21  and  N5_26 
REMARK    7  A    between atoms: C13_22  and  C14_23 
REMARK       I    between atoms: N5_26  and  C15_28 
REMARK    8  A    between atoms: C15_28  and  C16_30 
REMARK    9  A    between atoms: C16_30  and  C17_31 
REMARK   10  A    between atoms: C16_30  and  C20_36 
REMARK   11  A    between atoms: C17_31  and  C18_32 
REMARK   12  A    between atoms: C18_32  and  C19_33 
ROOT
HETATM    1  N1  UNL     1      17.383  25.479  15.045  1.00  0.00    -0.195 NA
HETATM    2  C1  UNL     1      18.455  25.786  15.340  1.00  0.00     0.091 C 
HETATM    3  C2  UNL     1      19.794  26.164  15.728  1.00  0.00     0.122 C 
HETATM    4  C26 UNL     1      20.900  25.586  14.872  1.00  0.00     0.047 C 
HETATM    5  C27 UNL     1      21.626  26.915  15.002  1.00  0.00     0.007 C 
HETATM    6  C28 UNL     1      20.255  27.539  15.297  1.00  0.00     0.047 C 
ENDROOT
BRANCH   3   7
HETATM    7  N2  UNL     1      20.011  25.987  17.161  1.00  0.00    -0.337 N 
HETATM    8  C3  UNL     1      20.047  24.699  17.751  1.00  0.00     0.242 C 
HETATM    9  O1  UNL     1      19.884  23.701  16.981  1.00  0.00    -0.271 OA
ATOM     10  H2  UNL     1      20.140  26.809  17.751  1.00  0.00     0.164 HD
BRANCH   8  11
HETATM   11  C4  UNL     1      20.267  24.555  19.198  1.00  0.00     0.179 C 
HETATM   12  C5  UNL     1      21.453  25.370  19.689  1.00  0.00     0.035 C 
HETATM   13  C6  UNL     1      21.871  24.936  21.072  1.00  0.00     0.004 C 
HETATM   14  C7  UNL     1      22.207  23.483  21.171  1.00  0.00     0.020 C 
HETATM   15  C8  UNL     1      21.831  22.790  19.888  1.00  0.00     0.127 C 
HETATM   16  N3  UNL     1      20.447  23.153  19.583  1.00  0.00    -0.334 N 
HETATM   17  C9  UNL     1      19.390  22.215  19.661  1.00  0.00     0.259 C 
HETATM   18  O2  UNL     1      19.686  21.048  20.005  1.00  0.00    -0.267 OA
BRANCH  17  19
HETATM   19  C10 UNL     1      18.009  22.541  19.367  1.00  0.00     0.165 C 
HETATM   20  N4  UNL     1      17.623  22.741  18.172  1.00  0.00    -0.330 N 
HETATM   21  C11 UNL     1      16.291  23.062  17.824  1.00  0.00     0.245 C 
ATOM     22  H4  UNL     1      18.312  22.667  17.424  1.00  0.00     0.168 HD
HETATM   23  O3  UNL     1      15.829  24.173  18.155  1.00  0.00    -0.271 OA
BRANCH  21  24
HETATM   24  C12 UNL     1      15.505  22.036  17.070  1.00  0.00     0.186 C 
BRANCH  24  25
HETATM   25  C13 UNL     1      15.203  22.535  15.693  1.00  0.00     0.147 C 
BRANCH  25  26
HETATM   26  C14 UNL     1      16.133  22.052  14.666  1.00  0.00     0.175 C 
HETATM   27  O4  UNL     1      15.728  21.577  13.575  1.00  0.00    -0.648 OA
HETATM   28  O5  UNL     1      17.490  22.115  14.892  1.00  0.00    -0.648 OA
ENDBRANCH  25  26
ENDBRANCH  24  25
BRANCH  24  29
HETATM   29  N5  UNL     1      14.369  21.564  17.799  1.00  0.00    -0.347 N 
HETATM   30  C15 UNL     1      13.735  20.321  17.516  1.00  0.00     0.223 C 
HETATM   31  O6  UNL     1      14.199  19.621  16.588  1.00  0.00    -0.273 OA
ATOM     32  H5  UNL     1      13.998  22.141  18.553  1.00  0.00     0.163 HD
BRANCH  30  33
HETATM   33  C16 UNL     1      12.546  19.923  18.346  1.00  0.00     0.082 C 
BRANCH  33  34
HETATM   34  C17 UNL     1      11.399  19.800  17.419  1.00  0.00     0.023 C 
BRANCH  34  35
HETATM   35  C18 UNL     1      11.236  18.377  16.966  1.00  0.00     0.100 C 
BRANCH  35  36
HETATM   36  C19 UNL     1      10.813  18.192  15.578  1.00  0.00     0.231 C 
HETATM   37  N6  UNL     1       9.688  17.379  15.286  1.00  0.00    -0.062 NA
HETATM   38  O7  UNL     1      11.418  18.735  14.637  1.00  0.00    -0.277 OA
ENDBRANCH  35  36
ENDBRANCH  34  35
ENDBRANCH  33  34
BRANCH  33  39
HETATM   39  C20 UNL     1      12.876  18.664  19.098  1.00  0.00    -0.002 C 
HETATM   40  C21 UNL     1      14.289  18.775  19.626  1.00  0.00     0.005 C 
HETATM   41  C22 UNL     1      14.309  19.242  21.066  1.00  0.00     0.000 C 
HETATM   42  C23 UNL     1      13.711  18.194  21.970  1.00  0.00     0.000 C 
HETATM   43  C24 UNL     1      12.635  17.457  21.237  1.00  0.00     0.000 C 
HETATM   44  C25 UNL     1      11.937  18.330  20.192  1.00  0.00     0.005 C 
ENDBRANCH  33  39
ENDBRANCH  30  33
ENDBRANCH  24  29
ENDBRANCH  21  24
ENDBRANCH  17  19
ENDBRANCH   8  11
ENDBRANCH   3   7
TORSDOF 12
ENDMDL
MODEL 5
REMARK VINA RESULT: -9.334264629      2.457      5.415
REMARK  12 active torsions:
REMARK  status: ('A' for Active; 'I' for Inactive)
REMARK    1  A    between atoms: C2_3  and  N2_4 
REMARK       I    between atoms: N2_4  and  C3_6 
REMARK    2  A    between atoms: C3_6  and  C4_8 
REMARK       I    between atoms: N3_13  and  C9_14 
REMARK    3  A    between atoms: C9_14  and  C10_16 
REMARK       I    between atoms: N4_17  and  C11_19 
REMARK    4  A    between atoms: C11_19  and  C12_21 
REMARK    5  A    between atoms: C12_21  and  C13_22 
REMARK    6  A    between atoms: C12_21  and  N5_26 
REMARK    7  A    between atoms: C13_22  and  C14_23 
REMARK       I    between atoms: N5_26  and  C15_28 
REMARK    8  A    between atoms: C15_28  and  C16_30 
REMARK    9  A    between atoms: C16_30  and  C17_31 
REMARK   10  A    between atoms: C16_30  and  C20_36 
REMARK   11  A    between atoms: C17_31  and  C18_32 
REMARK   12  A    between atoms: C18_32  and  C19_33 
ROOT
HETATM    1  N1  UNL     1      14.986  19.878  21.339  1.00  0.00    -0.195 NA
HETATM    2  C1  UNL     1      14.287  19.431  20.538  1.00  0.00     0.091 C 
HETATM    3  C2  UNL     1      13.413  18.887  19.526  1.00  0.00     0.122 C 
HETATM    4  C26 UNL     1      13.805  17.523  19.001  1.00  0.00     0.047 C 
HETATM    5  C27 UNL     1      12.328  17.169  18.960  1.00  0.00     0.007 C 
HETATM    6  C28 UNL     1      12.123  18.265  20.015  1.00  0.00     0.047 C 
ENDROOT
BRANCH   3   7
HETATM    7  N2  UNL     1      13.135  19.860  18.474  1.00  0.00    -0.337 N 
HETATM    8  C3  UNL     1      14.127  20.240  17.535  1.00  0.00     0.242 C 
HETATM    9  O1  UNL     1      15.270  19.696  17.645  1.00  0.00    -0.271 OA
ATOM     10  H2  UNL     1      12.206  20.277  18.412  1.00  0.00     0.164 HD
BRANCH   8  11
HETATM   11  C4  UNL     1      13.815  21.224  16.487  1.00  0.00     0.179 C 
HETATM   12  C5  UNL     1      12.509  20.916  15.771  1.00  0.00     0.035 C 
HETATM   13  C6  UNL     1      12.393  21.709  14.494  1.00  0.00     0.004 C 
HETATM   14  C7  UNL     1      13.528  21.494  13.547  1.00  0.00     0.020 C 
HETATM   15  C8  UNL     1      14.604  20.686  14.223  1.00  0.00     0.127 C 
HETATM   16  N3  UNL     1      14.895  21.331  15.504  1.00  0.00    -0.334 N 
HETATM   17  C9  UNL     1      16.121  21.995  15.748  1.00  0.00     0.259 C 
HETATM   18  O2  UNL     1      16.957  22.011  14.817  1.00  0.00    -0.267 OA
BRANCH  17  19
HETATM   19  C10 UNL     1      16.442  22.644  17.003  1.00  0.00     0.165 C 
HETATM   20  N4  UNL     1      17.269  22.124  17.817  1.00  0.00    -0.330 N 
HETATM   21  C11 UNL     1      17.621  22.709  19.055  1.00  0.00     0.245 C 
ATOM     22  H4  UNL     1      17.702  21.236  17.564  1.00  0.00     0.168 HD
HETATM   23  O3  UNL     1      16.768  22.764  19.964  1.00  0.00    -0.271 OA
BRANCH  21  24
HETATM   24  C12 UNL     1      19.014  23.236  19.202  1.00  0.00     0.186 C 
BRANCH  24  25
HETATM   25  C13 UNL     1      19.456  23.122  20.626  1.00  0.00     0.147 C 
BRANCH  25  26
HETATM   26  C14 UNL     1      20.491  22.106  20.850  1.00  0.00     0.175 C 
HETATM   27  O4  UNL     1      21.617  22.401  21.322  1.00  0.00    -0.648 OA
HETATM   28  O5  UNL     1      20.231  20.790  20.541  1.00  0.00    -0.648 OA
ENDBRANCH  25  26
ENDBRANCH  24  25
BRANCH  24  29
HETATM   29  N5  UNL     1      19.178  24.535  18.625  1.00  0.00    -0.347 N 
HETATM   30  C15 UNL     1      20.441  25.033  18.197  1.00  0.00     0.223 C 
HETATM   31  O6  UNL     1      21.443  24.295  18.334  1.00  0.00    -0.273 OA
ATOM     32  H5  UNL     1      18.357  25.129  18.517  1.00  0.00     0.163 HD
BRANCH  30  33
HETATM   33  C16 UNL     1      20.498  26.413  17.605  1.00  0.00     0.082 C 
BRANCH  33  34
HETATM   34  C17 UNL     1      21.650  27.100  18.231  1.00  0.00     0.023 C 
BRANCH  34  35
HETATM   35  C18 UNL     1      21.289  27.594  19.602  1.00  0.00     0.100 C 
BRANCH  35  36
HETATM   36  C19 UNL     1      22.201  27.212  20.681  1.00  0.00     0.231 C 
HETATM   37  N6  UNL     1      21.753  27.242  22.026  1.00  0.00    -0.062 NA
HETATM   38  O7  UNL     1      23.370  26.857  20.447  1.00  0.00    -0.277 OA
ENDBRANCH  35  36
ENDBRANCH  34  35
ENDBRANCH  33  34
BRANCH  33  39
HETATM   39  C20 UNL     1      20.580  26.300  16.108  1.00  0.00    -0.002 C 
HETATM   40  C21 UNL     1      19.646  25.199  15.657  1.00  0.00     0.005 C 
HETATM   41  C22 UNL     1      18.311  25.753  15.207  1.00  0.00     0.000 C 
HETATM   42  C23 UNL     1      18.474  26.569  13.950  1.00  0.00     0.000 C 
HETATM   43  C24 UNL     1      19.812  27.236  13.957  1.00  0.00     0.000 C 
HETATM   44  C25 UNL     1      20.299  27.554  15.374  1.00  0.00     0.005 C 
ENDBRANCH  33  39
ENDBRANCH  30  33
ENDBRANCH  24  29
ENDBRANCH  21  24
ENDBRANCH  17  19
ENDBRANCH   8  11
ENDBRANCH   3   7
TORSDOF 12
ENDMDL
