MODEL 1
REMARK VINA RESULT: -7.322995616      0.000      0.000
REMARK  4 active torsions:
REMARK  status: ('A' for Active; 'I' for Inactive)
REMARK    1  A    between atoms: C8_15  and  O5_16 
REMARK    2  A    between atoms: C9_18  and  O6_19 
REMARK    3  A    between atoms: C10_21  and  O7_22 
REMARK    4  A    between atoms: C11_24  and  N2_25 
ROOT
HETATM    1  N1  UNL     1      28.526  18.752  51.008  1.00  0.00    -0.395 N 
ATOM      2  H11 UNL     1      28.261  19.144  50.105  1.00  0.00     0.156 HD
ATOM      3  H12 UNL     1      29.391  18.473  51.472  1.00  0.00     0.156 HD
HETATM    4  C1  UNL     1      27.518  18.569  51.738  1.00  0.00     0.094 C 
HETATM    5  C2  UNL     1      27.903  17.999  53.046  1.00  0.00     0.253 C 
HETATM    6  O1  UNL     1      28.923  17.306  53.046  1.00  0.00    -0.281 OA
HETATM    7  C3  UNL     1      27.241  18.138  54.358  1.00  0.00     0.277 C 
HETATM    8  O2  UNL     1      27.704  17.384  55.226  1.00  0.00    -0.280 OA
HETATM    9  C4  UNL     1      26.149  18.974  54.881  1.00  0.00     0.275 C 
HETATM   10  O3  UNL     1      26.075  18.963  56.133  1.00  0.00    -0.280 OA
HETATM   11  C5  UNL     1      25.176  19.783  54.166  1.00  0.00     0.226 C 
HETATM   12  O4  UNL     1      24.688  20.622  55.014  1.00  0.00    -0.284 OA
HETATM   13  C6  UNL     1      24.566  19.994  52.888  1.00  0.00     0.074 C 
HETATM   14  C7  UNL     1      25.142  19.524  51.659  1.00  0.00     0.019 A 
HETATM   15  C8  UNL     1      24.079  19.750  50.763  1.00  0.00     0.113 A 
HETATM   16  C9  UNL     1      24.152  19.451  49.439  1.00  0.00     0.136 A 
HETATM   17  C10 UNL     1      25.280  18.915  48.935  1.00  0.00     0.136 A 
HETATM   18  C11 UNL     1      26.415  18.647  49.756  1.00  0.00     0.152 A 
HETATM   19  C12 UNL     1      26.287  18.965  51.077  1.00  0.00     0.043 A 
ENDROOT
BRANCH  18  20
HETATM   20  N2  UNL     1      27.548  18.140  49.152  1.00  0.00    -0.112 N 
HETATM   21  O8  UNL     1      27.790  16.941  49.123  1.00  0.00    -0.532 OA
HETATM   22  O9  UNL     1      28.436  18.914  48.508  1.00  0.00    -0.532 OA
ENDBRANCH  18  20
BRANCH  15  23
HETATM   23  O5  UNL     1      22.902  20.304  51.265  1.00  0.00    -0.357 OA
ATOM     24  H5  UNL     1      22.233  20.573  50.646  1.00  0.00     0.217 HD
ENDBRANCH  15  23
BRANCH  17  25
HETATM   25  O7  UNL     1      25.439  18.580  47.598  1.00  0.00    -0.356 OA
ATOM     26  H7  UNL     1      25.389  17.689  47.270  1.00  0.00     0.218 HD
ENDBRANCH  17  25
BRANCH  16  27
HETATM   27  O6  UNL     1      23.097  19.670  48.525  1.00  0.00    -0.356 OA
ATOM     28  H6  UNL     1      23.005  19.205  47.702  1.00  0.00     0.218 HD
ENDBRANCH  16  27
TORSDOF 4
ENDMDL
MODEL 2
REMARK VINA RESULT: -7.117753989      1.534      3.011
REMARK  4 active torsions:
REMARK  status: ('A' for Active; 'I' for Inactive)
REMARK    1  A    between atoms: C8_15  and  O5_16 
REMARK    2  A    between atoms: C9_18  and  O6_19 
REMARK    3  A    between atoms: C10_21  and  O7_22 
REMARK    4  A    between atoms: C11_24  and  N2_25 
ROOT
HETATM    1  N1  UNL     1      27.954  18.524  48.479  1.00  0.00    -0.395 N 
ATOM      2  H11 UNL     1      27.257  19.220  48.213  1.00  0.00     0.156 HD
ATOM      3  H12 UNL     1      28.776  18.096  48.054  1.00  0.00     0.156 HD
HETATM    4  C1  UNL     1      27.736  18.084  49.638  1.00  0.00     0.094 C 
HETATM    5  C2  UNL     1      28.744  17.074  50.022  1.00  0.00     0.253 C 
HETATM    6  O1  UNL     1      29.236  16.431  49.092  1.00  0.00    -0.281 OA
HETATM    7  C3  UNL     1      29.250  16.720  51.363  1.00  0.00     0.277 C 
HETATM    8  O2  UNL     1      29.954  15.701  51.372  1.00  0.00    -0.280 OA
HETATM    9  C4  UNL     1      29.110  17.304  52.707  1.00  0.00     0.275 C 
HETATM   10  O3  UNL     1      29.926  16.833  53.536  1.00  0.00    -0.280 OA
HETATM   11  C5  UNL     1      28.187  18.317  53.187  1.00  0.00     0.226 C 
HETATM   12  O4  UNL     1      28.676  18.786  54.283  1.00  0.00    -0.284 OA
HETATM   13  C6  UNL     1      26.951  18.982  52.900  1.00  0.00     0.074 C 
HETATM   14  C7  UNL     1      26.356  18.998  51.593  1.00  0.00     0.019 A 
HETATM   15  C8  UNL     1      25.087  19.535  51.885  1.00  0.00     0.113 A 
HETATM   16  C9  UNL     1      24.137  19.744  50.936  1.00  0.00     0.136 A 
HETATM   17  C10 UNL     1      24.395  19.432  49.651  1.00  0.00     0.136 A 
HETATM   18  C11 UNL     1      25.648  18.883  49.249  1.00  0.00     0.152 A 
HETATM   19  C12 UNL     1      26.565  18.693  50.242  1.00  0.00     0.043 A 
ENDROOT
BRANCH  18  20
HETATM   20  N2  UNL     1      25.847  18.635  47.905  1.00  0.00    -0.112 N 
HETATM   21  O8  UNL     1      25.702  17.522  47.420  1.00  0.00    -0.532 OA
HETATM   22  O9  UNL     1      26.161  19.601  47.027  1.00  0.00    -0.532 OA
ENDBRANCH  18  20
BRANCH  15  23
HETATM   23  O5  UNL     1      24.801  19.865  53.208  1.00  0.00    -0.357 OA
ATOM     24  H5  UNL     1      24.974  19.216  53.881  1.00  0.00     0.217 HD
ENDBRANCH  15  23
BRANCH  17  25
HETATM   25  O7  UNL     1      23.483  19.612  48.620  1.00  0.00    -0.356 OA
ATOM     26  H7  UNL     1      23.266  18.936  47.987  1.00  0.00     0.218 HD
ENDBRANCH  17  25
BRANCH  16  27
HETATM   27  O6  UNL     1      22.859  20.282  51.208  1.00  0.00    -0.356 OA
ATOM     28  H6  UNL     1      22.293  20.661  50.546  1.00  0.00     0.218 HD
ENDBRANCH  16  27
TORSDOF 4
ENDMDL
MODEL 3
REMARK VINA RESULT: -6.963459205      1.582      4.937
REMARK  4 active torsions:
REMARK  status: ('A' for Active; 'I' for Inactive)
REMARK    1  A    between atoms: C8_15  and  O5_16 
REMARK    2  A    between atoms: C9_18  and  O6_19 
REMARK    3  A    between atoms: C10_21  and  O7_22 
REMARK    4  A    between atoms: C11_24  and  N2_25 
ROOT
HETATM    1  N1  UNL     1      27.669  18.126  53.114  1.00  0.00    -0.395 N 
ATOM      2  H11 UNL     1      26.874  18.130  53.753  1.00  0.00     0.156 HD
ATOM      3  H12 UNL     1      28.625  17.768  53.119  1.00  0.00     0.156 HD
HETATM    4  C1  UNL     1      27.390  18.715  52.038  1.00  0.00     0.094 C 
HETATM    5  C2  UNL     1      28.542  18.709  51.112  1.00  0.00     0.253 C 
HETATM    6  O1  UNL     1      29.654  18.678  51.646  1.00  0.00    -0.281 OA
HETATM    7  C3  UNL     1      28.557  18.735  49.637  1.00  0.00     0.277 C 
HETATM    8  O2  UNL     1      29.686  18.913  49.157  1.00  0.00    -0.280 OA
HETATM    9  C4  UNL     1      27.531  18.596  48.591  1.00  0.00     0.275 C 
HETATM   10  O3  UNL     1      28.014  18.417  47.447  1.00  0.00    -0.280 OA
HETATM   11  C5  UNL     1      26.083  18.638  48.700  1.00  0.00     0.226 C 
HETATM   12  O4  UNL     1      25.608  18.091  47.634  1.00  0.00    -0.284 OA
HETATM   13  C6  UNL     1      25.000  19.054  49.540  1.00  0.00     0.074 C 
HETATM   14  C7  UNL     1      25.157  19.326  50.942  1.00  0.00     0.019 A 
HETATM   15  C8  UNL     1      23.914  19.919  51.238  1.00  0.00     0.113 A 
HETATM   16  C9  UNL     1      23.583  20.360  52.480  1.00  0.00     0.136 A 
HETATM   17  C10 UNL     1      24.465  20.235  53.492  1.00  0.00     0.136 A 
HETATM   18  C11 UNL     1      25.750  19.648  53.298  1.00  0.00     0.152 A 
HETATM   19  C12 UNL     1      26.031  19.224  52.032  1.00  0.00     0.043 A 
ENDROOT
BRANCH  18  20
HETATM   20  N2  UNL     1      26.575  19.516  54.397  1.00  0.00    -0.112 N 
HETATM   21  O8  UNL     1      27.445  20.335  54.660  1.00  0.00    -0.532 OA
HETATM   22  O9  UNL     1      26.450  18.515  55.283  1.00  0.00    -0.532 OA
ENDBRANCH  18  20
BRANCH  15  23
HETATM   23  O5  UNL     1      22.988  20.057  50.206  1.00  0.00    -0.357 OA
ATOM     24  H5  UNL     1      23.090  20.785  49.604  1.00  0.00     0.217 HD
ENDBRANCH  15  23
BRANCH  17  25
HETATM   25  O7  UNL     1      24.209  20.658  54.789  1.00  0.00    -0.356 OA
ATOM     26  H7  UNL     1      23.449  21.173  55.033  1.00  0.00     0.218 HD
ENDBRANCH  17  25
BRANCH  16  27
HETATM   27  O6  UNL     1      22.343  20.957  52.798  1.00  0.00    -0.356 OA
ATOM     28  H6  UNL     1      22.240  21.873  53.028  1.00  0.00     0.218 HD
ENDBRANCH  16  27
TORSDOF 4
ENDMDL
MODEL 4
REMARK VINA RESULT: -6.960744095      1.281      5.043
REMARK  4 active torsions:
REMARK  status: ('A' for Active; 'I' for Inactive)
REMARK    1  A    between atoms: C8_15  and  O5_16 
REMARK    2  A    between atoms: C9_18  and  O6_19 
REMARK    3  A    between atoms: C10_21  and  O7_22 
REMARK    4  A    between atoms: C11_24  and  N2_25 
ROOT
HETATM    1  N1  UNL     1      27.658  17.307  52.245  1.00  0.00    -0.395 N 
ATOM      2  H11 UNL     1      27.222  17.274  53.166  1.00  0.00     0.156 HD
ATOM      3  H12 UNL     1      28.399  16.804  51.755  1.00  0.00     0.156 HD
HETATM    4  C1  UNL     1      27.141  18.203  51.529  1.00  0.00     0.094 C 
HETATM    5  C2  UNL     1      27.775  18.251  50.194  1.00  0.00     0.253 C 
HETATM    6  O1  UNL     1      28.953  17.889  50.151  1.00  0.00    -0.281 OA
HETATM    7  C3  UNL     1      27.201  18.670  48.901  1.00  0.00     0.277 C 
HETATM    8  O2  UNL     1      28.044  18.776  47.998  1.00  0.00    -0.280 OA
HETATM    9  C4  UNL     1      25.846  18.995  48.428  1.00  0.00     0.275 C 
HETATM   10  O3  UNL     1      25.759  19.051  47.178  1.00  0.00    -0.280 OA
HETATM   11  C5  UNL     1      24.635  19.251  49.189  1.00  0.00     0.226 C 
HETATM   12  O4  UNL     1      23.642  19.100  48.381  1.00  0.00    -0.284 OA
HETATM   13  C6  UNL     1      24.138  19.603  50.485  1.00  0.00     0.074 C 
HETATM   14  C7  UNL     1      24.913  19.456  51.686  1.00  0.00     0.019 A 
HETATM   15  C8  UNL     1      24.106  20.150  52.609  1.00  0.00     0.113 A 
HETATM   16  C9  UNL     1      24.436  20.290  53.921  1.00  0.00     0.136 A 
HETATM   17  C10 UNL     1      25.580  19.749  54.384  1.00  0.00     0.136 A 
HETATM   18  C11 UNL     1      26.467  19.027  53.532  1.00  0.00     0.152 A 
HETATM   19  C12 UNL     1      26.088  18.918  52.226  1.00  0.00     0.043 A 
ENDROOT
BRANCH  18  20
HETATM   20  N2  UNL     1      27.595  18.466  54.097  1.00  0.00    -0.112 N 
HETATM   21  O8  UNL     1      28.686  19.016  54.056  1.00  0.00    -0.532 OA
HETATM   22  O9  UNL     1      27.568  17.307  54.776  1.00  0.00    -0.532 OA
ENDBRANCH  18  20
BRANCH  15  23
HETATM   23  O5  UNL     1      22.918  20.716  52.150  1.00  0.00    -0.357 OA
ATOM     24  H5  UNL     1      22.221  20.868  52.777  1.00  0.00     0.217 HD
ENDBRANCH  15  23
BRANCH  17  25
HETATM   25  O7  UNL     1      25.993  19.844  55.706  1.00  0.00    -0.356 OA
ATOM     26  H7  UNL     1      25.843  20.609  56.249  1.00  0.00     0.218 HD
ENDBRANCH  17  25
BRANCH  16  27
HETATM   27  O6  UNL     1      23.641  20.981  54.862  1.00  0.00    -0.356 OA
ATOM     28  H6  UNL     1      23.907  21.786  55.289  1.00  0.00     0.218 HD
ENDBRANCH  16  27
TORSDOF 4
ENDMDL
MODEL 5
REMARK VINA RESULT: -6.912717242      1.238      2.358
REMARK  4 active torsions:
REMARK  status: ('A' for Active; 'I' for Inactive)
REMARK    1  A    between atoms: C8_15  and  O5_16 
REMARK    2  A    between atoms: C9_18  and  O6_19 
REMARK    3  A    between atoms: C10_21  and  O7_22 
REMARK    4  A    between atoms: C11_24  and  N2_25 
ROOT
HETATM    1  N1  UNL     1      28.430  19.271  52.336  1.00  0.00    -0.395 N 
ATOM      2  H11 UNL     1      28.800  19.414  51.396  1.00  0.00     0.156 HD
ATOM      3  H12 UNL     1      28.789  19.309  53.290  1.00  0.00     0.156 HD
HETATM    4  C1  UNL     1      27.208  18.973  52.301  1.00  0.00     0.094 C 
HETATM    5  C2  UNL     1      26.672  18.764  53.663  1.00  0.00     0.253 C 
HETATM    6  O1  UNL     1      27.485  18.364  54.500  1.00  0.00    -0.281 OA
HETATM    7  C3  UNL     1      25.300  18.965  54.169  1.00  0.00     0.277 C 
HETATM    8  O2  UNL     1      25.126  18.521  55.313  1.00  0.00    -0.280 OA
HETATM    9  C4  UNL     1      24.077  19.577  53.624  1.00  0.00     0.275 C 
HETATM   10  O3  UNL     1      23.194  19.773  54.494  1.00  0.00    -0.280 OA
HETATM   11  C5  UNL     1      23.765  19.971  52.261  1.00  0.00     0.226 C 
HETATM   12  O4  UNL     1      22.778  20.797  52.324  1.00  0.00    -0.284 OA
HETATM   13  C6  UNL     1      24.140  19.787  50.892  1.00  0.00     0.074 C 
HETATM   14  C7  UNL     1      25.418  19.265  50.493  1.00  0.00     0.019 A 
HETATM   15  C8  UNL     1      25.200  19.049  49.119  1.00  0.00     0.113 A 
HETATM   16  C9  UNL     1      26.152  18.545  48.290  1.00  0.00     0.136 A 
HETATM   17  C10 UNL     1      27.367  18.231  48.779  1.00  0.00     0.136 A 
HETATM   18  C11 UNL     1      27.691  18.411  50.157  1.00  0.00     0.152 A 
HETATM   19  C12 UNL     1      26.698  18.919  50.944  1.00  0.00     0.043 A 
ENDROOT
BRANCH  18  20
HETATM   20  N2  UNL     1      28.973  18.107  50.567  1.00  0.00    -0.112 N 
HETATM   21  O8  UNL     1      29.255  17.034  51.081  1.00  0.00    -0.532 OA
HETATM   22  O9  UNL     1      30.010  18.940  50.385  1.00  0.00    -0.532 OA
ENDBRANCH  18  20
BRANCH  15  23
HETATM   23  O5  UNL     1      23.949  19.369  48.592  1.00  0.00    -0.357 OA
ATOM     24  H5  UNL     1      23.296  18.681  48.535  1.00  0.00     0.217 HD
ENDBRANCH  15  23
BRANCH  17  25
HETATM   25  O7  UNL     1      28.395  17.712  48.005  1.00  0.00    -0.356 OA
ATOM     26  H7  UNL     1      29.198  18.182  47.815  1.00  0.00     0.218 HD
ENDBRANCH  17  25
BRANCH  16  27
HETATM   27  O6  UNL     1      25.954  18.322  46.909  1.00  0.00    -0.356 OA
ATOM     28  H6  UNL     1      26.396  18.810  46.225  1.00  0.00     0.218 HD
ENDBRANCH  16  27
TORSDOF 4
ENDMDL
