MODEL 1
REMARK VINA RESULT: -7.386534327      0.000      0.000
REMARK  3 active torsions:
REMARK  status: ('A' for Active; 'I' for Inactive)
REMARK    1  A    between atoms: N1_1  and  C1_4 
REMARK    2  A    between atoms: C2_7  and  C3_8 
REMARK       I    between atoms: C3_8  and  N3_10 
REMARK    3  A    between atoms: N3_10  and  N4_12 
ROOT
HETATM    1  C1  UNL     1      59.046  67.376  59.341  1.00  0.00     0.681 A 
HETATM    2  N2  UNL     1      57.901  67.315  60.046  1.00  0.00    -0.171 N 
ATOM      3  H2  UNL     1      57.188  66.638  59.771  1.00  0.00     0.186 HD
HETATM    4  C2  UNL     1      57.664  68.124  61.108  1.00  0.00     0.195 A 
HETATM    5  N5  UNL     1      58.583  69.008  61.472  1.00  0.00    -0.289 N 
ATOM      6  H5  UNL     1      58.422  69.625  62.268  1.00  0.00     0.172 HD
HETATM    7  C4  UNL     1      59.731  69.077  60.773  1.00  0.00     0.340 A 
HETATM    8  O2  UNL     1      60.593  69.921  61.131  1.00  0.00    -0.246 OA
HETATM    9  N6  UNL     1      59.974  68.266  59.704  1.00  0.00    -0.141 N 
ATOM     10  H6  UNL     1      60.851  68.338  59.189  1.00  0.00     0.189 HD
ENDROOT
BRANCH   4  11
HETATM   11  C3  UNL     1      56.393  68.007  61.835  1.00  0.00     0.304 C 
HETATM   12  O1  UNL     1      55.792  66.907  61.865  1.00  0.00    -0.263 OA
HETATM   13  N3  UNL     1      55.873  69.152  62.493  1.00  0.00    -0.270 N 
ATOM     14  H3  UNL     1      56.373  70.040  62.461  1.00  0.00     0.189 HD
BRANCH  13  15
HETATM   15  N4  UNL     1      54.665  69.044  63.185  1.00  0.00    -0.342 N 
ATOM     16  H42 UNL     1      54.037  68.266  62.982  1.00  0.00     0.176 HD
ATOM     17  H41 UNL     1      54.432  69.748  63.885  1.00  0.00     0.176 HD
ENDBRANCH  13  15
ENDBRANCH   4  11
BRANCH   1  18
HETATM   18  N1  UNL     1      59.217  66.581  58.340  1.00  0.00    -0.234 N 
ATOM     19  H12 UNL     1      59.786  65.738  58.412  1.00  0.00     0.174 HD
ATOM     20  H11 UNL     1      58.774  66.798  57.447  1.00  0.00     0.174 HD
ENDBRANCH   1  18
TORSDOF 3
ENDMDL
MODEL 2
REMARK VINA RESULT: -7.015294550      1.809      4.219
REMARK  3 active torsions:
REMARK  status: ('A' for Active; 'I' for Inactive)
REMARK    1  A    between atoms: N1_1  and  C1_4 
REMARK    2  A    between atoms: C2_7  and  C3_8 
REMARK       I    between atoms: C3_8  and  N3_10 
REMARK    3  A    between atoms: N3_10  and  N4_12 
ROOT
HETATM    1  C1  UNL     1      56.000  68.761  62.496  1.00  0.00     0.681 A 
HETATM    2  N2  UNL     1      56.777  68.090  61.626  1.00  0.00    -0.171 N 
ATOM      3  H2  UNL     1      56.426  67.224  61.216  1.00  0.00     0.186 HD
HETATM    4  C2  UNL     1      58.011  68.529  61.276  1.00  0.00     0.195 A 
HETATM    5  N5  UNL     1      58.478  69.653  61.804  1.00  0.00    -0.289 N 
ATOM      6  H5  UNL     1      59.404  69.998  61.553  1.00  0.00     0.172 HD
HETATM    7  C4  UNL     1      57.708  70.329  62.676  1.00  0.00     0.340 A 
HETATM    8  O2  UNL     1      58.165  71.394  63.168  1.00  0.00    -0.246 OA
HETATM    9  N6  UNL     1      56.466  69.893  63.031  1.00  0.00    -0.141 N 
ATOM     10  H6  UNL     1      55.901  70.422  63.695  1.00  0.00     0.189 HD
ENDROOT
BRANCH   4  11
HETATM   11  C3  UNL     1      58.810  67.751  60.320  1.00  0.00     0.304 C 
HETATM   12  O1  UNL     1      59.835  67.144  60.713  1.00  0.00    -0.263 OA
HETATM   13  N3  UNL     1      58.398  67.703  58.962  1.00  0.00    -0.270 N 
ATOM     14  H3  UNL     1      57.563  68.201  58.657  1.00  0.00     0.189 HD
BRANCH  13  15
HETATM   15  N4  UNL     1      59.156  66.964  58.052  1.00  0.00    -0.342 N 
ATOM     16  H42 UNL     1      58.746  66.696  57.157  1.00  0.00     0.176 HD
ATOM     17  H41 UNL     1      60.110  66.704  58.299  1.00  0.00     0.176 HD
ENDBRANCH  13  15
ENDBRANCH   4  11
BRANCH   1  18
HETATM   18  N1  UNL     1      54.833  68.296  62.792  1.00  0.00    -0.234 N 
ATOM     19  H12 UNL     1      54.543  67.356  62.523  1.00  0.00     0.174 HD
ATOM     20  H11 UNL     1      54.177  68.882  63.308  1.00  0.00     0.174 HD
ENDBRANCH   1  18
TORSDOF 3
ENDMDL
MODEL 3
REMARK VINA RESULT: -6.815918397      1.734      4.742
REMARK  3 active torsions:
REMARK  status: ('A' for Active; 'I' for Inactive)
REMARK    1  A    between atoms: N1_1  and  C1_4 
REMARK    2  A    between atoms: C2_7  and  C3_8 
REMARK       I    between atoms: C3_8  and  N3_10 
REMARK    3  A    between atoms: N3_10  and  N4_12 
ROOT
HETATM    1  C1  UNL     1      57.299  70.309  62.742  1.00  0.00     0.681 A 
HETATM    2  N2  UNL     1      58.105  69.635  61.902  1.00  0.00    -0.171 N 
ATOM      3  H2  UNL     1      59.017  70.030  61.669  1.00  0.00     0.186 HD
HETATM    4  C2  UNL     1      57.744  68.448  61.355  1.00  0.00     0.195 A 
HETATM    5  N5  UNL     1      56.562  67.927  61.649  1.00  0.00    -0.289 N 
ATOM      6  H5  UNL     1      56.273  67.035  61.247  1.00  0.00     0.172 HD
HETATM    7  C4  UNL     1      55.748  68.595  62.488  1.00  0.00     0.340 A 
HETATM    8  O2  UNL     1      54.629  68.087  62.758  1.00  0.00    -0.246 OA
HETATM    9  N6  UNL     1      56.106  69.788  63.041  1.00  0.00    -0.141 N 
ATOM     10  H6  UNL     1      55.472  70.276  63.674  1.00  0.00     0.189 HD
ENDROOT
BRANCH   4  11
HETATM   11  C3  UNL     1      58.671  67.762  60.444  1.00  0.00     0.304 C 
HETATM   12  O1  UNL     1      59.727  67.258  60.894  1.00  0.00    -0.263 OA
HETATM   13  N3  UNL     1      58.343  67.684  59.065  1.00  0.00    -0.270 N 
ATOM     14  H3  UNL     1      57.480  68.098  58.714  1.00  0.00     0.189 HD
BRANCH  13  15
HETATM   15  N4  UNL     1      59.222  67.032  58.197  1.00  0.00    -0.342 N 
ATOM     16  H42 UNL     1      59.928  66.402  58.577  1.00  0.00     0.176 HD
ATOM     17  H41 UNL     1      59.140  67.199  57.195  1.00  0.00     0.176 HD
ENDBRANCH  13  15
ENDBRANCH   4  11
BRANCH   1  18
HETATM   18  N1  UNL     1      57.695  71.435  63.234  1.00  0.00    -0.234 N 
ATOM     19  H12 UNL     1      58.531  71.506  63.814  1.00  0.00     0.174 HD
ATOM     20  H11 UNL     1      57.160  72.281  63.040  1.00  0.00     0.174 HD
ENDBRANCH   1  18
TORSDOF 3
ENDMDL
MODEL 4
REMARK VINA RESULT: -6.701919782      2.303      3.608
REMARK  3 active torsions:
REMARK  status: ('A' for Active; 'I' for Inactive)
REMARK    1  A    between atoms: N1_1  and  C1_4 
REMARK    2  A    between atoms: C2_7  and  C3_8 
REMARK       I    between atoms: C3_8  and  N3_10 
REMARK    3  A    between atoms: N3_10  and  N4_12 
ROOT
HETATM    1  C1  UNL     1      58.779  68.103  61.210  1.00  0.00     0.681 A 
HETATM    2  N2  UNL     1      58.626  69.340  61.718  1.00  0.00    -0.171 N 
ATOM      3  H2  UNL     1      59.419  69.982  61.701  1.00  0.00     0.186 HD
HETATM    4  C2  UNL     1      57.453  69.759  62.253  1.00  0.00     0.195 A 
HETATM    5  N5  UNL     1      56.417  68.932  62.283  1.00  0.00    -0.289 N 
ATOM      6  H5  UNL     1      55.527  69.230  62.681  1.00  0.00     0.172 HD
HETATM    7  C4  UNL     1      56.561  67.693  61.777  1.00  0.00     0.340 A 
HETATM    8  O2  UNL     1      55.568  66.920  61.812  1.00  0.00    -0.246 OA
HETATM    9  N6  UNL     1      57.738  67.266  61.238  1.00  0.00    -0.141 N 
ATOM     10  H6  UNL     1      57.823  66.322  60.862  1.00  0.00     0.189 HD
ENDROOT
BRANCH   4  11
HETATM   11  C3  UNL     1      57.352  71.122  62.792  1.00  0.00     0.304 C 
HETATM   12  O1  UNL     1      57.993  71.433  63.824  1.00  0.00    -0.263 OA
HETATM   13  N3  UNL     1      56.523  72.062  62.125  1.00  0.00    -0.270 N 
ATOM     14  H3  UNL     1      56.008  71.795  61.287  1.00  0.00     0.189 HD
BRANCH  13  15
HETATM   15  N4  UNL     1      56.425  73.358  62.635  1.00  0.00    -0.342 N 
ATOM     16  H42 UNL     1      56.329  73.497  63.641  1.00  0.00     0.176 HD
ATOM     17  H41 UNL     1      56.452  74.147  61.989  1.00  0.00     0.176 HD
ENDBRANCH  13  15
ENDBRANCH   4  11
BRANCH   1  18
HETATM   18  N1  UNL     1      59.919  67.759  60.712  1.00  0.00    -0.234 N 
ATOM     19  H12 UNL     1      60.714  67.517  61.303  1.00  0.00     0.174 HD
ATOM     20  H11 UNL     1      60.034  67.727  59.699  1.00  0.00     0.174 HD
ENDBRANCH   1  18
TORSDOF 3
ENDMDL
MODEL 5
REMARK VINA RESULT: -6.544476353      2.403      3.214
REMARK  3 active torsions:
REMARK  status: ('A' for Active; 'I' for Inactive)
REMARK    1  A    between atoms: N1_1  and  C1_4 
REMARK    2  A    between atoms: C2_7  and  C3_8 
REMARK       I    between atoms: C3_8  and  N3_10 
REMARK    3  A    between atoms: N3_10  and  N4_12 
ROOT
HETATM    1  C1  UNL     1      56.712  67.508  61.623  1.00  0.00     0.681 A 
HETATM    2  N2  UNL     1      56.551  68.720  62.184  1.00  0.00    -0.171 N 
ATOM      3  H2  UNL     1      55.672  68.934  62.655  1.00  0.00     0.186 HD
HETATM    4  C2  UNL     1      57.520  69.667  62.141  1.00  0.00     0.195 A 
HETATM    5  N5  UNL     1      58.666  69.402  61.530  1.00  0.00    -0.289 N 
ATOM      6  H5  UNL     1      59.406  70.102  61.488  1.00  0.00     0.172 HD
HETATM    7  C4  UNL     1      58.836  68.191  60.966  1.00  0.00     0.340 A 
HETATM    8  O2  UNL     1      59.930  67.954  60.389  1.00  0.00    -0.246 OA
HETATM    9  N6  UNL     1      57.865  67.235  61.006  1.00  0.00    -0.141 N 
ATOM     10  H6  UNL     1      58.017  66.326  60.570  1.00  0.00     0.189 HD
ENDROOT
BRANCH   4  11
HETATM   11  C3  UNL     1      57.282  70.973  62.773  1.00  0.00     0.304 C 
HETATM   12  O1  UNL     1      57.889  71.274  63.828  1.00  0.00    -0.263 OA
HETATM   13  N3  UNL     1      56.362  71.869  62.167  1.00  0.00    -0.270 N 
ATOM     14  H3  UNL     1      55.876  71.610  61.309  1.00  0.00     0.189 HD
BRANCH  13  15
HETATM   15  N4  UNL     1      56.134  73.109  62.765  1.00  0.00    -0.342 N 
ATOM     16  H42 UNL     1      55.219  73.551  62.674  1.00  0.00     0.176 HD
ATOM     17  H41 UNL     1      56.891  73.554  63.285  1.00  0.00     0.176 HD
ENDBRANCH  13  15
ENDBRANCH   4  11
BRANCH   1  18
HETATM   18  N1  UNL     1      55.756  66.644  61.695  1.00  0.00    -0.234 N 
ATOM     19  H12 UNL     1      55.747  65.906  62.398  1.00  0.00     0.174 HD
ATOM     20  H11 UNL     1      54.984  66.696  61.030  1.00  0.00     0.174 HD
ENDBRANCH   1  18
TORSDOF 3
ENDMDL
