MODEL 1
REMARK VINA RESULT: -5.788602017      0.000      0.000
REMARK  5 active torsions:
REMARK  status: ('A' for Active; 'I' for Inactive)
REMARK    1  A    between atoms: C1_4  and  C2_6 
REMARK    2  A    between atoms: C2_6  and  N3_7 
REMARK    3  A    between atoms: C3_10  and  O1_11 
REMARK    4  A    between atoms: C3_10  and  N4_13 
REMARK    5  A    between atoms: N4_13  and  N5_15 
ROOT
HETATM    1  C2  UNL     1      57.803  67.482  60.612  1.00  0.00     0.132 C 
HETATM    2  C3  UNL     1      57.456  67.227  59.257  1.00  0.00     0.185 C 
ENDROOT
BRANCH   1   3
HETATM    3  C1  UNL     1      59.100  67.875  61.098  1.00  0.00     0.141 C 
HETATM    4  N1  UNL     1      59.782  67.454  62.041  1.00  0.00    -0.386 N 
ATOM      5  H12 UNL     1      60.701  67.733  62.385  1.00  0.00     0.157 HD
ATOM      6  H11 UNL     1      59.317  66.696  62.541  1.00  0.00     0.157 HD
HETATM    7  N2  UNL     1      59.775  68.976  60.371  1.00  0.00    -0.081 NA
ENDBRANCH   1   3
BRANCH   1   8
HETATM    8  N3  UNL     1      56.884  67.357  61.531  1.00  0.00    -0.313 N 
HETATM    9  S1  UNL     1      56.037  68.633  62.324  1.00  0.00     0.043 SA
ATOM     10  H3  UNL     1      56.642  66.406  61.809  1.00  0.00     0.175 HD
ENDBRANCH   1   8
BRANCH   2  11
HETATM   11  O1  UNL     1      56.227  66.876  58.974  1.00  0.00    -0.343 OA
ATOM     12  H1  UNL     1      55.645  67.517  58.584  1.00  0.00     0.219 HD
ENDBRANCH   2  11
BRANCH   2  13
HETATM   13  N4  UNL     1      58.294  67.304  58.120  1.00  0.00    -0.285 N 
ATOM     14  H4  UNL     1      57.967  67.785  57.282  1.00  0.00     0.188 HD
BRANCH  13  15
HETATM   15  N5  UNL     1      59.581  66.721  58.136  1.00  0.00    -0.343 N 
ATOM     16  H52 UNL     1      59.722  65.830  57.661  1.00  0.00     0.176 HD
ATOM     17  H51 UNL     1      60.353  67.185  58.615  1.00  0.00     0.176 HD
ENDBRANCH  13  15
ENDBRANCH   2  13
TORSDOF 5
ENDMDL
MODEL 2
REMARK VINA RESULT: -5.276743310      2.684      3.642
REMARK  5 active torsions:
REMARK  status: ('A' for Active; 'I' for Inactive)
REMARK    1  A    between atoms: C1_4  and  C2_6 
REMARK    2  A    between atoms: C2_6  and  N3_7 
REMARK    3  A    between atoms: C3_10  and  O1_11 
REMARK    4  A    between atoms: C3_10  and  N4_13 
REMARK    5  A    between atoms: N4_13  and  N5_15 
ROOT
HETATM    1  C2  UNL     1      57.940  68.562  61.667  1.00  0.00     0.132 C 
HETATM    2  C3  UNL     1      57.143  69.571  62.274  1.00  0.00     0.185 C 
ENDROOT
BRANCH   1   3
HETATM    3  C1  UNL     1      59.377  68.486  61.688  1.00  0.00     0.141 C 
HETATM    4  N1  UNL     1      60.143  67.573  62.021  1.00  0.00    -0.386 N 
ATOM      5  H12 UNL     1      61.162  67.519  62.035  1.00  0.00     0.157 HD
ATOM      6  H11 UNL     1      59.637  66.742  62.329  1.00  0.00     0.157 HD
HETATM    7  N2  UNL     1      60.112  69.692  61.240  1.00  0.00    -0.081 NA
ENDBRANCH   1   3
BRANCH   1   8
HETATM    8  N3  UNL     1      57.346  67.596  61.020  1.00  0.00    -0.313 N 
HETATM    9  S1  UNL     1      57.667  67.084  59.405  1.00  0.00     0.043 SA
ATOM     10  H3  UNL     1      56.616  67.091  61.522  1.00  0.00     0.175 HD
ENDBRANCH   1   8
BRANCH   2  11
HETATM   11  O1  UNL     1      55.840  69.499  62.165  1.00  0.00    -0.343 OA
ATOM     12  H1  UNL     1      55.404  68.692  62.410  1.00  0.00     0.219 HD
ENDBRANCH   2  11
BRANCH   2  13
HETATM   13  N4  UNL     1      57.584  70.693  63.014  1.00  0.00    -0.285 N 
ATOM     14  H4  UNL     1      57.525  70.684  64.032  1.00  0.00     0.188 HD
BRANCH  13  15
HETATM   15  N5  UNL     1      58.106  71.828  62.353  1.00  0.00    -0.343 N 
ATOM     16  H52 UNL     1      58.437  71.728  61.393  1.00  0.00     0.176 HD
ATOM     17  H51 UNL     1      58.150  72.729  62.828  1.00  0.00     0.176 HD
ENDBRANCH  13  15
ENDBRANCH   2  13
TORSDOF 5
ENDMDL
MODEL 3
REMARK VINA RESULT: -5.248398825      2.959      4.315
REMARK  5 active torsions:
REMARK  status: ('A' for Active; 'I' for Inactive)
REMARK    1  A    between atoms: C1_4  and  C2_6 
REMARK    2  A    between atoms: C2_6  and  N3_7 
REMARK    3  A    between atoms: C3_10  and  O1_11 
REMARK    4  A    between atoms: C3_10  and  N4_13 
REMARK    5  A    between atoms: N4_13  and  N5_15 
ROOT
HETATM    1  C2  UNL     1      57.607  68.106  61.531  1.00  0.00     0.132 C 
HETATM    2  C3  UNL     1      58.150  69.344  61.974  1.00  0.00     0.185 C 
ENDROOT
BRANCH   1   3
HETATM    3  C1  UNL     1      56.296  67.595  61.835  1.00  0.00     0.141 C 
HETATM    4  N1  UNL     1      55.774  66.496  61.606  1.00  0.00    -0.386 N 
ATOM      5  H12 UNL     1      54.845  66.134  61.822  1.00  0.00     0.157 HD
ATOM      6  H11 UNL     1      56.408  65.866  61.116  1.00  0.00     0.157 HD
HETATM    7  N2  UNL     1      55.376  68.511  62.548  1.00  0.00    -0.081 NA
ENDBRANCH   1   3
BRANCH   1   8
HETATM    8  N3  UNL     1      58.339  67.333  60.775  1.00  0.00    -0.313 N 
HETATM    9  S1  UNL     1      58.302  67.238  59.053  1.00  0.00     0.043 SA
ATOM     10  H3  UNL     1      59.002  66.722  61.252  1.00  0.00     0.175 HD
ENDBRANCH   1   8
BRANCH   2  11
HETATM   11  O1  UNL     1      59.365  69.668  61.609  1.00  0.00    -0.343 OA
ATOM     12  H1  UNL     1      59.591  69.635  60.688  1.00  0.00     0.219 HD
ENDBRANCH   2  11
BRANCH   2  13
HETATM   13  N4  UNL     1      57.529  70.317  62.791  1.00  0.00    -0.285 N 
ATOM     14  H4  UNL     1      57.668  70.294  63.801  1.00  0.00     0.188 HD
BRANCH  13  15
HETATM   15  N5  UNL     1      56.718  71.322  62.218  1.00  0.00    -0.343 N 
ATOM     16  H52 UNL     1      55.726  71.348  62.456  1.00  0.00     0.176 HD
ATOM     17  H51 UNL     1      57.118  72.008  61.578  1.00  0.00     0.176 HD
ENDBRANCH  13  15
ENDBRANCH   2  13
TORSDOF 5
ENDMDL
MODEL 4
REMARK VINA RESULT: -5.204754165      2.439      3.564
REMARK  5 active torsions:
REMARK  status: ('A' for Active; 'I' for Inactive)
REMARK    1  A    between atoms: C1_4  and  C2_6 
REMARK    2  A    between atoms: C2_6  and  N3_7 
REMARK    3  A    between atoms: C3_10  and  O1_11 
REMARK    4  A    between atoms: C3_10  and  N4_13 
REMARK    5  A    between atoms: N4_13  and  N5_15 
ROOT
HETATM    1  C2  UNL     1      58.017  68.054  61.406  1.00  0.00     0.132 C 
HETATM    2  C3  UNL     1      56.689  67.899  61.887  1.00  0.00     0.185 C 
ENDROOT
BRANCH   1   3
HETATM    3  C1  UNL     1      58.846  69.222  61.556  1.00  0.00     0.141 C 
HETATM    4  N1  UNL     1      59.878  69.574  60.971  1.00  0.00    -0.386 N 
ATOM      5  H12 UNL     1      60.464  70.401  61.078  1.00  0.00     0.157 HD
ATOM      6  H11 UNL     1      60.166  68.898  60.263  1.00  0.00     0.157 HD
HETATM    7  N2  UNL     1      58.427  70.204  62.584  1.00  0.00    -0.081 NA
ENDBRANCH   1   3
BRANCH   1   8
HETATM    8  N3  UNL     1      58.572  67.064  60.760  1.00  0.00    -0.313 N 
HETATM    9  S1  UNL     1      58.535  66.791  59.057  1.00  0.00     0.043 SA
ATOM     10  H3  UNL     1      59.081  66.381  61.321  1.00  0.00     0.175 HD
ENDBRANCH   1   8
BRANCH   2  11
HETATM   11  O1  UNL     1      56.065  66.768  61.668  1.00  0.00    -0.343 OA
ATOM     12  H1  UNL     1      55.875  66.199  62.405  1.00  0.00     0.219 HD
ENDBRANCH   2  11
BRANCH   2  13
HETATM   13  N4  UNL     1      55.913  68.839  62.604  1.00  0.00    -0.285 N 
ATOM     14  H4  UNL     1      55.758  68.711  63.604  1.00  0.00     0.188 HD
BRANCH  13  15
HETATM   15  N5  UNL     1      55.350  69.955  61.945  1.00  0.00    -0.343 N 
ATOM     16  H52 UNL     1      54.792  69.800  61.106  1.00  0.00     0.176 HD
ATOM     17  H51 UNL     1      55.502  70.898  62.303  1.00  0.00     0.176 HD
ENDBRANCH  13  15
ENDBRANCH   2  13
TORSDOF 5
ENDMDL
MODEL 5
REMARK VINA RESULT: -5.179187187      1.915      2.649
REMARK  5 active torsions:
REMARK  status: ('A' for Active; 'I' for Inactive)
REMARK    1  A    between atoms: C1_4  and  C2_6 
REMARK    2  A    between atoms: C2_6  and  N3_7 
REMARK    3  A    between atoms: C3_10  and  O1_11 
REMARK    4  A    between atoms: C3_10  and  N4_13 
REMARK    5  A    between atoms: N4_13  and  N5_15 
ROOT
HETATM    1  C2  UNL     1      57.967  67.854  60.799  1.00  0.00     0.132 C 
HETATM    2  C3  UNL     1      58.970  67.866  59.791  1.00  0.00     0.185 C 
ENDROOT
BRANCH   1   3
HETATM    3  C1  UNL     1      56.777  67.043  60.804  1.00  0.00     0.141 C 
HETATM    4  N1  UNL     1      56.046  66.671  61.731  1.00  0.00    -0.386 N 
ATOM      5  H12 UNL     1      55.202  66.096  61.734  1.00  0.00     0.157 HD
ATOM      6  H11 UNL     1      56.368  67.015  62.635  1.00  0.00     0.157 HD
HETATM    7  N2  UNL     1      56.308  66.544  59.490  1.00  0.00    -0.081 NA
ENDBRANCH   1   3
BRANCH   1   8
HETATM    8  N3  UNL     1      58.103  68.640  61.833  1.00  0.00    -0.313 N 
HETATM    9  S1  UNL     1      56.964  69.801  62.405  1.00  0.00     0.043 SA
ATOM     10  H3  UNL     1      58.975  68.558  62.356  1.00  0.00     0.175 HD
ENDBRANCH   1   8
BRANCH   2  11
HETATM   11  O1  UNL     1      59.998  68.665  59.933  1.00  0.00    -0.343 OA
ATOM     12  H1  UNL     1      60.422  69.008  59.155  1.00  0.00     0.219 HD
ENDBRANCH   2  11
BRANCH   2  13
HETATM   13  N4  UNL     1      59.013  67.100  58.604  1.00  0.00    -0.285 N 
ATOM     14  H4  UNL     1      59.629  66.289  58.546  1.00  0.00     0.188 HD
BRANCH  13  15
HETATM   15  N5  UNL     1      58.208  67.448  57.496  1.00  0.00    -0.343 N 
ATOM     16  H52 UNL     1      58.132  66.792  56.719  1.00  0.00     0.176 HD
ATOM     17  H51 UNL     1      57.714  68.340  57.476  1.00  0.00     0.176 HD
ENDBRANCH  13  15
ENDBRANCH   2  13
TORSDOF 5
ENDMDL
