MODEL 1
REMARK VINA RESULT: -5.926347141      0.000      0.000
REMARK  6 active torsions:
REMARK  status: ('A' for Active; 'I' for Inactive)
REMARK    1  A    between atoms: C2_2  and  C4_4 
REMARK    2  A    between atoms: C5_6  and  N1_7 
REMARK    3  A    between atoms: C6_12  and  C7_13 
REMARK    4  A    between atoms: C10_19  and  C11_20 
REMARK    5  A    between atoms: C11_20  and  C12_21 
REMARK    6  A    between atoms: C12_21  and  O1_22 
ROOT
HETATM    1  C4  UNL     1      17.044   3.702  12.737  1.00  0.00     0.019 A 
HETATM    2  S1  UNL     1      18.477   4.205  12.037  1.00  0.00    -0.056 SA
HETATM    3  C5  UNL     1      19.068   5.260  13.239  1.00  0.00     0.143 A 
HETATM    4  N2  UNL     1      18.086   5.188  14.200  1.00  0.00    -0.334 N 
ATOM      5  H2  UNL     1      18.156   5.720  15.068  1.00  0.00     0.168 HD
HETATM    6  C6  UNL     1      17.053   4.408  13.962  1.00  0.00     0.079 A 
ENDROOT
BRANCH   6   7
HETATM    7  C7  UNL     1      15.778   4.436  14.725  1.00  0.00     0.100 C 
HETATM    8  C8  UNL     1      15.012   5.664  14.836  1.00  0.00     0.298 C 
HETATM    9  N3  UNL     1      14.577   5.927  16.231  1.00  0.00    -0.067 N 
HETATM   10  C9  UNL     1      14.078   4.755  16.897  1.00  0.00     0.265 C 
ATOM     11  H32 UNL     1      15.328   6.359  16.770  1.00  0.00     0.277 HD
ATOM     12  H31 UNL     1      13.892   6.682  16.262  1.00  0.00     0.277 HD
HETATM   13  C10 UNL     1      14.453   3.470  16.178  1.00  0.00     0.156 C 
HETATM   14  O2  UNL     1      15.794   3.571  15.852  1.00  0.00    -0.344 OA
BRANCH  13  15
HETATM   15  C11 UNL     1      14.027   2.248  16.865  1.00  0.00     0.060 C 
BRANCH  15  16
HETATM   16  C12 UNL     1      15.102   1.332  17.375  1.00  0.00     0.166 C 
BRANCH  16  17
HETATM   17  O1  UNL     1      15.626   0.622  16.291  1.00  0.00    -0.401 OA
ATOM     18  H1  UNL     1      14.908   0.194  15.839  1.00  0.00     0.209 HD
ENDBRANCH  16  17
ENDBRANCH  15  16
ENDBRANCH  13  15
ENDBRANCH   6   7
BRANCH   1  19
HETATM   19  C2  UNL     1      16.135   2.590  12.397  1.00  0.00     0.020 C 
HETATM   20  C1  UNL     1      15.986   2.337  10.927  1.00  0.00     0.015 C 
HETATM   21  C3  UNL     1      16.960   1.293  12.820  1.00  0.00     0.015 C 
ENDBRANCH   1  19
BRANCH   3  22
HETATM   22  N1  UNL     1      20.162   5.947  13.301  1.00  0.00    -0.380 N 
ATOM     23  H12 UNL     1      21.064   5.627  13.652  1.00  0.00     0.158 HD
ATOM     24  H11 UNL     1      20.371   6.900  13.005  1.00  0.00     0.158 HD
ENDBRANCH   3  22
TORSDOF 6
ENDMDL
MODEL 2
REMARK VINA RESULT: -5.569893869      3.187      4.577
REMARK  6 active torsions:
REMARK  status: ('A' for Active; 'I' for Inactive)
REMARK    1  A    between atoms: C2_2  and  C4_4 
REMARK    2  A    between atoms: C5_6  and  N1_7 
REMARK    3  A    between atoms: C6_12  and  C7_13 
REMARK    4  A    between atoms: C10_19  and  C11_20 
REMARK    5  A    between atoms: C11_20  and  C12_21 
REMARK    6  A    between atoms: C12_21  and  O1_22 
ROOT
HETATM    1  C4  UNL     1      19.445   5.813  10.137  1.00  0.00     0.019 A 
HETATM    2  S1  UNL     1      20.958   6.486   9.906  1.00  0.00    -0.056 SA
HETATM    3  C5  UNL     1      21.725   6.064  11.369  1.00  0.00     0.143 A 
HETATM    4  N2  UNL     1      20.734   5.375  12.030  1.00  0.00    -0.334 N 
ATOM      5  H2  UNL     1      20.893   4.981  12.958  1.00  0.00     0.168 HD
HETATM    6  C6  UNL     1      19.573   5.242  11.424  1.00  0.00     0.079 A 
ENDROOT
BRANCH   6   7
HETATM    7  C7  UNL     1      18.317   4.808  12.089  1.00  0.00     0.100 C 
HETATM    8  C8  UNL     1      17.642   5.682  13.030  1.00  0.00     0.298 C 
HETATM    9  N3  UNL     1      17.251   4.969  14.273  1.00  0.00    -0.067 N 
HETATM   10  C9  UNL     1      16.682   3.673  14.025  1.00  0.00     0.265 C 
ATOM     11  H32 UNL     1      18.039   4.903  14.917  1.00  0.00     0.277 HD
ATOM     12  H31 UNL     1      16.621   5.540  14.837  1.00  0.00     0.277 HD
HETATM   13  C10 UNL     1      16.952   3.176  12.614  1.00  0.00     0.156 C 
HETATM   14  O2  UNL     1      18.292   3.413  12.358  1.00  0.00    -0.344 OA
BRANCH  13  15
HETATM   15  C11 UNL     1      16.454   1.825  12.344  1.00  0.00     0.060 C 
BRANCH  15  16
HETATM   16  C12 UNL     1      16.072   1.500  10.929  1.00  0.00     0.166 C 
BRANCH  16  17
HETATM   17  O1  UNL     1      16.404   2.591  10.122  1.00  0.00    -0.401 OA
ATOM     18  H1  UNL     1      16.714   2.261   9.286  1.00  0.00     0.209 HD
ENDBRANCH  16  17
ENDBRANCH  15  16
ENDBRANCH  13  15
ENDBRANCH   6   7
BRANCH   1  19
HETATM   19  C2  UNL     1      18.343   5.551   9.191  1.00  0.00     0.020 C 
HETATM   20  C1  UNL     1      17.378   6.687   9.033  1.00  0.00     0.015 C 
HETATM   21  C3  UNL     1      19.058   5.595   7.767  1.00  0.00     0.015 C 
ENDBRANCH   1  19
BRANCH   3  22
HETATM   22  N1  UNL     1      22.930   6.276  11.787  1.00  0.00    -0.380 N 
ATOM     23  H12 UNL     1      23.757   6.433  11.211  1.00  0.00     0.158 HD
ATOM     24  H11 UNL     1      23.306   6.362  12.732  1.00  0.00     0.158 HD
ENDBRANCH   3  22
TORSDOF 6
ENDMDL
MODEL 3
REMARK VINA RESULT: -5.539086439      2.716      3.835
REMARK  6 active torsions:
REMARK  status: ('A' for Active; 'I' for Inactive)
REMARK    1  A    between atoms: C2_2  and  C4_4 
REMARK    2  A    between atoms: C5_6  and  N1_7 
REMARK    3  A    between atoms: C6_12  and  C7_13 
REMARK    4  A    between atoms: C10_19  and  C11_20 
REMARK    5  A    between atoms: C11_20  and  C12_21 
REMARK    6  A    between atoms: C12_21  and  O1_22 
ROOT
HETATM    1  C4  UNL     1      17.181   6.662  12.253  1.00  0.00     0.019 A 
HETATM    2  S1  UNL     1      17.896   8.162  12.440  1.00  0.00    -0.056 SA
HETATM    3  C5  UNL     1      18.631   7.980  13.968  1.00  0.00     0.143 A 
HETATM    4  N2  UNL     1      18.284   6.692  14.307  1.00  0.00    -0.334 N 
ATOM      5  H2  UNL     1      18.587   6.278  15.189  1.00  0.00     0.168 HD
HETATM    6  C6  UNL     1      17.547   6.012  13.454  1.00  0.00     0.079 A 
ENDROOT
BRANCH   6   7
HETATM    7  C7  UNL     1      16.834   4.748  13.773  1.00  0.00     0.100 C 
HETATM    8  C8  UNL     1      16.104   4.607  15.019  1.00  0.00     0.298 C 
HETATM    9  N3  UNL     1      16.405   3.323  15.701  1.00  0.00    -0.067 N 
HETATM   10  C9  UNL     1      16.434   2.201  14.804  1.00  0.00     0.265 C 
ATOM     11  H32 UNL     1      17.275   3.388  16.230  1.00  0.00     0.277 HD
ATOM     12  H31 UNL     1      15.754   3.158  16.468  1.00  0.00     0.277 HD
HETATM   13  C10 UNL     1      16.529   2.620  13.346  1.00  0.00     0.156 C 
HETATM   14  O2  UNL     1      17.506   3.598  13.275  1.00  0.00    -0.344 OA
BRANCH  13  15
HETATM   15  C11 UNL     1      16.637   1.504  12.403  1.00  0.00     0.060 C 
BRANCH  15  16
HETATM   16  C12 UNL     1      16.091   1.713  11.020  1.00  0.00     0.166 C 
BRANCH  16  17
HETATM   17  O1  UNL     1      15.209   2.796  11.054  1.00  0.00    -0.401 OA
ATOM     18  H1  UNL     1      15.061   3.090  10.162  1.00  0.00     0.209 HD
ENDBRANCH  16  17
ENDBRANCH  15  16
ENDBRANCH  13  15
ENDBRANCH   6   7
BRANCH   1  19
HETATM   19  C2  UNL     1      16.601   6.003  11.067  1.00  0.00     0.020 C 
HETATM   20  C1  UNL     1      16.041   6.947  10.045  1.00  0.00     0.015 C 
HETATM   21  C3  UNL     1      17.878   5.466  10.278  1.00  0.00     0.015 C 
ENDBRANCH   1  19
BRANCH   3  22
HETATM   22  N1  UNL     1      19.363   8.791  14.659  1.00  0.00    -0.380 N 
ATOM     23  H12 UNL     1      19.365   8.898  15.673  1.00  0.00     0.158 HD
ATOM     24  H11 UNL     1      20.086   9.450  14.371  1.00  0.00     0.158 HD
ENDBRANCH   3  22
TORSDOF 6
ENDMDL
MODEL 4
REMARK VINA RESULT: -5.417009262      2.262      3.039
REMARK  6 active torsions:
REMARK  status: ('A' for Active; 'I' for Inactive)
REMARK    1  A    between atoms: C2_2  and  C4_4 
REMARK    2  A    between atoms: C5_6  and  N1_7 
REMARK    3  A    between atoms: C6_12  and  C7_13 
REMARK    4  A    between atoms: C10_19  and  C11_20 
REMARK    5  A    between atoms: C11_20  and  C12_21 
REMARK    6  A    between atoms: C12_21  and  O1_22 
ROOT
HETATM    1  C4  UNL     1      18.764   6.452  12.862  1.00  0.00     0.019 A 
HETATM    2  S1  UNL     1      19.651   7.868  12.925  1.00  0.00    -0.056 SA
HETATM    3  C5  UNL     1      19.023   8.578  14.342  1.00  0.00     0.143 A 
HETATM    4  N2  UNL     1      18.095   7.647  14.749  1.00  0.00    -0.334 N 
ATOM      5  H2  UNL     1      17.541   7.788  15.594  1.00  0.00     0.168 HD
HETATM    6  C6  UNL     1      17.948   6.567  14.011  1.00  0.00     0.079 A 
ENDROOT
BRANCH   6   7
HETATM    7  C7  UNL     1      16.809   5.619  14.117  1.00  0.00     0.100 C 
HETATM    8  C8  UNL     1      15.463   6.108  14.354  1.00  0.00     0.298 C 
HETATM    9  N3  UNL     1      14.771   5.344  15.423  1.00  0.00    -0.067 N 
HETATM   10  C9  UNL     1      14.967   3.924  15.319  1.00  0.00     0.265 C 
ATOM     11  H32 UNL     1      15.044   5.682  16.346  1.00  0.00     0.277 HD
ATOM     12  H31 UNL     1      13.778   5.572  15.448  1.00  0.00     0.277 HD
HETATM   13  C10 UNL     1      16.117   3.558  14.395  1.00  0.00     0.156 C 
HETATM   14  O2  UNL     1      17.174   4.388  14.727  1.00  0.00    -0.344 OA
BRANCH  13  15
HETATM   15  C11 UNL     1      16.399   2.123  14.320  1.00  0.00     0.060 C 
BRANCH  15  16
HETATM   16  C12 UNL     1      16.420   1.355  15.610  1.00  0.00     0.166 C 
BRANCH  16  17
HETATM   17  O1  UNL     1      17.544   1.752  16.340  1.00  0.00    -0.401 OA
ATOM     18  H1  UNL     1      18.224   2.007  15.727  1.00  0.00     0.209 HD
ENDBRANCH  16  17
ENDBRANCH  15  16
ENDBRANCH  13  15
ENDBRANCH   6   7
BRANCH   1  19
HETATM   19  C2  UNL     1      18.949   5.224  12.064  1.00  0.00     0.020 C 
HETATM   20  C1  UNL     1      18.240   5.231  10.743  1.00  0.00     0.015 C 
HETATM   21  C3  UNL     1      20.460   5.328  11.568  1.00  0.00     0.015 C 
ENDBRANCH   1  19
BRANCH   3  22
HETATM   22  N1  UNL     1      19.326   9.682  14.944  1.00  0.00    -0.380 N 
ATOM     23  H12 UNL     1      19.093   9.938  15.904  1.00  0.00     0.158 HD
ATOM     24  H11 UNL     1      19.862  10.491  14.629  1.00  0.00     0.158 HD
ENDBRANCH   3  22
TORSDOF 6
ENDMDL
MODEL 5
REMARK VINA RESULT: -5.363714032      2.823      4.361
REMARK  6 active torsions:
REMARK  status: ('A' for Active; 'I' for Inactive)
REMARK    1  A    between atoms: C2_2  and  C4_4 
REMARK    2  A    between atoms: C5_6  and  N1_7 
REMARK    3  A    between atoms: C6_12  and  C7_13 
REMARK    4  A    between atoms: C10_19  and  C11_20 
REMARK    5  A    between atoms: C11_20  and  C12_21 
REMARK    6  A    between atoms: C12_21  and  O1_22 
ROOT
HETATM    1  C4  UNL     1      18.135   6.377  11.581  1.00  0.00     0.019 A 
HETATM    2  S1  UNL     1      19.527   7.279  11.377  1.00  0.00    -0.056 SA
HETATM    3  C5  UNL     1      20.707   6.178  11.927  1.00  0.00     0.143 A 
HETATM    4  N2  UNL     1      19.948   5.084  12.271  1.00  0.00    -0.334 N 
ATOM      5  H2  UNL     1      20.379   4.236  12.641  1.00  0.00     0.168 HD
HETATM    6  C6  UNL     1      18.645   5.168  12.107  1.00  0.00     0.079 A 
ENDROOT
BRANCH   6   7
HETATM    7  C7  UNL     1      17.656   4.226  12.694  1.00  0.00     0.100 C 
HETATM    8  C8  UNL     1      17.019   4.524  13.963  1.00  0.00     0.298 C 
HETATM    9  N3  UNL     1      17.030   3.357  14.881  1.00  0.00    -0.067 N 
HETATM   10  C9  UNL     1      16.693   2.121  14.228  1.00  0.00     0.265 C 
ATOM     11  H32 UNL     1      17.927   3.281  15.362  1.00  0.00     0.277 HD
ATOM     12  H31 UNL     1      16.423   3.520  15.684  1.00  0.00     0.277 HD
HETATM   13  C10 UNL     1      16.774   2.220  12.714  1.00  0.00     0.156 C 
HETATM   14  O2  UNL     1      17.963   2.866  12.419  1.00  0.00    -0.344 OA
BRANCH  13  15
HETATM   15  C11 UNL     1      16.512   0.961  12.012  1.00  0.00     0.060 C 
BRANCH  15  16
HETATM   16  C12 UNL     1      16.067   1.048  10.581  1.00  0.00     0.166 C 
BRANCH  16  17
HETATM   17  O1  UNL     1      16.231   2.367  10.148  1.00  0.00    -0.401 OA
ATOM     18  H1  UNL     1      16.418   2.355   9.216  1.00  0.00     0.209 HD
ENDBRANCH  16  17
ENDBRANCH  15  16
ENDBRANCH  13  15
ENDBRANCH   6   7
BRANCH   1  19
HETATM   19  C2  UNL     1      16.763   6.578  11.074  1.00  0.00     0.020 C 
HETATM   20  C1  UNL     1      16.015   7.697  11.736  1.00  0.00     0.015 C 
HETATM   21  C3  UNL     1      16.991   7.213   9.630  1.00  0.00     0.015 C 
ENDBRANCH   1  19
BRANCH   3  22
HETATM   22  N1  UNL     1      21.995   6.278  11.993  1.00  0.00    -0.380 N 
ATOM     23  H12 UNL     1      22.541   7.139  12.001  1.00  0.00     0.158 HD
ATOM     24  H11 UNL     1      22.718   5.563  12.078  1.00  0.00     0.158 HD
ENDBRANCH   3  22
TORSDOF 6
ENDMDL
