MODEL 1
REMARK VINA RESULT: -6.404118616      0.000      0.000
REMARK  2 active torsions:
REMARK  status: ('A' for Active; 'I' for Inactive)
REMARK    1  A    between atoms: N1_1  and  C1_4 
REMARK    2  A    between atoms: C5_9  and  N2_10 
ROOT
HETATM    1  C1  UNL     1       5.937   9.456  45.162  1.00  0.00     0.146 A 
HETATM    2  C2  UNL     1       6.241   8.780  44.000  1.00  0.00     0.098 A 
HETATM    3  C3  UNL     1       5.775   9.235  42.770  1.00  0.00     0.124 A 
HETATM    4  F1  UNL     1       6.087   8.554  41.642  1.00  0.00    -0.206 F 
HETATM    5  C4  UNL     1       5.002  10.382  42.767  1.00  0.00     0.099 A 
HETATM    6  C5  UNL     1       4.733  11.014  43.964  1.00  0.00     0.158 A 
HETATM    7  O1  UNL     1       5.200  10.543  45.119  1.00  0.00    -0.277 OA
ENDROOT
BRANCH   6   8
HETATM    8  N2  UNL     1       3.936  12.194  43.946  1.00  0.00    -0.313 N 
HETATM    9  C6  UNL     1       3.175  12.685  44.922  1.00  0.00     0.098 A 
HETATM   10  C7  UNL     1       2.553  13.847  44.528  1.00  0.00     0.019 A 
HETATM   11  C8  UNL     1       2.960  14.078  43.231  1.00  0.00     0.019 A 
HETATM   12  C9  UNL     1       3.807  13.043  42.911  1.00  0.00     0.098 A 
ENDBRANCH   6   8
BRANCH   1  13
HETATM   13  N1  UNL     1       6.405   8.976  46.283  1.00  0.00    -0.380 N 
ATOM     14  H12 UNL     1       6.078   9.302  47.193  1.00  0.00     0.158 HD
ATOM     15  H11 UNL     1       7.120   8.251  46.226  1.00  0.00     0.158 HD
ENDBRANCH   1  13
TORSDOF 2
ENDMDL
MODEL 2
REMARK VINA RESULT: -6.342717502      0.105      1.003
REMARK  2 active torsions:
REMARK  status: ('A' for Active; 'I' for Inactive)
REMARK    1  A    between atoms: N1_1  and  C1_4 
REMARK    2  A    between atoms: C5_9  and  N2_10 
ROOT
HETATM    1  C1  UNL     1       5.996   9.454  45.134  1.00  0.00     0.146 A 
HETATM    2  C2  UNL     1       6.313   8.754  43.990  1.00  0.00     0.098 A 
HETATM    3  C3  UNL     1       5.858   9.181  42.746  1.00  0.00     0.124 A 
HETATM    4  F1  UNL     1       6.182   8.476  41.635  1.00  0.00    -0.206 F 
HETATM    5  C4  UNL     1       5.083  10.326  42.711  1.00  0.00     0.099 A 
HETATM    6  C5  UNL     1       4.801  10.982  43.891  1.00  0.00     0.158 A 
HETATM    7  O1  UNL     1       5.257  10.538  45.060  1.00  0.00    -0.277 OA
ENDROOT
BRANCH   6   8
HETATM    8  N2  UNL     1       4.001  12.160  43.839  1.00  0.00    -0.313 N 
HETATM    9  C6  UNL     1       3.803  12.973  42.803  1.00  0.00     0.098 A 
HETATM   10  C7  UNL     1       2.964  14.009  43.139  1.00  0.00     0.019 A 
HETATM   11  C8  UNL     1       2.631  13.817  44.464  1.00  0.00     0.019 A 
HETATM   12  C9  UNL     1       3.286  12.674  44.856  1.00  0.00     0.098 A 
ENDBRANCH   6   8
BRANCH   1  13
HETATM   13  N1  UNL     1       6.455   9.000  46.269  1.00  0.00    -0.380 N 
ATOM     14  H12 UNL     1       7.453   8.882  46.445  1.00  0.00     0.158 HD
ATOM     15  H11 UNL     1       5.776   8.759  46.992  1.00  0.00     0.158 HD
ENDBRANCH   1  13
TORSDOF 2
ENDMDL
MODEL 3
REMARK VINA RESULT: -6.130882530      0.918      1.130
REMARK  2 active torsions:
REMARK  status: ('A' for Active; 'I' for Inactive)
REMARK    1  A    between atoms: N1_1  and  C1_4 
REMARK    2  A    between atoms: C5_9  and  N2_10 
ROOT
HETATM    1  C1  UNL     1       6.028   9.293  44.999  1.00  0.00     0.146 A 
HETATM    2  C2  UNL     1       6.426   8.352  44.073  1.00  0.00     0.098 A 
HETATM    3  C3  UNL     1       6.180   8.541  42.717  1.00  0.00     0.124 A 
HETATM    4  F1  UNL     1       6.581   7.602  41.826  1.00  0.00    -0.206 F 
HETATM    5  C4  UNL     1       5.525   9.701  42.344  1.00  0.00     0.099 A 
HETATM    6  C5  UNL     1       5.153  10.604  43.318  1.00  0.00     0.158 A 
HETATM    7  O1  UNL     1       5.409  10.383  44.606  1.00  0.00    -0.277 OA
ENDROOT
BRANCH   6   8
HETATM    8  N2  UNL     1       4.479  11.794  42.920  1.00  0.00    -0.313 N 
HETATM    9  C6  UNL     1       3.768  12.628  43.678  1.00  0.00     0.098 A 
HETATM   10  C7  UNL     1       3.269  13.670  42.933  1.00  0.00     0.019 A 
HETATM   11  C8  UNL     1       3.701  13.459  41.640  1.00  0.00     0.019 A 
HETATM   12  C9  UNL     1       4.439  12.300  41.674  1.00  0.00     0.098 A 
ENDBRANCH   6   8
BRANCH   1  13
HETATM   13  N1  UNL     1       6.289   9.054  46.256  1.00  0.00    -0.380 N 
ATOM     14  H12 UNL     1       7.224   9.167  46.649  1.00  0.00     0.158 HD
ATOM     15  H11 UNL     1       5.518   8.746  46.850  1.00  0.00     0.158 HD
ENDBRANCH   1  13
TORSDOF 2
ENDMDL
MODEL 4
REMARK VINA RESULT: -6.104214728      2.559      4.507
REMARK  2 active torsions:
REMARK  status: ('A' for Active; 'I' for Inactive)
REMARK    1  A    between atoms: N1_1  and  C1_4 
REMARK    2  A    between atoms: C5_9  and  N2_10 
ROOT
HETATM    1  C1  UNL     1       4.150  11.731  46.224  1.00  0.00     0.146 A 
HETATM    2  C2  UNL     1       3.262  12.588  45.610  1.00  0.00     0.098 A 
HETATM    3  C3  UNL     1       3.319  12.806  44.236  1.00  0.00     0.124 A 
HETATM    4  F1  UNL     1       2.436  13.653  43.655  1.00  0.00    -0.206 F 
HETATM    5  C4  UNL     1       4.295  12.132  43.525  1.00  0.00     0.099 A 
HETATM    6  C5  UNL     1       5.154  11.287  44.198  1.00  0.00     0.158 A 
HETATM    7  O1  UNL     1       5.064  11.108  45.515  1.00  0.00    -0.277 OA
ENDROOT
BRANCH   6   8
HETATM    8  N2  UNL     1       6.154  10.600  43.453  1.00  0.00    -0.313 N 
HETATM    9  C6  UNL     1       7.148  11.123  42.736  1.00  0.00     0.098 A 
HETATM   10  C7  UNL     1       7.913  10.138  42.157  1.00  0.00     0.019 A 
HETATM   11  C8  UNL     1       7.350   8.939  42.544  1.00  0.00     0.019 A 
HETATM   12  C9  UNL     1       6.276   9.265  43.337  1.00  0.00     0.098 A 
ENDBRANCH   6   8
BRANCH   1  13
HETATM   13  N1  UNL     1       4.043  11.572  47.516  1.00  0.00    -0.380 N 
ATOM     14  H12 UNL     1       4.711  11.018  48.053  1.00  0.00     0.158 HD
ATOM     15  H11 UNL     1       3.258  12.023  47.986  1.00  0.00     0.158 HD
ENDBRANCH   1  13
TORSDOF 2
ENDMDL
MODEL 5
REMARK VINA RESULT: -5.917191674      1.491      1.533
REMARK  2 active torsions:
REMARK  status: ('A' for Active; 'I' for Inactive)
REMARK    1  A    between atoms: N1_1  and  C1_4 
REMARK    2  A    between atoms: C5_9  and  N2_10 
ROOT
HETATM    1  C1  UNL     1       5.977   8.998  43.916  1.00  0.00     0.146 A 
HETATM    2  C2  UNL     1       7.172   9.244  43.273  1.00  0.00     0.098 A 
HETATM    3  C3  UNL     1       7.443  10.497  42.731  1.00  0.00     0.124 A 
HETATM    4  F1  UNL     1       8.624  10.714  42.103  1.00  0.00    -0.206 F 
HETATM    5  C4  UNL     1       6.471  11.472  42.865  1.00  0.00     0.099 A 
HETATM    6  C5  UNL     1       5.296  11.164  43.519  1.00  0.00     0.158 A 
HETATM    7  O1  UNL     1       5.078   9.950  44.023  1.00  0.00    -0.277 OA
ENDROOT
BRANCH   6   8
HETATM    8  N2  UNL     1       4.304  12.177  43.649  1.00  0.00    -0.313 N 
HETATM    9  C6  UNL     1       3.505  12.416  44.688  1.00  0.00     0.098 A 
HETATM   10  C7  UNL     1       2.675  13.484  44.439  1.00  0.00     0.019 A 
HETATM   11  C8  UNL     1       2.986  13.923  43.170  1.00  0.00     0.019 A 
HETATM   12  C9  UNL     1       3.989  13.097  42.719  1.00  0.00     0.098 A 
ENDBRANCH   6   8
BRANCH   1  13
HETATM   13  N1  UNL     1       5.785   7.801  44.402  1.00  0.00    -0.380 N 
ATOM     14  H12 UNL     1       4.884   7.504  44.778  1.00  0.00     0.158 HD
ATOM     15  H11 UNL     1       6.576   7.156  44.397  1.00  0.00     0.158 HD
ENDBRANCH   1  13
TORSDOF 2
ENDMDL
