MODEL 1
REMARK VINA RESULT: -8.134325802      0.000      0.000
REMARK  5 active torsions:
REMARK  status: ('A' for Active; 'I' for Inactive)
REMARK    1  A    between atoms: O1_1  and  N1_3 
REMARK    2  A    between atoms: C1_5  and  C2_7 
REMARK    3  A    between atoms: C5_10  and  N2_11 
REMARK    4  A    between atoms: C10_18  and  O2_19 
REMARK    5  A    between atoms: O2_19  and  C11_20 
ROOT
HETATM    1  C2  UNL     1       6.149  10.224  46.382  1.00  0.00     0.038 A 
HETATM    2  C3  UNL     1       5.127  10.556  47.317  1.00  0.00     0.020 A 
HETATM    3  C4  UNL     1       4.341  11.665  47.145  1.00  0.00     0.031 A 
HETATM    4  C5  UNL     1       4.500  12.499  46.075  1.00  0.00     0.042 A 
HETATM    5  C9  UNL     1       5.480  12.176  45.180  1.00  0.00     0.068 A 
HETATM    6  C10 UNL     1       6.315  11.043  45.310  1.00  0.00     0.091 A 
ENDROOT
BRANCH   6   7
HETATM    7  O2  UNL     1       7.256  10.830  44.338  1.00  0.00    -0.310 OA
BRANCH   7   8
HETATM    8  C11 UNL     1       8.481  11.431  44.202  1.00  0.00     0.076 A 
HETATM    9  C12 UNL     1       9.582  10.869  43.555  1.00  0.00     0.037 A 
HETATM   10  C13 UNL     1      10.774  11.510  43.445  1.00  0.00     0.003 A 
HETATM   11  C14 UNL     1      10.930  12.775  43.989  1.00  0.00     0.000 A 
HETATM   12  C15 UNL     1       9.860  13.358  44.635  1.00  0.00     0.003 A 
HETATM   13  C16 UNL     1       8.662  12.691  44.734  1.00  0.00     0.037 A 
ENDBRANCH   7   8
ENDBRANCH   6   7
BRANCH   1  14
HETATM   14  C1  UNL     1       7.018   9.137  46.732  1.00  0.00     0.136 C 
HETATM   15  N1  UNL     1       7.621   9.012  47.830  1.00  0.00    -0.257 N 
ATOM     16  H1  UNL     1       7.472   9.740  48.528  1.00  0.00     0.195 HD
HETATM   17 CL1  UNL     1       7.298   7.862  45.551  1.00  0.00    -0.062 Cl
BRANCH  15  18
HETATM   18  O1  UNL     1       8.457   7.987  48.168  1.00  0.00    -0.289 OA
ATOM     19  H1  UNL     1       8.829   7.353  47.567  1.00  0.00     0.244 HD
ENDBRANCH  15  18
ENDBRANCH   1  14
BRANCH   4  20
HETATM   20  N2  UNL     1       3.683  13.654  45.898  1.00  0.00    -0.317 N 
HETATM   21  C6  UNL     1       2.994  14.319  46.853  1.00  0.00     0.115 A 
HETATM   22  C7  UNL     1       2.324  15.380  46.303  1.00  0.00     0.106 A 
HETATM   23  N3  UNL     1       2.612  15.360  44.989  1.00  0.00    -0.360 N 
HETATM   24  C8  UNL     1       3.433  14.315  44.754  1.00  0.00     0.188 A 
ATOM     25  H3  UNL     1       2.270  16.021  44.291  1.00  0.00     0.166 HD
ENDBRANCH   4  20
TORSDOF 5
ENDMDL
MODEL 2
REMARK VINA RESULT: -8.024559561      3.263      6.103
REMARK  5 active torsions:
REMARK  status: ('A' for Active; 'I' for Inactive)
REMARK    1  A    between atoms: O1_1  and  N1_3 
REMARK    2  A    between atoms: C1_5  and  C2_7 
REMARK    3  A    between atoms: C5_10  and  N2_11 
REMARK    4  A    between atoms: C10_18  and  O2_19 
REMARK    5  A    between atoms: O2_19  and  C11_20 
ROOT
HETATM    1  C2  UNL     1       5.766  10.765  46.700  1.00  0.00     0.038 A 
HETATM    2  C3  UNL     1       6.063   9.461  47.191  1.00  0.00     0.020 A 
HETATM    3  C4  UNL     1       6.893   8.616  46.503  1.00  0.00     0.031 A 
HETATM    4  C5  UNL     1       7.471   8.982  45.321  1.00  0.00     0.042 A 
HETATM    5  C9  UNL     1       7.186  10.234  44.855  1.00  0.00     0.068 A 
HETATM    6  C10 UNL     1       6.338  11.144  45.527  1.00  0.00     0.091 A 
ENDROOT
BRANCH   6   7
HETATM    7  O2  UNL     1       6.139  12.372  44.954  1.00  0.00    -0.310 OA
BRANCH   7   8
HETATM    8  C11 UNL     1       5.374  12.678  43.858  1.00  0.00     0.076 A 
HETATM    9  C12 UNL     1       5.176  11.839  42.760  1.00  0.00     0.037 A 
HETATM   10  C13 UNL     1       4.404  12.191  41.699  1.00  0.00     0.003 A 
HETATM   11  C14 UNL     1       3.776  13.426  41.681  1.00  0.00     0.000 A 
HETATM   12  C15 UNL     1       3.953  14.277  42.753  1.00  0.00     0.003 A 
HETATM   13  C16 UNL     1       4.738  13.901  43.816  1.00  0.00     0.037 A 
ENDBRANCH   7   8
ENDBRANCH   6   7
BRANCH   1  14
HETATM   14  C1  UNL     1       4.766  11.511  47.409  1.00  0.00     0.136 C 
HETATM   15  N1  UNL     1       4.786  11.765  48.642  1.00  0.00    -0.257 N 
ATOM     16  H1  UNL     1       5.582  11.418  49.176  1.00  0.00     0.195 HD
HETATM   17 CL1  UNL     1       3.378  12.126  46.519  1.00  0.00    -0.062 Cl
BRANCH  15  18
HETATM   18  O1  UNL     1       3.835  12.465  49.327  1.00  0.00    -0.289 OA
ATOM     19  H1  UNL     1       3.851  12.658  50.257  1.00  0.00     0.244 HD
ENDBRANCH  15  18
ENDBRANCH   1  14
BRANCH   4  20
HETATM   20  N2  UNL     1       8.333   8.101  44.604  1.00  0.00    -0.317 N 
HETATM   21  C6  UNL     1       8.744   6.871  44.989  1.00  0.00     0.115 A 
HETATM   22  C7  UNL     1       9.567   6.327  44.038  1.00  0.00     0.106 A 
HETATM   23  N3  UNL     1       9.657   7.243  43.057  1.00  0.00    -0.360 N 
HETATM   24  C8  UNL     1       8.910   8.310  43.408  1.00  0.00     0.188 A 
ATOM     25  H3  UNL     1      10.198   7.147  42.197  1.00  0.00     0.166 HD
ENDBRANCH   4  20
TORSDOF 5
ENDMDL
MODEL 3
REMARK VINA RESULT: -7.951313773      4.277      5.943
REMARK  5 active torsions:
REMARK  status: ('A' for Active; 'I' for Inactive)
REMARK    1  A    between atoms: O1_1  and  N1_3 
REMARK    2  A    between atoms: C1_5  and  C2_7 
REMARK    3  A    between atoms: C5_10  and  N2_11 
REMARK    4  A    between atoms: C10_18  and  O2_19 
REMARK    5  A    between atoms: O2_19  and  C11_20 
ROOT
HETATM    1  C2  UNL     1       8.389   7.362  43.924  1.00  0.00     0.038 A 
HETATM    2  C3  UNL     1       8.046   6.372  42.959  1.00  0.00     0.020 A 
HETATM    3  C4  UNL     1       7.308   6.689  41.850  1.00  0.00     0.031 A 
HETATM    4  C5  UNL     1       6.868   7.961  41.618  1.00  0.00     0.042 A 
HETATM    5  C9  UNL     1       7.201   8.908  42.544  1.00  0.00     0.068 A 
HETATM    6  C10 UNL     1       7.962   8.634  43.703  1.00  0.00     0.091 A 
ENDROOT
BRANCH   6   7
HETATM    7  O2  UNL     1       8.232   9.676  44.550  1.00  0.00    -0.310 OA
BRANCH   7   8
HETATM    8  C11 UNL     1       7.339  10.497  45.190  1.00  0.00     0.076 A 
HETATM    9  C12 UNL     1       7.119  11.839  44.877  1.00  0.00     0.037 A 
HETATM   10  C13 UNL     1       6.218  12.609  45.541  1.00  0.00     0.003 A 
HETATM   11  C14 UNL     1       5.474  12.063  46.575  1.00  0.00     0.000 A 
HETATM   12  C15 UNL     1       5.669  10.739  46.908  1.00  0.00     0.003 A 
HETATM   13  C16 UNL     1       6.585   9.978  46.222  1.00  0.00     0.037 A 
ENDBRANCH   7   8
ENDBRANCH   6   7
BRANCH   1  14
HETATM   14  C1  UNL     1       9.027   6.902  45.124  1.00  0.00     0.136 C 
HETATM   15  N1  UNL     1       8.507   6.903  46.270  1.00  0.00    -0.257 N 
ATOM     16  H1  UNL     1       7.551   7.252  46.348  1.00  0.00     0.195 HD
HETATM   17 CL1  UNL     1      10.676   6.294  45.027  1.00  0.00    -0.062 Cl
BRANCH  15  18
HETATM   18  O1  UNL     1       9.109   6.478  47.419  1.00  0.00    -0.289 OA
ATOM     19  H1  UNL     1       9.183   6.977  48.224  1.00  0.00     0.244 HD
ENDBRANCH  15  18
ENDBRANCH   1  14
BRANCH   4  20
HETATM   20  N2  UNL     1       6.097   8.289  40.464  1.00  0.00    -0.317 N 
HETATM   21  C6  UNL     1       5.807   9.526  40.002  1.00  0.00     0.115 A 
HETATM   22  C7  UNL     1       5.043   9.442  38.867  1.00  0.00     0.106 A 
HETATM   23  N3  UNL     1       4.866   8.129  38.635  1.00  0.00    -0.360 N 
HETATM   24  C8  UNL     1       5.505   7.440  39.604  1.00  0.00     0.188 A 
ATOM     25  H3  UNL     1       4.339   7.723  37.861  1.00  0.00     0.166 HD
ENDBRANCH   4  20
TORSDOF 5
ENDMDL
MODEL 4
REMARK VINA RESULT: -7.950395808      3.242      6.172
REMARK  5 active torsions:
REMARK  status: ('A' for Active; 'I' for Inactive)
REMARK    1  A    between atoms: O1_1  and  N1_3 
REMARK    2  A    between atoms: C1_5  and  C2_7 
REMARK    3  A    between atoms: C5_10  and  N2_11 
REMARK    4  A    between atoms: C10_18  and  O2_19 
REMARK    5  A    between atoms: O2_19  and  C11_20 
ROOT
HETATM    1  C2  UNL     1       5.785  10.780  46.700  1.00  0.00     0.038 A 
HETATM    2  C3  UNL     1       6.073   9.463  47.160  1.00  0.00     0.020 A 
HETATM    3  C4  UNL     1       6.907   8.634  46.459  1.00  0.00     0.031 A 
HETATM    4  C5  UNL     1       7.499   9.028  45.293  1.00  0.00     0.042 A 
HETATM    5  C9  UNL     1       7.223  10.292  44.857  1.00  0.00     0.068 A 
HETATM    6  C10 UNL     1       6.371  11.187  45.543  1.00  0.00     0.091 A 
ENDROOT
BRANCH   6   7
HETATM    7  O2  UNL     1       6.181  12.430  45.000  1.00  0.00    -0.310 OA
BRANCH   7   8
HETATM    8  C11 UNL     1       5.377  12.777  43.945  1.00  0.00     0.076 A 
HETATM    9  C12 UNL     1       4.666  13.973  43.840  1.00  0.00     0.037 A 
HETATM   10  C13 UNL     1       3.884  14.269  42.769  1.00  0.00     0.003 A 
HETATM   11  C14 UNL     1       3.772  13.364  41.725  1.00  0.00     0.000 A 
HETATM   12  C15 UNL     1       4.464  12.172  41.801  1.00  0.00     0.003 A 
HETATM   13  C16 UNL     1       5.249  11.894  42.893  1.00  0.00     0.037 A 
ENDBRANCH   7   8
ENDBRANCH   6   7
BRANCH   1  14
HETATM   14  C1  UNL     1       4.780  11.511  47.418  1.00  0.00     0.136 C 
HETATM   15  N1  UNL     1       4.804  11.761  48.651  1.00  0.00    -0.257 N 
ATOM     16  H1  UNL     1       5.608  11.422  49.179  1.00  0.00     0.195 HD
HETATM   17 CL1  UNL     1       3.378  12.111  46.538  1.00  0.00    -0.062 Cl
BRANCH  15  18
HETATM   18  O1  UNL     1       3.849  12.447  49.345  1.00  0.00    -0.289 OA
ATOM     19  H1  UNL     1       2.956  12.158  49.492  1.00  0.00     0.244 HD
ENDBRANCH  15  18
ENDBRANCH   1  14
BRANCH   4  20
HETATM   20  N2  UNL     1       8.366   8.162  44.563  1.00  0.00    -0.317 N 
HETATM   21  C6  UNL     1       8.788   6.932  44.932  1.00  0.00     0.115 A 
HETATM   22  C7  UNL     1       9.612   6.406  43.971  1.00  0.00     0.106 A 
HETATM   23  N3  UNL     1       9.692   7.334  43.001  1.00  0.00    -0.360 N 
HETATM   24  C8  UNL     1       8.937   8.391  43.367  1.00  0.00     0.188 A 
ATOM     25  H3  UNL     1      10.230   7.253  42.138  1.00  0.00     0.166 HD
ENDBRANCH   4  20
TORSDOF 5
ENDMDL
MODEL 5
REMARK VINA RESULT: -7.903928495      3.549      6.081
REMARK  5 active torsions:
REMARK  status: ('A' for Active; 'I' for Inactive)
REMARK    1  A    between atoms: O1_1  and  N1_3 
REMARK    2  A    between atoms: C1_5  and  C2_7 
REMARK    3  A    between atoms: C5_10  and  N2_11 
REMARK    4  A    between atoms: C10_18  and  O2_19 
REMARK    5  A    between atoms: O2_19  and  C11_20 
ROOT
HETATM    1  C2  UNL     1       6.220   9.208  45.508  1.00  0.00     0.038 A 
HETATM    2  C3  UNL     1       5.991   7.838  45.822  1.00  0.00     0.020 A 
HETATM    3  C4  UNL     1       6.472   6.837  45.022  1.00  0.00     0.031 A 
HETATM    4  C5  UNL     1       7.191   7.103  43.891  1.00  0.00     0.042 A 
HETATM    5  C9  UNL     1       7.412   8.418  43.595  1.00  0.00     0.068 A 
HETATM    6  C10 UNL     1       6.939   9.488  44.389  1.00  0.00     0.091 A 
ENDROOT
BRANCH   6   7
HETATM    7  O2  UNL     1       7.234  10.762  43.982  1.00  0.00    -0.310 OA
BRANCH   7   8
HETATM    8  C11 UNL     1       8.442  11.409  44.042  1.00  0.00     0.076 A 
HETATM    9  C12 UNL     1       9.630  10.940  43.479  1.00  0.00     0.037 A 
HETATM   10  C13 UNL     1      10.801  11.624  43.564  1.00  0.00     0.003 A 
HETATM   11  C14 UNL     1      10.845  12.837  44.231  1.00  0.00     0.000 A 
HETATM   12  C15 UNL     1       9.687  13.327  44.799  1.00  0.00     0.003 A 
HETATM   13  C16 UNL     1       8.513  12.620  44.700  1.00  0.00     0.037 A 
ENDBRANCH   7   8
ENDBRANCH   6   7
BRANCH   1  14
HETATM   14  C1  UNL     1       5.544  10.181  46.319  1.00  0.00     0.136 C 
HETATM   15  N1  UNL     1       5.625  10.266  47.572  1.00  0.00    -0.257 N 
ATOM     16  H1  UNL     1       6.227   9.593  48.046  1.00  0.00     0.195 HD
HETATM   17 CL1  UNL     1       4.497  11.358  45.534  1.00  0.00    -0.062 Cl
BRANCH  15  18
HETATM   18  O1  UNL     1       4.978  11.180  48.353  1.00  0.00    -0.289 OA
ATOM     19  H1  UNL     1       4.428  11.887  48.039  1.00  0.00     0.244 HD
ENDBRANCH  15  18
ENDBRANCH   1  14
BRANCH   4  20
HETATM   20  N2  UNL     1       7.690   6.060  43.057  1.00  0.00    -0.317 N 
HETATM   21  C6  UNL     1       7.754   6.057  41.706  1.00  0.00     0.115 A 
HETATM   22  C7  UNL     1       8.295   4.879  41.260  1.00  0.00     0.106 A 
HETATM   23  N3  UNL     1       8.564   4.153  42.361  1.00  0.00    -0.360 N 
HETATM   24  C8  UNL     1       8.195   4.874  43.441  1.00  0.00     0.188 A 
ATOM     25  H3  UNL     1       8.976   3.220  42.376  1.00  0.00     0.166 HD
ENDBRANCH   4  20
TORSDOF 5
ENDMDL
