MODEL 1
REMARK VINA RESULT: -8.821437906      0.000      0.000
REMARK  9 active torsions:
REMARK  status: ('A' for Active; 'I' for Inactive)
REMARK    1  A    between atoms: C2_2  and  O1_3 
REMARK    2  A    between atoms: O1_3  and  C3_4 
REMARK    3  A    between atoms: C6_7  and  C7_8 
REMARK    4  A    between atoms: C8_13  and  S1_14 
REMARK    5  A    between atoms: S1_14  and  C9_15 
REMARK    6  A    between atoms: C9_15  and  C11_17 
REMARK    7  A    between atoms: C9_15  and  C12_20 
REMARK    8  A    between atoms: C19_29  and  O5_30 
REMARK    9  A    between atoms: O5_30  and  C20_31 
ROOT
HETATM    1  C7  UNL     1      11.194  39.926  60.955  1.00  0.00     0.175 A 
HETATM    2  N1  UNL     1      11.797  40.873  61.693  1.00  0.00    -0.277 N 
ATOM      3  H1  UNL     1      11.611  41.077  62.675  1.00  0.00     0.189 HD
HETATM    4  N2  UNL     1      12.675  41.494  60.923  1.00  0.00    -0.272 N 
ATOM      5  H2  UNL     1      13.283  42.261  61.210  1.00  0.00     0.189 HD
HETATM    6  C8  UNL     1      12.633  40.944  59.696  1.00  0.00     0.205 A 
HETATM    7  O4  UNL     1      11.726  40.002  59.761  1.00  0.00    -0.267 OA
ENDROOT
BRANCH   6   8
HETATM    8  S1  UNL     1      13.637  41.447  58.309  1.00  0.00    -0.063 SA
BRANCH   8   9
HETATM    9  C9  UNL     1      12.903  42.932  57.538  1.00  0.00     0.105 C 
HETATM   10  C10 UNL     1      11.396  42.923  57.784  1.00  0.00     0.040 C 
BRANCH   9  11
HETATM   11  C11 UNL     1      13.445  44.097  58.283  1.00  0.00     0.193 C 
HETATM   12  O2  UNL     1      14.004  43.968  59.405  1.00  0.00    -0.647 OA
HETATM   13  O3  UNL     1      13.373  45.408  57.794  1.00  0.00    -0.647 OA
ENDBRANCH   9  11
BRANCH   9  14
HETATM   14  C12 UNL     1      13.180  42.978  56.065  1.00  0.00     0.033 C 
HETATM   15  C13 UNL     1      14.606  42.660  55.739  1.00  0.00     0.008 C 
HETATM   16  C14 UNL     1      14.897  42.743  54.258  1.00  0.00     0.001 C 
HETATM   17  C15 UNL     1      13.972  41.834  53.520  1.00  0.00     0.002 C 
HETATM   18  C16 UNL     1      12.973  41.155  54.448  1.00  0.00     0.020 C 
HETATM   19  C17 UNL     1      12.209  42.164  55.256  1.00  0.00     0.088 C 
HETATM   20 CL1  UNL     1      11.224  43.207  54.170  1.00  0.00    -0.125 Cl
ENDBRANCH   9  14
ENDBRANCH   8   9
ENDBRANCH   6   8
BRANCH   1  21
HETATM   21  C6  UNL     1      10.153  39.009  61.431  1.00  0.00     0.019 A 
HETATM   22  C5  UNL     1      10.141  38.524  62.718  1.00  0.00     0.019 A 
HETATM   23  C4  UNL     1       9.147  37.651  63.152  1.00  0.00     0.040 A 
HETATM   24  C3  UNL     1       8.137  37.236  62.323  1.00  0.00     0.102 A 
HETATM   25  C19 UNL     1       8.150  37.732  61.012  1.00  0.00     0.102 A 
HETATM   26  C18 UNL     1       9.144  38.601  60.584  1.00  0.00     0.055 A 
BRANCH  24  27
HETATM   27  O1  UNL     1       7.127  36.384  62.666  1.00  0.00    -0.349 OA
BRANCH  27  28
HETATM   28  C2  UNL     1       5.890  36.665  63.216  1.00  0.00     0.171 C 
HETATM   29  C1  UNL     1       5.929  36.434  64.706  1.00  0.00     0.034 C 
ENDBRANCH  27  28
ENDBRANCH  24  27
BRANCH  25  30
HETATM   30  O5  UNL     1       7.142  37.321  60.176  1.00  0.00    -0.349 OA
BRANCH  30  31
HETATM   31  C20 UNL     1       7.049  37.424  58.801  1.00  0.00     0.171 C 
HETATM   32  C21 UNL     1       5.959  36.506  58.302  1.00  0.00     0.034 C 
ENDBRANCH  30  31
ENDBRANCH  25  30
ENDBRANCH   1  21
TORSDOF 9
ENDMDL
MODEL 2
REMARK VINA RESULT: -8.789150791      1.294      1.524
REMARK  9 active torsions:
REMARK  status: ('A' for Active; 'I' for Inactive)
REMARK    1  A    between atoms: C2_2  and  O1_3 
REMARK    2  A    between atoms: O1_3  and  C3_4 
REMARK    3  A    between atoms: C6_7  and  C7_8 
REMARK    4  A    between atoms: C8_13  and  S1_14 
REMARK    5  A    between atoms: S1_14  and  C9_15 
REMARK    6  A    between atoms: C9_15  and  C11_17 
REMARK    7  A    between atoms: C9_15  and  C12_20 
REMARK    8  A    between atoms: C19_29  and  O5_30 
REMARK    9  A    between atoms: O5_30  and  C20_31 
ROOT
HETATM    1  C7  UNL     1      11.387  40.149  60.012  1.00  0.00     0.175 A 
HETATM    2  N1  UNL     1      12.212  40.785  60.860  1.00  0.00    -0.277 N 
ATOM      3  H1  UNL     1      12.146  40.780  61.878  1.00  0.00     0.189 HD
HETATM    4  N2  UNL     1      13.124  41.421  60.143  1.00  0.00    -0.272 N 
ATOM      5  H2  UNL     1      13.884  41.990  60.516  1.00  0.00     0.189 HD
HETATM    6  C8  UNL     1      12.882  41.189  58.840  1.00  0.00     0.205 A 
HETATM    7  O4  UNL     1      11.826  40.417  58.807  1.00  0.00    -0.267 OA
ENDROOT
BRANCH   6   8
HETATM    8  S1  UNL     1      13.847  41.837  57.486  1.00  0.00    -0.063 SA
BRANCH   8   9
HETATM    9  C9  UNL     1      13.142  43.436  56.951  1.00  0.00     0.105 C 
HETATM   10  C10 UNL     1      11.619  43.355  57.029  1.00  0.00     0.040 C 
BRANCH   9  11
HETATM   11  C11 UNL     1      13.564  44.434  57.966  1.00  0.00     0.193 C 
HETATM   12  O2  UNL     1      13.472  45.673  57.759  1.00  0.00    -0.647 OA
HETATM   13  O3  UNL     1      14.089  44.069  59.213  1.00  0.00    -0.647 OA
ENDBRANCH   9  11
BRANCH   9  14
HETATM   14  C12 UNL     1      13.565  43.781  55.555  1.00  0.00     0.033 C 
HETATM   15  C13 UNL     1      14.045  42.589  54.788  1.00  0.00     0.008 C 
HETATM   16  C14 UNL     1      14.508  42.941  53.394  1.00  0.00     0.001 C 
HETATM   17  C15 UNL     1      13.402  43.626  52.663  1.00  0.00     0.002 C 
HETATM   18  C16 UNL     1      12.176  43.834  53.542  1.00  0.00     0.020 C 
HETATM   19  C17 UNL     1      12.529  44.571  54.802  1.00  0.00     0.088 C 
HETATM   20 CL1  UNL     1      13.122  46.222  54.406  1.00  0.00    -0.125 Cl
ENDBRANCH   9  14
ENDBRANCH   8   9
ENDBRANCH   6   8
BRANCH   1  21
HETATM   21  C6  UNL     1      10.237  39.325  60.399  1.00  0.00     0.019 A 
HETATM   22  C5  UNL     1      10.151  38.725  61.634  1.00  0.00     0.019 A 
HETATM   23  C4  UNL     1       9.053  37.943  61.983  1.00  0.00     0.040 A 
HETATM   24  C3  UNL     1       8.010  37.735  61.118  1.00  0.00     0.102 A 
HETATM   25  C19 UNL     1       8.099  38.347  59.861  1.00  0.00     0.102 A 
HETATM   26  C18 UNL     1       9.195  39.125  59.517  1.00  0.00     0.055 A 
BRANCH  24  27
HETATM   27  O1  UNL     1       6.900  36.984  61.380  1.00  0.00    -0.349 OA
BRANCH  27  28
HETATM   28  C2  UNL     1       6.729  35.957  62.290  1.00  0.00     0.171 C 
HETATM   29  C1  UNL     1       6.013  36.473  63.513  1.00  0.00     0.034 C 
ENDBRANCH  27  28
ENDBRANCH  24  27
BRANCH  25  30
HETATM   30  O5  UNL     1       7.058  38.144  58.990  1.00  0.00    -0.349 OA
BRANCH  30  31
HETATM   31  C20 UNL     1       6.979  37.293  57.903  1.00  0.00     0.171 C 
HETATM   32  C21 UNL     1       5.721  36.464  58.005  1.00  0.00     0.034 C 
ENDBRANCH  30  31
ENDBRANCH  25  30
ENDBRANCH   1  21
TORSDOF 9
ENDMDL
MODEL 3
REMARK VINA RESULT: -8.738259031      2.341      3.800
REMARK  9 active torsions:
REMARK  status: ('A' for Active; 'I' for Inactive)
REMARK    1  A    between atoms: C2_2  and  O1_3 
REMARK    2  A    between atoms: O1_3  and  C3_4 
REMARK    3  A    between atoms: C6_7  and  C7_8 
REMARK    4  A    between atoms: C8_13  and  S1_14 
REMARK    5  A    between atoms: S1_14  and  C9_15 
REMARK    6  A    between atoms: C9_15  and  C11_17 
REMARK    7  A    between atoms: C9_15  and  C12_20 
REMARK    8  A    between atoms: C19_29  and  O5_30 
REMARK    9  A    between atoms: O5_30  and  C20_31 
ROOT
HETATM    1  C7  UNL     1      12.074  41.857  59.063  1.00  0.00     0.175 A 
HETATM    2  N1  UNL     1      13.306  41.788  59.592  1.00  0.00    -0.277 N 
ATOM      3  H1  UNL     1      13.605  41.158  60.337  1.00  0.00     0.189 HD
HETATM    4  N2  UNL     1      14.066  42.679  58.977  1.00  0.00    -0.272 N 
ATOM      5  H2  UNL     1      15.052  42.855  59.169  1.00  0.00     0.189 HD
HETATM    6  C8  UNL     1      13.319  43.316  58.057  1.00  0.00     0.205 A 
HETATM    7  O4  UNL     1      12.124  42.787  58.143  1.00  0.00    -0.267 OA
ENDROOT
BRANCH   6   8
HETATM    8  S1  UNL     1      13.904  44.608  56.974  1.00  0.00    -0.063 SA
BRANCH   8   9
HETATM    9  C9  UNL     1      13.318  44.284  55.274  1.00  0.00     0.105 C 
HETATM   10  C10 UNL     1      13.173  45.616  54.539  1.00  0.00     0.040 C 
BRANCH   9  11
HETATM   11  C11 UNL     1      14.411  43.544  54.593  1.00  0.00     0.193 C 
HETATM   12  O2  UNL     1      14.769  43.818  53.418  1.00  0.00    -0.647 OA
HETATM   13  O3  UNL     1      15.112  42.498  55.208  1.00  0.00    -0.647 OA
ENDBRANCH   9  11
BRANCH   9  14
HETATM   14  C12 UNL     1      12.008  43.556  55.275  1.00  0.00     0.033 C 
HETATM   15  C13 UNL     1      10.844  44.467  55.042  1.00  0.00     0.008 C 
HETATM   16  C14 UNL     1       9.519  43.741  55.081  1.00  0.00     0.001 C 
HETATM   17  C15 UNL     1       9.531  42.636  54.078  1.00  0.00     0.002 C 
HETATM   18  C16 UNL     1      10.875  42.515  53.373  1.00  0.00     0.020 C 
HETATM   19  C17 UNL     1      11.996  42.361  54.360  1.00  0.00     0.088 C 
HETATM   20 CL1  UNL     1      11.799  40.830  55.283  1.00  0.00    -0.125 Cl
ENDBRANCH   9  14
ENDBRANCH   8   9
ENDBRANCH   6   8
BRANCH   1  21
HETATM   21  C6  UNL     1      10.927  41.034  59.463  1.00  0.00     0.019 A 
HETATM   22  C5  UNL     1       9.993  40.592  58.555  1.00  0.00     0.019 A 
HETATM   23  C4  UNL     1       8.909  39.815  58.954  1.00  0.00     0.040 A 
HETATM   24  C3  UNL     1       8.720  39.454  60.263  1.00  0.00     0.102 A 
HETATM   25  C19 UNL     1       9.673  39.905  61.187  1.00  0.00     0.102 A 
HETATM   26  C18 UNL     1      10.752  40.680  60.785  1.00  0.00     0.055 A 
BRANCH  24  27
HETATM   27  O1  UNL     1       7.688  38.698  60.738  1.00  0.00    -0.349 OA
BRANCH  27  28
HETATM   28  C2  UNL     1       7.175  37.509  60.252  1.00  0.00     0.171 C 
HETATM   29  C1  UNL     1       6.748  36.631  61.401  1.00  0.00     0.034 C 
ENDBRANCH  27  28
ENDBRANCH  24  27
BRANCH  25  30
HETATM   30  O5  UNL     1       9.491  39.548  62.499  1.00  0.00    -0.349 OA
BRANCH  30  31
HETATM   31  C20 UNL     1      10.261  38.721  63.295  1.00  0.00     0.171 C 
HETATM   32  C21 UNL     1       9.926  37.279  62.994  1.00  0.00     0.034 C 
ENDBRANCH  30  31
ENDBRANCH  25  30
ENDBRANCH   1  21
TORSDOF 9
ENDMDL
MODEL 4
REMARK VINA RESULT: -8.680400289      2.271      3.328
REMARK  9 active torsions:
REMARK  status: ('A' for Active; 'I' for Inactive)
REMARK    1  A    between atoms: C2_2  and  O1_3 
REMARK    2  A    between atoms: O1_3  and  C3_4 
REMARK    3  A    between atoms: C6_7  and  C7_8 
REMARK    4  A    between atoms: C8_13  and  S1_14 
REMARK    5  A    between atoms: S1_14  and  C9_15 
REMARK    6  A    between atoms: C9_15  and  C11_17 
REMARK    7  A    between atoms: C9_15  and  C12_20 
REMARK    8  A    between atoms: C19_29  and  O5_30 
REMARK    9  A    between atoms: O5_30  and  C20_31 
ROOT
HETATM    1  C7  UNL     1      12.628  41.766  59.215  1.00  0.00     0.175 A 
HETATM    2  N1  UNL     1      13.953  41.550  59.210  1.00  0.00    -0.277 N 
ATOM      3  H1  UNL     1      14.441  40.799  59.700  1.00  0.00     0.189 HD
HETATM    4  N2  UNL     1      14.517  42.482  58.459  1.00  0.00    -0.272 N 
ATOM      5  H2  UNL     1      15.515  42.573  58.272  1.00  0.00     0.189 HD
HETATM    6  C8  UNL     1      13.552  43.291  57.986  1.00  0.00     0.205 A 
HETATM    7  O4  UNL     1      12.428  42.821  58.466  1.00  0.00    -0.267 OA
ENDROOT
BRANCH   6   8
HETATM    8  S1  UNL     1      13.821  44.699  56.923  1.00  0.00    -0.063 SA
BRANCH   8   9
HETATM    9  C9  UNL     1      13.273  44.292  55.228  1.00  0.00     0.105 C 
HETATM   10  C10 UNL     1      13.091  45.590  54.443  1.00  0.00     0.040 C 
BRANCH   9  11
HETATM   11  C11 UNL     1      14.403  43.569  54.590  1.00  0.00     0.193 C 
HETATM   12  O2  UNL     1      14.760  43.804  53.406  1.00  0.00    -0.647 OA
HETATM   13  O3  UNL     1      15.142  42.583  55.257  1.00  0.00    -0.647 OA
ENDBRANCH   9  11
BRANCH   9  14
HETATM   14  C12 UNL     1      11.991  43.516  55.238  1.00  0.00     0.033 C 
HETATM   15  C13 UNL     1      10.798  44.374  54.954  1.00  0.00     0.008 C 
HETATM   16  C14 UNL     1       9.500  43.601  55.002  1.00  0.00     0.001 C 
HETATM   17  C15 UNL     1       9.568  42.460  54.042  1.00  0.00     0.002 C 
HETATM   18  C16 UNL     1      10.926  42.364  53.361  1.00  0.00     0.020 C 
HETATM   19  C17 UNL     1      12.037  42.289  54.369  1.00  0.00     0.088 C 
HETATM   20 CL1  UNL     1      11.881  40.787  55.347  1.00  0.00    -0.125 Cl
ENDBRANCH   9  14
ENDBRANCH   8   9
ENDBRANCH   6   8
BRANCH   1  21
HETATM   21  C6  UNL     1      11.635  40.955  59.928  1.00  0.00     0.019 A 
HETATM   22  C5  UNL     1      11.799  40.593  61.246  1.00  0.00     0.019 A 
HETATM   23  C4  UNL     1      10.848  39.819  61.906  1.00  0.00     0.040 A 
HETATM   24  C3  UNL     1       9.709  39.383  61.279  1.00  0.00     0.102 A 
HETATM   25  C19 UNL     1       9.544  39.753  59.937  1.00  0.00     0.102 A 
HETATM   26  C18 UNL     1      10.494  40.524  59.283  1.00  0.00     0.055 A 
BRANCH  24  27
HETATM   27  O1  UNL     1       8.729  38.623  61.851  1.00  0.00    -0.349 OA
BRANCH  27  28
HETATM   28  C2  UNL     1       8.820  37.379  62.449  1.00  0.00     0.171 C 
HETATM   29  C1  UNL     1       7.498  36.662  62.338  1.00  0.00     0.034 C 
ENDBRANCH  27  28
ENDBRANCH  24  27
BRANCH  25  30
HETATM   30  O5  UNL     1       8.406  39.321  59.304  1.00  0.00    -0.349 OA
BRANCH  30  31
HETATM   31  C20 UNL     1       8.260  38.346  58.335  1.00  0.00     0.171 C 
HETATM   32  C21 UNL     1       7.146  37.406  58.733  1.00  0.00     0.034 C 
ENDBRANCH  30  31
ENDBRANCH  25  30
ENDBRANCH   1  21
TORSDOF 9
ENDMDL
MODEL 5
REMARK VINA RESULT: -8.590253754      1.925      3.258
REMARK  9 active torsions:
REMARK  status: ('A' for Active; 'I' for Inactive)
REMARK    1  A    between atoms: C2_2  and  O1_3 
REMARK    2  A    between atoms: O1_3  and  C3_4 
REMARK    3  A    between atoms: C6_7  and  C7_8 
REMARK    4  A    between atoms: C8_13  and  S1_14 
REMARK    5  A    between atoms: S1_14  and  C9_15 
REMARK    6  A    between atoms: C9_15  and  C11_17 
REMARK    7  A    between atoms: C9_15  and  C12_20 
REMARK    8  A    between atoms: C19_29  and  O5_30 
REMARK    9  A    between atoms: O5_30  and  C20_31 
ROOT
HETATM    1  C7  UNL     1      12.082  41.782  59.210  1.00  0.00     0.175 A 
HETATM    2  N1  UNL     1      13.097  42.126  60.020  1.00  0.00    -0.277 N 
ATOM      3  H1  UNL     1      13.196  41.863  61.001  1.00  0.00     0.189 HD
HETATM    4  N2  UNL     1      13.944  42.865  59.324  1.00  0.00    -0.272 N 
ATOM      5  H2  UNL     1      14.810  43.271  59.678  1.00  0.00     0.189 HD
HETATM    6  C8  UNL     1      13.472  42.992  58.071  1.00  0.00     0.205 A 
HETATM    7  O4  UNL     1      12.347  42.322  58.047  1.00  0.00    -0.267 OA
ENDROOT
BRANCH   6   8
HETATM    8  S1  UNL     1      14.268  43.904  56.761  1.00  0.00    -0.063 SA
BRANCH   8   9
HETATM    9  C9  UNL     1      13.039  44.306  55.469  1.00  0.00     0.105 C 
HETATM   10  C10 UNL     1      11.696  44.593  56.138  1.00  0.00     0.040 C 
BRANCH   9  11
HETATM   11  C11 UNL     1      13.486  45.582  54.855  1.00  0.00     0.193 C 
HETATM   12  O2  UNL     1      13.532  45.741  53.607  1.00  0.00    -0.647 OA
HETATM   13  O3  UNL     1      13.884  46.689  55.617  1.00  0.00    -0.647 OA
ENDBRANCH   9  11
BRANCH   9  14
HETATM   14  C12 UNL     1      12.892  43.185  54.486  1.00  0.00     0.033 C 
HETATM   15  C13 UNL     1      14.106  42.313  54.421  1.00  0.00     0.008 C 
HETATM   16  C14 UNL     1      13.974  41.205  53.402  1.00  0.00     0.001 C 
HETATM   17  C15 UNL     1      12.760  40.393  53.709  1.00  0.00     0.002 C 
HETATM   18  C16 UNL     1      11.980  40.951  54.891  1.00  0.00     0.020 C 
HETATM   19  C17 UNL     1      11.626  42.395  54.677  1.00  0.00     0.088 C 
HETATM   20 CL1  UNL     1      10.531  42.557  53.259  1.00  0.00    -0.125 Cl
ENDBRANCH   9  14
ENDBRANCH   8   9
ENDBRANCH   6   8
BRANCH   1  21
HETATM   21  C6  UNL     1      10.928  40.960  59.590  1.00  0.00     0.019 A 
HETATM   22  C5  UNL     1      10.005  40.526  58.667  1.00  0.00     0.019 A 
HETATM   23  C4  UNL     1       8.913  39.751  59.047  1.00  0.00     0.040 A 
HETATM   24  C3  UNL     1       8.706  39.384  60.352  1.00  0.00     0.102 A 
HETATM   25  C19 UNL     1       9.647  39.827  61.291  1.00  0.00     0.102 A 
HETATM   26  C18 UNL     1      10.734  40.600  60.908  1.00  0.00     0.055 A 
BRANCH  24  27
HETATM   27  O1  UNL     1       7.664  38.628  60.808  1.00  0.00    -0.349 OA
BRANCH  27  28
HETATM   28  C2  UNL     1       7.194  37.412  60.348  1.00  0.00     0.171 C 
HETATM   29  C1  UNL     1       6.706  36.582  61.509  1.00  0.00     0.034 C 
ENDBRANCH  27  28
ENDBRANCH  24  27
BRANCH  25  30
HETATM   30  O5  UNL     1       9.447  39.462  62.599  1.00  0.00    -0.349 OA
BRANCH  30  31
HETATM   31  C20 UNL     1      10.204  38.628  63.400  1.00  0.00     0.171 C 
HETATM   32  C21 UNL     1       9.924  37.190  63.032  1.00  0.00     0.034 C 
ENDBRANCH  30  31
ENDBRANCH  25  30
ENDBRANCH   1  21
TORSDOF 9
ENDMDL
