MODEL 1
REMARK VINA RESULT: -5.507674349      0.000      0.000
REMARK  4 active torsions:
REMARK  status: ('A' for Active; 'I' for Inactive)
REMARK    1  A    between atoms: N1_2  and  O1_3 
REMARK    2  A    between atoms: O1_3  and  C2_4 
REMARK    3  A    between atoms: C2_4  and  C3_5 
REMARK    4  A    between atoms: N2_9  and  O2_10 
ROOT
HETATM    1  C3  UNL     1      17.585  13.918  91.984  1.00  0.00    -0.015 A 
HETATM    2  C4  UNL     1      18.059  12.921  92.843  1.00  0.00     0.012 A 
HETATM    3  C5  UNL     1      17.215  11.943  93.315  1.00  0.00     0.020 A 
HETATM    4  C6  UNL     1      15.887  11.940  92.942  1.00  0.00     0.122 A 
HETATM    5  N2  UNL     1      15.474  12.909  92.121  1.00  0.00    -0.247 N 
HETATM    6  C7  UNL     1      16.268  13.880  91.639  1.00  0.00     0.131 A 
ENDROOT
BRANCH   1   7
HETATM    7  C2  UNL     1      18.579  14.907  91.551  1.00  0.00     0.235 C 
BRANCH   7   8
HETATM    8  O1  UNL     1      19.064  15.739  92.532  1.00  0.00    -0.282 OA
BRANCH   8   9
HETATM    9  N1  UNL     1      20.141  16.441  92.194  1.00  0.00    -0.105 NA
HETATM   10  C1  UNL     1      21.071  15.693  91.367  1.00  0.00     0.167 C 
ENDBRANCH   8   9
ENDBRANCH   7   8
ENDBRANCH   1   7
BRANCH   5  11
HETATM   11  O2  UNL     1      14.142  12.923  91.733  1.00  0.00    -0.284 OA
ATOM     12  H2  UNL     1      13.937  12.781  90.816  1.00  0.00     0.245 HD
ENDBRANCH   5  11
TORSDOF 4
ENDMDL
MODEL 2
REMARK VINA RESULT: -5.499001581      6.355      8.467
REMARK  4 active torsions:
REMARK  status: ('A' for Active; 'I' for Inactive)
REMARK    1  A    between atoms: N1_2  and  O1_3 
REMARK    2  A    between atoms: O1_3  and  C2_4 
REMARK    3  A    between atoms: C2_4  and  C3_5 
REMARK    4  A    between atoms: N2_9  and  O2_10 
ROOT
HETATM    1  C3  UNL     1      19.006  20.240  95.154  1.00  0.00    -0.015 A 
HETATM    2  C4  UNL     1      18.186  21.053  94.364  1.00  0.00     0.012 A 
HETATM    3  C5  UNL     1      18.181  22.418  94.532  1.00  0.00     0.020 A 
HETATM    4  C6  UNL     1      18.989  22.998  95.488  1.00  0.00     0.122 A 
HETATM    5  N2  UNL     1      19.757  22.187  96.221  1.00  0.00    -0.247 N 
HETATM    6  C7  UNL     1      19.790  20.851  96.086  1.00  0.00     0.131 A 
ENDROOT
BRANCH   1   7
HETATM    7  C2  UNL     1      18.921  18.801  94.883  1.00  0.00     0.235 C 
BRANCH   7   8
HETATM    8  O1  UNL     1      18.995  18.435  93.559  1.00  0.00    -0.282 OA
BRANCH   8   9
HETATM    9  N1  UNL     1      19.991  17.608  93.258  1.00  0.00    -0.105 NA
HETATM   10  C1  UNL     1      21.300  18.212  93.423  1.00  0.00     0.167 C 
ENDBRANCH   8   9
ENDBRANCH   7   8
ENDBRANCH   1   7
BRANCH   5  11
HETATM   11  O2  UNL     1      20.578  22.750  97.187  1.00  0.00    -0.284 OA
ATOM     12  H2  UNL     1      21.005  22.173  97.810  1.00  0.00     0.245 HD
ENDBRANCH   5  11
TORSDOF 4
ENDMDL
MODEL 3
REMARK VINA RESULT: -5.354775857      7.231      8.184
REMARK  4 active torsions:
REMARK  status: ('A' for Active; 'I' for Inactive)
REMARK    1  A    between atoms: N1_2  and  O1_3 
REMARK    2  A    between atoms: O1_3  and  C2_4 
REMARK    3  A    between atoms: C2_4  and  C3_5 
REMARK    4  A    between atoms: N2_9  and  O2_10 
ROOT
HETATM    1  C3  UNL     1      18.554  21.281  94.883  1.00  0.00    -0.015 A 
HETATM    2  C4  UNL     1      18.599  19.931  95.246  1.00  0.00     0.012 A 
HETATM    3  C5  UNL     1      17.488  19.132  95.110  1.00  0.00     0.020 A 
HETATM    4  C6  UNL     1      16.315  19.660  94.612  1.00  0.00     0.122 A 
HETATM    5  N2  UNL     1      16.314  20.954  94.278  1.00  0.00    -0.247 N 
HETATM    6  C7  UNL     1      17.378  21.765  94.395  1.00  0.00     0.131 A 
ENDROOT
BRANCH   1   7
HETATM    7  C2  UNL     1      19.801  22.030  95.077  1.00  0.00     0.235 C 
BRANCH   7   8
HETATM    8  O1  UNL     1      20.453  21.811  96.267  1.00  0.00    -0.282 OA
BRANCH   8   9
HETATM    9  N1  UNL     1      20.390  22.814  97.137  1.00  0.00    -0.105 NA
HETATM   10  C1  UNL     1      19.439  23.841  96.753  1.00  0.00     0.167 C 
ENDBRANCH   8   9
ENDBRANCH   7   8
ENDBRANCH   1   7
BRANCH   5  11
HETATM   11  O2  UNL     1      15.144  21.505  93.774  1.00  0.00    -0.284 OA
ATOM     12  H2  UNL     1      14.428  21.670  94.376  1.00  0.00     0.245 HD
ENDBRANCH   5  11
TORSDOF 4
ENDMDL
MODEL 4
REMARK VINA RESULT: -5.196588543      6.155      7.844
REMARK  4 active torsions:
REMARK  status: ('A' for Active; 'I' for Inactive)
REMARK    1  A    between atoms: N1_2  and  O1_3 
REMARK    2  A    between atoms: O1_3  and  C2_4 
REMARK    3  A    between atoms: C2_4  and  C3_5 
REMARK    4  A    between atoms: N2_9  and  O2_10 
ROOT
HETATM    1  C3  UNL     1      19.753  20.232  95.202  1.00  0.00    -0.015 A 
HETATM    2  C4  UNL     1      21.137  20.076  95.081  1.00  0.00     0.012 A 
HETATM    3  C5  UNL     1      21.664  19.083  94.287  1.00  0.00     0.020 A 
HETATM    4  C6  UNL     1      20.825  18.230  93.602  1.00  0.00     0.122 A 
HETATM    5  N2  UNL     1      19.509  18.414  93.744  1.00  0.00    -0.247 N 
HETATM    6  C7  UNL     1      18.958  19.371  94.508  1.00  0.00     0.131 A 
ENDROOT
BRANCH   1   7
HETATM    7  C2  UNL     1      19.312  21.323  96.078  1.00  0.00     0.235 C 
BRANCH   7   8
HETATM    8  O1  UNL     1      20.215  21.725  97.035  1.00  0.00    -0.282 OA
BRANCH   8   9
HETATM    9  N1  UNL     1      20.400  23.039  97.119  1.00  0.00    -0.105 NA
HETATM   10  C1  UNL     1      19.381  23.802  96.421  1.00  0.00     0.167 C 
ENDBRANCH   8   9
ENDBRANCH   7   8
ENDBRANCH   1   7
BRANCH   5  11
HETATM   11  O2  UNL     1      18.647  17.567  93.062  1.00  0.00    -0.284 OA
ATOM     12  H2  UNL     1      18.186  17.907  92.303  1.00  0.00     0.245 HD
ENDBRANCH   5  11
TORSDOF 4
ENDMDL
MODEL 5
REMARK VINA RESULT: -5.128218651      7.064      7.702
REMARK  4 active torsions:
REMARK  status: ('A' for Active; 'I' for Inactive)
REMARK    1  A    between atoms: N1_2  and  O1_3 
REMARK    2  A    between atoms: O1_3  and  C2_4 
REMARK    3  A    between atoms: C2_4  and  C3_5 
REMARK    4  A    between atoms: N2_9  and  O2_10 
ROOT
HETATM    1  C3  UNL     1      18.276  21.405  94.989  1.00  0.00    -0.015 A 
HETATM    2  C4  UNL     1      17.979  20.079  95.321  1.00  0.00     0.012 A 
HETATM    3  C5  UNL     1      16.738  19.550  95.051  1.00  0.00     0.020 A 
HETATM    4  C6  UNL     1      15.773  20.329  94.448  1.00  0.00     0.122 A 
HETATM    5  N2  UNL     1      16.097  21.590  94.148  1.00  0.00    -0.247 N 
HETATM    6  C7  UNL     1      17.296  22.142  94.395  1.00  0.00     0.131 A 
ENDROOT
BRANCH   1   7
HETATM    7  C2  UNL     1      19.630  21.855  95.329  1.00  0.00     0.235 C 
BRANCH   7   8
HETATM    8  O1  UNL     1      20.560  20.862  95.529  1.00  0.00    -0.282 OA
BRANCH   8   9
HETATM    9  N1  UNL     1      21.332  20.593  94.481  1.00  0.00    -0.105 NA
HETATM   10  C1  UNL     1      21.404  19.175  94.178  1.00  0.00     0.167 C 
ENDBRANCH   8   9
ENDBRANCH   7   8
ENDBRANCH   1   7
BRANCH   5  11
HETATM   11  O2  UNL     1      15.139  22.391  93.541  1.00  0.00    -0.284 OA
ATOM     12  H2  UNL     1      15.416  23.219  93.165  1.00  0.00     0.245 HD
ENDBRANCH   5  11
TORSDOF 4
ENDMDL
