MODEL 1
REMARK VINA RESULT: -4.536203175      0.000      0.000
REMARK  2 active torsions:
REMARK  status: ('A' for Active; 'I' for Inactive)
REMARK    1  A    between atoms: O1_2  and  C2_3 
REMARK    2  A    between atoms: C3_6  and  N2_7 
ROOT
HETATM    1  C2  UNL     1      31.303   1.112  84.787  1.00  0.00     0.241 A 
HETATM    2  N1  UNL     1      32.530   0.982  84.268  1.00  0.00    -0.155 N 
ATOM      3  H1  UNL     1      33.107   1.816  84.157  1.00  0.00     0.188 HD
HETATM    4  C3  UNL     1      33.029  -0.203  83.889  1.00  0.00     0.683 A 
HETATM    5  N3  UNL     1      32.295  -1.312  84.024  1.00  0.00    -0.141 N 
ATOM      6  H3  UNL     1      32.665  -2.218  83.739  1.00  0.00     0.189 HD
HETATM    7  C4  UNL     1      31.064  -1.210  84.541  1.00  0.00     0.341 A 
HETATM    8  O2  UNL     1      30.369  -2.273  84.665  1.00  0.00    -0.246 OA
HETATM    9  N4  UNL     1      30.562  -0.005  84.924  1.00  0.00    -0.273 N 
ATOM     10  H4  UNL     1      29.622   0.054  85.315  1.00  0.00     0.174 HD
ENDROOT
BRANCH   4  11
HETATM   11  N2  UNL     1      34.222  -0.340  83.382  1.00  0.00    -0.234 N 
ATOM     12  H22 UNL     1      35.003   0.021  83.930  1.00  0.00     0.174 HD
ATOM     13  H21 UNL     1      34.393  -0.786  82.481  1.00  0.00     0.174 HD
ENDBRANCH   4  11
BRANCH   1  14
HETATM   14  O1  UNL     1      30.752   2.300  85.188  1.00  0.00    -0.327 OA
HETATM   15  C1  UNL     1      29.576   2.861  84.654  1.00  0.00     0.213 C 
ENDBRANCH   1  14
TORSDOF 2
ENDMDL
MODEL 2
REMARK VINA RESULT: -4.433687762      9.250      9.588
REMARK  2 active torsions:
REMARK  status: ('A' for Active; 'I' for Inactive)
REMARK    1  A    between atoms: O1_2  and  C2_3 
REMARK    2  A    between atoms: C3_6  and  N2_7 
ROOT
HETATM    1  C2  UNL     1      25.466  -0.016  76.521  1.00  0.00     0.241 A 
HETATM    2  N1  UNL     1      25.919  -1.161  75.996  1.00  0.00    -0.155 N 
ATOM      3  H1  UNL     1      25.288  -1.723  75.424  1.00  0.00     0.188 HD
HETATM    4  C3  UNL     1      27.171  -1.596  76.194  1.00  0.00     0.683 A 
HETATM    5  N3  UNL     1      28.019  -0.879  76.939  1.00  0.00    -0.141 N 
ATOM      6  H3  UNL     1      28.974  -1.202  77.095  1.00  0.00     0.189 HD
HETATM    7  C4  UNL     1      27.591   0.270  77.475  1.00  0.00     0.341 A 
HETATM    8  O2  UNL     1      28.406   0.948  78.185  1.00  0.00    -0.246 OA
HETATM    9  N4  UNL     1      26.319   0.707  77.272  1.00  0.00    -0.273 N 
ATOM     10  H4  UNL     1      26.010   1.586  77.688  1.00  0.00     0.174 HD
ENDROOT
BRANCH   4  11
HETATM   11  N2  UNL     1      27.623  -2.709  75.689  1.00  0.00    -0.234 N 
ATOM     12  H22 UNL     1      27.522  -2.836  74.682  1.00  0.00     0.174 HD
ATOM     13  H21 UNL     1      28.062  -3.437  76.253  1.00  0.00     0.174 HD
ENDBRANCH   4  11
BRANCH   1  14
HETATM   14  O1  UNL     1      24.197   0.468  76.346  1.00  0.00    -0.327 OA
HETATM   15  C1  UNL     1      23.866   1.833  76.240  1.00  0.00     0.213 C 
ENDBRANCH   1  14
TORSDOF 2
ENDMDL
MODEL 3
REMARK VINA RESULT: -4.266549643     11.074     11.783
REMARK  2 active torsions:
REMARK  status: ('A' for Active; 'I' for Inactive)
REMARK    1  A    between atoms: O1_2  and  C2_3 
REMARK    2  A    between atoms: C3_6  and  N2_7 
ROOT
HETATM    1  C2  UNL     1      24.155   2.945  76.406  1.00  0.00     0.241 A 
HETATM    2  N1  UNL     1      23.430   3.773  77.168  1.00  0.00    -0.155 N 
ATOM      3  H1  UNL     1      22.546   3.440  77.552  1.00  0.00     0.188 HD
HETATM    4  C3  UNL     1      23.824   5.024  77.446  1.00  0.00     0.683 A 
HETATM    5  N3  UNL     1      24.980   5.486  76.958  1.00  0.00    -0.141 N 
ATOM      6  H3  UNL     1      25.288   6.436  77.164  1.00  0.00     0.189 HD
HETATM    7  C4  UNL     1      25.724   4.677  76.193  1.00  0.00     0.341 A 
HETATM    8  O2  UNL     1      26.825   5.126  75.729  1.00  0.00    -0.246 OA
HETATM    9  N4  UNL     1      25.319   3.409  75.913  1.00  0.00    -0.273 N 
ATOM     10  H4  UNL     1      25.900   2.808  75.328  1.00  0.00     0.174 HD
ENDROOT
BRANCH   4  11
HETATM   11  N2  UNL     1      23.126   5.839  78.186  1.00  0.00    -0.234 N 
ATOM     12  H22 UNL     1      22.932   5.544  79.143  1.00  0.00     0.174 HD
ATOM     13  H21 UNL     1      22.780   6.736  77.848  1.00  0.00     0.174 HD
ENDBRANCH   4  11
BRANCH   1  14
HETATM   14  O1  UNL     1      23.794   1.661  76.095  1.00  0.00    -0.327 OA
HETATM   15  C1  UNL     1      24.583   0.522  76.347  1.00  0.00     0.213 C 
ENDBRANCH   1  14
TORSDOF 2
ENDMDL
MODEL 4
REMARK VINA RESULT: -4.261398781      0.878      3.127
REMARK  2 active torsions:
REMARK  status: ('A' for Active; 'I' for Inactive)
REMARK    1  A    between atoms: O1_2  and  C2_3 
REMARK    2  A    between atoms: C3_6  and  N2_7 
ROOT
HETATM    1  C2  UNL     1      30.904  -1.178  84.287  1.00  0.00     0.241 A 
HETATM    2  N1  UNL     1      32.146  -1.234  83.792  1.00  0.00    -0.155 N 
ATOM      3  H1  UNL     1      32.471  -2.109  83.379  1.00  0.00     0.188 HD
HETATM    4  C3  UNL     1      32.979  -0.184  83.818  1.00  0.00     0.683 A 
HETATM    5  N3  UNL     1      32.579   0.974  84.353  1.00  0.00    -0.141 N 
ATOM      6  H3  UNL     1      33.205   1.779  84.377  1.00  0.00     0.189 HD
HETATM    7  C4  UNL     1      31.341   1.058  84.855  1.00  0.00     0.341 A 
HETATM    8  O2  UNL     1      30.967   2.166  85.364  1.00  0.00    -0.246 OA
HETATM    9  N4  UNL     1      30.499  -0.011  84.826  1.00  0.00    -0.273 N 
ATOM     10  H4  UNL     1      29.559   0.071  85.213  1.00  0.00     0.174 HD
ENDROOT
BRANCH   4  11
HETATM   11  N2  UNL     1      34.191  -0.229  83.340  1.00  0.00    -0.234 N 
ATOM     12  H22 UNL     1      34.944   0.070  83.958  1.00  0.00     0.174 HD
ATOM     13  H21 UNL     1      34.402  -0.544  82.393  1.00  0.00     0.174 HD
ENDBRANCH   4  11
BRANCH   1  14
HETATM   14  O1  UNL     1      30.018  -2.222  84.282  1.00  0.00    -0.327 OA
HETATM   15  C1  UNL     1      29.392  -2.739  83.131  1.00  0.00     0.213 C 
ENDBRANCH   1  14
TORSDOF 2
ENDMDL
MODEL 5
REMARK VINA RESULT: -4.243752834     10.566     11.603
REMARK  2 active torsions:
REMARK  status: ('A' for Active; 'I' for Inactive)
REMARK    1  A    between atoms: O1_2  and  C2_3 
REMARK    2  A    between atoms: C3_6  and  N2_7 
ROOT
HETATM    1  C2  UNL     1      24.361   1.666  76.273  1.00  0.00     0.241 A 
HETATM    2  N1  UNL     1      23.469   2.587  75.888  1.00  0.00    -0.155 N 
ATOM      3  H1  UNL     1      22.560   2.277  75.545  1.00  0.00     0.188 HD
HETATM    4  C3  UNL     1      23.726   3.901  75.937  1.00  0.00     0.683 A 
HETATM    5  N3  UNL     1      24.909   4.336  76.383  1.00  0.00    -0.141 N 
ATOM      6  H3  UNL     1      25.114   5.334  76.424  1.00  0.00     0.189 HD
HETATM    7  C4  UNL     1      25.819   3.435  76.775  1.00  0.00     0.341 A 
HETATM    8  O2  UNL     1      26.946   3.858  77.198  1.00  0.00    -0.246 OA
HETATM    9  N4  UNL     1      25.554   2.102  76.722  1.00  0.00    -0.273 N 
ATOM     10  H4  UNL     1      26.259   1.431  77.025  1.00  0.00     0.174 HD
ENDROOT
BRANCH   4  11
HETATM   11  N2  UNL     1      22.865   4.806  75.564  1.00  0.00    -0.234 N 
ATOM     12  H22 UNL     1      22.954   5.167  74.614  1.00  0.00     0.174 HD
ATOM     13  H21 UNL     1      22.127   5.154  76.176  1.00  0.00     0.174 HD
ENDBRANCH   4  11
BRANCH   1  14
HETATM   14  O1  UNL     1      24.144   0.314  76.241  1.00  0.00    -0.327 OA
HETATM   15  C1  UNL     1      25.158  -0.662  76.199  1.00  0.00     0.213 C 
ENDBRANCH   1  14
TORSDOF 2
ENDMDL
