MODEL 1
REMARK VINA RESULT: -4.021336975      0.000      0.000
REMARK  6 active torsions:
REMARK  status: ('A' for Active; 'I' for Inactive)
REMARK    1  A    between atoms: O1_2  and  C2_3 
REMARK    2  A    between atoms: C2_3  and  C3_4 
REMARK    3  A    between atoms: C2_3  and  C4_9 
REMARK    4  A    between atoms: C3_4  and  N1_5 
REMARK    5  A    between atoms: C4_9  and  N2_10 
REMARK    6  A    between atoms: C4_9  and  C5_14 
ROOT
HETATM    1  C2  UNL     1     -10.887  17.899  -8.970  1.00  0.00     0.176 C 
ENDROOT
BRANCH   1   2
HETATM    2  O1  UNL     1     -10.465  16.591  -9.168  1.00  0.00    -0.387 OA
HETATM    3  C1  UNL     1      -9.086  16.486  -9.291  1.00  0.00     0.202 C 
ENDBRANCH   1   2
BRANCH   1   4
HETATM    4  C3  UNL     1     -11.835  17.902  -7.812  1.00  0.00     0.263 C 
BRANCH   4   5
HETATM    5  N1  UNL     1     -11.355  17.225  -6.649  1.00  0.00    -0.077 N 
ATOM      6  H13 UNL     1     -10.795  16.416  -6.916  1.00  0.00     0.274 HD
ATOM      7  H12 UNL     1     -10.643  17.786  -6.182  1.00  0.00     0.274 HD
ATOM      8  H11 UNL     1     -12.081  16.951  -5.987  1.00  0.00     0.274 HD
ENDBRANCH   4   5
ENDBRANCH   1   4
BRANCH   1   9
HETATM    9  C4  UNL     1     -11.409  18.546 -10.215  1.00  0.00     0.217 C 
BRANCH   9  10
HETATM   10  N2  UNL     1     -10.339  19.153 -10.938  1.00  0.00    -0.072 N 
ATOM     11  H23 UNL     1     -10.330  20.167 -10.827  1.00  0.00     0.274 HD
ATOM     12  H22 UNL     1      -9.431  18.948 -10.520  1.00  0.00     0.274 HD
ATOM     13  H21 UNL     1     -10.379  18.877 -11.920  1.00  0.00     0.274 HD
ENDBRANCH   9  10
BRANCH   9  14
HETATM   14  C5  UNL     1     -12.576  19.468  -9.975  1.00  0.00     0.010 C 
HETATM   15  C6  UNL     1     -12.292  20.736 -10.794  1.00  0.00     0.011 C 
HETATM   16  C7  UNL     1     -13.862  18.901 -10.542  1.00  0.00     0.011 C 
ENDBRANCH   9  14
ENDBRANCH   1   9
TORSDOF 6
ENDMDL
MODEL 2
REMARK VINA RESULT: -3.974865226      1.634      1.779
REMARK  6 active torsions:
REMARK  status: ('A' for Active; 'I' for Inactive)
REMARK    1  A    between atoms: O1_2  and  C2_3 
REMARK    2  A    between atoms: C2_3  and  C3_4 
REMARK    3  A    between atoms: C2_3  and  C4_9 
REMARK    4  A    between atoms: C3_4  and  N1_5 
REMARK    5  A    between atoms: C4_9  and  N2_10 
REMARK    6  A    between atoms: C4_9  and  C5_14 
ROOT
HETATM    1  C2  UNL     1     -10.433  18.515  -9.763  1.00  0.00     0.176 C 
ENDROOT
BRANCH   1   2
HETATM    2  O1  UNL     1      -9.485  18.800 -10.736  1.00  0.00    -0.387 OA
HETATM    3  C1  UNL     1      -8.213  18.365 -10.389  1.00  0.00     0.202 C 
ENDBRANCH   1   2
BRANCH   1   4
HETATM    4  C3  UNL     1     -10.035  17.234  -9.100  1.00  0.00     0.263 C 
BRANCH   4   5
HETATM    5  N1  UNL     1     -10.556  17.060  -7.781  1.00  0.00    -0.077 N 
ATOM      6  H13 UNL     1     -11.564  16.908  -7.815  1.00  0.00     0.274 HD
ATOM      7  H12 UNL     1     -10.255  16.165  -7.397  1.00  0.00     0.274 HD
ATOM      8  H11 UNL     1     -10.334  17.816  -7.134  1.00  0.00     0.274 HD
ENDBRANCH   4   5
ENDBRANCH   1   4
BRANCH   1   9
HETATM    9  C4  UNL     1     -11.838  18.550 -10.277  1.00  0.00     0.217 C 
BRANCH   9  10
HETATM   10  N2  UNL     1     -11.839  18.740 -11.691  1.00  0.00    -0.072 N 
ATOM     11  H23 UNL     1     -11.015  18.328 -12.132  1.00  0.00     0.274 HD
ATOM     12  H22 UNL     1     -12.553  18.175 -12.152  1.00  0.00     0.274 HD
ATOM     13  H21 UNL     1     -11.934  19.731 -11.912  1.00  0.00     0.274 HD
ENDBRANCH   9  10
BRANCH   9  14
HETATM   14  C5  UNL     1     -12.732  19.511  -9.538  1.00  0.00     0.010 C 
HETATM   15  C6  UNL     1     -13.626  20.164 -10.601  1.00  0.00     0.011 C 
HETATM   16  C7  UNL     1     -13.679  18.786  -8.603  1.00  0.00     0.011 C 
ENDBRANCH   9  14
ENDBRANCH   1   9
TORSDOF 6
ENDMDL
MODEL 3
REMARK VINA RESULT: -3.964337071      1.267      1.367
REMARK  6 active torsions:
REMARK  status: ('A' for Active; 'I' for Inactive)
REMARK    1  A    between atoms: O1_2  and  C2_3 
REMARK    2  A    between atoms: C2_3  and  C3_4 
REMARK    3  A    between atoms: C2_3  and  C4_9 
REMARK    4  A    between atoms: C3_4  and  N1_5 
REMARK    5  A    between atoms: C4_9  and  N2_10 
REMARK    6  A    between atoms: C4_9  and  C5_14 
ROOT
HETATM    1  C2  UNL     1     -10.624  18.546  -9.100  1.00  0.00     0.176 C 
ENDROOT
BRANCH   1   2
HETATM    2  O1  UNL     1      -9.530  17.714  -9.291  1.00  0.00    -0.387 OA
HETATM    3  C1  UNL     1      -8.604  18.242 -10.181  1.00  0.00     0.202 C 
ENDBRANCH   1   2
BRANCH   1   4
HETATM    4  C3  UNL     1     -11.499  17.917  -8.061  1.00  0.00     0.263 C 
BRANCH   4   5
HETATM    5  N1  UNL     1     -10.819  17.039  -7.163  1.00  0.00    -0.077 N 
ATOM      6  H13 UNL     1     -10.374  16.280  -7.678  1.00  0.00     0.274 HD
ATOM      7  H12 UNL     1      -9.994  17.497  -6.777  1.00  0.00     0.274 HD
ATOM      8  H11 UNL     1     -11.400  16.665  -6.413  1.00  0.00     0.274 HD
ENDBRANCH   4   5
ENDBRANCH   1   4
BRANCH   1   9
HETATM    9  C4  UNL     1     -11.320  18.912 -10.373  1.00  0.00     0.217 C 
BRANCH   9  10
HETATM   10  N2  UNL     1     -11.232  20.320 -10.594  1.00  0.00    -0.072 N 
ATOM     11  H23 UNL     1     -11.728  20.850  -9.878  1.00  0.00     0.274 HD
ATOM     12  H22 UNL     1     -10.291  20.675 -10.418  1.00  0.00     0.274 HD
ATOM     13  H21 UNL     1     -11.558  20.549 -11.533  1.00  0.00     0.274 HD
ENDBRANCH   9  10
BRANCH   9  14
HETATM   14  C5  UNL     1     -12.722  18.371 -10.476  1.00  0.00     0.010 C 
HETATM   15  C6  UNL     1     -13.643  19.595 -10.593  1.00  0.00     0.011 C 
HETATM   16  C7  UNL     1     -12.927  17.589 -11.757  1.00  0.00     0.011 C 
ENDBRANCH   9  14
ENDBRANCH   1   9
TORSDOF 6
ENDMDL
MODEL 4
REMARK VINA RESULT: -3.930401220      2.043      3.811
REMARK  6 active torsions:
REMARK  status: ('A' for Active; 'I' for Inactive)
REMARK    1  A    between atoms: O1_2  and  C2_3 
REMARK    2  A    between atoms: C2_3  and  C3_4 
REMARK    3  A    between atoms: C2_3  and  C4_9 
REMARK    4  A    between atoms: C3_4  and  N1_5 
REMARK    5  A    between atoms: C4_9  and  N2_10 
REMARK    6  A    between atoms: C4_9  and  C5_14 
ROOT
HETATM    1  C2  UNL     1     -12.159  19.373 -10.582  1.00  0.00     0.176 C 
ENDROOT
BRANCH   1   2
HETATM    2  O1  UNL     1     -12.222  18.786 -11.838  1.00  0.00    -0.387 OA
HETATM    3  C1  UNL     1     -12.961  17.611 -11.844  1.00  0.00     0.202 C 
ENDBRANCH   1   2
BRANCH   1   4
HETATM    4  C3  UNL     1     -12.274  20.855 -10.766  1.00  0.00     0.263 C 
BRANCH   4   5
HETATM    5  N1  UNL     1     -13.602  21.367 -10.646  1.00  0.00    -0.077 N 
ATOM      6  H13 UNL     1     -14.253  20.615 -10.420  1.00  0.00     0.274 HD
ATOM      7  H12 UNL     1     -13.688  21.935  -9.804  1.00  0.00     0.274 HD
ATOM      8  H11 UNL     1     -13.931  21.887 -11.460  1.00  0.00     0.274 HD
ENDBRANCH   4   5
ENDBRANCH   1   4
BRANCH   1   9
HETATM    9  C4  UNL     1     -10.977  18.928  -9.779  1.00  0.00     0.217 C 
BRANCH   9  10
HETATM   10  N2  UNL     1      -9.803  18.932 -10.591  1.00  0.00    -0.072 N 
ATOM     11  H23 UNL     1      -9.096  19.576 -10.236  1.00  0.00     0.274 HD
ATOM     12  H22 UNL     1      -9.273  18.064 -10.500  1.00  0.00     0.274 HD
ATOM     13  H21 UNL     1     -10.048  19.131 -11.561  1.00  0.00     0.274 HD
ENDBRANCH   9  10
BRANCH   9  14
HETATM   14  C5  UNL     1     -11.197  17.634  -9.041  1.00  0.00     0.010 C 
HETATM   15  C6  UNL     1      -9.812  16.989  -8.889  1.00  0.00     0.011 C 
HETATM   16  C7  UNL     1     -11.688  17.873  -7.628  1.00  0.00     0.011 C 
ENDBRANCH   9  14
ENDBRANCH   1   9
TORSDOF 6
ENDMDL
MODEL 5
REMARK VINA RESULT: -3.903029487      1.547      1.841
REMARK  6 active torsions:
REMARK  status: ('A' for Active; 'I' for Inactive)
REMARK    1  A    between atoms: O1_2  and  C2_3 
REMARK    2  A    between atoms: C2_3  and  C3_4 
REMARK    3  A    between atoms: C2_3  and  C4_9 
REMARK    4  A    between atoms: C3_4  and  N1_5 
REMARK    5  A    between atoms: C4_9  and  N2_10 
REMARK    6  A    between atoms: C4_9  and  C5_14 
ROOT
HETATM    1  C2  UNL     1     -10.656  18.480  -8.736  1.00  0.00     0.176 C 
ENDROOT
BRANCH   1   2
HETATM    2  O1  UNL     1      -9.612  18.344  -9.641  1.00  0.00    -0.387 OA
HETATM    3  C1  UNL     1      -8.976  17.114  -9.545  1.00  0.00     0.202 C 
ENDBRANCH   1   2
BRANCH   1   4
HETATM    4  C3  UNL     1     -10.932  17.130  -8.152  1.00  0.00     0.263 C 
BRANCH   4   5
HETATM    5  N1  UNL     1     -10.951  17.092  -6.724  1.00  0.00    -0.077 N 
ATOM      6  H13 UNL     1     -10.329  16.360  -6.381  1.00  0.00     0.274 HD
ATOM      7  H12 UNL     1     -10.484  17.914  -6.342  1.00  0.00     0.274 HD
ATOM      8  H11 UNL     1     -11.879  16.989  -6.315  1.00  0.00     0.274 HD
ENDBRANCH   4   5
ENDBRANCH   1   4
BRANCH   1   9
HETATM    9  C4  UNL     1     -11.851  19.175  -9.310  1.00  0.00     0.217 C 
BRANCH   9  10
HETATM   10  N2  UNL     1     -13.050  18.579  -8.814  1.00  0.00    -0.072 N 
ATOM     11  H23 UNL     1     -13.048  17.565  -8.928  1.00  0.00     0.274 HD
ATOM     12  H22 UNL     1     -13.100  18.615  -7.795  1.00  0.00     0.274 HD
ATOM     13  H21 UNL     1     -13.863  19.011  -9.252  1.00  0.00     0.274 HD
ENDBRANCH   9  10
BRANCH   9  14
HETATM   14  C5  UNL     1     -11.816  19.303 -10.811  1.00  0.00     0.010 C 
HETATM   15  C6  UNL     1     -12.673  18.151 -11.356  1.00  0.00     0.011 C 
HETATM   16  C7  UNL     1     -12.500  20.572 -11.278  1.00  0.00     0.011 C 
ENDBRANCH   9  14
ENDBRANCH   1   9
TORSDOF 6
ENDMDL
