MODEL 1
REMARK VINA RESULT: -4.966530662      0.000      0.000
REMARK  5 active torsions:
REMARK  status: ('A' for Active; 'I' for Inactive)
REMARK    1  A    between atoms: N1_1  and  C1_5 
REMARK    2  A    between atoms: C1_5  and  N2_6 
REMARK    3  A    between atoms: N2_6  and  C2_8 
REMARK    4  A    between atoms: N3_9  and  O1_11 
REMARK    5  A    between atoms: O1_11  and  C3_12 
ROOT
HETATM    1  C2  UNL     1      -8.310  18.420 -10.372  1.00  0.00     0.201 C 
HETATM    2  N3  UNL     1      -9.171  17.745  -9.691  1.00  0.00    -0.262 N 
ATOM      3  H3  UNL     1      -8.948  16.803  -9.368  1.00  0.00     0.195 HD
ENDROOT
BRANCH   1   4
HETATM    4  N2  UNL     1      -7.057  17.822 -10.657  1.00  0.00    -0.362 N 
ATOM      5  H2  UNL     1      -6.702  17.066 -10.071  1.00  0.00     0.161 HD
BRANCH   4   6
HETATM    6  C1  UNL     1      -6.295  18.288 -11.776  1.00  0.00     0.352 C 
BRANCH   6   7
HETATM    7  N1  UNL     1      -7.189  19.062 -12.632  1.00  0.00    -0.064 N 
ATOM      8  H13 UNL     1      -8.057  18.570 -12.845  1.00  0.00     0.276 HD
ATOM      9  H12 UNL     1      -7.601  19.862 -12.152  1.00  0.00     0.276 HD
ATOM     10  H11 UNL     1      -6.667  19.326 -13.467  1.00  0.00     0.276 HD
ENDBRANCH   6   7
ENDBRANCH   4   6
ENDBRANCH   1   4
BRANCH   2  11
HETATM   11  O1  UNL     1     -10.376  18.298  -9.407  1.00  0.00    -0.270 OA
BRANCH  11  12
HETATM   12  C3  UNL     1     -11.526  17.874 -10.144  1.00  0.00     0.175 A 
HETATM   13  C4  UNL     1     -12.052  18.505 -11.065  1.00  0.00     0.003 A 
HETATM   14  C5  UNL     1     -12.593  19.003 -11.190  1.00  0.00    -0.028 A 
HETATM   15  C6  UNL     1     -13.453  19.645 -10.593  1.00  0.00     0.030 A 
HETATM   16  C7  UNL     1     -12.765  18.773  -9.142  1.00  0.00     0.042 A 
ENDBRANCH  11  12
ENDBRANCH   2  11
TORSDOF 5
ENDMDL
MODEL 2
REMARK VINA RESULT: -4.735708515      0.743      1.111
REMARK  5 active torsions:
REMARK  status: ('A' for Active; 'I' for Inactive)
REMARK    1  A    between atoms: N1_1  and  C1_5 
REMARK    2  A    between atoms: C1_5  and  N2_6 
REMARK    3  A    between atoms: N2_6  and  C2_8 
REMARK    4  A    between atoms: N3_9  and  O1_11 
REMARK    5  A    between atoms: O1_11  and  C3_12 
ROOT
HETATM    1  C2  UNL     1      -8.256  18.504 -10.574  1.00  0.00     0.201 C 
HETATM    2  N3  UNL     1      -9.468  18.939 -10.587  1.00  0.00    -0.262 N 
ATOM      3  H3  UNL     1      -9.773  19.591 -11.310  1.00  0.00     0.195 HD
ENDROOT
BRANCH   1   4
HETATM    4  N2  UNL     1      -7.367  18.952 -11.584  1.00  0.00    -0.362 N 
ATOM      5  H2  UNL     1      -7.586  19.786 -12.128  1.00  0.00     0.161 HD
BRANCH   4   6
HETATM    6  C1  UNL     1      -6.160  18.224 -11.831  1.00  0.00     0.352 C 
BRANCH   6   7
HETATM    7  N1  UNL     1      -6.153  17.060 -10.950  1.00  0.00    -0.064 N 
ATOM      8  H13 UNL     1      -5.616  17.213 -10.096  1.00  0.00     0.276 HD
ATOM      9  H12 UNL     1      -7.059  16.890 -10.512  1.00  0.00     0.276 HD
ATOM     10  H11 UNL     1      -5.819  16.262 -11.491  1.00  0.00     0.276 HD
ENDBRANCH   6   7
ENDBRANCH   4   6
ENDBRANCH   1   4
BRANCH   2  11
HETATM   11  O1  UNL     1     -10.334  18.522  -9.630  1.00  0.00    -0.270 OA
BRANCH  11  12
HETATM   12  C3  UNL     1     -11.502  17.794 -10.020  1.00  0.00     0.175 A 
HETATM   13  C4  UNL     1     -12.260  18.108 -10.943  1.00  0.00     0.003 A 
HETATM   14  C5  UNL     1     -12.887  18.491 -11.070  1.00  0.00    -0.028 A 
HETATM   15  C6  UNL     1     -13.736  19.154 -10.479  1.00  0.00     0.030 A 
HETATM   16  C7  UNL     1     -12.697  18.759  -9.028  1.00  0.00     0.042 A 
ENDBRANCH  11  12
ENDBRANCH   2  11
TORSDOF 5
ENDMDL
MODEL 3
REMARK VINA RESULT: -4.587828830      0.991      1.066
REMARK  5 active torsions:
REMARK  status: ('A' for Active; 'I' for Inactive)
REMARK    1  A    between atoms: N1_1  and  C1_5 
REMARK    2  A    between atoms: C1_5  and  N2_6 
REMARK    3  A    between atoms: N2_6  and  C2_8 
REMARK    4  A    between atoms: N3_9  and  O1_11 
REMARK    5  A    between atoms: O1_11  and  C3_12 
ROOT
HETATM    1  C2  UNL     1      -8.869  17.020  -9.516  1.00  0.00     0.201 C 
HETATM    2  N3  UNL     1      -9.788  17.875  -9.804  1.00  0.00    -0.262 N 
ATOM      3  H3  UNL     1      -9.553  18.737 -10.296  1.00  0.00     0.195 HD
ENDROOT
BRANCH   1   4
HETATM    4  N2  UNL     1      -7.535  17.309  -9.897  1.00  0.00    -0.362 N 
ATOM      5  H2  UNL     1      -6.757  16.799  -9.478  1.00  0.00     0.161 HD
BRANCH   4   6
HETATM    6  C1  UNL     1      -7.288  18.324 -10.876  1.00  0.00     0.352 C 
BRANCH   6   7
HETATM    7  N1  UNL     1      -5.971  18.075 -11.453  1.00  0.00    -0.064 N 
ATOM      8  H13 UNL     1      -6.009  17.490 -12.288  1.00  0.00     0.276 HD
ATOM      9  H12 UNL     1      -5.564  18.904 -11.887  1.00  0.00     0.276 HD
ATOM     10  H11 UNL     1      -5.380  17.681 -10.720  1.00  0.00     0.276 HD
ENDBRANCH   6   7
ENDBRANCH   4   6
ENDBRANCH   1   4
BRANCH   2  11
HETATM   11  O1  UNL     1     -11.071  17.618  -9.449  1.00  0.00    -0.270 OA
BRANCH  11  12
HETATM   12  C3  UNL     1     -12.112  17.824 -10.408  1.00  0.00     0.175 A 
HETATM   13  C4  UNL     1     -12.173  18.770 -11.199  1.00  0.00     0.003 A 
HETATM   14  C5  UNL     1     -12.464  19.453 -11.260  1.00  0.00    -0.028 A 
HETATM   15  C6  UNL     1     -13.150  20.258 -10.634  1.00  0.00     0.030 A 
HETATM   16  C7  UNL     1     -13.138  18.932  -9.376  1.00  0.00     0.042 A 
ENDBRANCH  11  12
ENDBRANCH   2  11
TORSDOF 5
ENDMDL
MODEL 4
REMARK VINA RESULT: -4.498888601      2.365      5.308
REMARK  5 active torsions:
REMARK  status: ('A' for Active; 'I' for Inactive)
REMARK    1  A    between atoms: N1_1  and  C1_5 
REMARK    2  A    between atoms: C1_5  and  N2_6 
REMARK    3  A    between atoms: N2_6  and  C2_8 
REMARK    4  A    between atoms: N3_9  and  O1_11 
REMARK    5  A    between atoms: O1_11  and  C3_12 
ROOT
HETATM    1  C2  UNL     1     -11.204  17.912  -9.464  1.00  0.00     0.201 C 
HETATM    2  N3  UNL     1     -10.562  18.851 -10.068  1.00  0.00    -0.262 N 
ATOM      3  H3  UNL     1     -10.798  19.828  -9.897  1.00  0.00     0.195 HD
ENDROOT
BRANCH   1   4
HETATM    4  N2  UNL     1     -12.238  18.273  -8.564  1.00  0.00    -0.362 N 
ATOM      5  H2  UNL     1     -13.046  18.802  -8.892  1.00  0.00     0.161 HD
BRANCH   4   6
HETATM    6  C1  UNL     1     -12.139  17.888  -7.188  1.00  0.00     0.352 C 
BRANCH   6   7
HETATM    7  N1  UNL     1     -10.952  17.050  -7.046  1.00  0.00    -0.064 N 
ATOM      8  H13 UNL     1     -10.301  17.402  -6.344  1.00  0.00     0.276 HD
ATOM      9  H12 UNL     1     -11.152  16.151  -6.607  1.00  0.00     0.276 HD
ATOM     10  H11 UNL     1     -10.527  16.954  -7.968  1.00  0.00     0.276 HD
ENDBRANCH   6   7
ENDBRANCH   4   6
ENDBRANCH   1   4
BRANCH   2  11
HETATM   11  O1  UNL     1      -9.569  18.527 -10.933  1.00  0.00    -0.270 OA
BRANCH  11  12
HETATM   12  C3  UNL     1      -8.232  18.945 -10.644  1.00  0.00     0.175 A 
HETATM   13  C4  UNL     1      -7.280  18.872 -11.427  1.00  0.00     0.003 A 
HETATM   14  C5  UNL     1      -6.721  18.417 -11.616  1.00  0.00    -0.028 A 
HETATM   15  C6  UNL     1      -6.238  17.327 -11.321  1.00  0.00     0.030 A 
HETATM   16  C7  UNL     1      -7.609  17.309 -10.112  1.00  0.00     0.042 A 
ENDBRANCH  11  12
ENDBRANCH   2  11
TORSDOF 5
ENDMDL
MODEL 5
REMARK VINA RESULT: -4.469308945      1.146      1.743
REMARK  5 active torsions:
REMARK  status: ('A' for Active; 'I' for Inactive)
REMARK    1  A    between atoms: N1_1  and  C1_5 
REMARK    2  A    between atoms: C1_5  and  N2_6 
REMARK    3  A    between atoms: N2_6  and  C2_8 
REMARK    4  A    between atoms: N3_9  and  O1_11 
REMARK    5  A    between atoms: O1_11  and  C3_12 
ROOT
HETATM    1  C2  UNL     1      -8.150  18.592 -10.511  1.00  0.00     0.201 C 
HETATM    2  N3  UNL     1      -9.411  18.855 -10.495  1.00  0.00    -0.262 N 
ATOM      3  H3  UNL     1      -9.859  19.276 -11.308  1.00  0.00     0.195 HD
ENDROOT
BRANCH   1   4
HETATM    4  N2  UNL     1      -7.411  18.903 -11.680  1.00  0.00    -0.362 N 
ATOM      5  H2  UNL     1      -7.772  19.578 -12.353  1.00  0.00     0.161 HD
BRANCH   4   6
HETATM    6  C1  UNL     1      -6.151  18.262 -11.906  1.00  0.00     0.352 C 
BRANCH   6   7
HETATM    7  N1  UNL     1      -6.075  17.106 -11.018  1.00  0.00    -0.064 N 
ATOM      8  H13 UNL     1      -5.536  16.336 -11.415  1.00  0.00     0.276 HD
ATOM      9  H12 UNL     1      -5.490  17.273 -10.199  1.00  0.00     0.276 HD
ATOM     10  H11 UNL     1      -7.029  16.837 -10.774  1.00  0.00     0.276 HD
ENDBRANCH   6   7
ENDBRANCH   4   6
ENDBRANCH   1   4
BRANCH   2  11
HETATM   11  O1  UNL     1     -10.137  18.566  -9.386  1.00  0.00    -0.270 OA
BRANCH  11  12
HETATM   12  C3  UNL     1     -11.426  17.965  -9.538  1.00  0.00     0.175 A 
HETATM   13  C4  UNL     1     -12.502  18.568  -9.475  1.00  0.00     0.003 A 
HETATM   14  C5  UNL     1     -13.034  18.750  -8.986  1.00  0.00    -0.028 A 
HETATM   15  C6  UNL     1     -13.326  18.616  -7.800  1.00  0.00     0.030 A 
HETATM   16  C7  UNL     1     -11.747  17.697  -7.757  1.00  0.00     0.042 A 
ENDBRANCH  11  12
ENDBRANCH   2  11
TORSDOF 5
ENDMDL
