MODEL 1
REMARK VINA RESULT: -7.898808951      0.000      0.000
REMARK  8 active torsions:
REMARK  status: ('A' for Active; 'I' for Inactive)
REMARK    1  A    between atoms: C2_2  and  C3_3 
REMARK    2  A    between atoms: C4_4  and  O1_5 
REMARK    3  A    between atoms: N2_12  and  S1_14 
REMARK    4  A    between atoms: S1_14  and  C8_17 
REMARK    5  A    between atoms: C11_20  and  N3_21 
REMARK    6  A    between atoms: N4_23  and  N5_25 
REMARK       I    between atoms: N5_25  and  C12_26 
REMARK       I    between atoms: N5_25  and  C14_29 
REMARK    7  A    between atoms: C14_29  and  O6_31 
REMARK    8  A    between atoms: O6_31  and  C15_32 
ROOT
HETATM    1  C8  UNL     1     -50.878  -3.600 -21.920  1.00  0.00     0.080 A 
HETATM    2  C9  UNL     1     -49.962  -4.591 -22.139  1.00  0.00     0.027 A 
HETATM    3  C10 UNL     1     -50.055  -5.376 -23.267  1.00  0.00     0.032 A 
HETATM    4  C11 UNL     1     -51.073  -5.188 -24.210  1.00  0.00     0.049 A 
HETATM    5  C17 UNL     1     -51.987  -4.167 -23.949  1.00  0.00     0.032 A 
HETATM    6  C18 UNL     1     -51.888  -3.383 -22.817  1.00  0.00     0.027 A 
ENDROOT
BRANCH   1   7
HETATM    7  S1  UNL     1     -50.745  -2.606 -20.494  1.00  0.00     0.264 S 
HETATM    8  O2  UNL     1     -49.310  -2.287 -20.160  1.00  0.00    -0.200 OA
HETATM    9  O3  UNL     1     -51.298  -3.368 -19.296  1.00  0.00    -0.200 OA
BRANCH   7  10
HETATM   10  N2  UNL     1     -51.692  -1.215 -20.684  1.00  0.00    -0.265 N 
HETATM   11  C7  UNL     1     -51.938  -0.252 -19.904  1.00  0.00     0.127 A 
HETATM   12  C3  UNL     1     -52.780   0.758 -20.384  1.00  0.00     0.041 A 
HETATM   13  N1  UNL     1     -51.439  -0.195 -18.668  1.00  0.00    -0.351 N 
HETATM   14  C4  UNL     1     -53.065   1.804 -19.520  1.00  0.00     0.081 A 
HETATM   15  C5  UNL     1     -52.522   1.824 -18.234  1.00  0.00     0.054 A 
HETATM   16  C6  UNL     1     -51.703   0.806 -17.817  1.00  0.00     0.092 A 
ATOM     17  H1  UNL     1     -50.829  -0.951 -18.355  1.00  0.00     0.166 HD
ATOM     18  H2  UNL     1     -52.148  -1.141 -21.594  1.00  0.00     0.180 HD
BRANCH  12  19
HETATM   19  C2  UNL     1     -53.356   0.705 -21.700  1.00  0.00     0.008 C 
HETATM   20  C1  UNL     1     -52.878   1.111 -22.836  1.00  0.00     0.012 C 
ENDBRANCH  12  19
BRANCH  14  21
HETATM   21  O1  UNL     1     -53.882   2.856 -19.885  1.00  0.00    -0.360 OA
ATOM     22  H1  UNL     1     -53.859   3.694 -19.438  1.00  0.00     0.217 HD
ENDBRANCH  14  21
ENDBRANCH   7  10
ENDBRANCH   1   7
BRANCH   4  23
HETATM   23  N3  UNL     1     -51.139  -6.006 -25.326  1.00  0.00    -0.286 N 
HETATM   24  N4  UNL     1     -50.778  -5.746 -26.460  1.00  0.00    -0.228 N 
ATOM     25  H4  UNL     1     -50.894  -6.463 -27.176  1.00  0.00     0.209 HD
ATOM     26  H3  UNL     1     -51.536  -6.935 -25.182  1.00  0.00     0.188 HD
BRANCH  24  27
HETATM   27  N5  UNL     1     -50.214  -4.524 -26.840  1.00  0.00    -0.151 N 
HETATM   28  C12 UNL     1     -48.834  -4.259 -26.679  1.00  0.00     0.244 C 
HETATM   29  C13 UNL     1     -48.222  -2.982 -27.090  1.00  0.00     0.119 C 
HETATM   30  O4  UNL     1     -48.049  -5.124 -26.166  1.00  0.00    -0.272 OA
HETATM   31  C14 UNL     1     -51.110  -3.564 -27.363  1.00  0.00     0.390 C 
HETATM   32  O5  UNL     1     -52.364  -3.779 -27.477  1.00  0.00    -0.236 OA
BRANCH  31  33
HETATM   33  O6  UNL     1     -50.683  -2.327 -27.787  1.00  0.00    -0.303 OA
BRANCH  33  34
HETATM   34  C15 UNL     1     -51.382  -1.160 -27.393  1.00  0.00     0.176 C 
HETATM   35  C16 UNL     1     -51.070  -0.843 -25.950  1.00  0.00     0.034 C 
ENDBRANCH  33  34
ENDBRANCH  31  33
ENDBRANCH  24  27
ENDBRANCH   4  23
TORSDOF 8
ENDMDL
MODEL 2
REMARK VINA RESULT: -7.626279007      1.310      1.563
REMARK  8 active torsions:
REMARK  status: ('A' for Active; 'I' for Inactive)
REMARK    1  A    between atoms: C2_2  and  C3_3 
REMARK    2  A    between atoms: C4_4  and  O1_5 
REMARK    3  A    between atoms: N2_12  and  S1_14 
REMARK    4  A    between atoms: S1_14  and  C8_17 
REMARK    5  A    between atoms: C11_20  and  N3_21 
REMARK    6  A    between atoms: N4_23  and  N5_25 
REMARK       I    between atoms: N5_25  and  C12_26 
REMARK       I    between atoms: N5_25  and  C14_29 
REMARK    7  A    between atoms: C14_29  and  O6_31 
REMARK    8  A    between atoms: O6_31  and  C15_32 
ROOT
HETATM    1  C8  UNL     1     -50.490  -2.462 -22.177  1.00  0.00     0.080 A 
HETATM    2  C9  UNL     1     -49.945  -3.709 -22.296  1.00  0.00     0.027 A 
HETATM    3  C10 UNL     1     -50.530  -4.639 -23.127  1.00  0.00     0.032 A 
HETATM    4  C11 UNL     1     -51.682  -4.342 -23.865  1.00  0.00     0.049 A 
HETATM    5  C17 UNL     1     -52.207  -3.058 -23.716  1.00  0.00     0.032 A 
HETATM    6  C18 UNL     1     -51.616  -2.130 -22.881  1.00  0.00     0.027 A 
ENDROOT
BRANCH   1   7
HETATM    7  S1  UNL     1     -49.736  -1.290 -21.130  1.00  0.00     0.264 S 
HETATM    8  O2  UNL     1     -48.692  -0.477 -21.851  1.00  0.00    -0.200 OA
HETATM    9  O3  UNL     1     -49.006  -2.015 -20.006  1.00  0.00    -0.200 OA
BRANCH   7  10
HETATM   10  N2  UNL     1     -50.928  -0.325 -20.410  1.00  0.00    -0.265 N 
HETATM   11  C7  UNL     1     -51.011   0.193 -19.260  1.00  0.00     0.127 A 
HETATM   12  C3  UNL     1     -52.155   0.949 -18.984  1.00  0.00     0.041 A 
HETATM   13  N1  UNL     1     -50.066   0.018 -18.335  1.00  0.00    -0.351 N 
HETATM   14  C4  UNL     1     -52.254   1.500 -17.715  1.00  0.00     0.081 A 
HETATM   15  C5  UNL     1     -51.242   1.292 -16.775  1.00  0.00     0.054 A 
HETATM   16  C6  UNL     1     -50.143   0.541 -17.103  1.00  0.00     0.092 A 
ATOM     17  H1  UNL     1     -49.247  -0.540 -18.576  1.00  0.00     0.166 HD
ATOM     18  H2  UNL     1     -51.725  -0.125 -21.015  1.00  0.00     0.180 HD
BRANCH  12  19
HETATM   19  C2  UNL     1     -53.202   1.127 -19.952  1.00  0.00     0.008 C 
HETATM   20  C1  UNL     1     -53.451   2.129 -20.736  1.00  0.00     0.012 C 
ENDBRANCH  12  19
BRANCH  14  21
HETATM   21  O1  UNL     1     -53.337   2.266 -17.329  1.00  0.00    -0.360 OA
ATOM     22  H1  UNL     1     -54.061   2.451 -17.916  1.00  0.00     0.217 HD
ENDBRANCH  14  21
ENDBRANCH   7  10
ENDBRANCH   1   7
BRANCH   4  23
HETATM   23  N3  UNL     1     -52.247  -5.308 -24.682  1.00  0.00    -0.286 N 
HETATM   24  N4  UNL     1     -52.084  -5.455 -25.880  1.00  0.00    -0.228 N 
ATOM     25  H4  UNL     1     -52.575  -6.223 -26.339  1.00  0.00     0.209 HD
ATOM     26  H3  UNL     1     -52.872  -5.974 -24.227  1.00  0.00     0.188 HD
BRANCH  24  27
HETATM   27  N5  UNL     1     -51.265  -4.637 -26.664  1.00  0.00    -0.151 N 
HETATM   28  C12 UNL     1     -49.875  -4.871 -26.784  1.00  0.00     0.244 C 
HETATM   29  C13 UNL     1     -49.002  -4.027 -27.621  1.00  0.00     0.119 C 
HETATM   30  O4  UNL     1     -49.310  -5.835 -26.168  1.00  0.00    -0.272 OA
HETATM   31  C14 UNL     1     -51.904  -3.549 -27.301  1.00  0.00     0.390 C 
HETATM   32  O5  UNL     1     -53.151  -3.306 -27.168  1.00  0.00    -0.236 OA
BRANCH  31  33
HETATM   33  O6  UNL     1     -51.216  -2.676 -28.112  1.00  0.00    -0.303 OA
BRANCH  33  34
HETATM   34  C15 UNL     1     -51.340  -1.278 -27.917  1.00  0.00     0.176 C 
HETATM   35  C16 UNL     1     -50.601  -0.873 -26.663  1.00  0.00     0.034 C 
ENDBRANCH  33  34
ENDBRANCH  31  33
ENDBRANCH  24  27
ENDBRANCH   4  23
TORSDOF 8
ENDMDL
MODEL 3
REMARK VINA RESULT: -7.598686373      1.109      2.457
REMARK  8 active torsions:
REMARK  status: ('A' for Active; 'I' for Inactive)
REMARK    1  A    between atoms: C2_2  and  C3_3 
REMARK    2  A    between atoms: C4_4  and  O1_5 
REMARK    3  A    between atoms: N2_12  and  S1_14 
REMARK    4  A    between atoms: S1_14  and  C8_17 
REMARK    5  A    between atoms: C11_20  and  N3_21 
REMARK    6  A    between atoms: N4_23  and  N5_25 
REMARK       I    between atoms: N5_25  and  C12_26 
REMARK       I    between atoms: N5_25  and  C14_29 
REMARK    7  A    between atoms: C14_29  and  O6_31 
REMARK    8  A    between atoms: O6_31  and  C15_32 
ROOT
HETATM    1  C8  UNL     1     -51.302  -3.420 -22.114  1.00  0.00     0.080 A 
HETATM    2  C9  UNL     1     -51.879  -2.774 -23.172  1.00  0.00     0.027 A 
HETATM    3  C10 UNL     1     -52.079  -3.443 -24.359  1.00  0.00     0.032 A 
HETATM    4  C11 UNL     1     -51.704  -4.782 -24.519  1.00  0.00     0.049 A 
HETATM    5  C17 UNL     1     -51.119  -5.405 -23.416  1.00  0.00     0.032 A 
HETATM    6  C18 UNL     1     -50.921  -4.729 -22.229  1.00  0.00     0.027 A 
ENDROOT
BRANCH   1   7
HETATM    7  S1  UNL     1     -51.062  -2.566 -20.613  1.00  0.00     0.264 S 
HETATM    8  O2  UNL     1     -49.604  -2.298 -20.343  1.00  0.00    -0.200 OA
HETATM    9  O3  UNL     1     -51.554  -3.430 -19.458  1.00  0.00    -0.200 OA
BRANCH   7  10
HETATM   10  N2  UNL     1     -51.994  -1.151 -20.612  1.00  0.00    -0.265 N 
HETATM   11  C7  UNL     1     -52.079  -0.201 -19.784  1.00  0.00     0.127 A 
HETATM   12  C3  UNL     1     -52.966   0.836 -20.094  1.00  0.00     0.041 A 
HETATM   13  N1  UNL     1     -51.377  -0.184 -18.650  1.00  0.00    -0.351 N 
HETATM   14  C4  UNL     1     -53.074   1.869 -19.175  1.00  0.00     0.081 A 
HETATM   15  C5  UNL     1     -52.321   1.847 -17.999  1.00  0.00     0.054 A 
HETATM   16  C6  UNL     1     -51.467   0.804 -17.748  1.00  0.00     0.092 A 
ATOM     17  H1  UNL     1     -50.741  -0.959 -18.460  1.00  0.00     0.166 HD
ATOM     18  H2  UNL     1     -52.595  -1.047 -21.430  1.00  0.00     0.180 HD
BRANCH  12  19
HETATM   19  C2  UNL     1     -53.758   0.827 -21.293  1.00  0.00     0.008 C 
HETATM   20  C1  UNL     1     -53.514   1.343 -22.458  1.00  0.00     0.012 C 
ENDBRANCH  12  19
BRANCH  14  21
HETATM   21  O1  UNL     1     -53.916   2.945 -19.375  1.00  0.00    -0.360 OA
ATOM     22  H1  UNL     1     -53.655   3.836 -19.171  1.00  0.00     0.217 HD
ENDBRANCH  14  21
ENDBRANCH   7  10
ENDBRANCH   1   7
BRANCH   4  23
HETATM   23  N3  UNL     1     -51.912  -5.417 -25.733  1.00  0.00    -0.286 N 
HETATM   24  N4  UNL     1     -51.128  -5.523 -26.659  1.00  0.00    -0.228 N 
ATOM     25  H4  UNL     1     -51.436  -6.026 -27.492  1.00  0.00     0.209 HD
ATOM     26  H3  UNL     1     -52.828  -5.845 -25.868  1.00  0.00     0.188 HD
BRANCH  24  27
HETATM   27  N5  UNL     1     -49.832  -4.997 -26.651  1.00  0.00    -0.151 N 
HETATM   28  C12 UNL     1     -49.554  -3.696 -27.130  1.00  0.00     0.244 C 
HETATM   29  C13 UNL     1     -48.196  -3.122 -27.112  1.00  0.00     0.119 C 
HETATM   30  O4  UNL     1     -50.477  -2.953 -27.603  1.00  0.00    -0.272 OA
HETATM   31  C14 UNL     1     -48.819  -5.854 -26.165  1.00  0.00     0.390 C 
HETATM   32  O5  UNL     1     -49.054  -7.045 -25.766  1.00  0.00    -0.236 OA
BRANCH  31  33
HETATM   33  O6  UNL     1     -47.504  -5.456 -26.090  1.00  0.00    -0.303 OA
BRANCH  33  34
HETATM   34  C15 UNL     1     -46.777  -5.626 -24.886  1.00  0.00     0.176 C 
HETATM   35  C16 UNL     1     -47.278  -4.649 -23.849  1.00  0.00     0.034 C 
ENDBRANCH  33  34
ENDBRANCH  31  33
ENDBRANCH  24  27
ENDBRANCH   4  23
TORSDOF 8
ENDMDL
MODEL 4
REMARK VINA RESULT: -7.499074431      1.085      1.448
REMARK  8 active torsions:
REMARK  status: ('A' for Active; 'I' for Inactive)
REMARK    1  A    between atoms: C2_2  and  C3_3 
REMARK    2  A    between atoms: C4_4  and  O1_5 
REMARK    3  A    between atoms: N2_12  and  S1_14 
REMARK    4  A    between atoms: S1_14  and  C8_17 
REMARK    5  A    between atoms: C11_20  and  N3_21 
REMARK    6  A    between atoms: N4_23  and  N5_25 
REMARK       I    between atoms: N5_25  and  C12_26 
REMARK       I    between atoms: N5_25  and  C14_29 
REMARK    7  A    between atoms: C14_29  and  O6_31 
REMARK    8  A    between atoms: O6_31  and  C15_32 
ROOT
HETATM    1  C8  UNL     1     -51.258  -3.473 -22.000  1.00  0.00     0.080 A 
HETATM    2  C9  UNL     1     -52.008  -2.892 -22.985  1.00  0.00     0.027 A 
HETATM    3  C10 UNL     1     -52.279  -3.589 -24.142  1.00  0.00     0.032 A 
HETATM    4  C11 UNL     1     -51.805  -4.890 -24.344  1.00  0.00     0.049 A 
HETATM    5  C17 UNL     1     -51.044  -5.446 -23.315  1.00  0.00     0.032 A 
HETATM    6  C18 UNL     1     -50.775  -4.743 -22.158  1.00  0.00     0.027 A 
ENDROOT
BRANCH   1   7
HETATM    7  S1  UNL     1     -50.929  -2.586 -20.536  1.00  0.00     0.264 S 
HETATM    8  O2  UNL     1     -49.460  -2.290 -20.374  1.00  0.00    -0.200 OA
HETATM    9  O3  UNL     1     -51.324  -3.435 -19.333  1.00  0.00    -0.200 OA
BRANCH   7  10
HETATM   10  N2  UNL     1     -51.882  -1.186 -20.495  1.00  0.00    -0.265 N 
HETATM   11  C7  UNL     1     -51.961  -0.247 -19.654  1.00  0.00     0.127 A 
HETATM   12  C3  UNL     1     -52.871   0.780 -19.931  1.00  0.00     0.041 A 
HETATM   13  N1  UNL     1     -51.231  -0.231 -18.538  1.00  0.00    -0.351 N 
HETATM   14  C4  UNL     1     -52.973   1.800 -18.997  1.00  0.00     0.081 A 
HETATM   15  C5  UNL     1     -52.190   1.777 -17.841  1.00  0.00     0.054 A 
HETATM   16  C6  UNL     1     -51.315   0.744 -17.623  1.00  0.00     0.092 A 
ATOM     17  H1  UNL     1     -50.579  -0.998 -18.373  1.00  0.00     0.166 HD
ATOM     18  H2  UNL     1     -52.505  -1.082 -21.296  1.00  0.00     0.180 HD
BRANCH  12  19
HETATM   19  C2  UNL     1     -53.693   0.771 -21.110  1.00  0.00     0.008 C 
HETATM   20  C1  UNL     1     -53.503   1.336 -22.262  1.00  0.00     0.012 C 
ENDBRANCH  12  19
BRANCH  14  21
HETATM   21  O1  UNL     1     -53.835   2.865 -19.164  1.00  0.00    -0.360 OA
ATOM     22  H1  UNL     1     -54.750   2.745 -19.391  1.00  0.00     0.217 HD
ENDBRANCH  14  21
ENDBRANCH   7  10
ENDBRANCH   1   7
BRANCH   4  23
HETATM   23  N3  UNL     1     -52.090  -5.553 -25.528  1.00  0.00    -0.286 N 
HETATM   24  N4  UNL     1     -51.391  -5.631 -26.521  1.00  0.00    -0.228 N 
ATOM     25  H4  UNL     1     -51.747  -6.162 -27.317  1.00  0.00     0.209 HD
ATOM     26  H3  UNL     1     -52.990  -6.030 -25.571  1.00  0.00     0.188 HD
BRANCH  24  27
HETATM   27  N5  UNL     1     -50.130  -5.039 -26.639  1.00  0.00    -0.151 N 
HETATM   28  C12 UNL     1     -48.948  -5.728 -26.279  1.00  0.00     0.244 C 
HETATM   29  C13 UNL     1     -47.610  -5.122 -26.414  1.00  0.00     0.119 C 
HETATM   30  O4  UNL     1     -48.988  -6.916 -25.818  1.00  0.00    -0.272 OA
HETATM   31  C14 UNL     1     -50.113  -3.706 -27.109  1.00  0.00     0.390 C 
HETATM   32  O5  UNL     1     -51.176  -3.063 -27.400  1.00  0.00    -0.236 OA
BRANCH  31  33
HETATM   33  O6  UNL     1     -48.937  -3.013 -27.284  1.00  0.00    -0.303 OA
BRANCH  33  34
HETATM   34  C15 UNL     1     -48.704  -1.815 -26.563  1.00  0.00     0.176 C 
HETATM   35  C16 UNL     1     -48.872  -2.072 -25.084  1.00  0.00     0.034 C 
ENDBRANCH  33  34
ENDBRANCH  31  33
ENDBRANCH  24  27
ENDBRANCH   4  23
TORSDOF 8
ENDMDL
MODEL 5
REMARK VINA RESULT: -7.481397979      1.500      2.371
REMARK  8 active torsions:
REMARK  status: ('A' for Active; 'I' for Inactive)
REMARK    1  A    between atoms: C2_2  and  C3_3 
REMARK    2  A    between atoms: C4_4  and  O1_5 
REMARK    3  A    between atoms: N2_12  and  S1_14 
REMARK    4  A    between atoms: S1_14  and  C8_17 
REMARK    5  A    between atoms: C11_20  and  N3_21 
REMARK    6  A    between atoms: N4_23  and  N5_25 
REMARK       I    between atoms: N5_25  and  C12_26 
REMARK       I    between atoms: N5_25  and  C14_29 
REMARK    7  A    between atoms: C14_29  and  O6_31 
REMARK    8  A    between atoms: O6_31  and  C15_32 
ROOT
HETATM    1  C8  UNL     1     -50.406  -2.431 -22.248  1.00  0.00     0.080 A 
HETATM    2  C9  UNL     1     -49.781  -3.626 -22.474  1.00  0.00     0.027 A 
HETATM    3  C10 UNL     1     -50.359  -4.556 -23.311  1.00  0.00     0.032 A 
HETATM    4  C11 UNL     1     -51.583  -4.312 -23.945  1.00  0.00     0.049 A 
HETATM    5  C17 UNL     1     -52.188  -3.081 -23.687  1.00  0.00     0.032 A 
HETATM    6  C18 UNL     1     -51.604  -2.153 -22.848  1.00  0.00     0.027 A 
ENDROOT
BRANCH   1   7
HETATM    7  S1  UNL     1     -49.662  -1.258 -21.195  1.00  0.00     0.264 S 
HETATM    8  O2  UNL     1     -48.644  -0.414 -21.919  1.00  0.00    -0.200 OA
HETATM    9  O3  UNL     1     -48.901  -1.982 -20.091  1.00  0.00    -0.200 OA
BRANCH   7  10
HETATM   10  N2  UNL     1     -50.863  -0.327 -20.447  1.00  0.00    -0.265 N 
HETATM   11  C7  UNL     1     -50.948   0.159 -19.283  1.00  0.00     0.127 A 
HETATM   12  C3  UNL     1     -52.101   0.894 -18.984  1.00  0.00     0.041 A 
HETATM   13  N1  UNL     1     -49.999  -0.028 -18.365  1.00  0.00    -0.351 N 
HETATM   14  C4  UNL     1     -52.203   1.410 -17.700  1.00  0.00     0.081 A 
HETATM   15  C5  UNL     1     -51.186   1.190 -16.769  1.00  0.00     0.054 A 
HETATM   16  C6  UNL     1     -50.078   0.461 -17.120  1.00  0.00     0.092 A 
ATOM     17  H1  UNL     1     -49.173  -0.570 -18.623  1.00  0.00     0.166 HD
ATOM     18  H2  UNL     1     -51.664  -0.120 -21.044  1.00  0.00     0.180 HD
BRANCH  12  19
HETATM   19  C2  UNL     1     -53.153   1.084 -19.944  1.00  0.00     0.008 C 
HETATM   20  C1  UNL     1     -53.484   2.140 -20.621  1.00  0.00     0.012 C 
ENDBRANCH  12  19
BRANCH  14  21
HETATM   21  O1  UNL     1     -53.294   2.152 -17.291  1.00  0.00    -0.360 OA
ATOM     22  H1  UNL     1     -53.996   1.776 -16.773  1.00  0.00     0.217 HD
ENDBRANCH  14  21
ENDBRANCH   7  10
ENDBRANCH   1   7
BRANCH   4  23
HETATM   23  N3  UNL     1     -52.136  -5.278 -24.770  1.00  0.00    -0.286 N 
HETATM   24  N4  UNL     1     -52.071  -5.342 -25.984  1.00  0.00    -0.228 N 
ATOM     25  H4  UNL     1     -52.535  -6.124 -26.448  1.00  0.00     0.209 HD
ATOM     26  H3  UNL     1     -52.659  -6.021 -24.307  1.00  0.00     0.188 HD
BRANCH  24  27
HETATM   27  N5  UNL     1     -51.399  -4.411 -26.782  1.00  0.00    -0.151 N 
HETATM   28  C12 UNL     1     -52.059  -3.285 -27.329  1.00  0.00     0.244 C 
HETATM   29  C13 UNL     1     -51.360  -2.286 -28.158  1.00  0.00     0.119 C 
HETATM   30  O4  UNL     1     -53.302  -3.083 -27.125  1.00  0.00    -0.272 OA
HETATM   31  C14 UNL     1     -50.034  -4.679 -27.032  1.00  0.00     0.390 C 
HETATM   32  O5  UNL     1     -49.439  -5.712 -26.576  1.00  0.00    -0.236 OA
BRANCH  31  33
HETATM   33  O6  UNL     1     -49.255  -3.836 -27.790  1.00  0.00    -0.303 OA
BRANCH  33  34
HETATM   34  C15 UNL     1     -48.109  -3.226 -27.223  1.00  0.00     0.176 C 
HETATM   35  C16 UNL     1     -48.494  -2.504 -25.953  1.00  0.00     0.034 C 
ENDBRANCH  33  34
ENDBRANCH  31  33
ENDBRANCH  24  27
ENDBRANCH   4  23
TORSDOF 8
ENDMDL
