MODEL 1
REMARK VINA RESULT: -7.571904426      0.000      0.000
REMARK  5 active torsions:
REMARK  status: ('A' for Active; 'I' for Inactive)
REMARK    1  A    between atoms: N1_2  and  C1_4 
REMARK    2  A    between atoms: C5_8  and  N2_9 
REMARK    3  A    between atoms: C6_12  and  N3_13 
REMARK    4  A    between atoms: N3_13  and  N4_15 
REMARK    5  A    between atoms: C7_17  and  C8_18 
ROOT
HETATM    1  N3  UNL     1     -52.010  -2.537 -23.934  1.00  0.00    -0.296 N 
ATOM      2  H3  UNL     1     -52.669  -3.294 -24.115  1.00  0.00     0.187 HD
ENDROOT
BRANCH   1   3
HETATM    3  C6  UNL     1     -51.082  -2.210 -24.941  1.00  0.00     0.114 A 
HETATM    4  C1  UNL     1     -49.774  -2.634 -24.873  1.00  0.00     0.133 A 
HETATM    5  C2  UNL     1     -48.846  -2.308 -25.879  1.00  0.00     0.038 A 
HETATM    6  C3  UNL     1     -49.278  -1.554 -26.940  1.00  0.00     0.005 A 
HETATM    7  C4  UNL     1     -50.580  -1.132 -27.010  1.00  0.00     0.038 A 
HETATM    8  C5  UNL     1     -51.506  -1.443 -26.028  1.00  0.00     0.133 A 
BRANCH   4   9
HETATM    9  N1  UNL     1     -49.289  -3.417 -23.801  1.00  0.00    -0.113 N 
HETATM   10  O1  UNL     1     -49.215  -2.976 -22.625  1.00  0.00    -0.532 OA
HETATM   11  O2  UNL     1     -48.869  -4.702 -24.035  1.00  0.00    -0.532 OA
ENDBRANCH   4   9
BRANCH   8  12
HETATM   12  N2  UNL     1     -52.839  -1.005 -26.109  1.00  0.00    -0.113 N 
HETATM   13  O3  UNL     1     -53.542  -1.500 -27.022  1.00  0.00    -0.532 OA
HETATM   14  O4  UNL     1     -53.336  -0.094 -25.242  1.00  0.00    -0.532 OA
ENDBRANCH   8  12
ENDBRANCH   1   3
BRANCH   1  15
HETATM   15  N4  UNL     1     -52.080  -1.891 -22.710  1.00  0.00    -0.310 N 
HETATM   16  C7  UNL     1     -51.724  -0.676 -22.499  1.00  0.00     0.119 C 
ATOM     17  H4  UNL     1     -52.441  -2.421 -21.918  1.00  0.00     0.186 HD
BRANCH  16  18
HETATM   18  C8  UNL     1     -51.851  -0.083 -21.153  1.00  0.00    -0.005 A 
HETATM   19  C9  UNL     1     -51.133  -0.664 -20.111  1.00  0.00     0.015 A 
HETATM   20  C10 UNL     1     -51.254  -0.158 -18.841  1.00  0.00     0.022 A 
HETATM   21  C11 UNL     1     -52.086   0.925 -18.609  1.00  0.00     0.040 A 
HETATM   22 BR1  UNL     1     -52.269   1.623 -16.855  1.00  0.00    -0.049 Br
HETATM   23  C12 UNL     1     -52.797   1.502 -19.640  1.00  0.00     0.085 A 
HETATM   24  N5  UNL     1     -53.677   2.542 -19.737  1.00  0.00    -0.260 N 
HETATM   25  C14 UNL     1     -52.660   0.976 -20.913  1.00  0.00     0.030 A 
HETATM   26  O5  UNL     1     -54.046   2.636 -20.994  1.00  0.00    -0.249 OA
ATOM     27  H5  UNL     1     -53.992   3.138 -18.971  1.00  0.00     0.195 HD
HETATM   28  C13 UNL     1     -53.461   1.723 -21.714  1.00  0.00     0.182 A 
ENDBRANCH  16  18
ENDBRANCH   1  15
TORSDOF 5
ENDMDL
MODEL 2
REMARK VINA RESULT: -7.553038086      0.582      2.915
REMARK  5 active torsions:
REMARK  status: ('A' for Active; 'I' for Inactive)
REMARK    1  A    between atoms: N1_2  and  C1_4 
REMARK    2  A    between atoms: C5_8  and  N2_9 
REMARK    3  A    between atoms: C6_12  and  N3_13 
REMARK    4  A    between atoms: N3_13  and  N4_15 
REMARK    5  A    between atoms: C7_17  and  C8_18 
ROOT
HETATM    1  N3  UNL     1     -51.988  -2.639 -24.027  1.00  0.00    -0.296 N 
ATOM      2  H3  UNL     1     -52.721  -3.324 -24.208  1.00  0.00     0.187 HD
ENDROOT
BRANCH   1   3
HETATM    3  C6  UNL     1     -51.037  -2.402 -25.038  1.00  0.00     0.114 A 
HETATM    4  C1  UNL     1     -51.419  -2.020 -26.304  1.00  0.00     0.133 A 
HETATM    5  C2  UNL     1     -50.469  -1.782 -27.314  1.00  0.00     0.038 A 
HETATM    6  C3  UNL     1     -49.143  -1.939 -27.007  1.00  0.00     0.005 A 
HETATM    7  C4  UNL     1     -48.759  -2.318 -25.746  1.00  0.00     0.038 A 
HETATM    8  C5  UNL     1     -49.680  -2.558 -24.740  1.00  0.00     0.133 A 
BRANCH   4   9
HETATM    9  N1  UNL     1     -52.775  -1.841 -26.661  1.00  0.00    -0.113 N 
HETATM   10  O1  UNL     1     -53.504  -0.969 -26.123  1.00  0.00    -0.532 OA
HETATM   11  O2  UNL     1     -53.335  -2.647 -27.621  1.00  0.00    -0.532 OA
ENDBRANCH   4   9
BRANCH   8  12
HETATM   12  N2  UNL     1     -49.277  -2.947 -23.451  1.00  0.00    -0.113 N 
HETATM   13  O3  UNL     1     -49.480  -4.142 -23.133  1.00  0.00    -0.532 OA
HETATM   14  O4  UNL     1     -48.699  -2.070 -22.599  1.00  0.00    -0.532 OA
ENDBRANCH   8  12
ENDBRANCH   1   3
BRANCH   1  15
HETATM   15  N4  UNL     1     -51.984  -1.997 -22.799  1.00  0.00    -0.310 N 
HETATM   16  C7  UNL     1     -52.064  -0.727 -22.633  1.00  0.00     0.119 C 
ATOM     17  H4  UNL     1     -51.912  -2.578 -21.964  1.00  0.00     0.186 HD
BRANCH  16  18
HETATM   18  C8  UNL     1     -52.062  -0.149 -21.275  1.00  0.00    -0.005 A 
HETATM   19  C9  UNL     1     -51.304  -0.784 -20.295  1.00  0.00     0.015 A 
HETATM   20  C10 UNL     1     -51.306  -0.291 -19.013  1.00  0.00     0.022 A 
HETATM   21  C11 UNL     1     -52.058   0.832 -18.709  1.00  0.00     0.040 A 
HETATM   22 BR1  UNL     1     -52.076   1.513 -16.939  1.00  0.00    -0.049 Br
HETATM   23  C12 UNL     1     -52.808   1.462 -19.680  1.00  0.00     0.085 A 
HETATM   24  N5  UNL     1     -53.634   2.550 -19.701  1.00  0.00    -0.260 N 
HETATM   25  C14 UNL     1     -52.792   0.949 -20.966  1.00  0.00     0.030 A 
HETATM   26  O5  UNL     1     -54.085   2.683 -20.927  1.00  0.00    -0.249 OA
ATOM     27  H5  UNL     1     -53.860   3.151 -18.908  1.00  0.00     0.195 HD
HETATM   28  C13 UNL     1     -53.605   1.751 -21.698  1.00  0.00     0.182 A 
ENDBRANCH  16  18
ENDBRANCH   1  15
TORSDOF 5
ENDMDL
MODEL 3
REMARK VINA RESULT: -7.426784406      1.504      1.859
REMARK  5 active torsions:
REMARK  status: ('A' for Active; 'I' for Inactive)
REMARK    1  A    between atoms: N1_2  and  C1_4 
REMARK    2  A    between atoms: C5_8  and  N2_9 
REMARK    3  A    between atoms: C6_12  and  N3_13 
REMARK    4  A    between atoms: N3_13  and  N4_15 
REMARK    5  A    between atoms: C7_17  and  C8_18 
ROOT
HETATM    1  N3  UNL     1     -51.781  -2.292 -25.018  1.00  0.00    -0.296 N 
ATOM      2  H3  UNL     1     -52.619  -2.403 -25.588  1.00  0.00     0.187 HD
ENDROOT
BRANCH   1   3
HETATM    3  C6  UNL     1     -50.558  -2.761 -25.537  1.00  0.00     0.114 A 
HETATM    4  C1  UNL     1     -49.919  -3.848 -24.987  1.00  0.00     0.133 A 
HETATM    5  C2  UNL     1     -48.697  -4.317 -25.506  1.00  0.00     0.038 A 
HETATM    6  C3  UNL     1     -48.155  -3.662 -26.581  1.00  0.00     0.005 A 
HETATM    7  C4  UNL     1     -48.792  -2.579 -27.131  1.00  0.00     0.038 A 
HETATM    8  C5  UNL     1     -49.993  -2.104 -26.633  1.00  0.00     0.133 A 
BRANCH   4   9
HETATM    9  N1  UNL     1     -50.444  -4.555 -23.882  1.00  0.00    -0.113 N 
HETATM   10  O1  UNL     1     -50.901  -5.722 -23.985  1.00  0.00    -0.532 OA
HETATM   11  O2  UNL     1     -50.474  -3.957 -22.647  1.00  0.00    -0.532 OA
ENDBRANCH   4   9
BRANCH   8  12
HETATM   12  N2  UNL     1     -50.638  -0.993 -27.204  1.00  0.00    -0.113 N 
HETATM   13  O3  UNL     1     -50.358   0.130 -26.724  1.00  0.00    -0.532 OA
HETATM   14  O4  UNL     1     -51.517  -1.135 -28.222  1.00  0.00    -0.532 OA
ENDBRANCH   8  12
ENDBRANCH   1   3
BRANCH   1  15
HETATM   15  N4  UNL     1     -51.911  -1.689 -23.778  1.00  0.00    -0.310 N 
HETATM   16  C7  UNL     1     -51.398  -0.558 -23.452  1.00  0.00     0.119 C 
ATOM     17  H4  UNL     1     -52.457  -2.180 -23.070  1.00  0.00     0.186 HD
BRANCH  16  18
HETATM   18  C8  UNL     1     -51.610  -0.002 -22.101  1.00  0.00    -0.005 A 
HETATM   19  C9  UNL     1     -50.724  -0.375 -21.094  1.00  0.00     0.015 A 
HETATM   20  C10 UNL     1     -50.913   0.098 -19.819  1.00  0.00     0.022 A 
HETATM   21  C11 UNL     1     -51.978   0.940 -19.548  1.00  0.00     0.040 A 
HETATM   22 BR1  UNL     1     -52.253   1.588 -17.786  1.00  0.00    -0.049 Br
HETATM   23  C12 UNL     1     -52.855   1.311 -20.545  1.00  0.00     0.085 A 
HETATM   24  N5  UNL     1     -53.972   2.096 -20.600  1.00  0.00    -0.260 N 
HETATM   25  C14 UNL     1     -52.648   0.823 -21.824  1.00  0.00     0.030 A 
HETATM   26  O5  UNL     1     -54.407   2.083 -21.839  1.00  0.00    -0.249 OA
ATOM     27  H5  UNL     1     -54.392   2.602 -19.820  1.00  0.00     0.195 HD
HETATM   28  C13 UNL     1     -53.644   1.338 -22.586  1.00  0.00     0.182 A 
ENDBRANCH  16  18
ENDBRANCH   1  15
TORSDOF 5
ENDMDL
MODEL 4
REMARK VINA RESULT: -7.254142595      1.510      2.948
REMARK  5 active torsions:
REMARK  status: ('A' for Active; 'I' for Inactive)
REMARK    1  A    between atoms: N1_2  and  C1_4 
REMARK    2  A    between atoms: C5_8  and  N2_9 
REMARK    3  A    between atoms: C6_12  and  N3_13 
REMARK    4  A    between atoms: N3_13  and  N4_15 
REMARK    5  A    between atoms: C7_17  and  C8_18 
ROOT
HETATM    1  N3  UNL     1     -51.638  -2.182 -24.749  1.00  0.00    -0.296 N 
ATOM      2  H3  UNL     1     -52.435  -2.220 -25.385  1.00  0.00     0.187 HD
ENDROOT
BRANCH   1   3
HETATM    3  C6  UNL     1     -50.423  -2.753 -25.174  1.00  0.00     0.114 A 
HETATM    4  C1  UNL     1     -49.856  -2.411 -26.380  1.00  0.00     0.133 A 
HETATM    5  C2  UNL     1     -48.641  -2.981 -26.804  1.00  0.00     0.038 A 
HETATM    6  C3  UNL     1     -48.029  -3.891 -25.983  1.00  0.00     0.005 A 
HETATM    7  C4  UNL     1     -48.593  -4.233 -24.780  1.00  0.00     0.038 A 
HETATM    8  C5  UNL     1     -49.787  -3.683 -24.347  1.00  0.00     0.133 A 
BRANCH   4   9
HETATM    9  N1  UNL     1     -50.450  -1.474 -27.256  1.00  0.00    -0.113 N 
HETATM   10  O1  UNL     1     -50.560  -0.255 -26.963  1.00  0.00    -0.532 OA
HETATM   11  O2  UNL     1     -50.937  -1.892 -28.468  1.00  0.00    -0.532 OA
ENDBRANCH   4   9
BRANCH   8  12
HETATM   12  N2  UNL     1     -50.357  -4.039 -23.112  1.00  0.00    -0.113 N 
HETATM   13  O3  UNL     1     -51.357  -4.795 -23.149  1.00  0.00    -0.532 OA
HETATM   14  O4  UNL     1     -49.848  -3.587 -21.944  1.00  0.00    -0.532 OA
ENDBRANCH   8  12
ENDBRANCH   1   3
BRANCH   1  15
HETATM   15  N4  UNL     1     -51.815  -1.572 -23.518  1.00  0.00    -0.310 N 
HETATM   16  C7  UNL     1     -51.255  -0.476 -23.153  1.00  0.00     0.119 C 
ATOM     17  H4  UNL     1     -52.436  -2.029 -22.851  1.00  0.00     0.186 HD
BRANCH  16  18
HETATM   18  C8  UNL     1     -51.523   0.091 -21.817  1.00  0.00    -0.005 A 
HETATM   19  C9  UNL     1     -50.683  -0.276 -20.769  1.00  0.00     0.015 A 
HETATM   20  C10 UNL     1     -50.924   0.207 -19.507  1.00  0.00     0.022 A 
HETATM   21  C11 UNL     1     -51.997   1.056 -19.289  1.00  0.00     0.040 A 
HETATM   22 BR1  UNL     1     -52.345   1.720 -17.547  1.00  0.00    -0.049 Br
HETATM   23  C12 UNL     1     -52.829   1.422 -20.327  1.00  0.00     0.085 A 
HETATM   24  N5  UNL     1     -53.938   2.212 -20.436  1.00  0.00    -0.260 N 
HETATM   25  C14 UNL     1     -52.568   0.923 -21.592  1.00  0.00     0.030 A 
HETATM   26  O5  UNL     1     -54.319   2.190 -21.693  1.00  0.00    -0.249 OA
ATOM     27  H5  UNL     1     -54.389   2.726 -19.679  1.00  0.00     0.195 HD
HETATM   28  C13 UNL     1     -53.528   1.436 -22.400  1.00  0.00     0.182 A 
ENDBRANCH  16  18
ENDBRANCH   1  15
TORSDOF 5
ENDMDL
MODEL 5
REMARK VINA RESULT: -7.093965609      3.245      6.980
REMARK  5 active torsions:
REMARK  status: ('A' for Active; 'I' for Inactive)
REMARK    1  A    between atoms: N1_2  and  C1_4 
REMARK    2  A    between atoms: C5_8  and  N2_9 
REMARK    3  A    between atoms: C6_12  and  N3_13 
REMARK    4  A    between atoms: N3_13  and  N4_15 
REMARK    5  A    between atoms: C7_17  and  C8_18 
ROOT
HETATM    1  N3  UNL     1     -52.020   0.638 -22.560  1.00  0.00    -0.296 N 
ATOM      2  H3  UNL     1     -52.728   1.246 -22.972  1.00  0.00     0.187 HD
ENDROOT
BRANCH   1   3
HETATM    3  C6  UNL     1     -51.836   0.685 -21.164  1.00  0.00     0.114 A 
HETATM    4  C1  UNL     1     -50.806   0.005 -20.556  1.00  0.00     0.133 A 
HETATM    5  C2  UNL     1     -50.622   0.053 -19.161  1.00  0.00     0.038 A 
HETATM    6  C3  UNL     1     -51.497   0.800 -18.416  1.00  0.00     0.005 A 
HETATM    7  C4  UNL     1     -52.523   1.479 -19.021  1.00  0.00     0.038 A 
HETATM    8  C5  UNL     1     -52.720   1.443 -20.391  1.00  0.00     0.133 A 
BRANCH   4   9
HETATM    9  N1  UNL     1     -49.879  -0.772 -21.286  1.00  0.00    -0.113 N 
HETATM   10  O1  UNL     1     -48.790  -0.303 -21.706  1.00  0.00    -0.532 OA
HETATM   11  O2  UNL     1     -50.165  -2.085 -21.565  1.00  0.00    -0.532 OA
ENDBRANCH   4   9
BRANCH   8  12
HETATM   12  N2  UNL     1     -53.775   2.142 -21.002  1.00  0.00    -0.113 N 
HETATM   13  O3  UNL     1     -53.925   3.341 -20.668  1.00  0.00    -0.532 OA
HETATM   14  O4  UNL     1     -54.586   1.546 -21.905  1.00  0.00    -0.532 OA
ENDBRANCH   8  12
ENDBRANCH   1   3
BRANCH   1  15
HETATM   15  N4  UNL     1     -51.296  -0.187 -23.405  1.00  0.00    -0.310 N 
HETATM   16  C7  UNL     1     -51.686  -0.574 -24.566  1.00  0.00     0.119 C 
ATOM     17  H4  UNL     1     -50.385  -0.509 -23.082  1.00  0.00     0.186 HD
BRANCH  16  18
HETATM   18  C8  UNL     1     -50.826  -1.447 -25.389  1.00  0.00    -0.005 A 
HETATM   19  C9  UNL     1     -49.541  -1.724 -24.930  1.00  0.00     0.015 A 
HETATM   20  C10 UNL     1     -48.705  -2.505 -25.687  1.00  0.00     0.022 A 
HETATM   21  C11 UNL     1     -49.147  -3.011 -26.898  1.00  0.00     0.040 A 
HETATM   22 BR1  UNL     1     -47.994  -4.082 -27.958  1.00  0.00    -0.049 Br
HETATM   23  C12 UNL     1     -50.420  -2.739 -27.354  1.00  0.00     0.085 A 
HETATM   24  N5  UNL     1     -51.132  -3.072 -28.472  1.00  0.00    -0.260 N 
HETATM   25  C14 UNL     1     -51.247  -1.949 -26.575  1.00  0.00     0.030 A 
HETATM   26  O5  UNL     1     -52.317  -2.517 -28.367  1.00  0.00    -0.249 OA
ATOM     27  H5  UNL     1     -50.803  -3.648 -29.247  1.00  0.00     0.195 HD
HETATM   28  C13 UNL     1     -52.415  -1.846 -27.256  1.00  0.00     0.182 A 
ENDBRANCH  16  18
ENDBRANCH   1  15
TORSDOF 5
ENDMDL
