MODEL 1
REMARK VINA RESULT: -6.284342977      0.000      0.000
REMARK  9 active torsions:
REMARK  status: ('A' for Active; 'I' for Inactive)
REMARK    1  A    between atoms: C2_2  and  C3_3 
REMARK    2  A    between atoms: C3_3  and  C4_4 
REMARK    3  A    between atoms: C4_4  and  N1_5 
REMARK    4  A    between atoms: N1_5  and  C5_7 
REMARK    5  A    between atoms: C6_10  and  N3_11 
REMARK    6  A    between atoms: N3_11  and  C7_13 
REMARK    7  A    between atoms: C9_17  and  N5_18 
REMARK    8  A    between atoms: N5_18  and  N6_20 
REMARK    9  A    between atoms: N6_20  and  C10_22 
ROOT
HETATM    1  C5  UNL     1     173.184  14.344  83.980  1.00  0.00     0.707 A 
HETATM    2  N2  UNL     1     173.915  13.223  84.243  1.00  0.00    -0.022 N 
ATOM      3  H2  UNL     1     173.610  12.324  83.871  1.00  0.00     0.203 HD
HETATM    4  C6  UNL     1     175.032  13.290  84.985  1.00  0.00     0.707 A 
HETATM    5  N4  UNL     1     175.385  14.501  85.448  1.00  0.00    -0.020 N 
ATOM      6  H4  UNL     1     176.230  14.577  86.015  1.00  0.00     0.203 HD
HETATM    7  C9  UNL     1     174.677  15.618  85.199  1.00  0.00     0.725 A 
HETATM    8  N7  UNL     1     173.557  15.550  84.455  1.00  0.00    -0.020 N 
ATOM      9  H7  UNL     1     173.007  16.385  84.257  1.00  0.00     0.203 HD
ENDROOT
BRANCH   1  10
HETATM   10  N1  UNL     1     172.124  14.208  83.261  1.00  0.00    -0.225 N 
ATOM     11  H1  UNL     1     172.156  13.697  82.380  1.00  0.00     0.177 HD
BRANCH  10  12
HETATM   12  C4  UNL     1     170.882  14.799  83.729  1.00  0.00     0.138 C 
BRANCH  12  13
HETATM   13  C3  UNL     1     170.290  15.738  82.722  1.00  0.00     0.020 C 
BRANCH  13  14
HETATM   14  C2  UNL     1     169.480  16.775  83.484  1.00  0.00    -0.003 C 
HETATM   15  C1  UNL     1     168.236  17.088  82.673  1.00  0.00     0.005 C 
ENDBRANCH  13  14
ENDBRANCH  12  13
ENDBRANCH  10  12
ENDBRANCH   1  10
BRANCH   4  16
HETATM   16  N3  UNL     1     175.768  12.280  85.273  1.00  0.00    -0.225 N 
ATOM     17  H3  UNL     1     175.851  12.040  86.261  1.00  0.00     0.177 HD
BRANCH  16  18
HETATM   18  C7  UNL     1     176.477  11.462  84.356  1.00  0.00     0.133 C 
HETATM   19  C8  UNL     1     177.607  12.311  83.761  1.00  0.00     0.027 C 
ENDBRANCH  16  18
ENDBRANCH   4  16
BRANCH   7  20
HETATM   20  N5  UNL     1     175.006  16.787  85.639  1.00  0.00    -0.135 N 
ATOM     21  H5  UNL     1     174.489  17.628  85.381  1.00  0.00     0.205 HD
BRANCH  20  22
HETATM   22  N6  UNL     1     176.133  16.831  86.505  1.00  0.00    -0.323 N 
ATOM     23  H6  UNL     1     176.071  16.422  87.438  1.00  0.00     0.180 HD
BRANCH  22  24
HETATM   24  C10 UNL     1     177.365  17.449  86.074  1.00  0.00     0.135 C 
HETATM   25  C11 UNL     1     178.515  16.780  86.813  1.00  0.00     0.028 C 
ENDBRANCH  22  24
ENDBRANCH  20  22
ENDBRANCH   7  20
TORSDOF 9
ENDMDL
MODEL 2
REMARK VINA RESULT: -6.154358448      0.946      5.799
REMARK  9 active torsions:
REMARK  status: ('A' for Active; 'I' for Inactive)
REMARK    1  A    between atoms: C2_2  and  C3_3 
REMARK    2  A    between atoms: C3_3  and  C4_4 
REMARK    3  A    between atoms: C4_4  and  N1_5 
REMARK    4  A    between atoms: N1_5  and  C5_7 
REMARK    5  A    between atoms: C6_10  and  N3_11 
REMARK    6  A    between atoms: N3_11  and  C7_13 
REMARK    7  A    between atoms: C9_17  and  N5_18 
REMARK    8  A    between atoms: N5_18  and  N6_20 
REMARK    9  A    between atoms: N6_20  and  C10_22 
ROOT
HETATM    1  C5  UNL     1     174.464  15.853  85.031  1.00  0.00     0.707 A 
HETATM    2  N2  UNL     1     173.441  15.820  84.131  1.00  0.00    -0.022 N 
ATOM      3  H2  UNL     1     173.043  16.695  83.788  1.00  0.00     0.203 HD
HETATM    4  C6  UNL     1     172.951  14.650  83.691  1.00  0.00     0.707 A 
HETATM    5  N4  UNL     1     173.513  13.531  84.178  1.00  0.00    -0.020 N 
ATOM      6  H4  UNL     1     173.158  12.630  83.859  1.00  0.00     0.203 HD
HETATM    7  C9  UNL     1     174.524  13.544  85.066  1.00  0.00     0.725 A 
HETATM    8  N7  UNL     1     175.015  14.717  85.507  1.00  0.00    -0.020 N 
ATOM      9  H7  UNL     1     175.780  14.747  86.181  1.00  0.00     0.203 HD
ENDROOT
BRANCH   1  10
HETATM   10  N1  UNL     1     174.886  17.009  85.410  1.00  0.00    -0.225 N 
ATOM     11  H1  UNL     1     174.355  17.853  85.195  1.00  0.00     0.177 HD
BRANCH  10  12
HETATM   12  C4  UNL     1     176.134  17.090  86.151  1.00  0.00     0.138 C 
BRANCH  12  13
HETATM   13  C3  UNL     1     177.295  17.423  85.264  1.00  0.00     0.020 C 
BRANCH  13  14
HETATM   14  C2  UNL     1     178.378  16.386  85.520  1.00  0.00    -0.003 C 
HETATM   15  C1  UNL     1     178.342  15.379  84.385  1.00  0.00     0.005 C 
ENDBRANCH  13  14
ENDBRANCH  12  13
ENDBRANCH  10  12
ENDBRANCH   1  10
BRANCH   4  16
HETATM   16  N3  UNL     1     171.991  14.542  82.847  1.00  0.00    -0.225 N 
ATOM     17  H3  UNL     1     172.252  14.400  81.872  1.00  0.00     0.177 HD
BRANCH  16  18
HETATM   18  C7  UNL     1     170.602  14.600  83.133  1.00  0.00     0.133 C 
HETATM   19  C8  UNL     1     170.104  15.988  82.713  1.00  0.00     0.027 C 
ENDBRANCH  16  18
ENDBRANCH   4  16
BRANCH   7  20
HETATM   20  N5  UNL     1     175.073  12.475  85.541  1.00  0.00    -0.135 N 
ATOM     21  H5  UNL     1     174.566  11.832  86.150  1.00  0.00     0.205 HD
BRANCH  20  22
HETATM   22  N6  UNL     1     176.425  12.251  85.166  1.00  0.00    -0.323 N 
ATOM     23  H6  UNL     1     177.171  12.775  85.622  1.00  0.00     0.180 HD
BRANCH  22  24
HETATM   24  C10 UNL     1     176.751  11.284  84.143  1.00  0.00     0.135 C 
HETATM   25  C11 UNL     1     177.996  11.767  83.414  1.00  0.00     0.028 C 
ENDBRANCH  22  24
ENDBRANCH  20  22
ENDBRANCH   7  20
TORSDOF 9
ENDMDL
MODEL 3
REMARK VINA RESULT: -6.130889888      1.222      3.734
REMARK  9 active torsions:
REMARK  status: ('A' for Active; 'I' for Inactive)
REMARK    1  A    between atoms: C2_2  and  C3_3 
REMARK    2  A    between atoms: C3_3  and  C4_4 
REMARK    3  A    between atoms: C4_4  and  N1_5 
REMARK    4  A    between atoms: N1_5  and  C5_7 
REMARK    5  A    between atoms: C6_10  and  N3_11 
REMARK    6  A    between atoms: N3_11  and  C7_13 
REMARK    7  A    between atoms: C9_17  and  N5_18 
REMARK    8  A    between atoms: N5_18  and  N6_20 
REMARK    9  A    between atoms: N6_20  and  C10_22 
ROOT
HETATM    1  C5  UNL     1     173.050  14.409  83.869  1.00  0.00     0.707 A 
HETATM    2  N2  UNL     1     173.398  15.646  84.326  1.00  0.00    -0.022 N 
ATOM      3  H2  UNL     1     172.857  16.461  84.036  1.00  0.00     0.203 HD
HETATM    4  C6  UNL     1     174.444  15.803  85.153  1.00  0.00     0.707 A 
HETATM    5  N4  UNL     1     175.119  14.695  85.500  1.00  0.00    -0.020 N 
ATOM      6  H4  UNL     1     175.918  14.789  86.127  1.00  0.00     0.203 HD
HETATM    7  C9  UNL     1     174.791  13.467  85.060  1.00  0.00     0.725 A 
HETATM    8  N7  UNL     1     173.742  13.309  84.231  1.00  0.00    -0.020 N 
ATOM      9  H7  UNL     1     173.479  12.387  83.886  1.00  0.00     0.203 HD
ENDROOT
BRANCH   1  10
HETATM   10  N1  UNL     1     172.036  14.330  83.079  1.00  0.00    -0.225 N 
ATOM     11  H1  UNL     1     172.134  13.928  82.147  1.00  0.00     0.177 HD
BRANCH  10  12
HETATM   12  C4  UNL     1     170.750  14.824  83.540  1.00  0.00     0.138 C 
BRANCH  12  13
HETATM   13  C3  UNL     1     170.177  15.854  82.615  1.00  0.00     0.020 C 
BRANCH  13  14
HETATM   14  C2  UNL     1     169.304  16.781  83.447  1.00  0.00    -0.003 C 
HETATM   15  C1  UNL     1     168.078  17.134  82.624  1.00  0.00     0.005 C 
ENDBRANCH  13  14
ENDBRANCH  12  13
ENDBRANCH  10  12
ENDBRANCH   1  10
BRANCH   4  16
HETATM   16  N3  UNL     1     174.829  16.933  85.621  1.00  0.00    -0.225 N 
ATOM     17  H3  UNL     1     175.085  16.958  86.608  1.00  0.00     0.177 HD
BRANCH  16  18
HETATM   18  C7  UNL     1     174.935  18.154  84.905  1.00  0.00     0.133 C 
HETATM   19  C8  UNL     1     176.142  18.034  83.967  1.00  0.00     0.027 C 
ENDBRANCH  16  18
ENDBRANCH   4  16
BRANCH   7  20
HETATM   20  N5  UNL     1     175.433  12.394  85.387  1.00  0.00    -0.135 N 
ATOM     21  H5  UNL     1     175.396  12.008  86.330  1.00  0.00     0.205 HD
BRANCH  20  22
HETATM   22  N6  UNL     1     176.194  11.786  84.352  1.00  0.00    -0.323 N 
ATOM     23  H6  UNL     1     175.855  10.932  83.909  1.00  0.00     0.180 HD
BRANCH  22  24
HETATM   24  C10 UNL     1     177.444  12.368  83.922  1.00  0.00     0.135 C 
HETATM   25  C11 UNL     1     178.278  11.274  83.272  1.00  0.00     0.028 C 
ENDBRANCH  22  24
ENDBRANCH  20  22
ENDBRANCH   7  20
TORSDOF 9
ENDMDL
MODEL 4
REMARK VINA RESULT: -6.029134298      0.880      3.676
REMARK  9 active torsions:
REMARK  status: ('A' for Active; 'I' for Inactive)
REMARK    1  A    between atoms: C2_2  and  C3_3 
REMARK    2  A    between atoms: C3_3  and  C4_4 
REMARK    3  A    between atoms: C4_4  and  N1_5 
REMARK    4  A    between atoms: N1_5  and  C5_7 
REMARK    5  A    between atoms: C6_10  and  N3_11 
REMARK    6  A    between atoms: N3_11  and  C7_13 
REMARK    7  A    between atoms: C9_17  and  N5_18 
REMARK    8  A    between atoms: N5_18  and  N6_20 
REMARK    9  A    between atoms: N6_20  and  C10_22 
ROOT
HETATM    1  C5  UNL     1     173.180  15.892  84.747  1.00  0.00     0.707 A 
HETATM    2  N2  UNL     1     174.071  16.721  85.359  1.00  0.00    -0.022 N 
ATOM      3  H2  UNL     1     173.842  17.708  85.477  1.00  0.00     0.203 HD
HETATM    4  C6  UNL     1     175.247  16.254  85.808  1.00  0.00     0.707 A 
HETATM    5  N4  UNL     1     175.494  14.946  85.625  1.00  0.00    -0.020 N 
ATOM      6  H4  UNL     1     176.381  14.568  85.957  1.00  0.00     0.203 HD
HETATM    7  C9  UNL     1     174.626  14.112  85.024  1.00  0.00     0.725 A 
HETATM    8  N7  UNL     1     173.448  14.581  84.573  1.00  0.00    -0.020 N 
ATOM      9  H7  UNL     1     172.778  13.965  84.114  1.00  0.00     0.203 HD
ENDROOT
BRANCH   1  10
HETATM   10  N1  UNL     1     172.070  16.405  84.340  1.00  0.00    -0.225 N 
ATOM     11  H1  UNL     1     171.979  17.414  84.219  1.00  0.00     0.177 HD
BRANCH  10  12
HETATM   12  C4  UNL     1     170.952  15.522  84.059  1.00  0.00     0.138 C 
BRANCH  12  13
HETATM   13  C3  UNL     1     170.158  15.978  82.872  1.00  0.00     0.020 C 
BRANCH  13  14
HETATM   14  C2  UNL     1     169.306  17.156  83.319  1.00  0.00    -0.003 C 
HETATM   15  C1  UNL     1     168.000  17.111  82.546  1.00  0.00     0.005 C 
ENDBRANCH  13  14
ENDBRANCH  12  13
ENDBRANCH  10  12
ENDBRANCH   1  10
BRANCH   4  16
HETATM   16  N3  UNL     1     176.133  16.974  86.392  1.00  0.00    -0.225 N 
ATOM     17  H3  UNL     1     175.895  17.336  87.315  1.00  0.00     0.177 HD
BRANCH  16  18
HETATM   18  C7  UNL     1     177.413  17.320  85.883  1.00  0.00     0.133 C 
HETATM   19  C8  UNL     1     178.453  16.891  86.925  1.00  0.00     0.027 C 
ENDBRANCH  16  18
ENDBRANCH   4  16
BRANCH   7  20
HETATM   20  N5  UNL     1     174.853  12.853  84.841  1.00  0.00    -0.135 N 
ATOM     21  H5  UNL     1     174.113  12.204  84.574  1.00  0.00     0.205 HD
BRANCH  20  22
HETATM   22  N6  UNL     1     176.195  12.429  85.036  1.00  0.00    -0.323 N 
ATOM     23  H6  UNL     1     176.775  12.889  85.738  1.00  0.00     0.180 HD
BRANCH  22  24
HETATM   24  C10 UNL     1     176.744  11.349  84.249  1.00  0.00     0.135 C 
HETATM   25  C11 UNL     1     177.921  11.894  83.453  1.00  0.00     0.028 C 
ENDBRANCH  22  24
ENDBRANCH  20  22
ENDBRANCH   7  20
TORSDOF 9
ENDMDL
MODEL 5
REMARK VINA RESULT: -6.014278649      1.074      1.341
REMARK  9 active torsions:
REMARK  status: ('A' for Active; 'I' for Inactive)
REMARK    1  A    between atoms: C2_2  and  C3_3 
REMARK    2  A    between atoms: C3_3  and  C4_4 
REMARK    3  A    between atoms: C4_4  and  N1_5 
REMARK    4  A    between atoms: N1_5  and  C5_7 
REMARK    5  A    between atoms: C6_10  and  N3_11 
REMARK    6  A    between atoms: N3_11  and  C7_13 
REMARK    7  A    between atoms: C9_17  and  N5_18 
REMARK    8  A    between atoms: N5_18  and  N6_20 
REMARK    9  A    between atoms: N6_20  and  C10_22 
ROOT
HETATM    1  C5  UNL     1     173.176  14.364  83.890  1.00  0.00     0.707 A 
HETATM    2  N2  UNL     1     173.891  13.248  84.206  1.00  0.00    -0.022 N 
ATOM      3  H2  UNL     1     173.575  12.336  83.875  1.00  0.00     0.203 HD
HETATM    4  C6  UNL     1     175.008  13.335  84.947  1.00  0.00     0.707 A 
HETATM    5  N4  UNL     1     175.376  14.561  85.354  1.00  0.00    -0.020 N 
ATOM      6  H4  UNL     1     176.221  14.652  85.919  1.00  0.00     0.203 HD
HETATM    7  C9  UNL     1     174.683  15.674  85.053  1.00  0.00     0.725 A 
HETATM    8  N7  UNL     1     173.563  15.586  84.310  1.00  0.00    -0.020 N 
ATOM      9  H7  UNL     1     173.024  16.418  84.072  1.00  0.00     0.203 HD
ENDROOT
BRANCH   1  10
HETATM   10  N1  UNL     1     172.115  14.209  83.176  1.00  0.00    -0.225 N 
ATOM     11  H1  UNL     1     172.152  13.695  82.296  1.00  0.00     0.177 HD
BRANCH  10  12
HETATM   12  C4  UNL     1     170.865  14.781  83.647  1.00  0.00     0.138 C 
BRANCH  12  13
HETATM   13  C3  UNL     1     170.303  15.779  82.680  1.00  0.00     0.020 C 
BRANCH  13  14
HETATM   14  C2  UNL     1     169.486  16.782  83.480  1.00  0.00    -0.003 C 
HETATM   15  C1  UNL     1     168.234  17.107  82.687  1.00  0.00     0.005 C 
ENDBRANCH  13  14
ENDBRANCH  12  13
ENDBRANCH  10  12
ENDBRANCH   1  10
BRANCH   4  16
HETATM   16  N3  UNL     1     175.730  12.329  85.283  1.00  0.00    -0.225 N 
ATOM     17  H3  UNL     1     175.794  12.123  86.279  1.00  0.00     0.177 HD
BRANCH  16  18
HETATM   18  C7  UNL     1     176.449  11.474  84.407  1.00  0.00     0.133 C 
HETATM   19  C8  UNL     1     177.604  12.289  83.815  1.00  0.00     0.027 C 
ENDBRANCH  16  18
ENDBRANCH   4  16
BRANCH   7  20
HETATM   20  N5  UNL     1     175.026  16.858  85.439  1.00  0.00    -0.135 N 
ATOM     21  H5  UNL     1     174.948  17.153  86.413  1.00  0.00     0.205 HD
BRANCH  20  22
HETATM   22  N6  UNL     1     175.520  17.724  84.426  1.00  0.00    -0.323 N 
ATOM     23  H6  UNL     1     174.906  18.430  84.020  1.00  0.00     0.180 HD
BRANCH  22  24
HETATM   24  C10 UNL     1     176.884  17.612  83.967  1.00  0.00     0.135 C 
HETATM   25  C11 UNL     1     176.861  17.390  82.461  1.00  0.00     0.028 C 
ENDBRANCH  22  24
ENDBRANCH  20  22
ENDBRANCH   7  20
TORSDOF 9
ENDMDL
