MODEL 1
REMARK VINA RESULT: -6.123133215      0.000      0.000
REMARK  4 active torsions:
REMARK  status: ('A' for Active; 'I' for Inactive)
REMARK    1  A    between atoms: C2_2  and  O2_4 
REMARK    2  A    between atoms: O2_4  and  N1_5 
REMARK    3  A    between atoms: N1_5  and  C3_7 
REMARK    4  A    between atoms: N2_9  and  C4_11 
ROOT
HETATM    1  C3  UNL     1      10.416   5.264  25.305  1.00  0.00     0.195 C 
HETATM    2 CL1  UNL     1      11.365   4.517  26.549  1.00  0.00    -0.043 Cl
HETATM    3  N2  UNL     1      10.725   5.093  24.086  1.00  0.00    -0.361 N 
ATOM      4  H2  UNL     1      10.133   5.556  23.396  1.00  0.00     0.162 HD
ENDROOT
BRANCH   1   5
HETATM    5  N1  UNL     1       9.312   6.052  25.666  1.00  0.00    -0.232 N 
ATOM      6  H1  UNL     1       8.962   5.979  26.622  1.00  0.00     0.197 HD
BRANCH   5   7
HETATM    7  O2  UNL     1       8.672   6.918  24.808  1.00  0.00    -0.198 OA
BRANCH   7   8
HETATM    8  C2  UNL     1       9.104   8.236  24.672  1.00  0.00     0.277 C 
HETATM    9  C1  UNL     1      10.157   8.632  23.695  1.00  0.00     0.128 C 
HETATM   10  O1  UNL     1       8.541   9.082  25.437  1.00  0.00    -0.264 OA
ENDBRANCH   7   8
ENDBRANCH   5   7
ENDBRANCH   1   5
BRANCH   3  11
HETATM   11  C4  UNL     1      11.812   4.322  23.576  1.00  0.00     0.084 C 
HETATM   12  C5  UNL     1      11.321   3.164  22.721  1.00  0.00     0.025 C 
HETATM   13  C6  UNL     1      12.524   2.516  22.047  1.00  0.00     0.002 C 
HETATM   14  C7  UNL     1      13.134   3.446  21.026  1.00  0.00     0.000 C 
HETATM   15  C8  UNL     1      12.621   4.844  21.257  1.00  0.00     0.002 C 
HETATM   16  C9  UNL     1      12.672   5.239  22.716  1.00  0.00     0.025 C 
ENDBRANCH   3  11
TORSDOF 4
ENDMDL
MODEL 2
REMARK VINA RESULT: -6.116699331      3.424      5.799
REMARK  4 active torsions:
REMARK  status: ('A' for Active; 'I' for Inactive)
REMARK    1  A    between atoms: C2_2  and  O2_4 
REMARK    2  A    between atoms: O2_4  and  N1_5 
REMARK    3  A    between atoms: N1_5  and  C3_7 
REMARK    4  A    between atoms: N2_9  and  C4_11 
ROOT
HETATM    1  C3  UNL     1      13.051   5.853  22.077  1.00  0.00     0.195 C 
HETATM    2 CL1  UNL     1      14.366   6.291  23.118  1.00  0.00    -0.043 Cl
HETATM    3  N2  UNL     1      11.905   6.371  22.254  1.00  0.00    -0.361 N 
ATOM      4  H2  UNL     1      11.168   6.077  21.613  1.00  0.00     0.162 HD
ENDROOT
BRANCH   1   5
HETATM    5  N1  UNL     1      13.272   4.925  21.047  1.00  0.00    -0.232 N 
ATOM      6  H1  UNL     1      14.104   5.041  20.468  1.00  0.00     0.197 HD
BRANCH   5   7
HETATM    7  O2  UNL     1      12.433   3.869  20.770  1.00  0.00    -0.198 OA
BRANCH   7   8
HETATM    8  C2  UNL     1      12.197   2.878  21.721  1.00  0.00     0.277 C 
HETATM    9  C1  UNL     1      11.033   2.927  22.649  1.00  0.00     0.128 C 
HETATM   10  O1  UNL     1      13.040   1.926  21.745  1.00  0.00    -0.264 OA
ENDBRANCH   7   8
ENDBRANCH   5   7
ENDBRANCH   1   5
BRANCH   3  11
HETATM   11  C4  UNL     1      11.539   7.322  23.253  1.00  0.00     0.084 C 
HETATM   12  C5  UNL     1      10.577   8.364  22.703  1.00  0.00     0.025 C 
HETATM   13  C6  UNL     1      10.069   9.213  23.862  1.00  0.00     0.002 C 
HETATM   14  C7  UNL     1       9.188   8.400  24.779  1.00  0.00     0.000 C 
HETATM   15  C8  UNL     1       9.390   6.935  24.493  1.00  0.00     0.002 C 
HETATM   16  C9  UNL     1      10.853   6.568  24.385  1.00  0.00     0.025 C 
ENDBRANCH   3  11
TORSDOF 4
ENDMDL
MODEL 3
REMARK VINA RESULT: -6.078405092      0.919      1.026
REMARK  4 active torsions:
REMARK  status: ('A' for Active; 'I' for Inactive)
REMARK    1  A    between atoms: C2_2  and  O2_4 
REMARK    2  A    between atoms: O2_4  and  N1_5 
REMARK    3  A    between atoms: N1_5  and  C3_7 
REMARK    4  A    between atoms: N2_9  and  C4_11 
ROOT
HETATM    1  C3  UNL     1      10.561   4.977  25.535  1.00  0.00     0.195 C 
HETATM    2 CL1  UNL     1      11.786   4.472  26.652  1.00  0.00    -0.043 Cl
HETATM    3  N2  UNL     1      10.725   4.790  24.290  1.00  0.00    -0.361 N 
ATOM      4  H2  UNL     1       9.973   5.107  23.678  1.00  0.00     0.162 HD
ENDROOT
BRANCH   1   5
HETATM    5  N1  UNL     1       9.396   5.589  26.025  1.00  0.00    -0.232 N 
ATOM      6  H1  UNL     1       9.189   5.498  27.020  1.00  0.00     0.197 HD
BRANCH   5   7
HETATM    7  O2  UNL     1       8.517   6.305  25.244  1.00  0.00    -0.198 OA
BRANCH   7   8
HETATM    8  C2  UNL     1       8.805   7.614  24.862  1.00  0.00     0.277 C 
HETATM    9  C1  UNL     1       8.324   8.793  25.635  1.00  0.00     0.128 C 
HETATM   10  O1  UNL     1       9.508   7.738  23.809  1.00  0.00    -0.264 OA
ENDBRANCH   7   8
ENDBRANCH   5   7
ENDBRANCH   1   5
BRANCH   3  11
HETATM   11  C4  UNL     1      11.849   4.183  23.654  1.00  0.00     0.084 C 
HETATM   12  C5  UNL     1      11.419   3.088  22.690  1.00  0.00     0.025 C 
HETATM   13  C6  UNL     1      12.640   2.632  21.901  1.00  0.00     0.002 C 
HETATM   14  C7  UNL     1      13.119   3.723  20.972  1.00  0.00     0.000 C 
HETATM   15  C8  UNL     1      12.498   5.033  21.382  1.00  0.00     0.002 C 
HETATM   16  C9  UNL     1      12.584   5.266  22.874  1.00  0.00     0.025 C 
ENDBRANCH   3  11
TORSDOF 4
ENDMDL
MODEL 4
REMARK VINA RESULT: -6.027266117      2.593      3.023
REMARK  4 active torsions:
REMARK  status: ('A' for Active; 'I' for Inactive)
REMARK    1  A    between atoms: C2_2  and  O2_4 
REMARK    2  A    between atoms: O2_4  and  N1_5 
REMARK    3  A    between atoms: N1_5  and  C3_7 
REMARK    4  A    between atoms: N2_9  and  C4_11 
ROOT
HETATM    1  C3  UNL     1      11.297   7.686  23.226  1.00  0.00     0.195 C 
HETATM    2 CL1  UNL     1      10.148   7.113  24.391  1.00  0.00    -0.043 Cl
HETATM    3  N2  UNL     1      12.061   6.863  22.634  1.00  0.00    -0.361 N 
ATOM      4  H2  UNL     1      12.718   7.255  21.959  1.00  0.00     0.162 HD
ENDROOT
BRANCH   1   5
HETATM    5  N1  UNL     1      11.365   9.061  22.951  1.00  0.00    -0.232 N 
ATOM      6  H1  UNL     1      12.262   9.531  23.075  1.00  0.00     0.197 HD
BRANCH   5   7
HETATM    7  O2  UNL     1      10.295   9.813  22.523  1.00  0.00    -0.198 OA
BRANCH   7   8
HETATM    8  C2  UNL     1       9.240   9.224  21.829  1.00  0.00     0.277 C 
HETATM    9  C1  UNL     1       7.867   9.127  22.399  1.00  0.00     0.128 C 
HETATM   10  O1  UNL     1       9.525   8.772  20.675  1.00  0.00    -0.264 OA
ENDBRANCH   7   8
ENDBRANCH   5   7
ENDBRANCH   1   5
BRANCH   3  11
HETATM   11  C4  UNL     1      12.101   5.448  22.812  1.00  0.00     0.084 C 
HETATM   12  C5  UNL     1      12.482   4.735  21.524  1.00  0.00     0.025 C 
HETATM   13  C6  UNL     1      12.707   3.261  21.835  1.00  0.00     0.002 C 
HETATM   14  C7  UNL     1      13.935   3.073  22.694  1.00  0.00     0.000 C 
HETATM   15  C8  UNL     1      14.331   4.398  23.292  1.00  0.00     0.002 C 
HETATM   16  C9  UNL     1      13.148   5.140  23.874  1.00  0.00     0.025 C 
ENDBRANCH   3  11
TORSDOF 4
ENDMDL
MODEL 5
REMARK VINA RESULT: -6.012532349      3.412      5.489
REMARK  4 active torsions:
REMARK  status: ('A' for Active; 'I' for Inactive)
REMARK    1  A    between atoms: C2_2  and  O2_4 
REMARK    2  A    between atoms: O2_4  and  N1_5 
REMARK    3  A    between atoms: N1_5  and  C3_7 
REMARK    4  A    between atoms: N2_9  and  C4_11 
ROOT
HETATM    1  C3  UNL     1      12.465   4.608  23.936  1.00  0.00     0.195 C 
HETATM    2 CL1  UNL     1      11.409   3.448  23.198  1.00  0.00    -0.043 Cl
HETATM    3  N2  UNL     1      12.096   5.818  24.046  1.00  0.00    -0.361 N 
ATOM      4  H2  UNL     1      12.757   6.457  24.488  1.00  0.00     0.162 HD
ENDROOT
BRANCH   1   5
HETATM    5  N1  UNL     1      13.721   4.191  24.404  1.00  0.00    -0.232 N 
ATOM      6  H1  UNL     1      13.819   3.992  25.400  1.00  0.00     0.197 HD
BRANCH   5   7
HETATM    7  O2  UNL     1      14.827   4.034  23.601  1.00  0.00    -0.198 OA
BRANCH   7   8
HETATM    8  C2  UNL     1      15.702   5.095  23.376  1.00  0.00     0.277 C 
HETATM    9  C1  UNL     1      17.079   4.893  22.844  1.00  0.00     0.128 C 
HETATM   10  O1  UNL     1      15.249   6.250  23.654  1.00  0.00    -0.264 OA
ENDBRANCH   7   8
ENDBRANCH   5   7
ENDBRANCH   1   5
BRANCH   3  11
HETATM   11  C4  UNL     1      10.856   6.379  23.619  1.00  0.00     0.084 C 
HETATM   12  C5  UNL     1       9.953   6.698  24.801  1.00  0.00     0.025 C 
HETATM   13  C6  UNL     1       8.747   7.478  24.292  1.00  0.00     0.002 C 
HETATM   14  C7  UNL     1       9.158   8.849  23.809  1.00  0.00     0.000 C 
HETATM   15  C8  UNL     1      10.652   8.882  23.619  1.00  0.00     0.002 C 
HETATM   16  C9  UNL     1      11.161   7.670  22.871  1.00  0.00     0.025 C 
ENDBRANCH   3  11
TORSDOF 4
ENDMDL
