MODEL 1
REMARK VINA RESULT: -4.938036494      0.000      0.000
REMARK  2 active torsions:
REMARK  status: ('A' for Active; 'I' for Inactive)
REMARK    1  A    between atoms: N2_3  and  N3_5 
REMARK    2  A    between atoms: C2_7  and  C3_8 
ROOT
HETATM    1  C3  UNL     1     114.505  34.358  27.201  1.00  0.00     0.335 C 
HETATM    2  N4  UNL     1     114.264  35.576  27.948  1.00  0.00    -0.037 N 
ATOM      3  H41 UNL     1     115.099  36.134  28.123  1.00  0.00     0.281 HD
ATOM      4  H42 UNL     1     114.024  35.426  28.928  1.00  0.00     0.281 HD
HETATM    5  C4  UNL     1     113.247  36.255  27.187  1.00  0.00     0.364 C 
HETATM    6  N5  UNL     1     113.215  35.696  25.873  1.00  0.00    -0.119 NA
HETATM    7  N6  UNL     1     114.087  34.624  25.839  1.00  0.00    -0.108 NA
ENDROOT
BRANCH   1   8
HETATM    8  C2  UNL     1     115.932  34.007  27.201  1.00  0.00     0.131 C 
HETATM    9  N3  UNL     1     116.313  32.887  26.707  1.00  0.00    -0.312 N 
ATOM     10  H3  UNL     1     117.300  32.635  26.702  1.00  0.00     0.185 HD
BRANCH   9  11
HETATM   11  N2  UNL     1     115.360  32.019  26.175  1.00  0.00    -0.299 N 
HETATM   12  C1  UNL     1     115.768  30.997  25.504  1.00  0.00     0.206 C 
HETATM   13  N1  UNL     1     114.800  30.115  24.965  1.00  0.00    -0.095 NA
ATOM     14  H2  UNL     1     114.364  32.188  26.316  1.00  0.00     0.187 HD
ENDBRANCH   9  11
ENDBRANCH   1   8
TORSDOF 2
ENDMDL
MODEL 2
REMARK VINA RESULT: -4.935806757      3.382      5.097
REMARK  2 active torsions:
REMARK  status: ('A' for Active; 'I' for Inactive)
REMARK    1  A    between atoms: N2_3  and  N3_5 
REMARK    2  A    between atoms: C2_7  and  C3_8 
ROOT
HETATM    1  C3  UNL     1     115.727  29.993  28.847  1.00  0.00     0.335 C 
HETATM    2  N4  UNL     1     115.803  29.446  30.187  1.00  0.00    -0.037 N 
ATOM      3  H41 UNL     1     115.534  30.100  30.923  1.00  0.00     0.281 HD
ATOM      4  H42 UNL     1     116.753  29.288  30.522  1.00  0.00     0.281 HD
HETATM    5  C4  UNL     1     114.992  28.258  30.125  1.00  0.00     0.364 C 
HETATM    6  N5  UNL     1     114.153  28.342  28.972  1.00  0.00    -0.119 NA
HETATM    7  N6  UNL     1     114.506  29.475  28.263  1.00  0.00    -0.108 NA
ENDROOT
BRANCH   1   8
HETATM    8  C2  UNL     1     115.657  31.460  28.873  1.00  0.00     0.131 C 
HETATM    9  N3  UNL     1     115.977  32.132  27.829  1.00  0.00    -0.312 N 
ATOM     10  H3  UNL     1     115.932  33.150  27.837  1.00  0.00     0.185 HD
BRANCH   9  11
HETATM   11  N2  UNL     1     116.386  31.453  26.682  1.00  0.00    -0.299 N 
HETATM   12  C1  UNL     1     116.134  31.982  25.533  1.00  0.00     0.206 C 
HETATM   13  N1  UNL     1     116.550  31.293  24.369  1.00  0.00    -0.095 NA
ATOM     14  H2  UNL     1     116.873  30.560  26.750  1.00  0.00     0.187 HD
ENDBRANCH   9  11
ENDBRANCH   1   8
TORSDOF 2
ENDMDL
MODEL 3
REMARK VINA RESULT: -4.804608545      1.955      2.343
REMARK  2 active torsions:
REMARK  status: ('A' for Active; 'I' for Inactive)
REMARK    1  A    between atoms: N2_3  and  N3_5 
REMARK    2  A    between atoms: C2_7  and  C3_8 
ROOT
HETATM    1  C3  UNL     1     115.795  34.809  27.631  1.00  0.00     0.335 C 
HETATM    2  N4  UNL     1     115.061  35.825  28.358  1.00  0.00    -0.037 N 
ATOM      3  H41 UNL     1     114.845  35.577  29.323  1.00  0.00     0.281 HD
ATOM      4  H42 UNL     1     114.094  35.941  28.054  1.00  0.00     0.281 HD
HETATM    5  C4  UNL     1     115.871  37.007  28.217  1.00  0.00     0.364 C 
HETATM    6  N5  UNL     1     117.185  36.612  27.821  1.00  0.00    -0.119 NA
HETATM    7  N6  UNL     1     117.176  35.248  27.597  1.00  0.00    -0.108 NA
ENDROOT
BRANCH   1   8
HETATM    8  C2  UNL     1     115.725  33.510  28.313  1.00  0.00     0.131 C 
HETATM    9  N3  UNL     1     115.969  32.433  27.661  1.00  0.00    -0.312 N 
ATOM     10  H3  UNL     1     115.923  31.527  28.126  1.00  0.00     0.185 HD
BRANCH   9  11
HETATM   11  N2  UNL     1     116.298  32.516  26.309  1.00  0.00    -0.299 N 
HETATM   12  C1  UNL     1     116.249  31.442  25.598  1.00  0.00     0.206 C 
HETATM   13  N1  UNL     1     116.583  31.527  24.226  1.00  0.00    -0.095 NA
ATOM     14  H2  UNL     1     116.572  33.406  25.892  1.00  0.00     0.187 HD
ENDBRANCH   9  11
ENDBRANCH   1   8
TORSDOF 2
ENDMDL
MODEL 4
REMARK VINA RESULT: -4.784036859      4.007      5.277
REMARK  2 active torsions:
REMARK  status: ('A' for Active; 'I' for Inactive)
REMARK    1  A    between atoms: N2_3  and  N3_5 
REMARK    2  A    between atoms: C2_7  and  C3_8 
ROOT
HETATM    1  C3  UNL     1     111.268  36.547  25.369  1.00  0.00     0.335 C 
HETATM    2  N4  UNL     1     112.332  35.958  24.579  1.00  0.00    -0.037 N 
ATOM      3  H41 UNL     1     112.601  35.019  24.871  1.00  0.00     0.281 HD
ATOM      4  H42 UNL     1     113.247  36.385  24.723  1.00  0.00     0.281 HD
HETATM    5  C4  UNL     1     111.847  36.041  23.226  1.00  0.00     0.364 C 
HETATM    6  N5  UNL     1     110.435  36.254  23.262  1.00  0.00    -0.119 NA
HETATM    7  N6  UNL     1     110.059  36.424  24.581  1.00  0.00    -0.108 NA
ENDROOT
BRANCH   1   8
HETATM    8  C2  UNL     1     111.087  35.828  26.637  1.00  0.00     0.131 C 
HETATM    9  N3  UNL     1     111.885  36.050  27.615  1.00  0.00    -0.312 N 
ATOM     10  H3  UNL     1     111.767  35.557  28.499  1.00  0.00     0.185 HD
BRANCH   9  11
HETATM   11  N2  UNL     1     112.916  36.975  27.455  1.00  0.00    -0.299 N 
HETATM   12  C1  UNL     1     114.120  36.607  27.733  1.00  0.00     0.206 C 
HETATM   13  N1  UNL     1     115.166  37.546  27.571  1.00  0.00    -0.095 NA
ATOM     14  H2  UNL     1     112.723  37.921  27.126  1.00  0.00     0.187 HD
ENDBRANCH   9  11
ENDBRANCH   1   8
TORSDOF 2
ENDMDL
MODEL 5
REMARK VINA RESULT: -4.707206793      2.368      4.706
REMARK  2 active torsions:
REMARK  status: ('A' for Active; 'I' for Inactive)
REMARK    1  A    between atoms: N2_3  and  N3_5 
REMARK    2  A    between atoms: C2_7  and  C3_8 
ROOT
HETATM    1  C3  UNL     1     113.246  36.133  26.525  1.00  0.00     0.335 C 
HETATM    2  N4  UNL     1     113.875  35.935  27.817  1.00  0.00    -0.037 N 
ATOM      3  H41 UNL     1     113.232  35.655  28.557  1.00  0.00     0.281 HD
ATOM      4  H42 UNL     1     114.193  36.794  28.265  1.00  0.00     0.281 HD
HETATM    5  C4  UNL     1     114.923  34.983  27.550  1.00  0.00     0.364 C 
HETATM    6  N5  UNL     1     114.648  34.344  26.303  1.00  0.00    -0.119 NA
HETATM    7  N6  UNL     1     113.542  34.951  25.741  1.00  0.00    -0.108 NA
ENDROOT
BRANCH   1   8
HETATM    8  C2  UNL     1     111.789  36.266  26.657  1.00  0.00     0.131 C 
HETATM    9  N3  UNL     1     111.083  36.580  25.634  1.00  0.00    -0.312 N 
ATOM     10  H3  UNL     1     110.071  36.675  25.716  1.00  0.00     0.185 HD
BRANCH   9  11
HETATM   11  N2  UNL     1     111.715  36.791  24.410  1.00  0.00    -0.299 N 
HETATM   12  C1  UNL     1     111.365  36.063  23.405  1.00  0.00     0.206 C 
HETATM   13  N1  UNL     1     112.007  36.277  22.162  1.00  0.00    -0.095 NA
ATOM     14  H2  UNL     1     112.437  37.505  24.311  1.00  0.00     0.187 HD
ENDBRANCH   9  11
ENDBRANCH   1   8
TORSDOF 2
ENDMDL
