MODEL 1
REMARK VINA RESULT: -8.220002554      0.000      0.000
REMARK  5 active torsions:
REMARK  status: ('A' for Active; 'I' for Inactive)
REMARK    1  A    between atoms: C2_2  and  C4_4 
REMARK    2  A    between atoms: C4_4  and  C5_5 
REMARK    3  A    between atoms: C9_12  and  C10_13 
REMARK    4  A    between atoms: C10_13  and  C12_15 
REMARK    5  A    between atoms: N2_19  and  C14_20 
ROOT
HETATM    1  C10 UNL     1      70.747  35.540   0.641  1.00  0.00     0.051 C 
HETATM    2  C11 UNL     1      71.123  35.075   2.026  1.00  0.00     0.015 C 
ENDROOT
BRANCH   1   3
HETATM    3  C9  UNL     1      69.365  36.079   0.632  1.00  0.00     0.193 C 
HETATM    4  N1  UNL     1      68.322  35.153   0.311  1.00  0.00    -0.067 N 
HETATM    5  C7  UNL     1      67.065  35.865   0.288  1.00  0.00     0.182 C 
ATOM      6  H12 UNL     1      68.305  34.349   0.939  1.00  0.00     0.278 HD
ATOM      7  H11 UNL     1      68.501  34.649  -0.557  1.00  0.00     0.278 HD
HETATM    8  C6  UNL     1      66.720  36.540   1.580  1.00  0.00     0.037 C 
HETATM    9  C8  UNL     1      66.966  36.873  -0.817  1.00  0.00     0.040 C 
HETATM   10  C5  UNL     1      67.846  37.427   2.099  1.00  0.00    -0.010 C 
HETATM   11  C20 UNL     1      69.094  36.541   2.074  1.00  0.00     0.038 C 
BRANCH  10  12
HETATM   12  C4  UNL     1      67.595  37.763   3.550  1.00  0.00     0.008 C 
BRANCH  12  13
HETATM   13  C2  UNL     1      66.252  37.263   4.026  1.00  0.00    -0.022 C 
HETATM   14  C1  UNL     1      66.454  36.274   5.133  1.00  0.00     0.009 C 
HETATM   15  C3  UNL     1      65.431  38.411   4.525  1.00  0.00     0.009 C 
ENDBRANCH  12  13
ENDBRANCH  10  12
ENDBRANCH   1   3
BRANCH   1  16
HETATM   16  C12 UNL     1      71.114  34.586  -0.422  1.00  0.00     0.231 C 
HETATM   17  O1  UNL     1      70.343  34.937  -1.588  1.00  0.00    -0.288 OA
HETATM   18  C13 UNL     1      71.165  35.422  -2.571  1.00  0.00     0.372 C 
HETATM   19  O2  UNL     1      70.846  35.986  -3.675  1.00  0.00    -0.238 OA
HETATM   20  N2  UNL     1      72.507  35.198  -2.167  1.00  0.00    -0.240 N 
HETATM   21  C19 UNL     1      72.479  34.559  -0.903  1.00  0.00     0.260 C 
HETATM   22  O3  UNL     1      73.481  34.071  -0.341  1.00  0.00    -0.270 OA
BRANCH  20  23
HETATM   23  C14 UNL     1      73.689  35.570  -2.937  1.00  0.00     0.192 C 
HETATM   24  C15 UNL     1      74.032  34.496  -3.948  1.00  0.00     0.047 C 
HETATM   25  C16 UNL     1      75.315  34.799  -4.674  1.00  0.00     0.005 C 
HETATM   26  C17 UNL     1      75.311  36.229  -5.109  1.00  0.00     0.019 C 
HETATM   27  C18 UNL     1      73.960  36.887  -4.938  1.00  0.00     0.115 C 
HETATM   28  N3  UNL     1      73.539  36.820  -3.583  1.00  0.00    -0.401 N 
ATOM     29  H3  UNL     1      73.150  37.631  -3.101  1.00  0.00     0.155 HD
ENDBRANCH  20  23
ENDBRANCH   1  16
TORSDOF 5
ENDMDL
MODEL 2
REMARK VINA RESULT: -8.205397416      2.036      2.671
REMARK  5 active torsions:
REMARK  status: ('A' for Active; 'I' for Inactive)
REMARK    1  A    between atoms: C2_2  and  C4_4 
REMARK    2  A    between atoms: C4_4  and  C5_5 
REMARK    3  A    between atoms: C9_12  and  C10_13 
REMARK    4  A    between atoms: C10_13  and  C12_15 
REMARK    5  A    between atoms: N2_19  and  C14_20 
ROOT
HETATM    1  C10 UNL     1      71.057  35.272   0.994  1.00  0.00     0.051 C 
HETATM    2  C11 UNL     1      70.814  33.860   1.467  1.00  0.00     0.015 C 
ENDROOT
BRANCH   1   3
HETATM    3  C9  UNL     1      69.774  36.006   0.869  1.00  0.00     0.193 C 
HETATM    4  N1  UNL     1      68.677  35.279   0.308  1.00  0.00    -0.067 N 
HETATM    5  C7  UNL     1      67.541  36.165   0.207  1.00  0.00     0.182 C 
ATOM      6  H12 UNL     1      68.463  34.428   0.831  1.00  0.00     0.278 HD
ATOM      7  H11 UNL     1      68.912  34.841  -0.582  1.00  0.00     0.278 HD
HETATM    8  C6  UNL     1      67.104  36.754   1.513  1.00  0.00     0.037 C 
HETATM    9  C8  UNL     1      67.737  37.281  -0.776  1.00  0.00     0.040 C 
HETATM   10  C5  UNL     1      68.249  37.412   2.274  1.00  0.00    -0.010 C 
HETATM   11  C20 UNL     1      69.360  36.359   2.308  1.00  0.00     0.038 C 
BRANCH  10  12
HETATM   12  C4  UNL     1      67.836  37.637   3.709  1.00  0.00     0.008 C 
BRANCH  12  13
HETATM   13  C2  UNL     1      66.419  37.187   3.971  1.00  0.00    -0.022 C 
HETATM   14  C1  UNL     1      66.420  36.145   5.048  1.00  0.00     0.009 C 
HETATM   15  C3  UNL     1      65.588  38.354   4.405  1.00  0.00     0.009 C 
ENDBRANCH  12  13
ENDBRANCH  10  12
ENDBRANCH   1   3
BRANCH   1  16
HETATM   16  C12 UNL     1      72.008  35.362  -0.129  1.00  0.00     0.231 C 
HETATM   17  O1  UNL     1      72.113  34.042  -0.698  1.00  0.00    -0.288 OA
HETATM   18  C13 UNL     1      71.562  34.022  -1.953  1.00  0.00     0.372 C 
HETATM   19  O2  UNL     1      71.317  33.014  -2.702  1.00  0.00    -0.238 OA
HETATM   20  N2  UNL     1      71.283  35.362  -2.328  1.00  0.00    -0.240 N 
HETATM   21  C19 UNL     1      71.683  36.204  -1.262  1.00  0.00     0.260 C 
HETATM   22  O3  UNL     1      71.731  37.449  -1.331  1.00  0.00    -0.270 OA
BRANCH  20  23
HETATM   23  C14 UNL     1      70.690  35.771  -3.596  1.00  0.00     0.192 C 
HETATM   24  C15 UNL     1      69.179  35.790  -3.502  1.00  0.00     0.047 C 
HETATM   25  C16 UNL     1      68.537  36.094  -4.829  1.00  0.00     0.005 C 
HETATM   26  C17 UNL     1      69.239  37.252  -5.463  1.00  0.00     0.019 C 
HETATM   27  C18 UNL     1      70.195  37.943  -4.518  1.00  0.00     0.115 C 
HETATM   28  N3  UNL     1      71.169  37.029  -4.034  1.00  0.00    -0.401 N 
ATOM     29  H3  UNL     1      72.160  37.266  -4.004  1.00  0.00     0.155 HD
ENDBRANCH  20  23
ENDBRANCH   1  16
TORSDOF 5
ENDMDL
MODEL 3
REMARK VINA RESULT: -8.012951056      2.487      7.515
REMARK  5 active torsions:
REMARK  status: ('A' for Active; 'I' for Inactive)
REMARK    1  A    between atoms: C2_2  and  C4_4 
REMARK    2  A    between atoms: C4_4  and  C5_5 
REMARK    3  A    between atoms: C9_12  and  C10_13 
REMARK    4  A    between atoms: C10_13  and  C12_15 
REMARK    5  A    between atoms: N2_19  and  C14_20 
ROOT
HETATM    1  C10 UNL     1      72.170  34.585   0.834  1.00  0.00     0.051 C 
HETATM    2  C11 UNL     1      73.216  35.309   1.646  1.00  0.00     0.015 C 
ENDROOT
BRANCH   1   3
HETATM    3  C9  UNL     1      72.059  35.181  -0.519  1.00  0.00     0.193 C 
HETATM    4  N1  UNL     1      72.154  36.607  -0.597  1.00  0.00    -0.067 N 
HETATM    5  C7  UNL     1      71.961  37.006  -1.971  1.00  0.00     0.182 C 
ATOM      6  H12 UNL     1      73.027  36.962  -0.205  1.00  0.00     0.278 HD
ATOM      7  H11 UNL     1      71.512  37.076   0.041  1.00  0.00     0.278 HD
HETATM    8  C6  UNL     1      72.948  36.411  -2.928  1.00  0.00     0.037 C 
HETATM    9  C8  UNL     1      70.578  36.737  -2.486  1.00  0.00     0.040 C 
HETATM   10  C5  UNL     1      73.046  34.894  -2.804  1.00  0.00    -0.010 C 
HETATM   11  C20 UNL     1      73.257  34.631  -1.312  1.00  0.00     0.038 C 
BRANCH  10  12
HETATM   12  C4  UNL     1      74.296  34.412  -3.500  1.00  0.00     0.008 C 
BRANCH  12  13
HETATM   13  C2  UNL     1      73.991  33.743  -4.819  1.00  0.00    -0.022 C 
HETATM   14  C1  UNL     1      75.220  33.042  -5.315  1.00  0.00     0.009 C 
HETATM   15  C3  UNL     1      72.886  32.749  -4.642  1.00  0.00     0.009 C 
ENDBRANCH  12  13
ENDBRANCH  10  12
ENDBRANCH   1   3
BRANCH   1  16
HETATM   16  C12 UNL     1      70.920  34.333   1.575  1.00  0.00     0.231 C 
HETATM   17  O1  UNL     1      70.866  35.293   2.648  1.00  0.00    -0.288 OA
HETATM   18  C13 UNL     1      69.850  36.188   2.432  1.00  0.00     0.372 C 
HETATM   19  O2  UNL     1      69.591  37.270   3.062  1.00  0.00    -0.238 OA
HETATM   20  N2  UNL     1      69.077  35.714   1.340  1.00  0.00    -0.240 N 
HETATM   21  C19 UNL     1      69.653  34.499   0.894  1.00  0.00     0.260 C 
HETATM   22  O3  UNL     1      69.124  33.736   0.060  1.00  0.00    -0.270 OA
BRANCH  20  23
HETATM   23  C14 UNL     1      67.901  36.381   0.793  1.00  0.00     0.192 C 
HETATM   24  C15 UNL     1      68.080  36.663  -0.684  1.00  0.00     0.047 C 
HETATM   25  C16 UNL     1      66.932  37.457  -1.247  1.00  0.00     0.005 C 
HETATM   26  C17 UNL     1      65.644  36.866  -0.773  1.00  0.00     0.019 C 
HETATM   27  C18 UNL     1      65.830  35.526  -0.098  1.00  0.00     0.115 C 
HETATM   28  N3  UNL     1      66.714  35.643   1.010  1.00  0.00    -0.401 N 
ATOM     29  H3  UNL     1      66.502  35.218   1.912  1.00  0.00     0.155 HD
ENDBRANCH  20  23
ENDBRANCH   1  16
TORSDOF 5
ENDMDL
MODEL 4
REMARK VINA RESULT: -7.950505127      1.230      1.488
REMARK  5 active torsions:
REMARK  status: ('A' for Active; 'I' for Inactive)
REMARK    1  A    between atoms: C2_2  and  C4_4 
REMARK    2  A    between atoms: C4_4  and  C5_5 
REMARK    3  A    between atoms: C9_12  and  C10_13 
REMARK    4  A    between atoms: C10_13  and  C12_15 
REMARK    5  A    between atoms: N2_19  and  C14_20 
ROOT
HETATM    1  C10 UNL     1      70.619  35.540   0.293  1.00  0.00     0.051 C 
HETATM    2  C11 UNL     1      70.897  34.610   1.449  1.00  0.00     0.015 C 
ENDROOT
BRANCH   1   3
HETATM    3  C9  UNL     1      69.239  36.078   0.380  1.00  0.00     0.193 C 
HETATM    4  N1  UNL     1      68.179  35.160   0.096  1.00  0.00    -0.067 N 
HETATM    5  C7  UNL     1      66.923  35.870   0.167  1.00  0.00     0.182 C 
ATOM      6  H12 UNL     1      68.198  34.339   0.703  1.00  0.00     0.278 HD
ATOM      7  H11 UNL     1      68.306  34.679  -0.794  1.00  0.00     0.278 HD
HETATM    8  C6  UNL     1      66.655  36.511   1.495  1.00  0.00     0.037 C 
HETATM    9  C8  UNL     1      66.760  36.908  -0.903  1.00  0.00     0.040 C 
HETATM   10  C5  UNL     1      67.811  37.385   1.970  1.00  0.00    -0.010 C 
HETATM   11  C20 UNL     1      69.054  36.500   1.848  1.00  0.00     0.038 C 
BRANCH  10  12
HETATM   12  C4  UNL     1      67.646  37.680   3.442  1.00  0.00     0.008 C 
BRANCH  12  13
HETATM   13  C2  UNL     1      66.301  37.238   3.964  1.00  0.00    -0.022 C 
HETATM   14  C1  UNL     1      66.500  36.257   5.081  1.00  0.00     0.009 C 
HETATM   15  C3  UNL     1      65.537  38.421   4.470  1.00  0.00     0.009 C 
ENDBRANCH  12  13
ENDBRANCH  10  12
ENDBRANCH   1   3
BRANCH   1  16
HETATM   16  C12 UNL     1      71.064  35.011  -1.009  1.00  0.00     0.231 C 
HETATM   17  O1  UNL     1      70.017  35.293  -1.959  1.00  0.00    -0.288 OA
HETATM   18  C13 UNL     1      70.443  36.224  -2.870  1.00  0.00     0.372 C 
HETATM   19  O2  UNL     1      69.760  36.848  -3.754  1.00  0.00    -0.238 OA
HETATM   20  N2  UNL     1      71.838  36.412  -2.682  1.00  0.00    -0.240 N 
HETATM   21  C19 UNL     1      72.252  35.564  -1.626  1.00  0.00     0.260 C 
HETATM   22  O3  UNL     1      73.443  35.360  -1.316  1.00  0.00    -0.270 OA
BRANCH  20  23
HETATM   23  C14 UNL     1      72.673  37.324  -3.456  1.00  0.00     0.192 C 
HETATM   24  C15 UNL     1      73.041  36.714  -4.792  1.00  0.00     0.047 C 
HETATM   25  C16 UNL     1      74.000  37.582  -5.561  1.00  0.00     0.005 C 
HETATM   26  C17 UNL     1      73.525  38.999  -5.517  1.00  0.00     0.019 C 
HETATM   27  C18 UNL     1      72.127  39.130  -4.957  1.00  0.00     0.115 C 
HETATM   28  N3  UNL     1      72.061  38.585  -3.646  1.00  0.00    -0.401 N 
ATOM     29  H3  UNL     1      71.597  39.077  -2.883  1.00  0.00     0.155 HD
ENDBRANCH  20  23
ENDBRANCH   1  16
TORSDOF 5
ENDMDL
MODEL 5
REMARK VINA RESULT: -7.922023023      1.329      2.311
REMARK  5 active torsions:
REMARK  status: ('A' for Active; 'I' for Inactive)
REMARK    1  A    between atoms: C2_2  and  C4_4 
REMARK    2  A    between atoms: C4_4  and  C5_5 
REMARK    3  A    between atoms: C9_12  and  C10_13 
REMARK    4  A    between atoms: C10_13  and  C12_15 
REMARK    5  A    between atoms: N2_19  and  C14_20 
ROOT
HETATM    1  C10 UNL     1      69.314  35.114  -0.317  1.00  0.00     0.051 C 
HETATM    2  C11 UNL     1      69.383  34.079  -1.413  1.00  0.00     0.015 C 
ENDROOT
BRANCH   1   3
HETATM    3  C9  UNL     1      67.997  35.796  -0.329  1.00  0.00     0.193 C 
HETATM    4  N1  UNL     1      67.004  35.248  -1.201  1.00  0.00    -0.067 N 
HETATM    5  C7  UNL     1      65.820  36.073  -1.127  1.00  0.00     0.182 C 
ATOM      6  H12 UNL     1      66.809  34.266  -1.004  1.00  0.00     0.278 HD
ATOM      7  H11 UNL     1      67.342  35.135  -2.156  1.00  0.00     0.278 HD
HETATM    8  C6  UNL     1      65.236  36.185   0.248  1.00  0.00     0.037 C 
HETATM    9  C8  UNL     1      66.017  37.455  -1.674  1.00  0.00     0.040 C 
HETATM   10  C5  UNL     1      66.265  36.603   1.292  1.00  0.00    -0.010 C 
HETATM   11  C20 UNL     1      67.441  35.643   1.097  1.00  0.00     0.038 C 
BRANCH  10  12
HETATM   12  C4  UNL     1      65.721  36.330   2.674  1.00  0.00     0.008 C 
BRANCH  12  13
HETATM   13  C2  UNL     1      66.394  37.174   3.728  1.00  0.00    -0.022 C 
HETATM   14  C1  UNL     1      65.468  38.275   4.149  1.00  0.00     0.009 C 
HETATM   15  C3  UNL     1      66.736  36.328   4.915  1.00  0.00     0.009 C 
ENDBRANCH  12  13
ENDBRANCH  10  12
ENDBRANCH   1   3
BRANCH   1  16
HETATM   16  C12 UNL     1      70.520  35.958  -0.227  1.00  0.00     0.231 C 
HETATM   17  O1  UNL     1      71.428  35.300   0.677  1.00  0.00    -0.288 OA
HETATM   18  C13 UNL     1      72.529  34.848  -0.003  1.00  0.00     0.372 C 
HETATM   19  O2  UNL     1      73.465  34.080   0.411  1.00  0.00    -0.238 OA
HETATM   20  N2  UNL     1      72.481  35.385  -1.316  1.00  0.00    -0.240 N 
HETATM   21  C19 UNL     1      71.314  36.182  -1.417  1.00  0.00     0.260 C 
HETATM   22  O3  UNL     1      71.057  36.930  -2.381  1.00  0.00    -0.270 OA
BRANCH  20  23
HETATM   23  C14 UNL     1      73.472  35.144  -2.358  1.00  0.00     0.192 C 
HETATM   24  C15 UNL     1      72.991  34.080  -3.322  1.00  0.00     0.047 C 
HETATM   25  C16 UNL     1      74.044  33.725  -4.338  1.00  0.00     0.005 C 
HETATM   26  C17 UNL     1      74.646  34.981  -4.884  1.00  0.00     0.019 C 
HETATM   27  C18 UNL     1      73.880  36.220  -4.476  1.00  0.00     0.115 C 
HETATM   28  N3  UNL     1      73.814  36.323  -3.061  1.00  0.00    -0.401 N 
ATOM     29  H3  UNL     1      74.002  37.201  -2.577  1.00  0.00     0.155 HD
ENDBRANCH  20  23
ENDBRANCH   1  16
TORSDOF 5
ENDMDL
