MODEL 1
REMARK VINA RESULT: -6.584387719      0.000      0.000
REMARK  11 active torsions:
REMARK  status: ('A' for Active; 'I' for Inactive)
REMARK    1  A    between atoms: N1_1  and  C1_4 
REMARK    2  A    between atoms: C3_9  and  N4_10 
REMARK    3  A    between atoms: N4_10  and  C4_12 
REMARK    4  A    between atoms: C6_21  and  C7_22 
REMARK    5  A    between atoms: C7_22  and  C8_23 
REMARK    6  A    between atoms: C8_23  and  C9_24 
REMARK    7  A    between atoms: C9_24  and  C10_25 
REMARK    8  A    between atoms: C10_25  and  N9_26 
REMARK    9  A    between atoms: N9_26  and  C11_28 
REMARK   10  A    between atoms: C11_28  and  C12_29 
REMARK   11  A    between atoms: C12_29  and  N10_30 
ROOT
HETATM    1  C1  UNL     1      47.547-404.408  16.202  1.00  0.00     0.123 A 
HETATM    2  N2  UNL     1      46.581-405.293  16.549  1.00  0.00    -0.327 N 
ATOM      3  H2  UNL     1      46.833-406.217  16.900  1.00  0.00     0.168 HD
HETATM    4  C2  UNL     1      45.293-404.950  16.427  1.00  0.00     0.162 A 
HETATM    5  N3  UNL     1      44.266-405.887  16.794  1.00  0.00    -0.079 NA
HETATM    6  C3  UNL     1      44.970-403.690  15.948  1.00  0.00     0.150 A 
HETATM    7  N8  UNL     1      45.941-402.834  15.614  1.00  0.00    -0.340 N 
ATOM      8  H8  UNL     1      45.691-401.909  15.264  1.00  0.00     0.167 HD
HETATM    9  C6  UNL     1      47.241-403.163  15.729  1.00  0.00     0.054 A 
ENDROOT
BRANCH   9  10
HETATM   10  C7  UNL     1      48.261-402.177  15.375  1.00  0.00     0.061 C 
BRANCH  10  11
HETATM   11  C8  UNL     1      48.271-401.815  13.911  1.00  0.00     0.008 C 
BRANCH  11  12
HETATM   12  C9  UNL     1      48.938-400.471  13.739  1.00  0.00     0.020 C 
BRANCH  12  13
HETATM   13  C10 UNL     1      48.620-399.835  12.419  1.00  0.00     0.113 C 
BRANCH  13  14
HETATM   14  N9  UNL     1      49.259-400.523  11.349  1.00  0.00    -0.420 N 
ATOM     15  H9  UNL     1      50.247-400.775  11.386  1.00  0.00     0.153 HD
BRANCH  14  16
HETATM   16  C11 UNL     1      48.444-400.840  10.225  1.00  0.00     0.141 C 
BRANCH  16  17
HETATM   17  C12 UNL     1      48.194-402.353  10.276  1.00  0.00     0.248 C 
BRANCH  17  18
HETATM   18  N10 UNL     1      47.410-402.730   9.136  1.00  0.00    -0.078 N 
ATOM     19 3H10 UNL     1      46.445-402.406   9.202  1.00  0.00     0.274 HD
ATOM     20 2H10 UNL     1      47.673-402.218   8.295  1.00  0.00     0.274 HD
ATOM     21 1H10 UNL     1      47.473-403.741   9.013  1.00  0.00     0.274 HD
ENDBRANCH  17  18
ENDBRANCH  16  17
ENDBRANCH  14  16
ENDBRANCH  13  14
ENDBRANCH  12  13
ENDBRANCH  11  12
ENDBRANCH  10  11
ENDBRANCH   9  10
BRANCH   1  22
HETATM   22  N1  UNL     1      48.761-404.773  16.317  1.00  0.00    -0.384 N 
ATOM     23  H12 UNL     1      49.279-404.585  17.175  1.00  0.00     0.157 HD
ATOM     24  H11 UNL     1      49.195-405.247  15.524  1.00  0.00     0.157 HD
ENDBRANCH   1  22
BRANCH   6  25
HETATM   25  N4  UNL     1      43.621-403.316  15.814  1.00  0.00    -0.311 N 
ATOM     26  H4  UNL     1      42.922-404.004  15.535  1.00  0.00     0.170 HD
BRANCH  25  27
HETATM   27  C4  UNL     1      43.238-401.960  16.075  1.00  0.00     0.194 C 
HETATM   28  N5  UNL     1      42.750-401.117  15.225  1.00  0.00    -0.346 N 
HETATM   29  C5  UNL     1      42.513-399.882  15.922  1.00  0.00     0.259 C 
ATOM     30  H5  UNL     1      42.566-401.297  14.237  1.00  0.00     0.163 HD
HETATM   31  N6  UNL     1      43.393-399.972  17.068  1.00  0.00    -0.119 NA
HETATM   32  N7  UNL     1      43.352-401.340  17.349  1.00  0.00    -0.274 N 
ATOM     33  H7  UNL     1      43.394-401.792  18.262  1.00  0.00     0.185 HD
ENDBRANCH  25  27
ENDBRANCH   6  25
TORSDOF 11
ENDMDL
MODEL 2
REMARK VINA RESULT: -6.402198987      1.874      2.921
REMARK  11 active torsions:
REMARK  status: ('A' for Active; 'I' for Inactive)
REMARK    1  A    between atoms: N1_1  and  C1_4 
REMARK    2  A    between atoms: C3_9  and  N4_10 
REMARK    3  A    between atoms: N4_10  and  C4_12 
REMARK    4  A    between atoms: C6_21  and  C7_22 
REMARK    5  A    between atoms: C7_22  and  C8_23 
REMARK    6  A    between atoms: C8_23  and  C9_24 
REMARK    7  A    between atoms: C9_24  and  C10_25 
REMARK    8  A    between atoms: C10_25  and  N9_26 
REMARK    9  A    between atoms: N9_26  and  C11_28 
REMARK   10  A    between atoms: C11_28  and  C12_29 
REMARK   11  A    between atoms: C12_29  and  N10_30 
ROOT
HETATM    1  C1  UNL     1      47.433-401.629  17.648  1.00  0.00     0.123 A 
HETATM    2  N2  UNL     1      46.450-401.036  18.370  1.00  0.00    -0.327 N 
ATOM      3  H2  UNL     1      46.665-400.600  19.267  1.00  0.00     0.168 HD
HETATM    4  C2  UNL     1      45.197-401.025  17.901  1.00  0.00     0.162 A 
HETATM    5  N3  UNL     1      44.154-400.396  18.665  1.00  0.00    -0.079 NA
HETATM    6  C3  UNL     1      44.925-401.622  16.681  1.00  0.00     0.150 A 
HETATM    7  N8  UNL     1      45.911-402.199  15.986  1.00  0.00    -0.340 N 
ATOM      8  H8  UNL     1      45.699-402.634  15.088  1.00  0.00     0.167 HD
HETATM    9  C6  UNL     1      47.177-402.220  16.443  1.00  0.00     0.054 A 
ENDROOT
BRANCH   9  10
HETATM   10  C7  UNL     1      48.220-402.841  15.629  1.00  0.00     0.061 C 
BRANCH  10  11
HETATM   11  C8  UNL     1      48.210-402.395  14.188  1.00  0.00     0.008 C 
BRANCH  11  12
HETATM   12  C9  UNL     1      48.687-400.964  14.111  1.00  0.00     0.020 C 
BRANCH  12  13
HETATM   13  C10 UNL     1      48.733-400.447  12.704  1.00  0.00     0.113 C 
BRANCH  13  14
HETATM   14  N9  UNL     1      48.220-401.408  11.786  1.00  0.00    -0.420 N 
ATOM     15  H9  UNL     1      47.703-402.229  12.101  1.00  0.00     0.153 HD
BRANCH  14  16
HETATM   16  C11 UNL     1      48.469-401.159  10.406  1.00  0.00     0.141 C 
BRANCH  16  17
HETATM   17  C12 UNL     1      48.006-402.408   9.643  1.00  0.00     0.248 C 
BRANCH  17  18
HETATM   18  N10 UNL     1      47.538-403.379  10.588  1.00  0.00    -0.078 N 
ATOM     19 3H10 UNL     1      47.823-404.328  10.344  1.00  0.00     0.274 HD
ATOM     20 2H10 UNL     1      48.019-403.314  11.485  1.00  0.00     0.274 HD
ATOM     21 1H10 UNL     1      46.527-403.288  10.680  1.00  0.00     0.274 HD
ENDBRANCH  17  18
ENDBRANCH  16  17
ENDBRANCH  14  16
ENDBRANCH  13  14
ENDBRANCH  12  13
ENDBRANCH  11  12
ENDBRANCH  10  11
ENDBRANCH   9  10
BRANCH   1  22
HETATM   22  N1  UNL     1      48.610-401.633  18.132  1.00  0.00    -0.384 N 
ATOM     23  H12 UNL     1      49.346-402.189  17.695  1.00  0.00     0.157 HD
ATOM     24  H11 UNL     1      48.786-401.077  18.968  1.00  0.00     0.157 HD
ENDBRANCH   1  22
BRANCH   6  25
HETATM   25  N4  UNL     1      43.613-401.618  16.176  1.00  0.00    -0.311 N 
ATOM     26  H4  UNL     1      43.142-400.736  15.974  1.00  0.00     0.170 HD
BRANCH  25  27
HETATM   27  C4  UNL     1      42.944-402.864  15.946  1.00  0.00     0.194 C 
HETATM   28  N5  UNL     1      42.488-403.674  16.845  1.00  0.00    -0.346 N 
HETATM   29  C5  UNL     1      41.895-404.793  16.164  1.00  0.00     0.259 C 
ATOM     30  H5  UNL     1      42.541-403.543  17.856  1.00  0.00     0.163 HD
HETATM   31  N6  UNL     1      42.530-404.767  14.863  1.00  0.00    -0.119 NA
HETATM   32  N7  UNL     1      42.686-403.394  14.653  1.00  0.00    -0.274 N 
ATOM     33  H7  UNL     1      42.627-402.886  13.770  1.00  0.00     0.185 HD
ENDBRANCH  25  27
ENDBRANCH   6  25
TORSDOF 11
ENDMDL
MODEL 3
REMARK VINA RESULT: -6.298253085      3.397      5.625
REMARK  11 active torsions:
REMARK  status: ('A' for Active; 'I' for Inactive)
REMARK    1  A    between atoms: N1_1  and  C1_4 
REMARK    2  A    between atoms: C3_9  and  N4_10 
REMARK    3  A    between atoms: N4_10  and  C4_12 
REMARK    4  A    between atoms: C6_21  and  C7_22 
REMARK    5  A    between atoms: C7_22  and  C8_23 
REMARK    6  A    between atoms: C8_23  and  C9_24 
REMARK    7  A    between atoms: C9_24  and  C10_25 
REMARK    8  A    between atoms: C10_25  and  N9_26 
REMARK    9  A    between atoms: N9_26  and  C11_28 
REMARK   10  A    between atoms: C11_28  and  C12_29 
REMARK   11  A    between atoms: C12_29  and  N10_30 
ROOT
HETATM    1  C1  UNL     1      47.386-401.947  17.652  1.00  0.00     0.123 A 
HETATM    2  N2  UNL     1      46.422-401.184  18.223  1.00  0.00    -0.327 N 
ATOM      3  H2  UNL     1      46.625-400.649  19.068  1.00  0.00     0.168 HD
HETATM    4  C2  UNL     1      45.202-401.137  17.675  1.00  0.00     0.162 A 
HETATM    5  N3  UNL     1      44.178-400.329  18.279  1.00  0.00    -0.079 NA
HETATM    6  C3  UNL     1      44.946-401.871  16.527  1.00  0.00     0.150 A 
HETATM    7  N8  UNL     1      45.914-402.615  15.982  1.00  0.00    -0.340 N 
ATOM      8  H8  UNL     1      45.715-403.149  15.136  1.00  0.00     0.167 HD
HETATM    9  C6  UNL     1      47.146-402.674  16.521  1.00  0.00     0.054 A 
ENDROOT
BRANCH   9  10
HETATM   10  C7  UNL     1      48.173-403.483  15.866  1.00  0.00     0.061 C 
BRANCH  10  11
HETATM   11  C8  UNL     1      47.682-404.834  15.411  1.00  0.00     0.008 C 
BRANCH  11  12
HETATM   12  C9  UNL     1      47.214-405.619  16.614  1.00  0.00     0.020 C 
BRANCH  12  13
HETATM   13  C10 UNL     1      45.765-405.999  16.526  1.00  0.00     0.113 C 
BRANCH  13  14
HETATM   14  N9  UNL     1      45.612-407.404  16.354  1.00  0.00    -0.420 N 
ATOM     15  H9  UNL     1      46.356-408.060  16.594  1.00  0.00     0.153 HD
BRANCH  14  16
HETATM   16  C11 UNL     1      44.363-407.844  15.829  1.00  0.00     0.141 C 
BRANCH  16  17
HETATM   17  C12 UNL     1      43.619-408.533  16.980  1.00  0.00     0.248 C 
BRANCH  17  18
HETATM   18  N10 UNL     1      42.227-408.612  16.649  1.00  0.00    -0.078 N 
ATOM     19 3H10 UNL     1      42.040-408.346  15.682  1.00  0.00     0.274 HD
ATOM     20 2H10 UNL     1      41.891-409.573  16.599  1.00  0.00     0.274 HD
ATOM     21 1H10 UNL     1      41.698-408.048  17.315  1.00  0.00     0.274 HD
ENDBRANCH  17  18
ENDBRANCH  16  17
ENDBRANCH  14  16
ENDBRANCH  13  14
ENDBRANCH  12  13
ENDBRANCH  11  12
ENDBRANCH  10  11
ENDBRANCH   9  10
BRANCH   1  22
HETATM   22  N1  UNL     1      48.530-401.981  18.209  1.00  0.00    -0.384 N 
ATOM     23  H12 UNL     1      48.609-402.057  19.223  1.00  0.00     0.157 HD
ATOM     24  H11 UNL     1      49.355-401.919  17.613  1.00  0.00     0.157 HD
ENDBRANCH   1  22
BRANCH   6  25
HETATM   25  N4  UNL     1      43.670-401.831  15.940  1.00  0.00    -0.311 N 
ATOM     26  H4  UNL     1      43.272-400.943  15.634  1.00  0.00     0.170 HD
BRANCH  25  27
HETATM   27  C4  UNL     1      42.933-403.048  15.774  1.00  0.00     0.194 C 
HETATM   28  N5  UNL     1      42.417-403.774  16.712  1.00  0.00    -0.346 N 
HETATM   29  C5  UNL     1      41.770-404.897  16.088  1.00  0.00     0.259 C 
ATOM     30  H5  UNL     1      42.462-403.584  17.713  1.00  0.00     0.163 HD
HETATM   31  N6  UNL     1      42.426-404.987  14.800  1.00  0.00    -0.119 NA
HETATM   32  N7  UNL     1      42.665-403.641  14.510  1.00  0.00    -0.274 N 
ATOM     33  H7  UNL     1      42.649-403.185  13.598  1.00  0.00     0.185 HD
ENDBRANCH  25  27
ENDBRANCH   6  25
TORSDOF 11
ENDMDL
MODEL 4
REMARK VINA RESULT: -6.261922096      3.385      5.544
REMARK  11 active torsions:
REMARK  status: ('A' for Active; 'I' for Inactive)
REMARK    1  A    between atoms: N1_1  and  C1_4 
REMARK    2  A    between atoms: C3_9  and  N4_10 
REMARK    3  A    between atoms: N4_10  and  C4_12 
REMARK    4  A    between atoms: C6_21  and  C7_22 
REMARK    5  A    between atoms: C7_22  and  C8_23 
REMARK    6  A    between atoms: C8_23  and  C9_24 
REMARK    7  A    between atoms: C9_24  and  C10_25 
REMARK    8  A    between atoms: C10_25  and  N9_26 
REMARK    9  A    between atoms: N9_26  and  C11_28 
REMARK   10  A    between atoms: C11_28  and  C12_29 
REMARK   11  A    between atoms: C12_29  and  N10_30 
ROOT
HETATM    1  C1  UNL     1      47.407-401.949  17.637  1.00  0.00     0.123 A 
HETATM    2  N2  UNL     1      46.424-401.252  18.258  1.00  0.00    -0.327 N 
ATOM      3  H2  UNL     1      46.615-400.767  19.135  1.00  0.00     0.168 HD
HETATM    4  C2  UNL     1      45.201-401.203  17.715  1.00  0.00     0.162 A 
HETATM    5  N3  UNL     1      44.157-400.465  18.372  1.00  0.00    -0.079 NA
HETATM    6  C3  UNL     1      44.962-401.868  16.523  1.00  0.00     0.150 A 
HETATM    7  N8  UNL     1      45.949-402.547  15.929  1.00  0.00    -0.340 N 
ATOM      8  H8  UNL     1      45.761-403.032  15.051  1.00  0.00     0.167 HD
HETATM    9  C6  UNL     1      47.183-402.607  16.461  1.00  0.00     0.054 A 
ENDROOT
BRANCH   9  10
HETATM   10  C7  UNL     1      48.231-403.343  15.753  1.00  0.00     0.061 C 
BRANCH  10  11
HETATM   11  C8  UNL     1      47.869-404.776  15.457  1.00  0.00     0.008 C 
BRANCH  11  12
HETATM   12  C9  UNL     1      49.013-405.670  15.873  1.00  0.00     0.020 C 
BRANCH  12  13
HETATM   13  C10 UNL     1      49.421-405.458  17.300  1.00  0.00     0.113 C 
BRANCH  13  14
HETATM   14  N9  UNL     1      50.828-405.611  17.461  1.00  0.00    -0.420 N 
ATOM     15  H9  UNL     1      51.407-404.873  17.862  1.00  0.00     0.153 HD
BRANCH  14  16
HETATM   16  C11 UNL     1      51.381-406.851  17.031  1.00  0.00     0.141 C 
BRANCH  16  17
HETATM   17  C12 UNL     1      51.454-407.753  18.271  1.00  0.00     0.248 C 
BRANCH  17  18
HETATM   18  N10 UNL     1      52.413-408.792  18.030  1.00  0.00    -0.078 N 
ATOM     19 3H10 UNL     1      51.973-409.699  17.875  1.00  0.00     0.274 HD
ATOM     20 2H10 UNL     1      52.869-408.698  17.124  1.00  0.00     0.274 HD
ATOM     21 1H10 UNL     1      53.079-408.809  18.803  1.00  0.00     0.274 HD
ENDBRANCH  17  18
ENDBRANCH  16  17
ENDBRANCH  14  16
ENDBRANCH  13  14
ENDBRANCH  12  13
ENDBRANCH  11  12
ENDBRANCH  10  11
ENDBRANCH   9  10
BRANCH   1  22
HETATM   22  N1  UNL     1      48.553-401.986  18.189  1.00  0.00    -0.384 N 
ATOM     23  H12 UNL     1      49.138-401.151  18.221  1.00  0.00     0.157 HD
ATOM     24  H11 UNL     1      48.866-402.873  18.583  1.00  0.00     0.157 HD
ENDBRANCH   1  22
BRANCH   6  25
HETATM   25  N4  UNL     1      43.683-401.826  15.942  1.00  0.00    -0.311 N 
ATOM     26  H4  UNL     1      43.286-400.937  15.637  1.00  0.00     0.170 HD
BRANCH  25  27
HETATM   27  C4  UNL     1      42.942-403.042  15.781  1.00  0.00     0.194 C 
HETATM   28  N5  UNL     1      42.410-403.753  16.721  1.00  0.00    -0.346 N 
HETATM   29  C5  UNL     1      41.766-404.881  16.102  1.00  0.00     0.259 C 
ATOM     30  H5  UNL     1      42.441-403.551  17.720  1.00  0.00     0.163 HD
HETATM   31  N6  UNL     1      42.440-404.991  14.825  1.00  0.00    -0.119 NA
HETATM   32  N7  UNL     1      42.689-403.649  14.522  1.00  0.00    -0.274 N 
ATOM     33  H7  UNL     1      42.688-403.206  13.603  1.00  0.00     0.185 HD
ENDBRANCH  25  27
ENDBRANCH   6  25
TORSDOF 11
ENDMDL
MODEL 5
REMARK VINA RESULT: -6.184513514      3.011      4.258
REMARK  11 active torsions:
REMARK  status: ('A' for Active; 'I' for Inactive)
REMARK    1  A    between atoms: N1_1  and  C1_4 
REMARK    2  A    between atoms: C3_9  and  N4_10 
REMARK    3  A    between atoms: N4_10  and  C4_12 
REMARK    4  A    between atoms: C6_21  and  C7_22 
REMARK    5  A    between atoms: C7_22  and  C8_23 
REMARK    6  A    between atoms: C8_23  and  C9_24 
REMARK    7  A    between atoms: C9_24  and  C10_25 
REMARK    8  A    between atoms: C10_25  and  N9_26 
REMARK    9  A    between atoms: N9_26  and  C11_28 
REMARK   10  A    between atoms: C11_28  and  C12_29 
REMARK   11  A    between atoms: C12_29  and  N10_30 
ROOT
HETATM    1  C1  UNL     1      44.676-406.391  16.436  1.00  0.00     0.123 A 
HETATM    2  N2  UNL     1      43.350-406.495  16.172  1.00  0.00    -0.327 N 
ATOM      3  H2  UNL     1      42.865-407.379  16.326  1.00  0.00     0.168 HD
HETATM    4  C2  UNL     1      42.681-405.433  15.708  1.00  0.00     0.162 A 
HETATM    5  N3  UNL     1      41.275-405.541  15.427  1.00  0.00    -0.079 NA
HETATM    6  C3  UNL     1      43.359-404.242  15.505  1.00  0.00     0.150 A 
HETATM    7  N8  UNL     1      44.666-404.163  15.775  1.00  0.00    -0.340 N 
ATOM      8  H8  UNL     1      45.154-403.280  15.623  1.00  0.00     0.167 HD
HETATM    9  C6  UNL     1      45.354-405.222  16.241  1.00  0.00     0.054 A 
ENDROOT
BRANCH   9  10
HETATM   10  C7  UNL     1      46.777-405.071  16.544  1.00  0.00     0.061 C 
BRANCH  10  11
HETATM   11  C8  UNL     1      47.555-404.363  15.463  1.00  0.00     0.008 C 
BRANCH  11  12
HETATM   12  C9  UNL     1      48.252-403.164  16.061  1.00  0.00     0.020 C 
BRANCH  12  13
HETATM   13  C10 UNL     1      47.749-401.867  15.501  1.00  0.00     0.113 C 
BRANCH  13  14
HETATM   14  N9  UNL     1      46.622-401.394  16.233  1.00  0.00    -0.420 N 
ATOM     15  H9  UNL     1      45.776-401.068  15.766  1.00  0.00     0.153 HD
BRANCH  14  16
HETATM   16  C11 UNL     1      46.743-401.401  17.652  1.00  0.00     0.141 C 
BRANCH  16  17
HETATM   17  C12 UNL     1      46.881-399.936  18.089  1.00  0.00     0.248 C 
BRANCH  17  18
HETATM   18  N10 UNL     1      45.913-399.665  19.111  1.00  0.00    -0.078 N 
ATOM     19 3H10 UNL     1      46.336-399.576  20.035  1.00  0.00     0.274 HD
ATOM     20 2H10 UNL     1      45.526-398.725  19.042  1.00  0.00     0.274 HD
ATOM     21 1H10 UNL     1      45.193-400.387  19.081  1.00  0.00     0.274 HD
ENDBRANCH  17  18
ENDBRANCH  16  17
ENDBRANCH  14  16
ENDBRANCH  13  14
ENDBRANCH  12  13
ENDBRANCH  11  12
ENDBRANCH  10  11
ENDBRANCH   9  10
BRANCH   1  22
HETATM   22  N1  UNL     1      45.284-407.426  16.862  1.00  0.00    -0.384 N 
ATOM     23  H12 UNL     1      44.855-408.022  17.570  1.00  0.00     0.157 HD
ATOM     24  H11 UNL     1      46.208-407.628  16.482  1.00  0.00     0.157 HD
ENDBRANCH   1  22
BRANCH   6  25
HETATM   25  N4  UNL     1      42.669-403.118  15.018  1.00  0.00    -0.311 N 
ATOM     26  H4  UNL     1      42.069-403.198  14.197  1.00  0.00     0.170 HD
BRANCH  25  27
HETATM   27  C4  UNL     1      42.816-401.858  15.685  1.00  0.00     0.194 C 
HETATM   28  N5  UNL     1      43.024-400.709  15.131  1.00  0.00    -0.346 N 
HETATM   29  C5  UNL     1      43.103-399.727  16.179  1.00  0.00     0.259 C 
ATOM     30  H5  UNL     1      43.116-400.531  14.131  1.00  0.00     0.163 HD
HETATM   31  N6  UNL     1      43.441-400.513  17.347  1.00  0.00    -0.119 NA
HETATM   32  N7  UNL     1      42.751-401.702  17.096  1.00  0.00    -0.274 N 
ATOM     33  H7  UNL     1      42.302-402.319  17.773  1.00  0.00     0.185 HD
ENDBRANCH  25  27
ENDBRANCH   6  25
TORSDOF 11
ENDMDL
