MODEL 1
REMARK VINA RESULT: -6.892778558      0.000      0.000
REMARK  12 active torsions:
REMARK  status: ('A' for Active; 'I' for Inactive)
REMARK    1  A    between atoms: N1_1  and  C1_4 
REMARK    2  A    between atoms: C2_7  and  N3_8 
REMARK    3  A    between atoms: N3_8  and  C3_10 
REMARK    4  A    between atoms: C3_10  and  C4_11 
REMARK    5  A    between atoms: C4_11  and  N4_12 
REMARK    6  A    between atoms: N4_12  and  C5_15 
REMARK    7  A    between atoms: C5_15  and  C6_16 
REMARK    8  A    between atoms: C6_16  and  O1_17 
REMARK    9  A    between atoms: C7_21  and  N6_22 
REMARK   10  A    between atoms: C8_29  and  N10_30 
REMARK   11  A    between atoms: C9_33  and  C10_34 
REMARK   12  A    between atoms: C10_34  and  N11_35 
ROOT
HETATM    1  C1  UNL     1      44.780-405.573  16.437  1.00  0.00     0.126 A 
HETATM    2  N2  UNL     1      44.200-404.381  16.682  1.00  0.00    -0.176 N 
ATOM      3  H2  UNL     1      44.776-403.586  16.959  1.00  0.00     0.186 HD
HETATM    4  C2  UNL     1      42.874-404.231  16.565  1.00  0.00     0.681 A 
HETATM    5  N5  UNL     1      42.136-405.270  16.221  1.00  0.00    -0.173 N 
ATOM      6  H5  UNL     1      41.128-405.137  16.143  1.00  0.00     0.186 HD
HETATM    7  C7  UNL     1      42.650-406.528  15.960  1.00  0.00     0.173 A 
HETATM    8  C9  UNL     1      43.979-406.671  16.061  1.00  0.00     0.058 A 
ENDROOT
BRANCH   4   9
HETATM    9  N3  UNL     1      42.292-402.974  16.731  1.00  0.00    -0.224 N 
ATOM     10  H3  UNL     1      41.559-402.819  17.422  1.00  0.00     0.177 HD
BRANCH   9  11
HETATM   11  C3  UNL     1      42.768-401.889  15.881  1.00  0.00     0.165 C 
BRANCH  11  12
HETATM   12  C4  UNL     1      42.997-400.640  16.683  1.00  0.00     0.252 C 
BRANCH  12  13
HETATM   13  N4  UNL     1      44.358-400.159  16.387  1.00  0.00    -0.072 N 
ATOM     14  H42 UNL     1      44.590-400.171  15.393  1.00  0.00     0.277 HD
ATOM     15  H41 UNL     1      44.478-399.156  16.525  1.00  0.00     0.277 HD
BRANCH  13  16
HETATM   16  C5  UNL     1      45.248-400.978  17.210  1.00  0.00     0.258 C 
BRANCH  16  17
HETATM   17  C6  UNL     1      44.859-400.788  18.661  1.00  0.00     0.191 C 
BRANCH  17  18
HETATM   18  O1  UNL     1      44.884-401.983  19.334  1.00  0.00    -0.399 OA
ATOM     19  H1  UNL     1      44.895-401.842  20.274  1.00  0.00     0.209 HD
ENDBRANCH  17  18
ENDBRANCH  16  17
ENDBRANCH  13  16
ENDBRANCH  12  13
ENDBRANCH  11  12
ENDBRANCH   9  11
ENDBRANCH   4   9
BRANCH   1  20
HETATM   20  N1  UNL     1      46.057-405.635  16.514  1.00  0.00    -0.384 N 
ATOM     21  H12 UNL     1      46.668-404.862  16.248  1.00  0.00     0.157 HD
ATOM     22  H11 UNL     1      46.464-406.489  16.897  1.00  0.00     0.157 HD
ENDBRANCH   1  20
BRANCH   7  23
HETATM   23  N6  UNL     1      41.767-407.593  15.681  1.00  0.00    -0.052 N 
HETATM   24  N7  UNL     1      41.442-408.674  16.333  1.00  0.00    -0.205 N 
HETATM   25  N8  UNL     1      40.560-409.353  15.594  1.00  0.00    -0.213 N 
ATOM     26  H7  UNL     1      41.798-408.953  17.247  1.00  0.00     0.211 HD
HETATM   27  N9  UNL     1      40.337-408.692  14.485  1.00  0.00    -0.115 N 
ATOM     28  H8  UNL     1      40.131-410.242  15.851  1.00  0.00     0.210 HD
HETATM   29  C8  UNL     1      41.071-407.582  14.496  1.00  0.00     0.716 A 
ATOM     30  H9  UNL     1      39.706-408.980  13.738  1.00  0.00     0.207 HD
BRANCH  29  31
HETATM   31  N10 UNL     1      41.121-406.675  13.558  1.00  0.00    -0.231 N 
ATOM     32 2H10 UNL     1      40.776-405.717  13.621  1.00  0.00     0.174 HD
ATOM     33 1H10 UNL     1      41.502-406.779  12.617  1.00  0.00     0.174 HD
ENDBRANCH  29  31
ENDBRANCH   7  23
BRANCH   8  34
HETATM   34  C10 UNL     1      44.733-407.906  15.820  1.00  0.00     0.276 C 
BRANCH  34  35
HETATM   35  N11 UNL     1      44.787-408.583  17.153  1.00  0.00    -0.075 N 
ATOM     36 3H11 UNL     1      44.664-407.952  17.945  1.00  0.00     0.274 HD
ATOM     37 2H11 UNL     1      43.980-409.175  17.351  1.00  0.00     0.274 HD
ATOM     38 1H11 UNL     1      45.677-409.082  17.154  1.00  0.00     0.274 HD
ENDBRANCH  34  35
ENDBRANCH   8  34
TORSDOF 12
ENDMDL
MODEL 2
REMARK VINA RESULT: -6.313953126      2.492      6.050
REMARK  12 active torsions:
REMARK  status: ('A' for Active; 'I' for Inactive)
REMARK    1  A    between atoms: N1_1  and  C1_4 
REMARK    2  A    between atoms: C2_7  and  N3_8 
REMARK    3  A    between atoms: N3_8  and  C3_10 
REMARK    4  A    between atoms: C3_10  and  C4_11 
REMARK    5  A    between atoms: C4_11  and  N4_12 
REMARK    6  A    between atoms: N4_12  and  C5_15 
REMARK    7  A    between atoms: C5_15  and  C6_16 
REMARK    8  A    between atoms: C6_16  and  O1_17 
REMARK    9  A    between atoms: C7_21  and  N6_22 
REMARK   10  A    between atoms: C8_29  and  N10_30 
REMARK   11  A    between atoms: C9_33  and  C10_34 
REMARK   12  A    between atoms: C10_34  and  N11_35 
ROOT
HETATM    1  C1  UNL     1      47.219-404.667  16.222  1.00  0.00     0.126 A 
HETATM    2  N2  UNL     1      46.745-405.929  16.255  1.00  0.00    -0.176 N 
ATOM      3  H2  UNL     1      47.378-406.712  16.089  1.00  0.00     0.186 HD
HETATM    4  C2  UNL     1      45.450-406.164  16.505  1.00  0.00     0.681 A 
HETATM    5  N5  UNL     1      44.636-405.144  16.702  1.00  0.00    -0.173 N 
ATOM      6  H5  UNL     1      43.652-405.344  16.884  1.00  0.00     0.186 HD
HETATM    7  C7  UNL     1      45.038-403.821  16.677  1.00  0.00     0.173 A 
HETATM    8  C9  UNL     1      46.338-403.588  16.444  1.00  0.00     0.058 A 
ENDROOT
BRANCH   4   9
HETATM    9  N3  UNL     1      44.985-407.474  16.628  1.00  0.00    -0.224 N 
ATOM     10  H3  UNL     1      45.387-408.114  17.312  1.00  0.00     0.177 HD
BRANCH   9  11
HETATM   11  C3  UNL     1      43.904-407.896  15.745  1.00  0.00     0.165 C 
BRANCH  11  12
HETATM   12  C4  UNL     1      42.738-408.416  16.535  1.00  0.00     0.252 C 
BRANCH  12  13
HETATM   13  N4  UNL     1      41.519-408.190  15.738  1.00  0.00    -0.072 N 
ATOM     14  H42 UNL     1      41.358-408.900  15.024  1.00  0.00     0.277 HD
ATOM     15  H41 UNL     1      40.655-408.345  16.257  1.00  0.00     0.277 HD
BRANCH  13  16
HETATM   16  C5  UNL     1      41.650-406.835  15.203  1.00  0.00     0.258 C 
BRANCH  16  17
HETATM   17  C6  UNL     1      40.971-406.792  13.850  1.00  0.00     0.191 C 
BRANCH  17  18
HETATM   18  O1  UNL     1      41.329-405.662  13.159  1.00  0.00    -0.399 OA
ATOM     19  H1  UNL     1      40.845-405.596  12.344  1.00  0.00     0.209 HD
ENDBRANCH  17  18
ENDBRANCH  16  17
ENDBRANCH  13  16
ENDBRANCH  12  13
ENDBRANCH  11  12
ENDBRANCH   9  11
ENDBRANCH   4   9
BRANCH   1  20
HETATM   20  N1  UNL     1      48.476-404.514  16.032  1.00  0.00    -0.384 N 
ATOM     21  H12 UNL     1      49.098-405.283  15.783  1.00  0.00     0.157 HD
ATOM     22  H11 UNL     1      48.850-403.567  16.100  1.00  0.00     0.157 HD
ENDBRANCH   1  20
BRANCH   7  23
HETATM   23  N6  UNL     1      44.074-402.800  16.818  1.00  0.00    -0.052 N 
HETATM   24  N7  UNL     1      43.891-401.864  17.707  1.00  0.00    -0.205 N 
HETATM   25  N8  UNL     1      42.802-401.172  17.361  1.00  0.00    -0.213 N 
ATOM     26  H7  UNL     1      44.478-401.689  18.523  1.00  0.00     0.211 HD
HETATM   27  N9  UNL     1      42.310-401.679  16.257  1.00  0.00    -0.115 N 
ATOM     28  H8  UNL     1      42.416-400.379  17.874  1.00  0.00     0.210 HD
HETATM   29  C8  UNL     1      43.075-402.700  15.880  1.00  0.00     0.716 A 
ATOM     30  H9  UNL     1      41.479-401.345  15.769  1.00  0.00     0.207 HD
BRANCH  29  31
HETATM   31  N10 UNL     1      42.897-403.457  14.831  1.00  0.00    -0.231 N 
ATOM     32 2H10 UNL     1      43.539-404.166  14.479  1.00  0.00     0.174 HD
ATOM     33 1H10 UNL     1      42.098-403.455  14.196  1.00  0.00     0.174 HD
ENDBRANCH  29  31
ENDBRANCH   7  23
BRANCH   8  34
HETATM   34  C10 UNL     1      46.981-402.270  16.385  1.00  0.00     0.276 C 
BRANCH  34  35
HETATM   35  N11 UNL     1      47.318-401.949  17.807  1.00  0.00    -0.075 N 
ATOM     36 3H11 UNL     1      46.872-401.102  18.158  1.00  0.00     0.274 HD
ATOM     37 2H11 UNL     1      46.903-402.587  18.486  1.00  0.00     0.274 HD
ATOM     38 1H11 UNL     1      48.337-401.924  17.831  1.00  0.00     0.274 HD
ENDBRANCH  34  35
ENDBRANCH   8  34
TORSDOF 12
ENDMDL
MODEL 3
REMARK VINA RESULT: -6.216002313      2.736      6.917
REMARK  12 active torsions:
REMARK  status: ('A' for Active; 'I' for Inactive)
REMARK    1  A    between atoms: N1_1  and  C1_4 
REMARK    2  A    between atoms: C2_7  and  N3_8 
REMARK    3  A    between atoms: N3_8  and  C3_10 
REMARK    4  A    between atoms: C3_10  and  C4_11 
REMARK    5  A    between atoms: C4_11  and  N4_12 
REMARK    6  A    between atoms: N4_12  and  C5_15 
REMARK    7  A    between atoms: C5_15  and  C6_16 
REMARK    8  A    between atoms: C6_16  and  O1_17 
REMARK    9  A    between atoms: C7_21  and  N6_22 
REMARK   10  A    between atoms: C8_29  and  N10_30 
REMARK   11  A    between atoms: C9_33  and  C10_34 
REMARK   12  A    between atoms: C10_34  and  N11_35 
ROOT
HETATM    1  C1  UNL     1      43.310-403.791  16.630  1.00  0.00     0.126 A 
HETATM    2  N2  UNL     1      43.479-405.127  16.567  1.00  0.00    -0.176 N 
ATOM      3  H2  UNL     1      42.663-405.739  16.539  1.00  0.00     0.186 HD
HETATM    4  C2  UNL     1      44.709-405.658  16.541  1.00  0.00     0.681 A 
HETATM    5  N5  UNL     1      45.758-404.858  16.594  1.00  0.00    -0.173 N 
ATOM      6  H5  UNL     1      46.685-405.282  16.580  1.00  0.00     0.186 HD
HETATM    7  C7  UNL     1      45.673-403.479  16.668  1.00  0.00     0.173 A 
HETATM    8  C9  UNL     1      44.442-402.949  16.677  1.00  0.00     0.058 A 
ENDROOT
BRANCH   4   9
HETATM    9  N3  UNL     1      44.876-407.034  16.384  1.00  0.00    -0.224 N 
ATOM     10  H3  UNL     1      45.686-407.515  16.774  1.00  0.00     0.177 HD
BRANCH   9  11
HETATM   11  C3  UNL     1      43.853-407.761  15.641  1.00  0.00     0.165 C 
BRANCH  11  12
HETATM   12  C4  UNL     1      42.902-408.452  16.575  1.00  0.00     0.252 C 
BRANCH  12  13
HETATM   13  N4  UNL     1      41.532-408.087  16.172  1.00  0.00    -0.072 N 
ATOM     14  H42 UNL     1      40.841-408.814  16.362  1.00  0.00     0.277 HD
ATOM     15  H41 UNL     1      41.110-407.366  16.757  1.00  0.00     0.277 HD
BRANCH  13  16
HETATM   16  C5  UNL     1      41.627-407.719  14.760  1.00  0.00     0.258 C 
BRANCH  16  17
HETATM   17  C6  UNL     1      40.678-406.566  14.505  1.00  0.00     0.191 C 
BRANCH  17  18
HETATM   18  O1  UNL     1      40.544-405.787  15.626  1.00  0.00    -0.399 OA
ATOM     19  H1  UNL     1      39.888-405.112  15.493  1.00  0.00     0.209 HD
ENDBRANCH  17  18
ENDBRANCH  16  17
ENDBRANCH  13  16
ENDBRANCH  12  13
ENDBRANCH  11  12
ENDBRANCH   9  11
ENDBRANCH   4   9
BRANCH   1  20
HETATM   20  N1  UNL     1      42.110-403.345  16.598  1.00  0.00    -0.384 N 
ATOM     21  H12 UNL     1      41.344-403.847  16.148  1.00  0.00     0.157 HD
ATOM     22  H11 UNL     1      41.921-402.466  17.080  1.00  0.00     0.157 HD
ENDBRANCH   1  20
BRANCH   7  23
HETATM   23  N6  UNL     1      46.853-402.718  16.805  1.00  0.00    -0.052 N 
HETATM   24  N7  UNL     1      47.439-402.158  17.826  1.00  0.00    -0.205 N 
HETATM   25  N8  UNL     1      48.537-401.538  17.385  1.00  0.00    -0.213 N 
ATOM     26  H7  UNL     1      47.115-402.188  18.793  1.00  0.00     0.211 HD
HETATM   27  N9  UNL     1      48.633-401.716  16.091  1.00  0.00    -0.115 N 
ATOM     28  H8  UNL     1      49.193-401.013  17.962  1.00  0.00     0.210 HD
HETATM   29  C8  UNL     1      47.600-402.450  15.683  1.00  0.00     0.716 A 
ATOM     30  H9  UNL     1      49.376-401.352  15.495  1.00  0.00     0.207 HD
BRANCH  29  31
HETATM   31  N10 UNL     1      47.351-402.825  14.458  1.00  0.00    -0.231 N 
ATOM     32 2H10 UNL     1      46.971-403.726  14.165  1.00  0.00     0.174 HD
ATOM     33 1H10 UNL     1      47.501-402.288  13.604  1.00  0.00     0.174 HD
ENDBRANCH  29  31
ENDBRANCH   7  23
BRANCH   8  34
HETATM   34  C10 UNL     1      44.119-401.519  16.740  1.00  0.00     0.276 C 
BRANCH  34  35
HETATM   35  N11 UNL     1      44.087-401.202  18.202  1.00  0.00    -0.075 N 
ATOM     36 3H11 UNL     1      44.929-400.740  18.546  1.00  0.00     0.274 HD
ATOM     37 2H11 UNL     1      43.438-400.456  18.450  1.00  0.00     0.274 HD
ATOM     38 1H11 UNL     1      43.888-402.093  18.655  1.00  0.00     0.274 HD
ENDBRANCH  34  35
ENDBRANCH   8  34
TORSDOF 12
ENDMDL
MODEL 4
REMARK VINA RESULT: -6.156905761      2.631      6.404
REMARK  12 active torsions:
REMARK  status: ('A' for Active; 'I' for Inactive)
REMARK    1  A    between atoms: N1_1  and  C1_4 
REMARK    2  A    between atoms: C2_7  and  N3_8 
REMARK    3  A    between atoms: N3_8  and  C3_10 
REMARK    4  A    between atoms: C3_10  and  C4_11 
REMARK    5  A    between atoms: C4_11  and  N4_12 
REMARK    6  A    between atoms: N4_12  and  C5_15 
REMARK    7  A    between atoms: C5_15  and  C6_16 
REMARK    8  A    between atoms: C6_16  and  O1_17 
REMARK    9  A    between atoms: C7_21  and  N6_22 
REMARK   10  A    between atoms: C8_29  and  N10_30 
REMARK   11  A    between atoms: C9_33  and  C10_34 
REMARK   12  A    between atoms: C10_34  and  N11_35 
ROOT
HETATM    1  C1  UNL     1      47.416-404.883  16.184  1.00  0.00     0.126 A 
HETATM    2  N2  UNL     1      46.794-406.072  16.311  1.00  0.00    -0.176 N 
ATOM      3  H2  UNL     1      47.335-406.935  16.248  1.00  0.00     0.186 HD
HETATM    4  C2  UNL     1      45.472-406.131  16.518  1.00  0.00     0.681 A 
HETATM    5  N5  UNL     1      44.779-405.010  16.580  1.00  0.00    -0.173 N 
ATOM      6  H5  UNL     1      43.772-405.076  16.732  1.00  0.00     0.186 HD
HETATM    7  C7  UNL     1      45.337-403.750  16.453  1.00  0.00     0.173 A 
HETATM    8  C9  UNL     1      46.663-403.693  16.263  1.00  0.00     0.058 A 
ENDROOT
BRANCH   4   9
HETATM    9  N3  UNL     1      44.850-407.360  16.739  1.00  0.00    -0.224 N 
ATOM     10  H3  UNL     1      45.095-407.939  17.541  1.00  0.00     0.177 HD
BRANCH   9  11
HETATM   11  C3  UNL     1      43.836-407.788  15.782  1.00  0.00     0.165 C 
BRANCH  11  12
HETATM   12  C4  UNL     1      42.642-408.366  16.488  1.00  0.00     0.252 C 
BRANCH  12  13
HETATM   13  N4  UNL     1      41.443-408.009  15.710  1.00  0.00    -0.072 N 
ATOM     14  H42 UNL     1      41.125-408.749  15.084  1.00  0.00     0.277 HD
ATOM     15  H41 UNL     1      40.593-407.952  16.270  1.00  0.00     0.277 HD
BRANCH  13  16
HETATM   16  C5  UNL     1      41.782-406.762  15.024  1.00  0.00     0.258 C 
BRANCH  16  17
HETATM   17  C6  UNL     1      40.999-406.706  13.729  1.00  0.00     0.191 C 
BRANCH  17  18
HETATM   18  O1  UNL     1      41.366-405.615  12.982  1.00  0.00    -0.399 OA
ATOM     19  H1  UNL     1      41.940-405.870  12.269  1.00  0.00     0.209 HD
ENDBRANCH  17  18
ENDBRANCH  16  17
ENDBRANCH  13  16
ENDBRANCH  12  13
ENDBRANCH  11  12
ENDBRANCH   9  11
ENDBRANCH   4   9
BRANCH   1  20
HETATM   20  N1  UNL     1      48.689-404.895  16.042  1.00  0.00    -0.384 N 
ATOM     21  H12 UNL     1      49.255-404.046  16.034  1.00  0.00     0.157 HD
ATOM     22  H11 UNL     1      49.146-405.804  15.974  1.00  0.00     0.157 HD
ENDBRANCH   1  20
BRANCH   7  23
HETATM   23  N6  UNL     1      44.497-402.616  16.452  1.00  0.00    -0.052 N 
HETATM   24  N7  UNL     1      43.770-402.047  15.531  1.00  0.00    -0.205 N 
HETATM   25  N8  UNL     1      43.180-400.977  16.072  1.00  0.00    -0.213 N 
ATOM     26  H7  UNL     1      43.669-402.363  14.567  1.00  0.00     0.211 HD
HETATM   27  N9  UNL     1      43.540-400.885  17.329  1.00  0.00    -0.115 N 
ATOM     28  H8  UNL     1      42.552-400.337  15.586  1.00  0.00     0.210 HD
HETATM   29  C8  UNL     1      44.364-401.891  17.611  1.00  0.00     0.716 A 
ATOM     30  H9  UNL     1      43.238-400.162  17.981  1.00  0.00     0.207 HD
BRANCH  29  31
HETATM   31  N10 UNL     1      44.936-402.126  18.761  1.00  0.00    -0.231 N 
ATOM     32 2H10 UNL     1      44.722-402.893  19.399  1.00  0.00     0.174 HD
ATOM     33 1H10 UNL     1      45.675-401.582  19.207  1.00  0.00     0.174 HD
ENDBRANCH  29  31
ENDBRANCH   7  23
BRANCH   8  34
HETATM   34  C10 UNL     1      47.460-402.470  16.113  1.00  0.00     0.276 C 
BRANCH  34  35
HETATM   35  N11 UNL     1      47.480-402.209  14.640  1.00  0.00    -0.075 N 
ATOM     36 3H11 UNL     1      46.757-402.707  14.120  1.00  0.00     0.274 HD
ATOM     37 2H11 UNL     1      47.181-401.269  14.381  1.00  0.00     0.274 HD
ATOM     38 1H11 UNL     1      48.431-402.436  14.350  1.00  0.00     0.274 HD
ENDBRANCH  34  35
ENDBRANCH   8  34
TORSDOF 12
ENDMDL
MODEL 5
REMARK VINA RESULT: -6.094969308      2.848      7.220
REMARK  12 active torsions:
REMARK  status: ('A' for Active; 'I' for Inactive)
REMARK    1  A    between atoms: N1_1  and  C1_4 
REMARK    2  A    between atoms: C2_7  and  N3_8 
REMARK    3  A    between atoms: N3_8  and  C3_10 
REMARK    4  A    between atoms: C3_10  and  C4_11 
REMARK    5  A    between atoms: C4_11  and  N4_12 
REMARK    6  A    between atoms: N4_12  and  C5_15 
REMARK    7  A    between atoms: C5_15  and  C6_16 
REMARK    8  A    between atoms: C6_16  and  O1_17 
REMARK    9  A    between atoms: C7_21  and  N6_22 
REMARK   10  A    between atoms: C8_29  and  N10_30 
REMARK   11  A    between atoms: C9_33  and  C10_34 
REMARK   12  A    between atoms: C10_34  and  N11_35 
ROOT
HETATM    1  C1  UNL     1      43.127-401.095  16.351  1.00  0.00     0.126 A 
HETATM    2  N2  UNL     1      42.633-402.284  15.950  1.00  0.00    -0.176 N 
ATOM      3  H2  UNL     1      41.645-402.365  15.710  1.00  0.00     0.186 HD
HETATM    4  C2  UNL     1      43.428-403.359  15.866  1.00  0.00     0.681 A 
HETATM    5  N5  UNL     1      44.701-403.246  16.194  1.00  0.00    -0.173 N 
ATOM      6  H5  UNL     1      45.289-404.077  16.129  1.00  0.00     0.186 HD
HETATM    7  C7  UNL     1      45.286-402.067  16.622  1.00  0.00     0.173 A 
HETATM    8  C9  UNL     1      44.492-400.988  16.690  1.00  0.00     0.058 A 
ENDROOT
BRANCH   4   9
HETATM    9  N3  UNL     1      42.931-404.562  15.364  1.00  0.00    -0.224 N 
ATOM     10  H3  UNL     1      42.239-404.576  14.615  1.00  0.00     0.177 HD
BRANCH   9  11
HETATM   11  C3  UNL     1      43.435-405.799  15.948  1.00  0.00     0.165 C 
BRANCH  11  12
HETATM   12  C4  UNL     1      42.376-406.475  16.771  1.00  0.00     0.252 C 
BRANCH  12  13
HETATM   13  N4  UNL     1      41.190-406.657  15.915  1.00  0.00    -0.072 N 
ATOM     14  H42 UNL     1      40.337-406.863  16.435  1.00  0.00     0.277 HD
ATOM     15  H41 UNL     1      40.860-405.796  15.481  1.00  0.00     0.277 HD
BRANCH  13  16
HETATM   16  C5  UNL     1      41.560-407.697  14.954  1.00  0.00     0.258 C 
BRANCH  16  17
HETATM   17  C6  UNL     1      40.948-407.343  13.614  1.00  0.00     0.191 C 
BRANCH  17  18
HETATM   18  O1  UNL     1      41.175-406.026  13.305  1.00  0.00    -0.399 OA
ATOM     19  H1  UNL     1      40.375-405.603  13.017  1.00  0.00     0.209 HD
ENDBRANCH  17  18
ENDBRANCH  16  17
ENDBRANCH  13  16
ENDBRANCH  12  13
ENDBRANCH  11  12
ENDBRANCH   9  11
ENDBRANCH   4   9
BRANCH   1  20
HETATM   20  N1  UNL     1      42.326-400.095  16.358  1.00  0.00    -0.384 N 
ATOM     21  H12 UNL     1      41.389-400.137  16.759  1.00  0.00     0.157 HD
ATOM     22  H11 UNL     1      42.670-399.214  15.976  1.00  0.00     0.157 HD
ENDBRANCH   1  20
BRANCH   7  23
HETATM   23  N6  UNL     1      46.637-402.070  17.029  1.00  0.00    -0.052 N 
HETATM   24  N7  UNL     1      47.217-401.971  18.193  1.00  0.00    -0.205 N 
HETATM   25  N8  UNL     1      48.538-402.018  18.002  1.00  0.00    -0.213 N 
ATOM     26  H7  UNL     1      46.744-401.876  19.092  1.00  0.00     0.211 HD
HETATM   27  N9  UNL     1      48.777-402.148  16.721  1.00  0.00    -0.115 N 
ATOM     28  H8  UNL     1      49.245-401.961  18.735  1.00  0.00     0.210 HD
HETATM   29  C8  UNL     1      47.616-402.186  16.072  1.00  0.00     0.716 A 
ATOM     30  H9  UNL     1      49.700-402.209  16.292  1.00  0.00     0.207 HD
BRANCH  29  31
HETATM   31  N10 UNL     1      47.451-402.300  14.782  1.00  0.00    -0.231 N 
ATOM     32 2H10 UNL     1      46.755-402.876  14.308  1.00  0.00     0.174 HD
ATOM     33 1H10 UNL     1      47.991-401.842  14.047  1.00  0.00     0.174 HD
ENDBRANCH  29  31
ENDBRANCH   7  23
BRANCH   8  34
HETATM   34  C10 UNL     1      44.902-399.642  17.104  1.00  0.00     0.276 C 
BRANCH  34  35
HETATM   35  N11 UNL     1      45.590-399.069  15.905  1.00  0.00    -0.075 N 
ATOM     36 3H11 UNL     1      46.123-399.753  15.367  1.00  0.00     0.274 HD
ATOM     37 2H11 UNL     1      44.956-398.800  15.153  1.00  0.00     0.274 HD
ATOM     38 1H11 UNL     1      46.150-398.300  16.271  1.00  0.00     0.274 HD
ENDBRANCH  34  35
ENDBRANCH   8  34
TORSDOF 12
ENDMDL
