MODEL 1
REMARK VINA RESULT: -6.629190065      0.000      0.000
REMARK  13 active torsions:
REMARK  status: ('A' for Active; 'I' for Inactive)
REMARK    1  A    between atoms: N1_1  and  C1_4 
REMARK    2  A    between atoms: C3_8  and  N3_9 
REMARK    3  A    between atoms: C4_14  and  N5_15 
REMARK    4  A    between atoms: N5_15  and  C5_16 
REMARK    5  A    between atoms: N5_15  and  C6_19 
REMARK    6  A    between atoms: C5_16  and  O1_17 
REMARK    7  A    between atoms: C6_19  and  C7_20 
REMARK    8  A    between atoms: C7_20  and  O2_21 
REMARK    9  A    between atoms: C9_26  and  N7_27 
REMARK   10  A    between atoms: N7_27  and  N8_29 
REMARK   11  A    between atoms: N8_29  and  N9_30 
REMARK   12  A    between atoms: N8_29  and  C10_33 
REMARK   13  A    between atoms: C10_33  and  N10_34 
ROOT
HETATM    1  C1  UNL     1      42.824-400.817  16.059  1.00  0.00     0.678 A 
HETATM    2  N2  UNL     1      44.136-400.766  16.333  1.00  0.00    -0.186 N 
ATOM      3  H2  UNL     1      44.596-399.865  16.463  1.00  0.00     0.184 HD
HETATM    4  C2  UNL     1      44.846-401.904  16.438  1.00  0.00     0.124 A 
HETATM    5  C3  UNL     1      46.192-401.925  16.718  1.00  0.00     0.144 A 
HETATM    6  N4  UNL     1      46.861-403.103  16.814  1.00  0.00    -0.175 N 
ATOM      7  H4  UNL     1      47.860-403.119  17.023  1.00  0.00     0.186 HD
HETATM    8  C4  UNL     1      46.187-404.240  16.631  1.00  0.00     0.684 A 
HETATM    9  N6  UNL     1      44.854-404.278  16.351  1.00  0.00    -0.185 N 
ATOM     10  H6  UNL     1      44.373-405.167  16.216  1.00  0.00     0.184 HD
HETATM   11  C8  UNL     1      44.191-403.113  16.256  1.00  0.00     0.125 A 
HETATM   12  C9  UNL     1      42.817-403.139  15.969  1.00  0.00     0.162 A 
HETATM   13  N11 UNL     1      42.175-401.979  15.880  1.00  0.00    -0.173 N 
ATOM     14  H11 UNL     1      41.176-401.972  15.673  1.00  0.00     0.186 HD
ENDROOT
BRANCH  12  15
HETATM   15  N7  UNL     1      42.229-404.419  15.801  1.00  0.00    -0.283 N 
ATOM     16  H7  UNL     1      41.655-404.800  16.553  1.00  0.00     0.184 HD
BRANCH  15  17
HETATM   17  N8  UNL     1      42.410-405.182  14.635  1.00  0.00    -0.119 NA
BRANCH  17  18
HETATM   18  N9  UNL     1      42.193-404.404  13.489  1.00  0.00    -0.344 NA
ATOM     19  H92 UNL     1      41.915-403.466  13.778  1.00  0.00     0.172 HD
ATOM     20  H91 UNL     1      43.046-404.323  12.936  1.00  0.00     0.172 HD
ENDBRANCH  17  18
BRANCH  17  21
HETATM   21  C10 UNL     1      41.448-406.259  14.653  1.00  0.00     0.367 C 
BRANCH  21  22
HETATM   22  N10 UNL     1      41.082-406.686  15.972  1.00  0.00    -0.064 N 
ATOM     23 3H10 UNL     1      41.643-407.488  16.258  1.00  0.00     0.275 HD
ATOM     24 2H10 UNL     1      41.389-406.006  16.668  1.00  0.00     0.275 HD
ATOM     25 1H10 UNL     1      40.087-406.885  16.080  1.00  0.00     0.275 HD
ENDBRANCH  21  22
ENDBRANCH  17  21
ENDBRANCH  15  17
ENDBRANCH  12  15
BRANCH   1  26
HETATM   26  N1  UNL     1      42.198-399.705  15.969  1.00  0.00    -0.234 N 
ATOM     27  H12 UNL     1      42.698-398.822  16.071  1.00  0.00     0.174 HD
ATOM     28  H11 UNL     1      41.194-399.744  15.796  1.00  0.00     0.174 HD
ENDBRANCH   1  26
BRANCH   5  29
HETATM   29  N3  UNL     1      46.830-400.841  16.887  1.00  0.00    -0.383 N 
ATOM     30  H32 UNL     1      47.008-400.241  16.081  1.00  0.00     0.157 HD
ATOM     31  H31 UNL     1      47.158-400.573  17.815  1.00  0.00     0.157 HD
ENDBRANCH   5  29
BRANCH   8  32
HETATM   32  N5  UNL     1      46.909-405.467  16.731  1.00  0.00    -0.195 N 
BRANCH  32  33
HETATM   33  C5  UNL     1      46.188-406.704  16.765  1.00  0.00     0.308 C 
BRANCH  33  34
HETATM   34  O1  UNL     1      46.241-407.307  18.019  1.00  0.00    -0.381 OA
ATOM     35  H1  UNL     1      46.595-408.187  17.977  1.00  0.00     0.211 HD
ENDBRANCH  33  34
ENDBRANCH  32  33
BRANCH  32  36
HETATM   36  C6  UNL     1      48.336-405.401  16.779  1.00  0.00     0.169 C 
BRANCH  36  37
HETATM   37  C7  UNL     1      48.974-405.673  15.436  1.00  0.00     0.184 C 
BRANCH  37  38
HETATM   38  O2  UNL     1      49.817-406.800  15.557  1.00  0.00    -0.399 OA
ATOM     39  H2  UNL     1      50.258-406.760  16.397  1.00  0.00     0.209 HD
ENDBRANCH  37  38
ENDBRANCH  36  37
ENDBRANCH  32  36
ENDBRANCH   8  32
TORSDOF 13
ENDMDL
MODEL 2
REMARK VINA RESULT: -6.538822436      2.535      5.727
REMARK  13 active torsions:
REMARK  status: ('A' for Active; 'I' for Inactive)
REMARK    1  A    between atoms: N1_1  and  C1_4 
REMARK    2  A    between atoms: C3_8  and  N3_9 
REMARK    3  A    between atoms: C4_14  and  N5_15 
REMARK    4  A    between atoms: N5_15  and  C5_16 
REMARK    5  A    between atoms: N5_15  and  C6_19 
REMARK    6  A    between atoms: C5_16  and  O1_17 
REMARK    7  A    between atoms: C6_19  and  C7_20 
REMARK    8  A    between atoms: C7_20  and  O2_21 
REMARK    9  A    between atoms: C9_26  and  N7_27 
REMARK   10  A    between atoms: N7_27  and  N8_29 
REMARK   11  A    between atoms: N8_29  and  N9_30 
REMARK   12  A    between atoms: N8_29  and  C10_33 
REMARK   13  A    between atoms: C10_33  and  N10_34 
ROOT
HETATM    1  C1  UNL     1      47.093-402.405  15.894  1.00  0.00     0.678 A 
HETATM    2  N2  UNL     1      45.787-402.654  15.721  1.00  0.00    -0.186 N 
ATOM      3  H2  UNL     1      45.164-401.912  15.403  1.00  0.00     0.184 HD
HETATM    4  C2  UNL     1      45.298-403.883  15.966  1.00  0.00     0.124 A 
HETATM    5  C3  UNL     1      43.972-404.207  15.809  1.00  0.00     0.144 A 
HETATM    6  N4  UNL     1      43.531-405.466  16.069  1.00  0.00    -0.175 N 
ATOM      7  H4  UNL     1      42.546-405.706  15.951  1.00  0.00     0.186 HD
HETATM    8  C4  UNL     1      44.410-406.381  16.482  1.00  0.00     0.684 A 
HETATM    9  N6  UNL     1      45.735-406.114  16.655  1.00  0.00    -0.185 N 
ATOM     10  H6  UNL     1      46.377-406.840  16.973  1.00  0.00     0.184 HD
HETATM   11  C8  UNL     1      46.173-404.869  16.397  1.00  0.00     0.125 A 
HETATM   12  C9  UNL     1      47.536-404.583  16.570  1.00  0.00     0.162 A 
HETATM   13  N11 UNL     1      47.953-403.349  16.311  1.00  0.00    -0.173 N 
ATOM     14  H11 UNL     1      48.939-403.116  16.429  1.00  0.00     0.186 HD
ENDROOT
BRANCH  12  15
HETATM   15  N7  UNL     1      48.357-405.653  17.012  1.00  0.00    -0.283 N 
ATOM     16  H7  UNL     1      47.956-406.359  17.630  1.00  0.00     0.184 HD
BRANCH  15  17
HETATM   17  N8  UNL     1      49.703-405.775  16.628  1.00  0.00    -0.119 NA
BRANCH  17  18
HETATM   18  N9  UNL     1      49.844-406.694  15.579  1.00  0.00    -0.344 NA
ATOM     19  H92 UNL     1      50.114-407.597  15.969  1.00  0.00     0.172 HD
ATOM     20  H91 UNL     1      48.962-406.817  15.082  1.00  0.00     0.172 HD
ENDBRANCH  17  18
BRANCH  17  21
HETATM   21  C10 UNL     1      50.449-406.256  17.768  1.00  0.00     0.367 C 
BRANCH  21  22
HETATM   22  N10 UNL     1      51.473-407.202  17.432  1.00  0.00    -0.064 N 
ATOM     23 3H10 UNL     1      51.289-407.622  16.522  1.00  0.00     0.275 HD
ATOM     24 2H10 UNL     1      52.350-406.723  17.226  1.00  0.00     0.275 HD
ATOM     25 1H10 UNL     1      51.616-407.923  18.140  1.00  0.00     0.275 HD
ENDBRANCH  21  22
ENDBRANCH  17  21
ENDBRANCH  15  17
ENDBRANCH  12  15
BRANCH   1  26
HETATM   26  N1  UNL     1      47.504-401.219  15.647  1.00  0.00    -0.234 N 
ATOM     27  H12 UNL     1      47.348-400.798  14.731  1.00  0.00     0.174 HD
ATOM     28  H11 UNL     1      47.988-400.724  16.396  1.00  0.00     0.174 HD
ENDBRANCH   1  26
BRANCH   5  29
HETATM   29  N3  UNL     1      43.138-403.332  15.421  1.00  0.00    -0.383 N 
ATOM     30  H32 UNL     1      43.386-402.346  15.495  1.00  0.00     0.157 HD
ATOM     31  H31 UNL     1      42.234-403.613  15.038  1.00  0.00     0.157 HD
ENDBRANCH   5  29
BRANCH   8  32
HETATM   32  N5  UNL     1      43.926-407.695  16.754  1.00  0.00    -0.195 N 
BRANCH  32  33
HETATM   33  C5  UNL     1      44.830-408.804  16.684  1.00  0.00     0.308 C 
BRANCH  33  34
HETATM   34  O1  UNL     1      45.352-408.973  15.405  1.00  0.00    -0.381 OA
ATOM     35  H1  UNL     1      46.211-409.379  15.420  1.00  0.00     0.211 HD
ENDBRANCH  33  34
ENDBRANCH  32  33
BRANCH  32  36
HETATM   36  C6  UNL     1      42.547-407.841  17.103  1.00  0.00     0.169 C 
BRANCH  36  37
HETATM   37  C7  UNL     1      41.763-408.600  16.058  1.00  0.00     0.184 C 
BRANCH  37  38
HETATM   38  O2  UNL     1      41.906-407.941  14.818  1.00  0.00    -0.399 OA
ATOM     39  H2  UNL     1      41.119-407.437  14.649  1.00  0.00     0.209 HD
ENDBRANCH  37  38
ENDBRANCH  36  37
ENDBRANCH  32  36
ENDBRANCH   8  32
TORSDOF 13
ENDMDL
MODEL 3
REMARK VINA RESULT: -6.534764881      1.945      4.484
REMARK  13 active torsions:
REMARK  status: ('A' for Active; 'I' for Inactive)
REMARK    1  A    between atoms: N1_1  and  C1_4 
REMARK    2  A    between atoms: C3_8  and  N3_9 
REMARK    3  A    between atoms: C4_14  and  N5_15 
REMARK    4  A    between atoms: N5_15  and  C5_16 
REMARK    5  A    between atoms: N5_15  and  C6_19 
REMARK    6  A    between atoms: C5_16  and  O1_17 
REMARK    7  A    between atoms: C6_19  and  C7_20 
REMARK    8  A    between atoms: C7_20  and  O2_21 
REMARK    9  A    between atoms: C9_26  and  N7_27 
REMARK   10  A    between atoms: N7_27  and  N8_29 
REMARK   11  A    between atoms: N8_29  and  N9_30 
REMARK   12  A    between atoms: N8_29  and  C10_33 
REMARK   13  A    between atoms: C10_33  and  N10_34 
ROOT
HETATM    1  C1  UNL     1      42.059-405.488  16.017  1.00  0.00     0.678 A 
HETATM    2  N2  UNL     1      43.024-406.408  16.158  1.00  0.00    -0.186 N 
ATOM      3  H2  UNL     1      42.782-407.398  16.207  1.00  0.00     0.184 HD
HETATM    4  C2  UNL     1      44.311-406.027  16.236  1.00  0.00     0.124 A 
HETATM    5  C3  UNL     1      45.349-406.916  16.381  1.00  0.00     0.144 A 
HETATM    6  N4  UNL     1      46.633-406.477  16.452  1.00  0.00    -0.175 N 
ATOM      7  H4  UNL     1      47.404-407.137  16.558  1.00  0.00     0.186 HD
HETATM    8  C4  UNL     1      46.866-405.165  16.382  1.00  0.00     0.684 A 
HETATM    9  N6  UNL     1      45.877-404.240  16.240  1.00  0.00    -0.185 N 
ATOM     10  H6  UNL     1      46.094-403.244  16.191  1.00  0.00     0.184 HD
HETATM   11  C8  UNL     1      44.606-404.673  16.167  1.00  0.00     0.125 A 
HETATM   12  C9  UNL     1      43.577-403.730  16.020  1.00  0.00     0.162 A 
HETATM   13  N11 UNL     1      42.328-404.173  15.949  1.00  0.00    -0.173 N 
ATOM     14  H11 UNL     1      41.563-403.508  15.841  1.00  0.00     0.186 HD
ENDROOT
BRANCH  12  15
HETATM   15  N7  UNL     1      43.971-402.368  15.956  1.00  0.00    -0.283 N 
ATOM     16  H7  UNL     1      43.766-401.835  15.111  1.00  0.00     0.184 HD
BRANCH  15  17
HETATM   17  N8  UNL     1      44.635-401.727  17.016  1.00  0.00    -0.119 NA
BRANCH  17  18
HETATM   18  N9  UNL     1      44.370-402.369  18.234  1.00  0.00    -0.344 NA
ATOM     19  H92 UNL     1      45.227-402.390  18.786  1.00  0.00     0.172 HD
ATOM     20  H91 UNL     1      43.664-401.860  18.768  1.00  0.00     0.172 HD
ENDBRANCH  17  18
BRANCH  17  21
HETATM   21  C10 UNL     1      44.145-400.370  17.092  1.00  0.00     0.367 C 
BRANCH  21  22
HETATM   22  N10 UNL     1      43.573-399.892  15.868  1.00  0.00    -0.064 N 
ATOM     23 3H10 UNL     1      43.753-400.547  15.107  1.00  0.00     0.275 HD
ATOM     24 2H10 UNL     1      42.555-399.945  15.902  1.00  0.00     0.275 HD
ATOM     25 1H10 UNL     1      43.875-398.952  15.611  1.00  0.00     0.275 HD
ENDBRANCH  21  22
ENDBRANCH  17  21
ENDBRANCH  15  17
ENDBRANCH  12  15
BRANCH   1  26
HETATM   26  N1  UNL     1      40.852-405.906  15.950  1.00  0.00    -0.234 N 
ATOM     27  H12 UNL     1      40.422-406.100  15.045  1.00  0.00     0.174 HD
ATOM     28  H11 UNL     1      40.349-406.033  16.827  1.00  0.00     0.174 HD
ENDBRANCH   1  26
BRANCH   5  29
HETATM   29  N3  UNL     1      45.122-408.163  16.452  1.00  0.00    -0.383 N 
ATOM     30  H32 UNL     1      44.360-408.559  15.903  1.00  0.00     0.157 HD
ATOM     31  H31 UNL     1      45.696-408.760  17.049  1.00  0.00     0.157 HD
ENDBRANCH   5  29
BRANCH   8  32
HETATM   32  N5  UNL     1      48.221-404.724  16.464  1.00  0.00    -0.195 N 
BRANCH  32  33
HETATM   33  C5  UNL     1      49.265-405.693  16.623  1.00  0.00     0.308 C 
BRANCH  33  34
HETATM   34  O1  UNL     1      49.510-406.395  15.447  1.00  0.00    -0.381 OA
ATOM     35  H1  UNL     1      50.399-406.272  15.136  1.00  0.00     0.211 HD
ENDBRANCH  33  34
ENDBRANCH  32  33
BRANCH  32  36
HETATM   36  C6  UNL     1      48.475-403.320  16.368  1.00  0.00     0.169 C 
BRANCH  36  37
HETATM   37  C7  UNL     1      48.655-402.671  17.721  1.00  0.00     0.184 C 
BRANCH  37  38
HETATM   38  O2  UNL     1      47.383-402.324  18.228  1.00  0.00    -0.399 OA
ATOM     39  H2  UNL     1      46.784-403.042  18.060  1.00  0.00     0.209 HD
ENDBRANCH  37  38
ENDBRANCH  36  37
ENDBRANCH  32  36
ENDBRANCH   8  32
TORSDOF 13
ENDMDL
MODEL 4
REMARK VINA RESULT: -6.521429678      2.701      6.329
REMARK  13 active torsions:
REMARK  status: ('A' for Active; 'I' for Inactive)
REMARK    1  A    between atoms: N1_1  and  C1_4 
REMARK    2  A    between atoms: C3_8  and  N3_9 
REMARK    3  A    between atoms: C4_14  and  N5_15 
REMARK    4  A    between atoms: N5_15  and  C5_16 
REMARK    5  A    between atoms: N5_15  and  C6_19 
REMARK    6  A    between atoms: C5_16  and  O1_17 
REMARK    7  A    between atoms: C6_19  and  C7_20 
REMARK    8  A    between atoms: C7_20  and  O2_21 
REMARK    9  A    between atoms: C9_26  and  N7_27 
REMARK   10  A    between atoms: N7_27  and  N8_29 
REMARK   11  A    between atoms: N8_29  and  N9_30 
REMARK   12  A    between atoms: N8_29  and  C10_33 
REMARK   13  A    between atoms: C10_33  and  N10_34 
ROOT
HETATM    1  C1  UNL     1      44.784-407.627  16.162  1.00  0.00     0.678 A 
HETATM    2  N2  UNL     1      43.644-406.926  16.074  1.00  0.00    -0.186 N 
ATOM      3  H2  UNL     1      42.761-407.408  15.908  1.00  0.00     0.184 HD
HETATM    4  C2  UNL     1      43.665-405.587  16.206  1.00  0.00     0.124 A 
HETATM    5  C3  UNL     1      42.535-404.808  16.128  1.00  0.00     0.144 A 
HETATM    6  N4  UNL     1      42.613-403.459  16.271  1.00  0.00    -0.175 N 
ATOM      7  H4  UNL     1      41.774-402.881  16.214  1.00  0.00     0.186 HD
HETATM    8  C4  UNL     1      43.808-402.905  16.487  1.00  0.00     0.684 A 
HETATM    9  N6  UNL     1      44.959-403.629  16.572  1.00  0.00    -0.185 N 
ATOM     10  H6  UNL     1      45.854-403.169  16.737  1.00  0.00     0.184 HD
HETATM   11  C8  UNL     1      44.883-404.964  16.432  1.00  0.00     0.125 A 
HETATM   12  C9  UNL     1      46.062-405.720  16.520  1.00  0.00     0.162 A 
HETATM   13  N11 UNL     1      45.972-407.038  16.380  1.00  0.00    -0.173 N 
ATOM     14  H11 UNL     1      46.814-407.609  16.440  1.00  0.00     0.186 HD
ENDROOT
BRANCH  12  15
HETATM   15  N7  UNL     1      47.262-404.999  16.755  1.00  0.00    -0.283 N 
ATOM     16  H7  UNL     1      47.264-403.989  16.613  1.00  0.00     0.184 HD
BRANCH  15  17
HETATM   17  N8  UNL     1      48.446-405.627  17.176  1.00  0.00    -0.119 NA
BRANCH  17  18
HETATM   18  N9  UNL     1      48.236-406.355  18.354  1.00  0.00    -0.344 NA
ATOM     19  H92 UNL     1      47.755-405.757  19.027  1.00  0.00     0.172 HD
ATOM     20  H91 UNL     1      47.645-407.169  18.179  1.00  0.00     0.172 HD
ENDBRANCH  17  18
BRANCH  17  21
HETATM   21  C10 UNL     1      49.427-404.599  17.436  1.00  0.00     0.367 C 
BRANCH  21  22
HETATM   22  N10 UNL     1      49.007-403.286  17.042  1.00  0.00    -0.064 N 
ATOM     23 3H10 UNL     1      48.578-403.308  16.117  1.00  0.00     0.275 HD
ATOM     24 2H10 UNL     1      48.205-402.983  17.595  1.00  0.00     0.275 HD
ATOM     25 1H10 UNL     1      49.751-402.588  17.077  1.00  0.00     0.275 HD
ENDBRANCH  21  22
ENDBRANCH  17  21
ENDBRANCH  15  17
ENDBRANCH  12  15
BRANCH   1  26
HETATM   26  N1  UNL     1      44.706-408.896  16.028  1.00  0.00    -0.234 N 
ATOM     27  H12 UNL     1      44.847-409.510  16.830  1.00  0.00     0.174 HD
ATOM     28  H11 UNL     1      44.502-409.258  15.097  1.00  0.00     0.174 HD
ENDBRANCH   1  26
BRANCH   5  29
HETATM   29  N3  UNL     1      41.402-405.339  15.918  1.00  0.00    -0.383 N 
ATOM     30  H32 UNL     1      40.752-404.880  15.280  1.00  0.00     0.157 HD
ATOM     31  H31 UNL     1      41.146-406.213  16.379  1.00  0.00     0.157 HD
ENDBRANCH   5  29
BRANCH   8  32
HETATM   32  N5  UNL     1      43.868-401.486  16.628  1.00  0.00    -0.195 N 
BRANCH  32  33
HETATM   33  C5  UNL     1      42.742-400.694  16.230  1.00  0.00     0.308 C 
BRANCH  33  34
HETATM   34  O1  UNL     1      41.744-400.678  17.200  1.00  0.00    -0.381 OA
ATOM     35  H1  UNL     1      41.570-399.801  17.519  1.00  0.00     0.211 HD
ENDBRANCH  33  34
ENDBRANCH  32  33
BRANCH  32  36
HETATM   36  C6  UNL     1      45.058-400.919  17.182  1.00  0.00     0.169 C 
BRANCH  36  37
HETATM   37  C7  UNL     1      44.943-400.668  18.668  1.00  0.00     0.184 C 
BRANCH  37  38
HETATM   38  O2  UNL     1      44.947-401.912  19.337  1.00  0.00    -0.399 OA
ATOM     39  H2  UNL     1      45.549-401.860  20.070  1.00  0.00     0.209 HD
ENDBRANCH  37  38
ENDBRANCH  36  37
ENDBRANCH  32  36
ENDBRANCH   8  32
TORSDOF 13
ENDMDL
MODEL 5
REMARK VINA RESULT: -6.502370684      0.681      1.809
REMARK  13 active torsions:
REMARK  status: ('A' for Active; 'I' for Inactive)
REMARK    1  A    between atoms: N1_1  and  C1_4 
REMARK    2  A    between atoms: C3_8  and  N3_9 
REMARK    3  A    between atoms: C4_14  and  N5_15 
REMARK    4  A    between atoms: N5_15  and  C5_16 
REMARK    5  A    between atoms: N5_15  and  C6_19 
REMARK    6  A    between atoms: C5_16  and  O1_17 
REMARK    7  A    between atoms: C6_19  and  C7_20 
REMARK    8  A    between atoms: C7_20  and  O2_21 
REMARK    9  A    between atoms: C9_26  and  N7_27 
REMARK   10  A    between atoms: N7_27  and  N8_29 
REMARK   11  A    between atoms: N8_29  and  N9_30 
REMARK   12  A    between atoms: N8_29  and  C10_33 
REMARK   13  A    between atoms: C10_33  and  N10_34 
ROOT
HETATM    1  C1  UNL     1      42.594-400.866  16.242  1.00  0.00     0.678 A 
HETATM    2  N2  UNL     1      43.922-400.743  16.377  1.00  0.00    -0.186 N 
ATOM      3  H2  UNL     1      44.340-399.819  16.489  1.00  0.00     0.184 HD
HETATM    4  C2  UNL     1      44.704-401.838  16.366  1.00  0.00     0.124 A 
HETATM    5  C3  UNL     1      46.071-401.784  16.500  1.00  0.00     0.144 A 
HETATM    6  N4  UNL     1      46.814-402.922  16.484  1.00  0.00    -0.175 N 
ATOM      7  H4  UNL     1      47.828-402.882  16.585  1.00  0.00     0.186 HD
HETATM    8  C4  UNL     1      46.190-404.092  16.333  1.00  0.00     0.684 A 
HETATM    9  N6  UNL     1      44.840-404.203  16.195  1.00  0.00    -0.185 N 
ATOM     10  H6  UNL     1      44.399-405.116  16.082  1.00  0.00     0.184 HD
HETATM   11  C8  UNL     1      44.104-403.078  16.213  1.00  0.00     0.125 A 
HETATM   12  C9  UNL     1      42.711-403.180  16.073  1.00  0.00     0.162 A 
HETATM   13  N11 UNL     1      41.997-402.061  16.093  1.00  0.00    -0.173 N 
ATOM     14  H11 UNL     1      40.983-402.108  15.994  1.00  0.00     0.186 HD
ENDROOT
BRANCH  12  15
HETATM   15  N7  UNL     1      42.183-404.489  15.924  1.00  0.00    -0.283 N 
ATOM     16  H7  UNL     1      41.656-404.898  16.695  1.00  0.00     0.184 HD
BRANCH  15  17
HETATM   17  N8  UNL     1      42.362-405.242  14.750  1.00  0.00    -0.119 NA
BRANCH  17  18
HETATM   18  N9  UNL     1      42.193-404.443  13.612  1.00  0.00    -0.344 NA
ATOM     19  H92 UNL     1      42.969-404.615  12.973  1.00  0.00     0.172 HD
ATOM     20  H91 UNL     1      41.327-404.679  13.125  1.00  0.00     0.172 HD
ENDBRANCH  17  18
BRANCH  17  21
HETATM   21  C10 UNL     1      41.363-406.286  14.735  1.00  0.00     0.367 C 
BRANCH  21  22
HETATM   22  N10 UNL     1      41.344-407.086  15.925  1.00  0.00    -0.064 N 
ATOM     23 3H10 UNL     1      42.250-407.531  16.073  1.00  0.00     0.275 HD
ATOM     24 2H10 UNL     1      41.307-406.494  16.755  1.00  0.00     0.275 HD
ATOM     25 1H10 UNL     1      40.595-407.778  15.944  1.00  0.00     0.275 HD
ENDBRANCH  21  22
ENDBRANCH  17  21
ENDBRANCH  15  17
ENDBRANCH  12  15
BRANCH   1  26
HETATM   26  N1  UNL     1      41.898-399.793  16.259  1.00  0.00    -0.234 N 
ATOM     27  H12 UNL     1      42.348-398.888  16.399  1.00  0.00     0.174 HD
ATOM     28  H11 UNL     1      40.891-399.884  16.128  1.00  0.00     0.174 HD
ENDBRANCH   1  26
BRANCH   5  29
HETATM   29  N3  UNL     1      46.660-400.668  16.638  1.00  0.00    -0.383 N 
ATOM     30  H32 UNL     1      46.280-399.847  16.168  1.00  0.00     0.157 HD
ATOM     31  H31 UNL     1      47.500-400.594  17.213  1.00  0.00     0.157 HD
ENDBRANCH   5  29
BRANCH   8  32
HETATM   32  N5  UNL     1      46.989-405.275  16.314  1.00  0.00    -0.195 N 
BRANCH  32  33
HETATM   33  C5  UNL     1      48.224-405.274  15.587  1.00  0.00     0.308 C 
BRANCH  33  34
HETATM   34  O1  UNL     1      49.057-406.321  15.969  1.00  0.00    -0.381 OA
ATOM     35  H1  UNL     1      49.191-406.946  15.266  1.00  0.00     0.211 HD
ENDBRANCH  33  34
ENDBRANCH  32  33
BRANCH  32  36
HETATM   36  C6  UNL     1      46.520-406.412  17.042  1.00  0.00     0.169 C 
BRANCH  36  37
HETATM   37  C7  UNL     1      45.451-407.177  16.294  1.00  0.00     0.184 C 
BRANCH  37  38
HETATM   38  O2  UNL     1      44.194-406.854  16.849  1.00  0.00    -0.399 OA
ATOM     39  H2  UNL     1      44.227-407.008  17.786  1.00  0.00     0.209 HD
ENDBRANCH  37  38
ENDBRANCH  36  37
ENDBRANCH  32  36
ENDBRANCH   8  32
TORSDOF 13
ENDMDL
