MODEL 1
REMARK VINA RESULT: -7.815257591      0.000      0.000
REMARK  4 active torsions:
REMARK  status: ('A' for Active; 'I' for Inactive)
REMARK    1  A    between atoms: C8_8  and  N1_9 
REMARK       I    between atoms: N1_9  and  C10_11 
REMARK    2  A    between atoms: C10_11  and  C11_13 
REMARK    3  A    between atoms: N2_15  and  C13_16 
REMARK    4  A    between atoms: C15_18  and  C16_19 
ROOT
HETATM    1  C11 UNL     1     -12.245   7.716  -1.543  1.00  0.00     0.131 C 
HETATM    2  C12 UNL     1     -13.267   6.655  -1.104  1.00  0.00     0.141 C 
HETATM    3  N2  UNL     1     -12.932   6.287   0.240  1.00  0.00    -0.363 N 
HETATM    4  C19 UNL     1     -11.948   7.229   0.729  1.00  0.00     0.162 C 
HETATM    5  C20 UNL     1     -11.133   7.426  -0.561  1.00  0.00     0.202 C 
HETATM    6  F1  UNL     1     -10.254   8.459  -0.410  1.00  0.00    -0.247 F 
ENDROOT
BRANCH   1   7
HETATM    7  C10 UNL     1     -11.893   7.452  -2.930  1.00  0.00     0.228 C 
HETATM    8  N1  UNL     1     -12.546   7.917  -4.095  1.00  0.00    -0.351 N 
HETATM    9  C9  UNL     1     -13.732   8.728  -3.929  1.00  0.00     0.153 C 
HETATM   10  O1  UNL     1     -10.870   6.712  -3.158  1.00  0.00    -0.273 OA
BRANCH   8  11
HETATM   11  C8  UNL     1     -12.099   7.613  -5.437  1.00  0.00     0.090 C 
HETATM   12  C7  UNL     1     -13.265   7.579  -6.411  1.00  0.00     0.026 C 
HETATM   13  C6  UNL     1     -13.095   6.415  -7.343  1.00  0.00     0.002 C 
HETATM   14  C5  UNL     1     -13.475   6.887  -8.729  1.00  0.00     0.000 C 
HETATM   15  C4  UNL     1     -12.722   8.126  -9.133  1.00  0.00     0.004 C 
HETATM   16  C3  UNL     1     -11.313   8.147  -8.624  1.00  0.00     0.033 C 
HETATM   17  C2  UNL     1     -11.131   8.883  -7.366  1.00  0.00    -0.087 C 
HETATM   18  C1  UNL     1     -11.037  10.189  -7.552  1.00  0.00     0.014 C 
HETATM   19  C21 UNL     1     -11.022   8.552  -5.923  1.00  0.00     0.058 C 
ENDBRANCH   8  11
ENDBRANCH   1   7
BRANCH   3  20
HETATM   20  C13 UNL     1     -13.470   5.196   0.956  1.00  0.00     0.119 A 
HETATM   21  C14 UNL     1     -12.759   4.355   1.791  1.00  0.00     0.076 A 
HETATM   22  C15 UNL     1     -13.619   3.416   2.310  1.00  0.00     0.033 A 
HETATM   23  N3  UNL     1     -14.824   3.697   1.789  1.00  0.00    -0.303 N 
HETATM   24  N4  UNL     1     -14.740   4.746   0.992  1.00  0.00    -0.285 N 
ATOM     25  H3  UNL     1     -15.680   3.177   1.982  1.00  0.00     0.186 HD
ATOM     26  H4  UNL     1     -15.522   5.154   0.478  1.00  0.00     0.188 HD
BRANCH  22  27
HETATM   27  C16 UNL     1     -13.273   2.304   3.264  1.00  0.00     0.029 C 
HETATM   28  C17 UNL     1     -14.435   2.173   4.217  1.00  0.00     0.016 C 
HETATM   29  C18 UNL     1     -12.085   2.819   4.085  1.00  0.00     0.016 C 
ENDBRANCH  22  27
ENDBRANCH   3  20
TORSDOF 4
ENDMDL
MODEL 2
REMARK VINA RESULT: -7.811539961      1.132      1.210
REMARK  4 active torsions:
REMARK  status: ('A' for Active; 'I' for Inactive)
REMARK    1  A    between atoms: C8_8  and  N1_9 
REMARK       I    between atoms: N1_9  and  C10_11 
REMARK    2  A    between atoms: C10_11  and  C11_13 
REMARK    3  A    between atoms: N2_15  and  C13_16 
REMARK    4  A    between atoms: C15_18  and  C16_19 
ROOT
HETATM    1  C11 UNL     1     -10.972   7.724  -1.026  1.00  0.00     0.131 C 
HETATM    2  C12 UNL     1     -12.226   6.979  -0.542  1.00  0.00     0.141 C 
HETATM    3  N2  UNL     1     -11.851   6.256   0.638  1.00  0.00    -0.363 N 
HETATM    4  C19 UNL     1     -10.538   6.714   1.043  1.00  0.00     0.162 C 
HETATM    5  C20 UNL     1      -9.903   6.900  -0.346  1.00  0.00     0.202 C 
HETATM    6  F1  UNL     1      -8.704   7.546  -0.233  1.00  0.00    -0.247 F 
ENDROOT
BRANCH   1   7
HETATM    7  C10 UNL     1     -10.941   7.652  -2.478  1.00  0.00     0.228 C 
HETATM    8  N1  UNL     1     -11.515   8.552  -3.406  1.00  0.00    -0.351 N 
HETATM    9  C9  UNL     1     -12.262   9.675  -2.884  1.00  0.00     0.153 C 
HETATM   10  O1  UNL     1     -10.323   6.664  -3.015  1.00  0.00    -0.273 OA
BRANCH   8  11
HETATM   11  C8  UNL     1     -11.407   8.400  -4.840  1.00  0.00     0.090 C 
HETATM   12  C7  UNL     1     -12.552   7.570  -5.394  1.00  0.00     0.026 C 
HETATM   13  C6  UNL     1     -12.019   6.617  -6.424  1.00  0.00     0.002 C 
HETATM   14  C5  UNL     1     -13.001   6.600  -7.574  1.00  0.00     0.000 C 
HETATM   15  C4  UNL     1     -13.293   7.983  -8.093  1.00  0.00     0.004 C 
HETATM   16  C3  UNL     1     -12.098   8.886  -8.056  1.00  0.00     0.033 C 
HETATM   17  C2  UNL     1     -12.017   9.741  -6.866  1.00  0.00    -0.087 C 
HETATM   18  C1  UNL     1     -12.775  10.819  -6.963  1.00  0.00     0.014 C 
HETATM   19  C21 UNL     1     -11.303   9.720  -5.564  1.00  0.00     0.058 C 
ENDBRANCH   8  11
ENDBRANCH   1   7
BRANCH   3  20
HETATM   20  C13 UNL     1     -12.627   5.272   1.286  1.00  0.00     0.119 A 
HETATM   21  C14 UNL     1     -12.130   4.235   2.053  1.00  0.00     0.076 A 
HETATM   22  C15 UNL     1     -13.184   3.485   2.520  1.00  0.00     0.033 A 
HETATM   23  N3  UNL     1     -14.291   4.070   2.034  1.00  0.00    -0.303 N 
HETATM   24  N4  UNL     1     -13.966   5.123   1.308  1.00  0.00    -0.285 N 
ATOM     25  H3  UNL     1     -15.244   3.748   2.203  1.00  0.00     0.186 HD
ATOM     26  H4  UNL     1     -14.631   5.734   0.833  1.00  0.00     0.188 HD
BRANCH  22  27
HETATM   27  C16 UNL     1     -13.106   2.261   3.392  1.00  0.00     0.029 C 
HETATM   28  C17 UNL     1     -14.401   2.193   4.162  1.00  0.00     0.016 C 
HETATM   29  C18 UNL     1     -12.001   2.551   4.413  1.00  0.00     0.016 C 
ENDBRANCH  22  27
ENDBRANCH   3  20
TORSDOF 4
ENDMDL
MODEL 3
REMARK VINA RESULT: -7.783072617      3.079      4.420
REMARK  4 active torsions:
REMARK  status: ('A' for Active; 'I' for Inactive)
REMARK    1  A    between atoms: C8_8  and  N1_9 
REMARK       I    between atoms: N1_9  and  C10_11 
REMARK    2  A    between atoms: C10_11  and  C11_13 
REMARK    3  A    between atoms: N2_15  and  C13_16 
REMARK    4  A    between atoms: C15_18  and  C16_19 
ROOT
HETATM    1  C11 UNL     1     -12.759   6.520  -0.898  1.00  0.00     0.131 C 
HETATM    2  C12 UNL     1     -12.439   5.430   0.137  1.00  0.00     0.141 C 
HETATM    3  N2  UNL     1     -13.681   5.060   0.749  1.00  0.00    -0.363 N 
HETATM    4  C19 UNL     1     -14.753   5.659  -0.018  1.00  0.00     0.162 C 
HETATM    5  C20 UNL     1     -14.087   7.003  -0.362  1.00  0.00     0.202 C 
HETATM    6  F1  UNL     1     -14.836   7.679  -1.283  1.00  0.00    -0.247 F 
ENDROOT
BRANCH   1   7
HETATM    7  C10 UNL     1     -11.700   7.516  -0.841  1.00  0.00     0.228 C 
HETATM    8  N1  UNL     1     -11.316   8.435  -1.845  1.00  0.00    -0.351 N 
HETATM    9  C9  UNL     1     -12.015   8.385  -3.110  1.00  0.00     0.153 C 
HETATM   10  O1  UNL     1     -11.013   7.598   0.241  1.00  0.00    -0.273 OA
BRANCH   8  11
HETATM   11  C8  UNL     1     -10.256   9.405  -1.678  1.00  0.00     0.090 C 
HETATM   12  C7  UNL     1      -9.018   9.009  -2.464  1.00  0.00     0.026 C 
HETATM   13  C6  UNL     1      -7.799   9.266  -1.626  1.00  0.00     0.002 C 
HETATM   14  C5  UNL     1      -6.747   9.866  -2.532  1.00  0.00     0.000 C 
HETATM   15  C4  UNL     1      -7.259  11.070  -3.277  1.00  0.00     0.004 C 
HETATM   16  C3  UNL     1      -8.205  11.901  -2.466  1.00  0.00     0.033 C 
HETATM   17  C2  UNL     1      -9.625  11.606  -2.694  1.00  0.00    -0.087 C 
HETATM   18  C1  UNL     1     -10.099  12.199  -3.776  1.00  0.00     0.014 C 
HETATM   19  C21 UNL     1     -10.687  10.809  -2.029  1.00  0.00     0.058 C 
ENDBRANCH   8  11
ENDBRANCH   1   7
BRANCH   3  20
HETATM   20  C13 UNL     1     -13.829   4.253   1.897  1.00  0.00     0.119 A 
HETATM   21  C14 UNL     1     -12.871   4.065   2.875  1.00  0.00     0.076 A 
HETATM   22  C15 UNL     1     -13.375   3.218   3.833  1.00  0.00     0.033 A 
HETATM   23  N3  UNL     1     -14.618   2.907   3.427  1.00  0.00    -0.303 N 
HETATM   24  N4  UNL     1     -14.888   3.516   2.288  1.00  0.00    -0.285 N 
ATOM     25  H3  UNL     1     -15.258   2.291   3.927  1.00  0.00     0.186 HD
ATOM     26  H4  UNL     1     -15.769   3.439   1.778  1.00  0.00     0.188 HD
BRANCH  22  27
HETATM   27  C16 UNL     1     -12.675   2.740   5.076  1.00  0.00     0.029 C 
HETATM   28  C17 UNL     1     -12.702   3.885   6.058  1.00  0.00     0.016 C 
HETATM   29  C18 UNL     1     -11.209   2.539   4.673  1.00  0.00     0.016 C 
ENDBRANCH  22  27
ENDBRANCH   3  20
TORSDOF 4
ENDMDL
MODEL 4
REMARK VINA RESULT: -7.670178122      2.618      3.447
REMARK  4 active torsions:
REMARK  status: ('A' for Active; 'I' for Inactive)
REMARK    1  A    between atoms: C8_8  and  N1_9 
REMARK       I    between atoms: N1_9  and  C10_11 
REMARK    2  A    between atoms: C10_11  and  C11_13 
REMARK    3  A    between atoms: N2_15  and  C13_16 
REMARK    4  A    between atoms: C15_18  and  C16_19 
ROOT
HETATM    1  C11 UNL     1     -10.361   7.493  -0.597  1.00  0.00     0.131 C 
HETATM    2  C12 UNL     1     -11.617   6.618  -0.458  1.00  0.00     0.141 C 
HETATM    3  N2  UNL     1     -11.576   6.035   0.851  1.00  0.00    -0.363 N 
HETATM    4  C19 UNL     1     -10.526   6.694   1.599  1.00  0.00     0.162 C 
HETATM    5  C20 UNL     1      -9.494   6.870   0.472  1.00  0.00     0.202 C 
HETATM    6  F1  UNL     1      -8.475   7.679   0.889  1.00  0.00    -0.247 F 
ENDROOT
BRANCH   1   7
HETATM    7  C10 UNL     1      -9.847   7.327  -1.948  1.00  0.00     0.228 C 
HETATM    8  N1  UNL     1     -10.140   8.107  -3.091  1.00  0.00    -0.351 N 
HETATM    9  C9  UNL     1     -11.089   9.189  -2.947  1.00  0.00     0.153 C 
HETATM   10  O1  UNL     1      -9.023   6.366  -2.161  1.00  0.00    -0.273 OA
BRANCH   8  11
HETATM   11  C8  UNL     1      -9.554   7.869  -4.392  1.00  0.00     0.090 C 
HETATM   12  C7  UNL     1      -8.040   7.987  -4.344  1.00  0.00     0.026 C 
HETATM   13  C6  UNL     1      -7.565   8.732  -5.558  1.00  0.00     0.002 C 
HETATM   14  C5  UNL     1      -6.321   8.031  -6.058  1.00  0.00     0.000 C 
HETATM   15  C4  UNL     1      -6.547   6.559  -6.276  1.00  0.00     0.004 C 
HETATM   16  C3  UNL     1      -7.918   6.247  -6.790  1.00  0.00     0.033 C 
HETATM   17  C2  UNL     1      -8.888   5.875  -5.753  1.00  0.00    -0.087 C 
HETATM   18  C1  UNL     1      -8.783   4.607  -5.391  1.00  0.00     0.014 C 
HETATM   19  C21 UNL     1      -9.970   6.546  -4.989  1.00  0.00     0.058 C 
ENDBRANCH   8  11
ENDBRANCH   1   7
BRANCH   3  20
HETATM   20  C13 UNL     1     -12.412   5.001   1.322  1.00  0.00     0.119 A 
HETATM   21  C14 UNL     1     -12.076   4.077   2.293  1.00  0.00     0.076 A 
HETATM   22  C15 UNL     1     -13.142   3.230   2.487  1.00  0.00     0.033 A 
HETATM   23  N3  UNL     1     -14.098   3.648   1.640  1.00  0.00    -0.303 N 
HETATM   24  N4  UNL     1     -13.671   4.691   0.953  1.00  0.00    -0.285 N 
ATOM     25  H3  UNL     1     -15.019   3.221   1.543  1.00  0.00     0.186 HD
ATOM     26  H4  UNL     1     -14.214   5.189   0.247  1.00  0.00     0.188 HD
BRANCH  22  27
HETATM   27  C16 UNL     1     -13.216   2.075   3.448  1.00  0.00     0.029 C 
HETATM   28  C17 UNL     1     -14.553   2.170   4.140  1.00  0.00     0.016 C 
HETATM   29  C18 UNL     1     -12.148   2.355   4.512  1.00  0.00     0.016 C 
ENDBRANCH  22  27
ENDBRANCH   3  20
TORSDOF 4
ENDMDL
MODEL 5
REMARK VINA RESULT: -7.639945527      1.327      1.952
REMARK  4 active torsions:
REMARK  status: ('A' for Active; 'I' for Inactive)
REMARK    1  A    between atoms: C8_8  and  N1_9 
REMARK       I    between atoms: N1_9  and  C10_11 
REMARK    2  A    between atoms: C10_11  and  C11_13 
REMARK    3  A    between atoms: N2_15  and  C13_16 
REMARK    4  A    between atoms: C15_18  and  C16_19 
ROOT
HETATM    1  C11 UNL     1     -11.584   7.617  -0.880  1.00  0.00     0.131 C 
HETATM    2  C12 UNL     1     -12.760   6.943  -0.156  1.00  0.00     0.141 C 
HETATM    3  N2  UNL     1     -12.196   5.987   0.752  1.00  0.00    -0.363 N 
HETATM    4  C19 UNL     1     -10.768   6.218   0.812  1.00  0.00     0.162 C 
HETATM    5  C20 UNL     1     -10.514   6.573  -0.663  1.00  0.00     0.202 C 
HETATM    6  F1  UNL     1      -9.244   7.050  -0.821  1.00  0.00    -0.247 F 
ENDROOT
BRANCH   1   7
HETATM    7  C10 UNL     1     -11.962   7.797  -2.274  1.00  0.00     0.228 C 
HETATM    8  N1  UNL     1     -11.379   8.666  -3.226  1.00  0.00    -0.351 N 
HETATM    9  C9  UNL     1     -10.298   9.521  -2.790  1.00  0.00     0.153 C 
HETATM   10  O1  UNL     1     -12.936   7.095  -2.726  1.00  0.00    -0.273 OA
BRANCH   8  11
HETATM   11  C8  UNL     1     -11.819   8.754  -4.602  1.00  0.00     0.090 C 
HETATM   12  C7  UNL     1     -11.932   7.377  -5.232  1.00  0.00     0.026 C 
HETATM   13  C6  UNL     1     -11.380   7.425  -6.627  1.00  0.00     0.002 C 
HETATM   14  C5  UNL     1     -12.306   6.615  -7.507  1.00  0.00     0.000 C 
HETATM   15  C4  UNL     1     -13.739   7.060  -7.386  1.00  0.00     0.004 C 
HETATM   16  C3  UNL     1     -13.879   8.539  -7.203  1.00  0.00     0.033 C 
HETATM   17  C2  UNL     1     -14.004   8.972  -5.805  1.00  0.00    -0.087 C 
HETATM   18  C1  UNL     1     -15.236   8.842  -5.342  1.00  0.00     0.014 C 
HETATM   19  C21 UNL     1     -13.108   9.523  -4.757  1.00  0.00     0.058 C 
ENDBRANCH   8  11
ENDBRANCH   1   7
BRANCH   3  20
HETATM   20  C13 UNL     1     -12.911   4.998   1.459  1.00  0.00     0.119 A 
HETATM   21  C14 UNL     1     -12.349   4.010   2.245  1.00  0.00     0.076 A 
HETATM   22  C15 UNL     1     -13.356   3.236   2.772  1.00  0.00     0.033 A 
HETATM   23  N3  UNL     1     -14.501   3.760   2.304  1.00  0.00    -0.303 N 
HETATM   24  N4  UNL     1     -14.242   4.798   1.530  1.00  0.00    -0.285 N 
ATOM     25  H3  UNL     1     -15.434   3.407   2.515  1.00  0.00     0.186 HD
ATOM     26  H4  UNL     1     -14.946   5.365   1.057  1.00  0.00     0.188 HD
BRANCH  22  27
HETATM   27  C16 UNL     1     -13.202   2.048   3.683  1.00  0.00     0.029 C 
HETATM   28  C17 UNL     1     -14.414   2.029   4.581  1.00  0.00     0.016 C 
HETATM   29  C18 UNL     1     -11.997   2.367   4.576  1.00  0.00     0.016 C 
ENDBRANCH  22  27
ENDBRANCH   3  20
TORSDOF 4
ENDMDL
