MODEL 1
REMARK VINA RESULT: -8.239895240      0.000      0.000
REMARK  6 active torsions:
REMARK  status: ('A' for Active; 'I' for Inactive)
REMARK    1  A    between atoms: C2_2  and  O1_5 
REMARK    2  A    between atoms: O1_5  and  C5_6 
REMARK    3  A    between atoms: C5_6  and  C6_8 
REMARK    4  A    between atoms: C9_12  and  N1_13 
REMARK       I    between atoms: N1_13  and  C10_15 
REMARK    5  A    between atoms: C10_15  and  C11_17 
REMARK    6  A    between atoms: C16_22  and  C17_23 
ROOT
HETATM    1  N1  UNL     1      -4.008 -17.375  27.067  1.00  0.00    -0.321 N 
ATOM      2  H1  UNL     1      -4.658 -17.553  26.302  1.00  0.00     0.169 HD
HETATM    3  C10 UNL     1      -3.419 -16.108  27.091  1.00  0.00     0.257 C 
HETATM    4  O3  UNL     1      -2.610 -15.728  27.942  1.00  0.00    -0.267 OA
ENDROOT
BRANCH   1   5
HETATM    5  C9  UNL     1      -3.808 -18.465  27.996  1.00  0.00     0.058 A 
HETATM    6  C6  UNL     1      -2.700 -19.259  27.919  1.00  0.00     0.106 A 
HETATM    7  S1  UNL     1      -2.961 -20.399  29.185  1.00  0.00    -0.094 SA
HETATM    8  C7  UNL     1      -4.446 -19.837  29.767  1.00  0.00     0.053 A 
HETATM    9  C8  UNL     1      -4.709 -18.764  28.952  1.00  0.00     0.038 A 
BRANCH   6  10
HETATM   10  C5  UNL     1      -1.523 -19.217  27.032  1.00  0.00     0.303 C 
HETATM   11  O2  UNL     1      -0.741 -18.283  26.939  1.00  0.00    -0.259 OA
BRANCH  10  12
HETATM   12  O1  UNL     1      -1.248 -20.318  26.219  1.00  0.00    -0.307 OA
BRANCH  12  13
HETATM   13  C2  UNL     1      -1.641 -20.330  24.851  1.00  0.00     0.060 C 
HETATM   14  C1  UNL     1      -0.478 -20.599  23.942  1.00  0.00     0.046 C 
HETATM   15  C3  UNL     1      -2.597 -21.504  24.730  1.00  0.00     0.046 C 
HETATM   16  C4  UNL     1      -2.350 -19.096  24.426  1.00  0.00     0.046 C 
ENDBRANCH  12  13
ENDBRANCH  10  12
ENDBRANCH   6  10
ENDBRANCH   1   5
BRANCH   3  17
HETATM   17  C11 UNL     1      -3.777 -15.169  26.037  1.00  0.00     0.047 A 
HETATM   18  C12 UNL     1      -3.507 -15.610  24.744  1.00  0.00     0.018 A 
HETATM   19  C13 UNL     1      -3.851 -14.832  23.687  1.00  0.00     0.001 A 
HETATM   20  C14 UNL     1      -4.464 -13.611  23.957  1.00  0.00     0.001 A 
HETATM   21  C15 UNL     1      -4.725 -13.186  25.232  1.00  0.00     0.017 A 
HETATM   22  C16 UNL     1      -4.376 -13.979  26.330  1.00  0.00     0.063 A 
BRANCH  22  23
HETATM   23  C17 UNL     1      -4.641 -13.486  27.670  1.00  0.00     0.418 C 
HETATM   24  F1  UNL     1      -5.389 -14.378  28.426  1.00  0.00    -0.166 F 
HETATM   25  F2  UNL     1      -5.478 -12.357  27.568  1.00  0.00    -0.166 F 
HETATM   26  F3  UNL     1      -3.533 -13.026  28.358  1.00  0.00    -0.166 F 
ENDBRANCH  22  23
ENDBRANCH   3  17
TORSDOF 6
ENDMDL
MODEL 2
REMARK VINA RESULT: -8.130145944      1.182      1.532
REMARK  6 active torsions:
REMARK  status: ('A' for Active; 'I' for Inactive)
REMARK    1  A    between atoms: C2_2  and  O1_5 
REMARK    2  A    between atoms: O1_5  and  C5_6 
REMARK    3  A    between atoms: C5_6  and  C6_8 
REMARK    4  A    between atoms: C9_12  and  N1_13 
REMARK       I    between atoms: N1_13  and  C10_15 
REMARK    5  A    between atoms: C10_15  and  C11_17 
REMARK    6  A    between atoms: C16_22  and  C17_23 
ROOT
HETATM    1  N1  UNL     1      -4.078 -17.078  27.762  1.00  0.00    -0.321 N 
ATOM      2  H1  UNL     1      -5.016 -17.024  27.366  1.00  0.00     0.169 HD
HETATM    3  C10 UNL     1      -3.338 -15.892  27.756  1.00  0.00     0.257 C 
HETATM    4  O3  UNL     1      -2.190 -15.782  28.191  1.00  0.00    -0.267 OA
ENDROOT
BRANCH   1   5
HETATM    5  C9  UNL     1      -3.675 -18.373  28.262  1.00  0.00     0.058 A 
HETATM    6  C6  UNL     1      -2.881 -19.197  27.517  1.00  0.00     0.106 A 
HETATM    7  S1  UNL     1      -2.737 -20.593  28.518  1.00  0.00    -0.094 SA
HETATM    8  C7  UNL     1      -3.672 -20.091  29.833  1.00  0.00     0.053 A 
HETATM    9  C8  UNL     1      -4.082 -18.836  29.459  1.00  0.00     0.038 A 
BRANCH   6  10
HETATM   10  C5  UNL     1      -2.246 -19.018  26.198  1.00  0.00     0.303 C 
HETATM   11  O2  UNL     1      -2.626 -18.249  25.328  1.00  0.00    -0.259 OA
BRANCH  10  12
HETATM   12  O1  UNL     1      -1.115 -19.774  25.883  1.00  0.00    -0.307 OA
BRANCH  12  13
HETATM   13  C2  UNL     1      -1.197 -20.865  24.972  1.00  0.00     0.060 C 
HETATM   14  C1  UNL     1      -0.496 -20.564  23.681  1.00  0.00     0.046 C 
HETATM   15  C3  UNL     1      -0.443 -21.996  25.649  1.00  0.00     0.046 C 
HETATM   16  C4  UNL     1      -2.589 -21.314  24.708  1.00  0.00     0.046 C 
ENDBRANCH  12  13
ENDBRANCH  10  12
ENDBRANCH   6  10
ENDBRANCH   1   5
BRANCH   3  17
HETATM   17  C11 UNL     1      -3.961 -14.703  27.191  1.00  0.00     0.047 A 
HETATM   18  C12 UNL     1      -3.934 -14.631  25.801  1.00  0.00     0.018 A 
HETATM   19  C13 UNL     1      -4.533 -13.588  25.173  1.00  0.00     0.001 A 
HETATM   20  C14 UNL     1      -5.153 -12.627  25.968  1.00  0.00     0.001 A 
HETATM   21  C15 UNL     1      -5.174 -12.705  27.334  1.00  0.00     0.017 A 
HETATM   22  C16 UNL     1      -4.560 -13.775  27.993  1.00  0.00     0.063 A 
BRANCH  22  23
HETATM   23  C17 UNL     1      -4.577 -13.814  29.445  1.00  0.00     0.418 C 
HETATM   24  F1  UNL     1      -5.209 -14.946  29.939  1.00  0.00    -0.166 F 
HETATM   25  F2  UNL     1      -5.385 -12.756  29.906  1.00  0.00    -0.166 F 
HETATM   26  F3  UNL     1      -3.354 -13.596  30.053  1.00  0.00    -0.166 F 
ENDBRANCH  22  23
ENDBRANCH   3  17
TORSDOF 6
ENDMDL
MODEL 3
REMARK VINA RESULT: -8.054885097      1.494      1.962
REMARK  6 active torsions:
REMARK  status: ('A' for Active; 'I' for Inactive)
REMARK    1  A    between atoms: C2_2  and  O1_5 
REMARK    2  A    between atoms: O1_5  and  C5_6 
REMARK    3  A    between atoms: C5_6  and  C6_8 
REMARK    4  A    between atoms: C9_12  and  N1_13 
REMARK       I    between atoms: N1_13  and  C10_15 
REMARK    5  A    between atoms: C10_15  and  C11_17 
REMARK    6  A    between atoms: C16_22  and  C17_23 
ROOT
HETATM    1  N1  UNL     1      -4.064 -17.729  28.004  1.00  0.00    -0.321 N 
ATOM      2  H1  UNL     1      -5.016 -17.501  27.719  1.00  0.00     0.169 HD
HETATM    3  C10 UNL     1      -3.049 -16.961  27.426  1.00  0.00     0.257 C 
HETATM    4  O3  UNL     1      -1.846 -17.106  27.656  1.00  0.00    -0.267 OA
ENDROOT
BRANCH   1   5
HETATM    5  C9  UNL     1      -3.928 -18.807  28.957  1.00  0.00     0.058 A 
HETATM    6  C6  UNL     1      -4.067 -20.109  28.569  1.00  0.00     0.106 A 
HETATM    7  S1  UNL     1      -3.864 -20.969  30.049  1.00  0.00    -0.094 SA
HETATM    8  C7  UNL     1      -3.609 -19.668  31.097  1.00  0.00     0.053 A 
HETATM    9  C8  UNL     1      -3.690 -18.581  30.263  1.00  0.00     0.038 A 
BRANCH   6  10
HETATM   10  C5  UNL     1      -4.308 -20.718  27.249  1.00  0.00     0.303 C 
HETATM   11  O2  UNL     1      -5.020 -21.688  27.036  1.00  0.00    -0.259 OA
BRANCH  10  12
HETATM   12  O1  UNL     1      -3.689 -20.167  26.125  1.00  0.00    -0.307 OA
BRANCH  12  13
HETATM   13  C2  UNL     1      -2.434 -20.661  25.668  1.00  0.00     0.060 C 
HETATM   14  C1  UNL     1      -2.599 -21.876  24.803  1.00  0.00     0.046 C 
HETATM   15  C3  UNL     1      -1.873 -19.552  24.796  1.00  0.00     0.046 C 
HETATM   16  C4  UNL     1      -1.471 -20.938  26.764  1.00  0.00     0.046 C 
ENDBRANCH  12  13
ENDBRANCH  10  12
ENDBRANCH   6  10
ENDBRANCH   1   5
BRANCH   3  17
HETATM   17  C11 UNL     1      -3.433 -15.922  26.481  1.00  0.00     0.047 A 
HETATM   18  C12 UNL     1      -3.324 -16.281  25.140  1.00  0.00     0.018 A 
HETATM   19  C13 UNL     1      -3.707 -15.402  24.179  1.00  0.00     0.001 A 
HETATM   20  C14 UNL     1      -4.196 -14.166  24.594  1.00  0.00     0.001 A 
HETATM   21  C15 UNL     1      -4.299 -13.822  25.915  1.00  0.00     0.017 A 
HETATM   22  C16 UNL     1      -3.908 -14.719  26.914  1.00  0.00     0.063 A 
BRANCH  22  23
HETATM   23  C17 UNL     1      -4.004 -14.312  28.306  1.00  0.00     0.418 C 
HETATM   24  F1  UNL     1      -5.048 -14.940  28.971  1.00  0.00    -0.166 F 
HETATM   25  F2  UNL     1      -4.359 -12.949  28.344  1.00  0.00    -0.166 F 
HETATM   26  F3  UNL     1      -2.821 -14.375  29.020  1.00  0.00    -0.166 F 
ENDBRANCH  22  23
ENDBRANCH   3  17
TORSDOF 6
ENDMDL
MODEL 4
REMARK VINA RESULT: -7.973200299      2.368      3.559
REMARK  6 active torsions:
REMARK  status: ('A' for Active; 'I' for Inactive)
REMARK    1  A    between atoms: C2_2  and  O1_5 
REMARK    2  A    between atoms: O1_5  and  C5_6 
REMARK    3  A    between atoms: C5_6  and  C6_8 
REMARK    4  A    between atoms: C9_12  and  N1_13 
REMARK       I    between atoms: N1_13  and  C10_15 
REMARK    5  A    between atoms: C10_15  and  C11_17 
REMARK    6  A    between atoms: C16_22  and  C17_23 
ROOT
HETATM    1  N1  UNL     1      -3.961 -17.957  27.919  1.00  0.00    -0.321 N 
ATOM      2  H1  UNL     1      -4.873 -17.862  27.474  1.00  0.00     0.169 HD
HETATM    3  C10 UNL     1      -2.897 -17.307  27.284  1.00  0.00     0.257 C 
HETATM    4  O3  UNL     1      -1.731 -17.321  27.684  1.00  0.00    -0.267 OA
ENDROOT
BRANCH   1   5
HETATM    5  C9  UNL     1      -3.923 -18.746  29.129  1.00  0.00     0.058 A 
HETATM    6  C6  UNL     1      -4.325 -20.051  29.129  1.00  0.00     0.106 A 
HETATM    7  S1  UNL     1      -4.132 -20.507  30.780  1.00  0.00    -0.094 SA
HETATM    8  C7  UNL     1      -3.553 -19.049  31.408  1.00  0.00     0.053 A 
HETATM    9  C8  UNL     1      -3.524 -18.230  30.308  1.00  0.00     0.038 A 
BRANCH   6  10
HETATM   10  C5  UNL     1      -4.795 -20.932  28.045  1.00  0.00     0.303 C 
HETATM   11  O2  UNL     1      -4.522 -20.805  26.861  1.00  0.00    -0.259 OA
BRANCH  10  12
HETATM   12  O1  UNL     1      -5.621 -22.012  28.360  1.00  0.00    -0.307 OA
BRANCH  12  13
HETATM   13  C2  UNL     1      -7.038 -21.867  28.377  1.00  0.00     0.060 C 
HETATM   14  C1  UNL     1      -7.494 -20.775  27.456  1.00  0.00     0.046 C 
HETATM   15  C3  UNL     1      -7.571 -23.179  27.831  1.00  0.00     0.046 C 
HETATM   16  C4  UNL     1      -7.596 -21.657  29.738  1.00  0.00     0.046 C 
ENDBRANCH  12  13
ENDBRANCH  10  12
ENDBRANCH   6  10
ENDBRANCH   1   5
BRANCH   3  17
HETATM   17  C11 UNL     1      -3.181 -16.567  26.063  1.00  0.00     0.047 A 
HETATM   18  C12 UNL     1      -2.949 -17.271  24.884  1.00  0.00     0.018 A 
HETATM   19  C13 UNL     1      -3.232 -16.689  23.691  1.00  0.00     0.001 A 
HETATM   20  C14 UNL     1      -3.747 -15.395  23.711  1.00  0.00     0.001 A 
HETATM   21  C15 UNL     1      -3.971 -14.711  24.875  1.00  0.00     0.017 A 
HETATM   22  C16 UNL     1      -3.684 -15.299  26.110  1.00  0.00     0.063 A 
BRANCH  22  23
HETATM   23  C17 UNL     1      -3.908 -14.535  27.325  1.00  0.00     0.418 C 
HETATM   24  F1  UNL     1      -5.051 -14.937  28.002  1.00  0.00    -0.166 F 
HETATM   25  F2  UNL     1      -4.188 -13.203  26.964  1.00  0.00    -0.166 F 
HETATM   26  F3  UNL     1      -2.815 -14.436  28.167  1.00  0.00    -0.166 F 
ENDBRANCH  22  23
ENDBRANCH   3  17
TORSDOF 6
ENDMDL
MODEL 5
REMARK VINA RESULT: -7.954658984      1.637      2.294
REMARK  6 active torsions:
REMARK  status: ('A' for Active; 'I' for Inactive)
REMARK    1  A    between atoms: C2_2  and  O1_5 
REMARK    2  A    between atoms: O1_5  and  C5_6 
REMARK    3  A    between atoms: C5_6  and  C6_8 
REMARK    4  A    between atoms: C9_12  and  N1_13 
REMARK       I    between atoms: N1_13  and  C10_15 
REMARK    5  A    between atoms: C10_15  and  C11_17 
REMARK    6  A    between atoms: C16_22  and  C17_23 
ROOT
HETATM    1  N1  UNL     1      -3.681 -18.736  26.539  1.00  0.00    -0.321 N 
ATOM      2  H1  UNL     1      -4.585 -18.603  26.086  1.00  0.00     0.169 HD
HETATM    3  C10 UNL     1      -2.795 -17.657  26.472  1.00  0.00     0.257 C 
HETATM    4  O3  UNL     1      -1.663 -17.650  26.962  1.00  0.00    -0.267 OA
ENDROOT
BRANCH   1   5
HETATM    5  C9  UNL     1      -3.472 -20.018  27.173  1.00  0.00     0.058 A 
HETATM    6  C6  UNL     1      -2.840 -21.033  26.513  1.00  0.00     0.106 A 
HETATM    7  S1  UNL     1      -2.888 -22.319  27.659  1.00  0.00    -0.094 SA
HETATM    8  C7  UNL     1      -3.693 -21.538  28.923  1.00  0.00     0.053 A 
HETATM    9  C8  UNL     1      -3.911 -20.280  28.419  1.00  0.00     0.038 A 
BRANCH   6  10
HETATM   10  C5  UNL     1      -2.225 -21.099  25.175  1.00  0.00     0.303 C 
HETATM   11  O2  UNL     1      -2.597 -21.817  24.259  1.00  0.00    -0.259 OA
BRANCH  10  12
HETATM   12  O1  UNL     1      -1.124 -20.288  24.895  1.00  0.00    -0.307 OA
BRANCH  12  13
HETATM   13  C2  UNL     1       0.200 -20.812  24.940  1.00  0.00     0.060 C 
HETATM   14  C1  UNL     1       0.903 -20.655  23.624  1.00  0.00     0.046 C 
HETATM   15  C3  UNL     1       0.928 -19.949  25.954  1.00  0.00     0.046 C 
HETATM   16  C4  UNL     1       0.261 -22.227  25.389  1.00  0.00     0.046 C 
ENDBRANCH  12  13
ENDBRANCH  10  12
ENDBRANCH   6  10
ENDBRANCH   1   5
BRANCH   3  17
HETATM   17  C11 UNL     1      -3.232 -16.458  25.771  1.00  0.00     0.047 A 
HETATM   18  C12 UNL     1      -3.187 -16.543  24.382  1.00  0.00     0.018 A 
HETATM   19  C13 UNL     1      -3.622 -15.498  23.633  1.00  0.00     0.001 A 
HETATM   20  C14 UNL     1      -4.097 -14.376  24.308  1.00  0.00     0.001 A 
HETATM   21  C15 UNL     1      -4.137 -14.301  25.674  1.00  0.00     0.017 A 
HETATM   22  C16 UNL     1      -3.691 -15.371  26.456  1.00  0.00     0.063 A 
BRANCH  22  23
HETATM   23  C17 UNL     1      -3.721 -15.249  27.903  1.00  0.00     0.418 C 
HETATM   24  F1  UNL     1      -4.470 -16.250  28.506  1.00  0.00    -0.166 F 
HETATM   25  F2  UNL     1      -4.418 -14.070  28.233  1.00  0.00    -0.166 F 
HETATM   26  F3  UNL     1      -2.486 -15.092  28.506  1.00  0.00    -0.166 F 
ENDBRANCH  22  23
ENDBRANCH   3  17
TORSDOF 6
ENDMDL
