MODEL 1
REMARK VINA RESULT: -8.175494960      0.000      0.000
REMARK  5 active torsions:
REMARK  status: ('A' for Active; 'I' for Inactive)
REMARK    1  A    between atoms: C2_2  and  O1_3 
REMARK    2  A    between atoms: O1_3  and  C3_4 
REMARK    3  A    between atoms: C3_4  and  C4_6 
REMARK    4  A    between atoms: C6_11  and  C7_12 
REMARK    5  A    between atoms: C14_23  and  C15_24 
ROOT
HETATM    1  C4  UNL     1      -4.122 -14.208  26.136  1.00  0.00     0.091 A 
HETATM    2  S1  UNL     1      -3.884 -14.752  24.497  1.00  0.00    -0.063 SA
HETATM    3  C5  UNL     1      -3.358 -16.327  24.800  1.00  0.00     0.104 A 
HETATM    4  N1  UNL     1      -2.946 -17.491  24.219  1.00  0.00    -0.334 N 
ATOM      5  H1  UNL     1      -2.854 -17.667  23.219  1.00  0.00     0.168 HD
HETATM    6  C6  UNL     1      -2.687 -18.346  25.192  1.00  0.00     0.120 A 
HETATM    7  N2  UNL     1      -2.940 -17.709  26.365  1.00  0.00    -0.339 N 
ATOM      8  H2  UNL     1      -2.825 -18.136  27.284  1.00  0.00     0.167 HD
HETATM    9  C13 UNL     1      -3.368 -16.424  26.160  1.00  0.00     0.076 A 
HETATM   10  C14 UNL     1      -3.767 -15.320  26.865  1.00  0.00     0.002 A 
ENDROOT
BRANCH   6  11
HETATM   11  C7  UNL     1      -2.209 -19.743  25.060  1.00  0.00     0.047 A 
HETATM   12  C8  UNL     1      -1.060 -20.077  24.388  1.00  0.00     0.021 A 
HETATM   13  C9  UNL     1      -0.663 -21.413  24.300  1.00  0.00     0.043 A 
HETATM   14  C10 UNL     1      -1.421 -22.405  24.886  1.00  0.00     0.119 A 
HETATM   15  F1  UNL     1      -1.059 -23.704  24.815  1.00  0.00    -0.206 F 
HETATM   16  C11 UNL     1      -2.576 -22.082  25.562  1.00  0.00     0.085 A 
HETATM   17  C12 UNL     1      -2.944 -20.756  25.633  1.00  0.00     0.133 A 
HETATM   18  F2  UNL     1      -4.078 -20.447  26.299  1.00  0.00    -0.205 F 
ENDBRANCH   6  11
BRANCH  10  19
HETATM   19  C15 UNL     1      -3.846 -15.290  28.383  1.00  0.00    -0.020 C 
HETATM   20  C16 UNL     1      -2.864 -14.298  28.977  1.00  0.00     0.019 C 
HETATM   21  C17 UNL     1      -5.248 -14.935  28.892  1.00  0.00     0.019 C 
HETATM   22  C18 UNL     1      -3.567 -16.646  28.986  1.00  0.00     0.019 C 
ENDBRANCH  10  19
BRANCH   1  23
HETATM   23  C3  UNL     1      -4.582 -12.866  26.486  1.00  0.00     0.301 C 
HETATM   24  O2  UNL     1      -3.984 -11.884  26.905  1.00  0.00    -0.259 OA
BRANCH  23  25
HETATM   25  O1  UNL     1      -5.986 -12.646  26.312  1.00  0.00    -0.317 OA
BRANCH  25  26
HETATM   26  C2  UNL     1      -6.429 -11.751  25.299  1.00  0.00     0.174 C 
HETATM   27  C1  UNL     1      -6.836 -10.413  25.864  1.00  0.00     0.034 C 
ENDBRANCH  25  26
ENDBRANCH  23  25
ENDBRANCH   1  23
TORSDOF 5
ENDMDL
MODEL 2
REMARK VINA RESULT: -8.053172826      1.030      1.185
REMARK  5 active torsions:
REMARK  status: ('A' for Active; 'I' for Inactive)
REMARK    1  A    between atoms: C2_2  and  O1_3 
REMARK    2  A    between atoms: O1_3  and  C3_4 
REMARK    3  A    between atoms: C3_4  and  C4_6 
REMARK    4  A    between atoms: C6_11  and  C7_12 
REMARK    5  A    between atoms: C14_23  and  C15_24 
ROOT
HETATM    1  C4  UNL     1      -4.261 -13.988  26.278  1.00  0.00     0.091 A 
HETATM    2  S1  UNL     1      -4.016 -14.545  24.644  1.00  0.00    -0.063 SA
HETATM    3  C5  UNL     1      -3.421 -16.092  24.963  1.00  0.00     0.104 A 
HETATM    4  N1  UNL     1      -2.966 -17.245  24.394  1.00  0.00    -0.334 N 
ATOM      5  H1  UNL     1      -2.877 -17.432  23.395  1.00  0.00     0.168 HD
HETATM    6  C6  UNL     1      -2.663 -18.075  25.376  1.00  0.00     0.120 A 
HETATM    7  N2  UNL     1      -2.931 -17.434  26.542  1.00  0.00    -0.339 N 
ATOM      8  H2  UNL     1      -2.790 -17.842  27.466  1.00  0.00     0.167 HD
HETATM    9  C13 UNL     1      -3.415 -16.170  26.325  1.00  0.00     0.076 A 
HETATM   10  C14 UNL     1      -3.853 -15.074  27.018  1.00  0.00     0.002 A 
ENDROOT
BRANCH   6  11
HETATM   11  C7  UNL     1      -2.128 -19.453  25.258  1.00  0.00     0.047 A 
HETATM   12  C8  UNL     1      -2.723 -20.420  24.486  1.00  0.00     0.021 A 
HETATM   13  C9  UNL     1      -2.168 -21.700  24.417  1.00  0.00     0.043 A 
HETATM   14  C10 UNL     1      -1.022 -22.002  25.121  1.00  0.00     0.119 A 
HETATM   15  F1  UNL     1      -0.466 -23.232  25.072  1.00  0.00    -0.206 F 
HETATM   16  C11 UNL     1      -0.417 -21.040  25.899  1.00  0.00     0.085 A 
HETATM   17  C12 UNL     1      -0.986 -19.786  25.949  1.00  0.00     0.133 A 
HETATM   18  F2  UNL     1      -0.385 -18.848  26.715  1.00  0.00    -0.205 F 
ENDBRANCH   6  11
BRANCH  10  19
HETATM   19  C15 UNL     1      -3.919 -15.026  28.536  1.00  0.00    -0.020 C 
HETATM   20  C16 UNL     1      -2.866 -14.100  29.115  1.00  0.00     0.019 C 
HETATM   21  C17 UNL     1      -5.289 -14.570  29.052  1.00  0.00     0.019 C 
HETATM   22  C18 UNL     1      -3.730 -16.393  29.150  1.00  0.00     0.019 C 
ENDBRANCH  10  19
BRANCH   1  23
HETATM   23  C3  UNL     1      -4.774 -12.662  26.614  1.00  0.00     0.301 C 
HETATM   24  O2  UNL     1      -4.231 -11.679  27.100  1.00  0.00    -0.259 OA
BRANCH  23  25
HETATM   25  O1  UNL     1      -6.162 -12.462  26.328  1.00  0.00    -0.317 OA
BRANCH  25  26
HETATM   26  C2  UNL     1      -6.538 -11.511  25.339  1.00  0.00     0.174 C 
HETATM   27  C1  UNL     1      -6.878 -10.172  25.941  1.00  0.00     0.034 C 
ENDBRANCH  25  26
ENDBRANCH  23  25
ENDBRANCH   1  23
TORSDOF 5
ENDMDL
MODEL 3
REMARK VINA RESULT: -7.993742627      4.042      7.929
REMARK  5 active torsions:
REMARK  status: ('A' for Active; 'I' for Inactive)
REMARK    1  A    between atoms: C2_2  and  O1_3 
REMARK    2  A    between atoms: O1_3  and  C3_4 
REMARK    3  A    between atoms: C3_4  and  C4_6 
REMARK    4  A    between atoms: C6_11  and  C7_12 
REMARK    5  A    between atoms: C14_23  and  C15_24 
ROOT
HETATM    1  C4  UNL     1      -2.506 -18.903  24.747  1.00  0.00     0.091 A 
HETATM    2  S1  UNL     1      -2.936 -17.513  23.786  1.00  0.00    -0.063 SA
HETATM    3  C5  UNL     1      -3.336 -16.433  25.020  1.00  0.00     0.104 A 
HETATM    4  N1  UNL     1      -3.764 -15.167  25.291  1.00  0.00    -0.334 N 
ATOM      5  H1  UNL     1      -3.981 -14.443  24.607  1.00  0.00     0.168 HD
HETATM    6  C6  UNL     1      -3.844 -15.051  26.605  1.00  0.00     0.120 A 
HETATM    7  N2  UNL     1      -3.467 -16.243  27.137  1.00  0.00    -0.339 N 
ATOM      8  H2  UNL     1      -3.435 -16.439  28.137  1.00  0.00     0.167 HD
HETATM    9  C13 UNL     1      -3.136 -17.149  26.164  1.00  0.00     0.076 A 
HETATM   10  C14 UNL     1      -2.702 -18.441  26.028  1.00  0.00     0.002 A 
ENDROOT
BRANCH   6  11
HETATM   11  C7  UNL     1      -4.265 -13.860  27.381  1.00  0.00     0.047 A 
HETATM   12  C8  UNL     1      -5.387 -13.131  27.077  1.00  0.00     0.021 A 
HETATM   13  C9  UNL     1      -5.729 -12.018  27.848  1.00  0.00     0.043 A 
HETATM   14  C10 UNL     1      -4.944 -11.644  28.918  1.00  0.00     0.119 A 
HETATM   15  F1  UNL     1      -5.252 -10.571  29.679  1.00  0.00    -0.206 F 
HETATM   16  C11 UNL     1      -3.815 -12.367  29.232  1.00  0.00     0.085 A 
HETATM   17  C12 UNL     1      -3.501 -13.461  28.454  1.00  0.00     0.133 A 
HETATM   18  F2  UNL     1      -2.393 -14.166  28.769  1.00  0.00    -0.205 F 
ENDBRANCH   6  11
BRANCH  10  19
HETATM   19  C15 UNL     1      -2.419 -19.348  27.215  1.00  0.00    -0.020 C 
HETATM   20  C16 UNL     1      -3.452 -20.453  27.334  1.00  0.00     0.019 C 
HETATM   21  C17 UNL     1      -1.033 -19.999  27.141  1.00  0.00     0.019 C 
HETATM   22  C18 UNL     1      -2.399 -18.582  28.515  1.00  0.00     0.019 C 
ENDBRANCH  10  19
BRANCH   1  23
HETATM   23  C3  UNL     1      -2.071 -20.177  24.180  1.00  0.00     0.301 C 
HETATM   24  O2  UNL     1      -2.611 -21.274  24.136  1.00  0.00    -0.259 OA
BRANCH  23  25
HETATM   25  O1  UNL     1      -0.780 -20.152  23.561  1.00  0.00    -0.317 OA
BRANCH  25  26
HETATM   26  C2  UNL     1       0.268 -20.944  24.108  1.00  0.00     0.174 C 
HETATM   27  C1  UNL     1       1.615 -20.567  23.546  1.00  0.00     0.034 C 
ENDBRANCH  25  26
ENDBRANCH  23  25
ENDBRANCH   1  23
TORSDOF 5
ENDMDL
MODEL 4
REMARK VINA RESULT: -7.908729028      4.060      7.941
REMARK  5 active torsions:
REMARK  status: ('A' for Active; 'I' for Inactive)
REMARK    1  A    between atoms: C2_2  and  O1_3 
REMARK    2  A    between atoms: O1_3  and  C3_4 
REMARK    3  A    between atoms: C3_4  and  C4_6 
REMARK    4  A    between atoms: C6_11  and  C7_12 
REMARK    5  A    between atoms: C14_23  and  C15_24 
ROOT
HETATM    1  C4  UNL     1      -2.429 -18.760  24.861  1.00  0.00     0.091 A 
HETATM    2  S1  UNL     1      -2.980 -17.452  23.848  1.00  0.00    -0.063 SA
HETATM    3  C5  UNL     1      -3.364 -16.320  25.041  1.00  0.00     0.104 A 
HETATM    4  N1  UNL     1      -3.838 -15.061  25.264  1.00  0.00    -0.334 N 
ATOM      5  H1  UNL     1      -4.128 -14.389  24.553  1.00  0.00     0.168 HD
HETATM    6  C6  UNL     1      -3.851 -14.871  26.571  1.00  0.00     0.120 A 
HETATM    7  N2  UNL     1      -3.386 -16.010  27.147  1.00  0.00    -0.339 N 
ATOM      8  H2  UNL     1      -3.288 -16.145  28.153  1.00  0.00     0.167 HD
HETATM    9  C13 UNL     1      -3.065 -16.956  26.210  1.00  0.00     0.076 A 
HETATM   10  C14 UNL     1      -2.576 -18.232  26.122  1.00  0.00     0.002 A 
ENDROOT
BRANCH   6  11
HETATM   11  C7  UNL     1      -4.286 -13.656  27.301  1.00  0.00     0.047 A 
HETATM   12  C8  UNL     1      -5.447 -12.986  27.007  1.00  0.00     0.021 A 
HETATM   13  C9  UNL     1      -5.801 -11.847  27.733  1.00  0.00     0.043 A 
HETATM   14  C10 UNL     1      -4.989 -11.388  28.749  1.00  0.00     0.119 A 
HETATM   15  F1  UNL     1      -5.309 -10.289  29.466  1.00  0.00    -0.206 F 
HETATM   16  C11 UNL     1      -3.822 -12.052  29.053  1.00  0.00     0.085 A 
HETATM   17  C12 UNL     1      -3.497 -13.173  28.320  1.00  0.00     0.133 A 
HETATM   18  F2  UNL     1      -2.350 -13.820  28.625  1.00  0.00    -0.205 F 
ENDBRANCH   6  11
BRANCH  10  19
HETATM   19  C15 UNL     1      -2.183 -19.054  27.340  1.00  0.00    -0.020 C 
HETATM   20  C16 UNL     1      -3.274 -20.031  27.733  1.00  0.00     0.019 C 
HETATM   21  C17 UNL     1      -0.889 -19.847  27.122  1.00  0.00     0.019 C 
HETATM   22  C18 UNL     1      -1.883 -18.180  28.534  1.00  0.00     0.019 C 
ENDBRANCH  10  19
BRANCH   1  23
HETATM   23  C3  UNL     1      -1.963 -20.045  24.342  1.00  0.00     0.301 C 
HETATM   24  O2  UNL     1      -0.938 -20.361  23.753  1.00  0.00    -0.259 OA
BRANCH  23  25
HETATM   25  O1  UNL     1      -2.859 -21.141  24.554  1.00  0.00    -0.317 OA
BRANCH  25  26
HETATM   26  C2  UNL     1      -2.325 -22.441  24.779  1.00  0.00     0.174 C 
HETATM   27  C1  UNL     1      -3.083 -23.188  25.847  1.00  0.00     0.034 C 
ENDBRANCH  25  26
ENDBRANCH  23  25
ENDBRANCH   1  23
TORSDOF 5
ENDMDL
MODEL 5
REMARK VINA RESULT: -7.821627800      4.124      7.956
REMARK  5 active torsions:
REMARK  status: ('A' for Active; 'I' for Inactive)
REMARK    1  A    between atoms: C2_2  and  O1_3 
REMARK    2  A    between atoms: O1_3  and  C3_4 
REMARK    3  A    between atoms: C3_4  and  C4_6 
REMARK    4  A    between atoms: C6_11  and  C7_12 
REMARK    5  A    between atoms: C14_23  and  C15_24 
ROOT
HETATM    1  C4  UNL     1      -2.539 -18.702  24.708  1.00  0.00     0.091 A 
HETATM    2  S1  UNL     1      -2.979 -17.291  23.783  1.00  0.00    -0.063 SA
HETATM    3  C5  UNL     1      -3.415 -16.256  25.044  1.00  0.00     0.104 A 
HETATM    4  N1  UNL     1      -3.868 -15.006  25.347  1.00  0.00    -0.334 N 
ATOM      5  H1  UNL     1      -4.088 -14.265  24.681  1.00  0.00     0.168 HD
HETATM    6  C6  UNL     1      -3.969 -14.932  26.662  1.00  0.00     0.120 A 
HETATM    7  N2  UNL     1      -3.579 -16.132  27.163  1.00  0.00    -0.339 N 
ATOM      8  H2  UNL     1      -3.556 -16.358  28.157  1.00  0.00     0.167 HD
HETATM    9  C13 UNL     1      -3.219 -17.003  26.168  1.00  0.00     0.076 A 
HETATM   10  C14 UNL     1      -2.761 -18.282  25.999  1.00  0.00     0.002 A 
ENDROOT
BRANCH   6  11
HETATM   11  C7  UNL     1      -4.420 -13.772  27.467  1.00  0.00     0.047 A 
HETATM   12  C8  UNL     1      -4.079 -13.602  28.785  1.00  0.00     0.021 A 
HETATM   13  C9  UNL     1      -4.536 -12.486  29.489  1.00  0.00     0.043 A 
HETATM   14  C10 UNL     1      -5.332 -11.548  28.867  1.00  0.00     0.119 A 
HETATM   15  F1  UNL     1      -5.788 -10.460  29.525  1.00  0.00    -0.206 F 
HETATM   16  C11 UNL     1      -5.682 -11.708  27.544  1.00  0.00     0.085 A 
HETATM   17  C12 UNL     1      -5.216 -12.818  26.874  1.00  0.00     0.133 A 
HETATM   18  F2  UNL     1      -5.563 -12.967  25.577  1.00  0.00    -0.205 F 
ENDBRANCH   6  11
BRANCH  10  19
HETATM   19  C15 UNL     1      -2.478 -19.220  27.162  1.00  0.00    -0.020 C 
HETATM   20  C16 UNL     1      -0.993 -19.326  27.450  1.00  0.00     0.019 C 
HETATM   21  C17 UNL     1      -3.183 -18.787  28.453  1.00  0.00     0.019 C 
HETATM   22  C18 UNL     1      -3.006 -20.611  26.902  1.00  0.00     0.019 C 
ENDBRANCH  10  19
BRANCH   1  23
HETATM   23  C3  UNL     1      -2.074 -19.951  24.109  1.00  0.00     0.301 C 
HETATM   24  O2  UNL     1      -2.680 -20.878  23.589  1.00  0.00    -0.259 OA
BRANCH  23  25
HETATM   25  O1  UNL     1      -0.655 -20.137  24.128  1.00  0.00    -0.317 OA
BRANCH  25  26
HETATM   26  C2  UNL     1      -0.124 -21.384  24.560  1.00  0.00     0.174 C 
HETATM   27  C1  UNL     1       1.359 -21.308  24.824  1.00  0.00     0.034 C 
ENDBRANCH  25  26
ENDBRANCH  23  25
ENDBRANCH   1  23
TORSDOF 5
ENDMDL
