MODEL 1
REMARK VINA RESULT: -8.693967853      0.000      0.000
REMARK  10 active torsions:
REMARK  status: ('A' for Active; 'I' for Inactive)
REMARK    1  A    between atoms: C2_2  and  C4_4 
REMARK    2  A    between atoms: C4_4  and  O1_5 
REMARK    3  A    between atoms: O1_5  and  C5_6 
REMARK       I    between atoms: C5_6  and  N1_8 
REMARK    4  A    between atoms: C7_10  and  N2_11 
REMARK    5  A    between atoms: C16_22  and  N4_23 
REMARK    6  A    between atoms: N4_23  and  C17_25 
REMARK    7  A    between atoms: N5_32  and  C23_33 
REMARK    8  A    between atoms: C23_33  and  O4_34 
REMARK    9  A    between atoms: C23_33  and  C24_36 
REMARK   10  A    between atoms: C24_36  and  C25_37 
ROOT
HETATM    1  C4  UNL     1       3.764  -3.045 -10.559  1.00  0.00     0.153 C 
HETATM    2  C15 UNL     1       4.315  -4.340 -11.265  1.00  0.00     0.088 C 
HETATM    3  C16 UNL     1       4.291  -3.997 -12.703  1.00  0.00     0.099 C 
HETATM    4  C22 UNL     1       4.211  -2.527 -12.708  1.00  0.00     0.152 C 
HETATM    5  N5  UNL     1       3.143  -2.354 -11.608  1.00  0.00    -0.330 N 
ENDROOT
BRANCH   1   6
HETATM    6  C2  UNL     1       4.982  -2.469  -9.901  1.00  0.00     0.034 C 
HETATM    7  C1  UNL     1       4.751  -1.492  -8.801  1.00  0.00     0.014 C 
HETATM    8  C3  UNL     1       5.651  -3.689  -9.190  1.00  0.00     0.014 C 
ENDBRANCH   1   6
BRANCH   1   9
HETATM    9  O1  UNL     1       2.972  -3.512  -9.483  1.00  0.00    -0.271 OA
BRANCH   9  10
HETATM   10  C5  UNL     1       1.993  -4.454  -9.531  1.00  0.00     0.365 C 
HETATM   11  O2  UNL     1       0.897  -4.150  -9.999  1.00  0.00    -0.238 OA
HETATM   12  N1  UNL     1       2.165  -5.797  -9.062  1.00  0.00    -0.324 N 
HETATM   13  C6  UNL     1       1.386  -7.001  -8.955  1.00  0.00     0.165 C 
HETATM   14  C14 UNL     1       3.289  -6.476  -8.476  1.00  0.00     0.165 C 
HETATM   15  C7  UNL     1       2.444  -7.634  -8.140  1.00  0.00     0.259 C 
BRANCH  15  16
HETATM   16  N2  UNL     1       2.912  -8.937  -8.557  1.00  0.00     0.103 N 
HETATM   17  C8  UNL     1       4.054  -9.410  -7.801  1.00  0.00     0.293 C 
HETATM   18  C9  UNL     1       4.654 -10.595  -8.523  1.00  0.00     0.152 C 
HETATM   19  N3  UNL     1       3.597 -11.446  -9.085  1.00  0.00    -0.384 N 
HETATM   20  C10 UNL     1       3.914 -12.476 -10.054  1.00  0.00     0.149 C 
HETATM   21  C11 UNL     1       2.272 -11.228  -8.639  1.00  0.00     0.062 C 
HETATM   22  C12 UNL     1       1.479 -12.267  -8.383  1.00  0.00     0.214 C 
HETATM   23  C13 UNL     1       1.792  -9.832  -8.468  1.00  0.00     0.332 C 
HETATM   24  F1  UNL     1       1.878 -13.540  -8.527  1.00  0.00    -0.217 F 
ENDBRANCH  15  16
ENDBRANCH   9  10
ENDBRANCH   1   9
BRANCH   5  25
HETATM   25  C23 UNL     1       2.046  -1.617 -11.975  1.00  0.00     0.134 C 
BRANCH  25  26
HETATM   26  O4  UNL     1       0.914  -2.327 -12.175  1.00  0.00    -0.349 OA
ATOM     27  H4  UNL     1       0.337  -1.989 -12.850  1.00  0.00     0.219 HD
ENDBRANCH  25  26
BRANCH  25  28
HETATM   28  C24 UNL     1       1.727  -0.193 -12.221  1.00  0.00     0.132 A 
HETATM   29  C28 UNL     1       0.706  -0.007 -13.300  1.00  0.00     0.266 A 
HETATM   30  F2  UNL     1      -0.350   0.818 -13.244  1.00  0.00    -0.241 F 
HETATM   31  C29 UNL     1       2.073   0.423 -13.578  1.00  0.00     0.293 A 
HETATM   32  F3  UNL     1       2.912  -0.293 -14.410  1.00  0.00    -0.202 F 
HETATM   33  F4  UNL     1       2.258   1.774 -13.695  1.00  0.00    -0.202 F 
BRANCH  28  34
HETATM   34  C25 UNL     1       1.927   0.772 -11.112  1.00  0.00     0.003 C 
HETATM   35  C26 UNL     1       3.306   1.052 -10.627  1.00  0.00     0.011 C 
HETATM   36  C27 UNL     1       1.241   0.035  -9.860  1.00  0.00     0.011 C 
ENDBRANCH  28  34
ENDBRANCH  25  28
ENDBRANCH   5  25
BRANCH   3  37
HETATM   37  N4  UNL     1       5.161  -4.638 -13.565  1.00  0.00    -0.411 N 
ATOM     38  H4  UNL     1       5.842  -5.255 -13.123  1.00  0.00     0.154 HD
BRANCH  37  39
HETATM   39  C17 UNL     1       5.237  -4.560 -14.929  1.00  0.00     0.081 C 
HETATM   40  C18 UNL     1       5.685  -3.276 -15.571  1.00  0.00     0.051 C 
HETATM   41  C19 UNL     1       5.462  -3.457 -17.080  1.00  0.00     0.169 C 
HETATM   42  O3  UNL     1       4.653  -4.544 -17.364  1.00  0.00    -0.391 OA
HETATM   43  C20 UNL     1       5.287  -5.773 -17.069  1.00  0.00     0.169 C 
HETATM   44  C21 UNL     1       5.930  -5.683 -15.679  1.00  0.00     0.051 C 
ENDBRANCH  37  39
ENDBRANCH   3  37
TORSDOF 10
ENDMDL
MODEL 2
REMARK VINA RESULT: -8.532943703      1.050      1.114
REMARK  10 active torsions:
REMARK  status: ('A' for Active; 'I' for Inactive)
REMARK    1  A    between atoms: C2_2  and  C4_4 
REMARK    2  A    between atoms: C4_4  and  O1_5 
REMARK    3  A    between atoms: O1_5  and  C5_6 
REMARK       I    between atoms: C5_6  and  N1_8 
REMARK    4  A    between atoms: C7_10  and  N2_11 
REMARK    5  A    between atoms: C16_22  and  N4_23 
REMARK    6  A    between atoms: N4_23  and  C17_25 
REMARK    7  A    between atoms: N5_32  and  C23_33 
REMARK    8  A    between atoms: C23_33  and  O4_34 
REMARK    9  A    between atoms: C23_33  and  C24_36 
REMARK   10  A    between atoms: C24_36  and  C25_37 
ROOT
HETATM    1  C4  UNL     1       3.949  -3.450 -10.744  1.00  0.00     0.153 C 
HETATM    2  C15 UNL     1       4.298  -4.829 -11.419  1.00  0.00     0.088 C 
HETATM    3  C16 UNL     1       4.483  -4.489 -12.846  1.00  0.00     0.099 C 
HETATM    4  C22 UNL     1       4.698  -3.034 -12.831  1.00  0.00     0.152 C 
HETATM    5  N5  UNL     1       3.584  -2.649 -11.834  1.00  0.00    -0.330 N 
ENDROOT
BRANCH   1   6
HETATM    6  C2  UNL     1       5.188  -3.129  -9.962  1.00  0.00     0.034 C 
HETATM    7  C1  UNL     1       5.070  -2.065  -8.927  1.00  0.00     0.014 C 
HETATM    8  C3  UNL     1       5.473  -4.427  -9.139  1.00  0.00     0.014 C 
ENDBRANCH   1   6
BRANCH   1   9
HETATM    9  O1  UNL     1       2.979  -3.749  -9.758  1.00  0.00    -0.271 OA
BRANCH   9  10
HETATM   10  C5  UNL     1       1.866  -4.514  -9.905  1.00  0.00     0.365 C 
HETATM   11  O2  UNL     1       0.952  -4.105 -10.619  1.00  0.00    -0.238 OA
HETATM   12  N1  UNL     1       1.692  -5.786  -9.269  1.00  0.00    -0.324 N 
HETATM   13  C6  UNL     1       0.694  -6.819  -9.195  1.00  0.00     0.165 C 
HETATM   14  C14 UNL     1       2.541  -6.550  -8.394  1.00  0.00     0.165 C 
HETATM   15  C7  UNL     1       1.445  -7.494  -8.116  1.00  0.00     0.259 C 
BRANCH  15  16
HETATM   16  N2  UNL     1       1.727  -8.902  -8.285  1.00  0.00     0.103 N 
HETATM   17  C8  UNL     1       3.080  -9.268  -7.917  1.00  0.00     0.293 C 
HETATM   18  C9  UNL     1       3.362 -10.658  -8.438  1.00  0.00     0.152 C 
HETATM   19  N3  UNL     1       2.180 -11.516  -8.286  1.00  0.00    -0.384 N 
HETATM   20  C10 UNL     1       2.104 -12.797  -8.961  1.00  0.00     0.149 C 
HETATM   21  C11 UNL     1       1.134 -11.052  -7.454  1.00  0.00     0.062 C 
HETATM   22  C12 UNL     1       0.518 -11.895  -6.628  1.00  0.00     0.214 C 
HETATM   23  C13 UNL     1       0.743  -9.620  -7.524  1.00  0.00     0.332 C 
HETATM   24  F1  UNL     1       0.844 -13.195  -6.539  1.00  0.00    -0.217 F 
ENDBRANCH  15  16
ENDBRANCH   9  10
ENDBRANCH   1   9
BRANCH   5  25
HETATM   25  C23 UNL     1       2.697  -1.708 -12.290  1.00  0.00     0.134 C 
BRANCH  25  26
HETATM   26  O4  UNL     1       1.456  -2.168 -12.562  1.00  0.00    -0.349 OA
ATOM     27  H4  UNL     1       1.233  -2.214 -13.484  1.00  0.00     0.219 HD
ENDBRANCH  25  26
BRANCH  25  28
HETATM   28  C24 UNL     1       2.706  -0.257 -12.579  1.00  0.00     0.132 A 
HETATM   29  C28 UNL     1       1.685   0.136 -13.600  1.00  0.00     0.266 A 
HETATM   30  F2  UNL     1       0.860   1.191 -13.516  1.00  0.00    -0.241 F 
HETATM   31  C29 UNL     1       3.092   0.220 -13.981  1.00  0.00     0.293 A 
HETATM   32  F3  UNL     1       3.678  -0.698 -14.830  1.00  0.00    -0.202 F 
HETATM   33  F4  UNL     1       3.582   1.484 -14.169  1.00  0.00    -0.202 F 
BRANCH  28  34
HETATM   34  C25 UNL     1       3.206   0.665 -11.529  1.00  0.00     0.003 C 
HETATM   35  C26 UNL     1       4.623   0.566 -11.084  1.00  0.00     0.011 C 
HETATM   36  C27 UNL     1       2.382   0.211 -10.226  1.00  0.00     0.011 C 
ENDBRANCH  28  34
ENDBRANCH  25  28
ENDBRANCH   5  25
BRANCH   3  37
HETATM   37  N4  UNL     1       5.288  -5.292 -13.633  1.00  0.00    -0.411 N 
ATOM     38  H4  UNL     1       5.897  -5.934 -13.126  1.00  0.00     0.154 HD
BRANCH  37  39
HETATM   39  C17 UNL     1       5.381  -5.345 -14.997  1.00  0.00     0.081 C 
HETATM   40  C18 UNL     1       5.587  -4.074 -15.773  1.00  0.00     0.051 C 
HETATM   41  C19 UNL     1       5.442  -4.452 -17.254  1.00  0.00     0.169 C 
HETATM   42  O3  UNL     1       4.868  -5.702 -17.422  1.00  0.00    -0.391 OA
HETATM   43  C20 UNL     1       5.721  -6.744 -16.992  1.00  0.00     0.169 C 
HETATM   44  C21 UNL     1       6.299  -6.383 -15.618  1.00  0.00     0.051 C 
ENDBRANCH  37  39
ENDBRANCH   3  37
TORSDOF 10
ENDMDL
MODEL 3
REMARK VINA RESULT: -8.480597705      1.323      1.651
REMARK  10 active torsions:
REMARK  status: ('A' for Active; 'I' for Inactive)
REMARK    1  A    between atoms: C2_2  and  C4_4 
REMARK    2  A    between atoms: C4_4  and  O1_5 
REMARK    3  A    between atoms: O1_5  and  C5_6 
REMARK       I    between atoms: C5_6  and  N1_8 
REMARK    4  A    between atoms: C7_10  and  N2_11 
REMARK    5  A    between atoms: C16_22  and  N4_23 
REMARK    6  A    between atoms: N4_23  and  C17_25 
REMARK    7  A    between atoms: N5_32  and  C23_33 
REMARK    8  A    between atoms: C23_33  and  O4_34 
REMARK    9  A    between atoms: C23_33  and  C24_36 
REMARK   10  A    between atoms: C24_36  and  C25_37 
ROOT
HETATM    1  C4  UNL     1       4.119  -3.847 -10.943  1.00  0.00     0.153 C 
HETATM    2  C15 UNL     1       4.394  -5.296 -11.493  1.00  0.00     0.088 C 
HETATM    3  C16 UNL     1       4.507  -5.106 -12.955  1.00  0.00     0.099 C 
HETATM    4  C22 UNL     1       4.759  -3.663 -13.099  1.00  0.00     0.152 C 
HETATM    5  N5  UNL     1       3.713  -3.147 -12.088  1.00  0.00    -0.330 N 
ENDROOT
BRANCH   1   6
HETATM    6  C2  UNL     1       5.408  -3.488 -10.265  1.00  0.00     0.034 C 
HETATM    7  C1  UNL     1       5.567  -2.071  -9.837  1.00  0.00     0.014 C 
HETATM    8  C3  UNL     1       5.374  -4.287  -8.923  1.00  0.00     0.014 C 
ENDBRANCH   1   6
BRANCH   1   9
HETATM    9  O1  UNL     1       3.199  -4.015  -9.881  1.00  0.00    -0.271 OA
BRANCH   9  10
HETATM   10  C5  UNL     1       2.032  -4.712  -9.908  1.00  0.00     0.365 C 
HETATM   11  O2  UNL     1       1.080  -4.257 -10.540  1.00  0.00    -0.238 OA
HETATM   12  N1  UNL     1       1.843  -5.962  -9.233  1.00  0.00    -0.324 N 
HETATM   13  C6  UNL     1       0.796  -6.929  -9.045  1.00  0.00     0.165 C 
HETATM   14  C14 UNL     1       2.724  -6.764  -8.428  1.00  0.00     0.165 C 
HETATM   15  C7  UNL     1       1.604  -7.634  -8.029  1.00  0.00     0.259 C 
BRANCH  15  16
HETATM   16  N2  UNL     1       1.783  -9.059  -8.196  1.00  0.00     0.103 N 
HETATM   17  C8  UNL     1       3.131  -9.509  -7.913  1.00  0.00     0.293 C 
HETATM   18  C9  UNL     1       3.288 -10.920  -8.432  1.00  0.00     0.152 C 
HETATM   19  N3  UNL     1       2.066 -11.698  -8.188  1.00  0.00    -0.384 N 
HETATM   20  C10 UNL     1       1.862 -12.977  -8.838  1.00  0.00     0.149 C 
HETATM   21  C11 UNL     1       1.110 -11.158  -7.296  1.00  0.00     0.062 C 
HETATM   22  C12 UNL     1       0.498 -11.951  -6.419  1.00  0.00     0.214 C 
HETATM   23  C13 UNL     1       0.808  -9.704  -7.360  1.00  0.00     0.332 C 
HETATM   24  F1  UNL     1       0.745 -13.267  -6.333  1.00  0.00    -0.217 F 
ENDBRANCH  15  16
ENDBRANCH   9  10
ENDBRANCH   1   9
BRANCH   5  25
HETATM   25  C23 UNL     1       2.827  -2.229 -12.589  1.00  0.00     0.134 C 
BRANCH  25  26
HETATM   26  O4  UNL     1       1.769  -2.749 -13.250  1.00  0.00    -0.349 OA
ATOM     27  H4  UNL     1       1.095  -2.125 -13.492  1.00  0.00     0.219 HD
ENDBRANCH  25  26
BRANCH  25  28
HETATM   28  C24 UNL     1       2.683  -0.756 -12.609  1.00  0.00     0.132 A 
HETATM   29  C28 UNL     1       3.020  -0.161 -13.940  1.00  0.00     0.266 A 
HETATM   30  F2  UNL     1       2.307   0.779 -14.580  1.00  0.00    -0.241 F 
HETATM   31  C29 UNL     1       3.926   0.109 -12.828  1.00  0.00     0.293 A 
HETATM   32  F3  UNL     1       5.159  -0.504 -12.721  1.00  0.00    -0.202 F 
HETATM   33  F4  UNL     1       3.952   1.403 -12.383  1.00  0.00    -0.202 F 
BRANCH  28  34
HETATM   34  C25 UNL     1       1.740  -0.130 -11.650  1.00  0.00     0.003 C 
HETATM   35  C26 UNL     1       1.505  -0.775 -10.329  1.00  0.00     0.011 C 
HETATM   36  C27 UNL     1       0.320  -0.279 -12.388  1.00  0.00     0.011 C 
ENDBRANCH  28  34
ENDBRANCH  25  28
ENDBRANCH   5  25
BRANCH   3  37
HETATM   37  N4  UNL     1       5.245  -6.008 -13.699  1.00  0.00    -0.411 N 
ATOM     38  H4  UNL     1       5.778  -6.690 -13.159  1.00  0.00     0.154 HD
BRANCH  37  39
HETATM   39  C17 UNL     1       5.361  -6.113 -15.058  1.00  0.00     0.081 C 
HETATM   40  C18 UNL     1       5.962  -4.976 -15.838  1.00  0.00     0.051 C 
HETATM   41  C19 UNL     1       5.757  -5.324 -17.320  1.00  0.00     0.169 C 
HETATM   42  O3  UNL     1       4.841  -6.347 -17.496  1.00  0.00    -0.391 OA
HETATM   43  C20 UNL     1       5.329  -7.588 -17.027  1.00  0.00     0.169 C 
HETATM   44  C21 UNL     1       5.945  -7.389 -15.636  1.00  0.00     0.051 C 
ENDBRANCH  37  39
ENDBRANCH   3  37
TORSDOF 10
ENDMDL
MODEL 4
REMARK VINA RESULT: -8.170627863      1.401      1.933
REMARK  10 active torsions:
REMARK  status: ('A' for Active; 'I' for Inactive)
REMARK    1  A    between atoms: C2_2  and  C4_4 
REMARK    2  A    between atoms: C4_4  and  O1_5 
REMARK    3  A    between atoms: O1_5  and  C5_6 
REMARK       I    between atoms: C5_6  and  N1_8 
REMARK    4  A    between atoms: C7_10  and  N2_11 
REMARK    5  A    between atoms: C16_22  and  N4_23 
REMARK    6  A    between atoms: N4_23  and  C17_25 
REMARK    7  A    between atoms: N5_32  and  C23_33 
REMARK    8  A    between atoms: C23_33  and  O4_34 
REMARK    9  A    between atoms: C23_33  and  C24_36 
REMARK   10  A    between atoms: C24_36  and  C25_37 
ROOT
HETATM    1  C4  UNL     1       4.138  -3.639 -11.040  1.00  0.00     0.153 C 
HETATM    2  C15 UNL     1       4.383  -5.105 -11.560  1.00  0.00     0.088 C 
HETATM    3  C16 UNL     1       4.527  -4.943 -13.023  1.00  0.00     0.099 C 
HETATM    4  C22 UNL     1       4.821  -3.511 -13.187  1.00  0.00     0.152 C 
HETATM    5  N5  UNL     1       3.772  -2.949 -12.204  1.00  0.00    -0.330 N 
ENDROOT
BRANCH   1   6
HETATM    6  C2  UNL     1       5.424  -3.303 -10.345  1.00  0.00     0.034 C 
HETATM    7  C1  UNL     1       5.606  -1.887  -9.921  1.00  0.00     0.014 C 
HETATM    8  C3  UNL     1       5.354  -4.096  -9.000  1.00  0.00     0.014 C 
ENDBRANCH   1   6
BRANCH   1   9
HETATM    9  O1  UNL     1       3.195  -3.765  -9.993  1.00  0.00    -0.271 OA
BRANCH   9  10
HETATM   10  C5  UNL     1       2.024  -4.453 -10.020  1.00  0.00     0.365 C 
HETATM   11  O2  UNL     1       1.073  -3.986 -10.645  1.00  0.00    -0.238 OA
HETATM   12  N1  UNL     1       1.828  -5.706  -9.352  1.00  0.00    -0.324 N 
HETATM   13  C6  UNL     1       0.774  -6.667  -9.168  1.00  0.00     0.165 C 
HETATM   14  C14 UNL     1       2.706  -6.520  -8.556  1.00  0.00     0.165 C 
HETATM   15  C7  UNL     1       1.581  -7.385  -8.159  1.00  0.00     0.259 C 
BRANCH  15  16
HETATM   16  N2  UNL     1       1.749  -8.810  -8.337  1.00  0.00     0.103 N 
HETATM   17  C8  UNL     1       3.101  -9.267  -8.087  1.00  0.00     0.293 C 
HETATM   18  C9  UNL     1       3.239 -10.677  -8.616  1.00  0.00     0.152 C 
HETATM   19  N3  UNL     1       2.019 -11.450  -8.348  1.00  0.00    -0.384 N 
HETATM   20  C10 UNL     1       1.794 -12.725  -8.999  1.00  0.00     0.149 C 
HETATM   21  C11 UNL     1       1.087 -10.909  -7.431  1.00  0.00     0.062 C 
HETATM   22  C12 UNL     1       0.491 -11.704  -6.544  1.00  0.00     0.214 C 
HETATM   23  C13 UNL     1       0.791  -9.454  -7.482  1.00  0.00     0.332 C 
HETATM   24  F1  UNL     1       0.734 -13.022  -6.469  1.00  0.00    -0.217 F 
ENDBRANCH  15  16
ENDBRANCH   9  10
ENDBRANCH   1   9
BRANCH   5  25
HETATM   25  C23 UNL     1       2.919  -2.016 -12.736  1.00  0.00     0.134 C 
BRANCH  25  26
HETATM   26  O4  UNL     1       1.812  -2.518 -13.329  1.00  0.00    -0.349 OA
ATOM     27  H4  UNL     1       1.246  -1.875 -13.740  1.00  0.00     0.219 HD
ENDBRANCH  25  26
BRANCH  25  28
HETATM   28  C24 UNL     1       2.854  -0.543 -12.849  1.00  0.00     0.132 A 
HETATM   29  C28 UNL     1       2.353   0.111 -11.599  1.00  0.00     0.266 A 
HETATM   30  F2  UNL     1       2.886   1.196 -11.016  1.00  0.00    -0.241 F 
HETATM   31  C29 UNL     1       1.492   0.150 -12.777  1.00  0.00     0.293 A 
HETATM   32  F3  UNL     1       0.365  -0.642 -12.888  1.00  0.00    -0.202 F 
HETATM   33  F4  UNL     1       1.314   1.383 -13.343  1.00  0.00    -0.202 F 
BRANCH  28  34
HETATM   34  C25 UNL     1       3.761   0.128 -13.813  1.00  0.00     0.003 C 
HETATM   35  C26 UNL     1       4.148  -0.579 -15.064  1.00  0.00     0.011 C 
HETATM   36  C27 UNL     1       5.146   0.224 -13.004  1.00  0.00     0.011 C 
ENDBRANCH  28  34
ENDBRANCH  25  28
ENDBRANCH   5  25
BRANCH   3  37
HETATM   37  N4  UNL     1       5.254  -5.877 -13.738  1.00  0.00    -0.411 N 
ATOM     38  H4  UNL     1       5.782  -6.546 -13.177  1.00  0.00     0.154 HD
BRANCH  37  39
HETATM   39  C17 UNL     1       5.364  -6.030 -15.093  1.00  0.00     0.081 C 
HETATM   40  C18 UNL     1       5.925  -4.906 -15.919  1.00  0.00     0.051 C 
HETATM   41  C19 UNL     1       5.721  -5.315 -17.386  1.00  0.00     0.169 C 
HETATM   42  O3  UNL     1       4.835  -6.371 -17.517  1.00  0.00    -0.391 OA
HETATM   43  C20 UNL     1       5.364  -7.578 -17.005  1.00  0.00     0.169 C 
HETATM   44  C21 UNL     1       5.983  -7.309 -15.627  1.00  0.00     0.051 C 
ENDBRANCH  37  39
ENDBRANCH   3  37
TORSDOF 10
ENDMDL
MODEL 5
REMARK VINA RESULT: -7.957938130      2.353      3.363
REMARK  10 active torsions:
REMARK  status: ('A' for Active; 'I' for Inactive)
REMARK    1  A    between atoms: C2_2  and  C4_4 
REMARK    2  A    between atoms: C4_4  and  O1_5 
REMARK    3  A    between atoms: O1_5  and  C5_6 
REMARK       I    between atoms: C5_6  and  N1_8 
REMARK    4  A    between atoms: C7_10  and  N2_11 
REMARK    5  A    between atoms: C16_22  and  N4_23 
REMARK    6  A    between atoms: N4_23  and  C17_25 
REMARK    7  A    between atoms: N5_32  and  C23_33 
REMARK    8  A    between atoms: C23_33  and  O4_34 
REMARK    9  A    between atoms: C23_33  and  C24_36 
REMARK   10  A    between atoms: C24_36  and  C25_37 
ROOT
HETATM    1  C4  UNL     1       4.382  -1.729 -12.575  1.00  0.00     0.153 C 
HETATM    2  C15 UNL     1       4.380  -3.216 -13.091  1.00  0.00     0.088 C 
HETATM    3  C16 UNL     1       4.977  -3.123 -14.441  1.00  0.00     0.099 C 
HETATM    4  C22 UNL     1       5.663  -1.822 -14.429  1.00  0.00     0.152 C 
HETATM    5  N5  UNL     1       4.556  -0.987 -13.751  1.00  0.00    -0.330 N 
ENDROOT
BRANCH   1   6
HETATM    6  C2  UNL     1       5.454  -1.731 -11.526  1.00  0.00     0.034 C 
HETATM    7  C1  UNL     1       5.179  -0.956 -10.285  1.00  0.00     0.014 C 
HETATM    8  C3  UNL     1       5.515  -3.215 -11.039  1.00  0.00     0.014 C 
ENDBRANCH   1   6
BRANCH   1   9
HETATM    9  O1  UNL     1       3.178  -1.583 -11.845  1.00  0.00    -0.271 OA
BRANCH   9  10
HETATM   10  C5  UNL     1       2.116  -2.432 -11.834  1.00  0.00     0.365 C 
HETATM   11  O2  UNL     1       1.222  -2.280 -12.665  1.00  0.00    -0.238 OA
HETATM   12  N1  UNL     1       1.975  -3.507 -10.897  1.00  0.00    -0.324 N 
HETATM   13  C6  UNL     1       1.030  -4.549 -10.599  1.00  0.00     0.165 C 
HETATM   14  C14 UNL     1       2.813  -3.964  -9.822  1.00  0.00     0.165 C 
HETATM   15  C7  UNL     1       1.755  -4.875  -9.353  1.00  0.00     0.259 C 
BRANCH  15  16
HETATM   16  N2  UNL     1       2.120  -6.258  -9.140  1.00  0.00     0.103 N 
HETATM   17  C8  UNL     1       3.337  -6.422  -8.370  1.00  0.00     0.293 C 
HETATM   18  C9  UNL     1       3.796  -7.857  -8.494  1.00  0.00     0.152 C 
HETATM   19  N3  UNL     1       2.646  -8.770  -8.468  1.00  0.00    -0.384 N 
HETATM   20  C10 UNL     1       2.797 -10.160  -8.852  1.00  0.00     0.149 C 
HETATM   21  C11 UNL     1       1.400  -8.247  -8.049  1.00  0.00     0.062 C 
HETATM   22  C12 UNL     1       0.615  -8.963  -7.247  1.00  0.00     0.214 C 
HETATM   23  C13 UNL     1       0.994  -6.898  -8.520  1.00  0.00     0.332 C 
HETATM   24  F1  UNL     1       0.949 -10.185  -6.804  1.00  0.00    -0.217 F 
ENDBRANCH  15  16
ENDBRANCH   9  10
ENDBRANCH   1   9
BRANCH   5  25
HETATM   25  C23 UNL     1       4.163   0.128 -14.445  1.00  0.00     0.134 C 
BRANCH  25  26
HETATM   26  O4  UNL     1       2.841   0.205 -14.713  1.00  0.00    -0.349 OA
ATOM     27  H4  UNL     1       2.620   0.443 -15.606  1.00  0.00     0.219 HD
ENDBRANCH  25  26
BRANCH  25  28
HETATM   28  C24 UNL     1       4.802   1.338 -15.010  1.00  0.00     0.132 A 
HETATM   29  C28 UNL     1       4.241   1.719 -16.344  1.00  0.00     0.266 A 
HETATM   30  F2  UNL     1       3.901   2.960 -16.724  1.00  0.00    -0.241 F 
HETATM   31  C29 UNL     1       5.611   1.217 -16.303  1.00  0.00     0.293 A 
HETATM   32  F3  UNL     1       5.940  -0.053 -16.735  1.00  0.00    -0.202 F 
HETATM   33  F4  UNL     1       6.587   2.131 -16.593  1.00  0.00    -0.202 F 
BRANCH  28  34
HETATM   34  C25 UNL     1       5.409   2.313 -14.071  1.00  0.00     0.003 C 
HETATM   35  C26 UNL     1       5.789   1.871 -12.702  1.00  0.00     0.011 C 
HETATM   36  C27 UNL     1       4.212   3.351 -13.801  1.00  0.00     0.011 C 
ENDBRANCH  28  34
ENDBRANCH  25  28
ENDBRANCH   5  25
BRANCH   3  37
HETATM   37  N4  UNL     1       5.613  -4.228 -14.976  1.00  0.00    -0.411 N 
ATOM     38  H4  UNL     1       6.175  -4.772 -14.321  1.00  0.00     0.154 HD
BRANCH  37  39
HETATM   39  C17 UNL     1       5.594  -4.694 -16.262  1.00  0.00     0.081 C 
HETATM   40  C18 UNL     1       5.365  -6.159 -16.513  1.00  0.00     0.051 C 
HETATM   41  C19 UNL     1       5.606  -6.375 -18.015  1.00  0.00     0.169 C 
HETATM   42  O3  UNL     1       6.250  -5.299 -18.602  1.00  0.00    -0.391 OA
HETATM   43  C20 UNL     1       5.428  -4.150 -18.656  1.00  0.00     0.169 C 
HETATM   44  C21 UNL     1       4.762  -3.947 -17.289  1.00  0.00     0.051 C 
ENDBRANCH  37  39
ENDBRANCH   3  37
TORSDOF 10
ENDMDL
