MODEL 1
REMARK VINA RESULT: -8.757866015      0.000      0.000
REMARK  8 active torsions:
REMARK  status: ('A' for Active; 'I' for Inactive)
REMARK       I    between atoms: C2_2  and  N1_4 
REMARK    1  A    between atoms: C5_7  and  N2_8 
REMARK       I    between atoms: N2_8  and  C6_10 
REMARK    2  A    between atoms: C6_10  and  C7_12 
REMARK    3  A    between atoms: C7_12  and  C8_13 
REMARK    4  A    between atoms: C8_13  and  C9_14 
REMARK    5  A    between atoms: C12_17  and  O3_18 
REMARK    6  A    between atoms: O3_18  and  C13_19 
REMARK    7  A    between atoms: N3_26  and  S1_27 
REMARK    8  A    between atoms: S1_27  and  C17_30 
ROOT
HETATM    1  C8  UNL     1       3.572  -3.251  -9.627  1.00  0.00     0.025 C 
HETATM    2  C16 UNL     1       2.813  -2.482 -10.691  1.00  0.00     0.123 C 
HETATM    3  N3  UNL     1       3.558  -1.329 -11.133  1.00  0.00    -0.209 NA
HETATM    4  C22 UNL     1       3.988  -0.476 -10.081  1.00  0.00     0.109 C 
HETATM    5  C23 UNL     1       4.730  -1.205  -8.998  1.00  0.00     0.037 C 
HETATM    6  C24 UNL     1       3.833  -2.313  -8.490  1.00  0.00     0.098 C 
HETATM    7 CL1  UNL     1       2.266  -1.500  -8.123  1.00  0.00    -0.124 Cl
ENDROOT
BRANCH   1   8
HETATM    8  C7  UNL     1       4.825  -3.764 -10.304  1.00  0.00     0.120 C 
BRANCH   8   9
HETATM    9  C6  UNL     1       4.583  -4.452 -11.581  1.00  0.00     0.219 C 
HETATM   10  N2  UNL     1       4.959  -3.808 -12.784  1.00  0.00    -0.356 N 
ATOM     11  H2  UNL     1       5.379  -2.879 -12.744  1.00  0.00     0.162 HD
HETATM   12  O2  UNL     1       4.059  -5.581 -11.635  1.00  0.00    -0.274 OA
BRANCH  10  13
HETATM   13  C5  UNL     1       4.757  -4.453 -14.089  1.00  0.00     0.087 C 
HETATM   14  C4  UNL     1       5.830  -5.478 -14.302  1.00  0.00     0.045 C 
HETATM   15  C3  UNL     1       5.871  -6.055 -15.677  1.00  0.00     0.127 C 
HETATM   16  N1  UNL     1       5.534  -5.058 -16.679  1.00  0.00    -0.352 N 
HETATM   17  C2  UNL     1       5.154  -5.454 -17.975  1.00  0.00     0.215 C 
HETATM   18  C26 UNL     1       5.619  -3.677 -16.265  1.00  0.00     0.127 C 
HETATM   19  C1  UNL     1       4.788  -4.484 -19.032  1.00  0.00     0.117 C 
HETATM   20  O1  UNL     1       5.120  -6.689 -18.255  1.00  0.00    -0.274 OA
HETATM   21  C25 UNL     1       4.598  -3.454 -15.184  1.00  0.00     0.045 C 
ENDBRANCH  10  13
ENDBRANCH   8   9
ENDBRANCH   1   8
BRANCH   1  22
HETATM   22  C9  UNL     1       2.760  -4.405  -9.208  1.00  0.00    -0.046 A 
HETATM   23  C10 UNL     1       3.223  -5.280  -8.213  1.00  0.00     0.011 A 
HETATM   24  C11 UNL     1       2.509  -6.361  -7.775  1.00  0.00     0.037 A 
HETATM   25  C12 UNL     1       1.281  -6.642  -8.305  1.00  0.00     0.078 A 
HETATM   26  C14 UNL     1       0.784  -5.829  -9.273  1.00  0.00     0.037 A 
HETATM   27  C15 UNL     1       1.523  -4.722  -9.716  1.00  0.00     0.011 A 
BRANCH  25  28
HETATM   28  O3  UNL     1       0.589  -7.746  -7.836  1.00  0.00    -0.255 OA
BRANCH  28  29
HETATM   29  C13 UNL     1       0.701  -8.967  -8.515  1.00  0.00     0.530 C 
HETATM   30  F1  UNL     1       2.045  -9.272  -8.769  1.00  0.00    -0.144 F 
HETATM   31  F2  UNL     1       0.197  -9.980  -7.697  1.00  0.00    -0.144 F 
HETATM   32  F3  UNL     1      -0.009  -8.873  -9.693  1.00  0.00    -0.144 F 
ENDBRANCH  28  29
ENDBRANCH  25  28
ENDBRANCH   1  22
BRANCH   3  33
HETATM   33  S1  UNL     1       2.736  -0.577 -12.388  1.00  0.00     0.215 S 
HETATM   34  O4  UNL     1       1.472  -1.346 -12.666  1.00  0.00    -0.211 OA
HETATM   35  O5  UNL     1       2.261   0.793 -11.917  1.00  0.00    -0.211 OA
BRANCH  33  36
HETATM   36  C17 UNL     1       3.667  -0.278 -13.859  1.00  0.00     0.128 C 
HETATM   37  C18 UNL     1       3.386   1.062 -14.498  1.00  0.00     0.047 C 
HETATM   38  C19 UNL     1       4.670   1.515 -15.208  1.00  0.00     0.168 C 
HETATM   39  O6  UNL     1       5.652   1.882 -14.325  1.00  0.00    -0.391 OA
HETATM   40  C20 UNL     1       5.469   1.205 -13.117  1.00  0.00     0.168 C 
HETATM   41  C21 UNL     1       5.130  -0.241 -13.452  1.00  0.00     0.047 C 
ENDBRANCH  33  36
ENDBRANCH   3  33
TORSDOF 8
ENDMDL
MODEL 2
REMARK VINA RESULT: -8.455198554      3.625      6.772
REMARK  8 active torsions:
REMARK  status: ('A' for Active; 'I' for Inactive)
REMARK       I    between atoms: C2_2  and  N1_4 
REMARK    1  A    between atoms: C5_7  and  N2_8 
REMARK       I    between atoms: N2_8  and  C6_10 
REMARK    2  A    between atoms: C6_10  and  C7_12 
REMARK    3  A    between atoms: C7_12  and  C8_13 
REMARK    4  A    between atoms: C8_13  and  C9_14 
REMARK    5  A    between atoms: C12_17  and  O3_18 
REMARK    6  A    between atoms: O3_18  and  C13_19 
REMARK    7  A    between atoms: N3_26  and  S1_27 
REMARK    8  A    between atoms: S1_27  and  C17_30 
ROOT
HETATM    1  C8  UNL     1       4.316  -2.725 -12.369  1.00  0.00     0.025 C 
HETATM    2  C16 UNL     1       4.157  -1.354 -12.996  1.00  0.00     0.123 C 
HETATM    3  N3  UNL     1       3.668  -0.394 -12.037  1.00  0.00    -0.209 NA
HETATM    4  C22 UNL     1       2.486  -0.798 -11.360  1.00  0.00     0.109 C 
HETATM    5  C23 UNL     1       2.600  -2.160 -10.739  1.00  0.00     0.037 C 
HETATM    6  C24 UNL     1       2.981  -3.136 -11.831  1.00  0.00     0.098 C 
HETATM    7 CL1  UNL     1       1.784  -2.839 -13.146  1.00  0.00    -0.124 Cl
ENDROOT
BRANCH   1   8
HETATM    8  C7  UNL     1       5.387  -2.571 -11.310  1.00  0.00     0.120 C 
BRANCH   8   9
HETATM    9  C6  UNL     1       5.229  -3.468 -10.155  1.00  0.00     0.219 C 
HETATM   10  N2  UNL     1       4.794  -4.796 -10.377  1.00  0.00    -0.356 N 
ATOM     11  H2  UNL     1       4.588  -5.102 -11.328  1.00  0.00     0.162 HD
HETATM   12  O2  UNL     1       5.467  -3.094  -8.990  1.00  0.00    -0.274 OA
BRANCH  10  13
HETATM   13  C5  UNL     1       4.633  -5.741  -9.264  1.00  0.00     0.087 C 
HETATM   14  C4  UNL     1       5.037  -7.111  -9.720  1.00  0.00     0.045 C 
HETATM   15  C3  UNL     1       4.718  -8.204  -8.755  1.00  0.00     0.127 C 
HETATM   16  N1  UNL     1       3.466  -7.950  -8.063  1.00  0.00    -0.352 N 
HETATM   17  C2  UNL     1       3.161  -8.636  -6.872  1.00  0.00     0.215 C 
HETATM   18  C26 UNL     1       2.584  -6.978  -8.666  1.00  0.00     0.127 C 
HETATM   19  C1  UNL     1       1.907  -8.409  -6.118  1.00  0.00     0.117 C 
HETATM   20  O1  UNL     1       3.989  -9.483  -6.423  1.00  0.00    -0.274 OA
HETATM   21  C25 UNL     1       3.281  -5.645  -8.644  1.00  0.00     0.045 C 
ENDBRANCH  10  13
ENDBRANCH   8   9
ENDBRANCH   1   8
BRANCH   1  22
HETATM   22  C9  UNL     1       4.804  -3.661 -13.394  1.00  0.00    -0.046 A 
HETATM   23  C10 UNL     1       5.390  -3.183 -14.577  1.00  0.00     0.011 A 
HETATM   24  C11 UNL     1       5.872  -4.002 -15.559  1.00  0.00     0.037 A 
HETATM   25  C12 UNL     1       5.800  -5.360 -15.426  1.00  0.00     0.078 A 
HETATM   26  C14 UNL     1       5.241  -5.879 -14.302  1.00  0.00     0.037 A 
HETATM   27  C15 UNL     1       4.749  -5.031 -13.299  1.00  0.00     0.011 A 
BRANCH  25  28
HETATM   28  O3  UNL     1       6.298  -6.158 -16.442  1.00  0.00    -0.255 OA
BRANCH  28  29
HETATM   29  C13 UNL     1       5.606  -6.235 -17.658  1.00  0.00     0.530 C 
HETATM   30  F1  UNL     1       4.451  -5.442 -17.623  1.00  0.00    -0.144 F 
HETATM   31  F2  UNL     1       6.424  -5.727 -18.670  1.00  0.00    -0.144 F 
HETATM   32  F3  UNL     1       5.285  -7.556 -17.889  1.00  0.00    -0.144 F 
ENDBRANCH  28  29
ENDBRANCH  25  28
ENDBRANCH   1  22
BRANCH   3  33
HETATM   33  S1  UNL     1       3.618   1.128 -12.742  1.00  0.00     0.215 S 
HETATM   34  O4  UNL     1       2.394   1.216 -13.614  1.00  0.00    -0.211 OA
HETATM   35  O5  UNL     1       3.394   2.170 -11.651  1.00  0.00    -0.211 OA
BRANCH  33  36
HETATM   36  C17 UNL     1       5.079   1.639 -13.594  1.00  0.00     0.128 C 
HETATM   37  C18 UNL     1       5.003   1.464 -15.093  1.00  0.00     0.047 C 
HETATM   38  C19 UNL     1       5.877   2.554 -15.731  1.00  0.00     0.168 C 
HETATM   39  O6  UNL     1       5.321   3.801 -15.616  1.00  0.00    -0.391 OA
HETATM   40  C20 UNL     1       4.492   3.839 -14.492  1.00  0.00     0.168 C 
HETATM   41  C21 UNL     1       5.224   3.133 -13.360  1.00  0.00     0.047 C 
ENDBRANCH  33  36
ENDBRANCH   3  33
TORSDOF 8
ENDMDL
MODEL 3
REMARK VINA RESULT: -8.370909502      0.535      1.057
REMARK  8 active torsions:
REMARK  status: ('A' for Active; 'I' for Inactive)
REMARK       I    between atoms: C2_2  and  N1_4 
REMARK    1  A    between atoms: C5_7  and  N2_8 
REMARK       I    between atoms: N2_8  and  C6_10 
REMARK    2  A    between atoms: C6_10  and  C7_12 
REMARK    3  A    between atoms: C7_12  and  C8_13 
REMARK    4  A    between atoms: C8_13  and  C9_14 
REMARK    5  A    between atoms: C12_17  and  O3_18 
REMARK    6  A    between atoms: O3_18  and  C13_19 
REMARK    7  A    between atoms: N3_26  and  S1_27 
REMARK    8  A    between atoms: S1_27  and  C17_30 
ROOT
HETATM    1  C8  UNL     1       3.621  -3.285  -9.441  1.00  0.00     0.025 C 
HETATM    2  C16 UNL     1       2.867  -2.475 -10.478  1.00  0.00     0.123 C 
HETATM    3  N3  UNL     1       3.621  -1.315 -10.885  1.00  0.00    -0.209 NA
HETATM    4  C22 UNL     1       4.063  -0.500  -9.808  1.00  0.00     0.109 C 
HETATM    5  C23 UNL     1       4.801  -1.271  -8.751  1.00  0.00     0.037 C 
HETATM    6  C24 UNL     1       3.895  -2.387  -8.276  1.00  0.00     0.098 C 
HETATM    7 CL1  UNL     1       2.337  -1.571  -7.878  1.00  0.00    -0.124 Cl
ENDROOT
BRANCH   1   8
HETATM    8  C7  UNL     1       4.867  -3.788 -10.139  1.00  0.00     0.120 C 
BRANCH   8   9
HETATM    9  C6  UNL     1       4.615  -4.433 -11.436  1.00  0.00     0.219 C 
HETATM   10  N2  UNL     1       4.900  -3.715 -12.621  1.00  0.00    -0.356 N 
ATOM     11  H2  UNL     1       5.263  -2.764 -12.555  1.00  0.00     0.162 HD
HETATM   12  O2  UNL     1       4.159  -5.590 -11.522  1.00  0.00    -0.274 OA
BRANCH  10  13
HETATM   13  C5  UNL     1       4.683  -4.314 -13.946  1.00  0.00     0.087 C 
HETATM   14  C4  UNL     1       5.681  -5.412 -14.158  1.00  0.00     0.045 C 
HETATM   15  C3  UNL     1       5.713  -5.960 -15.545  1.00  0.00     0.127 C 
HETATM   16  N1  UNL     1       5.479  -4.918 -16.531  1.00  0.00    -0.352 N 
HETATM   17  C2  UNL     1       5.103  -5.256 -17.845  1.00  0.00     0.215 C 
HETATM   18  C26 UNL     1       5.657  -3.557 -16.082  1.00  0.00     0.127 C 
HETATM   19  C1  UNL     1       4.838  -4.238 -18.887  1.00  0.00     0.117 C 
HETATM   20  O1  UNL     1       4.984  -6.479 -18.154  1.00  0.00    -0.274 OA
HETATM   21  C25 UNL     1       4.628  -3.282 -15.020  1.00  0.00     0.045 C 
ENDBRANCH  10  13
ENDBRANCH   8   9
ENDBRANCH   1   8
BRANCH   1  22
HETATM   22  C9  UNL     1       2.800  -4.444  -9.058  1.00  0.00    -0.046 A 
HETATM   23  C10 UNL     1       3.237  -5.331  -8.061  1.00  0.00     0.011 A 
HETATM   24  C11 UNL     1       2.514  -6.417  -7.655  1.00  0.00     0.037 A 
HETATM   25  C12 UNL     1       1.299  -6.692  -8.219  1.00  0.00     0.078 A 
HETATM   26  C14 UNL     1       0.827  -5.867  -9.189  1.00  0.00     0.037 A 
HETATM   27  C15 UNL     1       1.576  -4.755  -9.601  1.00  0.00     0.011 A 
BRANCH  25  28
HETATM   28  O3  UNL     1       0.595  -7.802  -7.782  1.00  0.00    -0.255 OA
BRANCH  28  29
HETATM   29  C13 UNL     1       0.692  -9.002  -8.497  1.00  0.00     0.530 C 
HETATM   30  F1  UNL     1       0.013  -8.908  -9.720  1.00  0.00    -0.144 F 
HETATM   31  F2  UNL     1       2.036  -9.241  -8.790  1.00  0.00    -0.144 F 
HETATM   32  F3  UNL     1       0.161 -10.011  -7.721  1.00  0.00    -0.144 F 
ENDBRANCH  28  29
ENDBRANCH  25  28
ENDBRANCH   1  22
BRANCH   3  33
HETATM   33  S1  UNL     1       2.803  -0.515 -12.113  1.00  0.00     0.215 S 
HETATM   34  O4  UNL     1       2.463  -1.509 -13.192  1.00  0.00    -0.211 OA
HETATM   35  O5  UNL     1       1.455  -0.042 -11.581  1.00  0.00    -0.211 OA
BRANCH  33  36
HETATM   36  C17 UNL     1       3.591   0.926 -12.762  1.00  0.00     0.128 C 
HETATM   37  C18 UNL     1       5.093   0.808 -12.863  1.00  0.00     0.047 C 
HETATM   38  C19 UNL     1       5.548   1.675 -14.046  1.00  0.00     0.168 C 
HETATM   39  O6  UNL     1       5.191   1.136 -15.255  1.00  0.00    -0.391 OA
HETATM   40  C20 UNL     1       4.056   0.338 -15.092  1.00  0.00     0.168 C 
HETATM   41  C21 UNL     1       3.093   1.094 -14.187  1.00  0.00     0.047 C 
ENDBRANCH  33  36
ENDBRANCH   3  33
TORSDOF 8
ENDMDL
MODEL 4
REMARK VINA RESULT: -8.360318490      3.444      6.534
REMARK  8 active torsions:
REMARK  status: ('A' for Active; 'I' for Inactive)
REMARK       I    between atoms: C2_2  and  N1_4 
REMARK    1  A    between atoms: C5_7  and  N2_8 
REMARK       I    between atoms: N2_8  and  C6_10 
REMARK    2  A    between atoms: C6_10  and  C7_12 
REMARK    3  A    between atoms: C7_12  and  C8_13 
REMARK    4  A    between atoms: C8_13  and  C9_14 
REMARK    5  A    between atoms: C12_17  and  O3_18 
REMARK    6  A    between atoms: O3_18  and  C13_19 
REMARK    7  A    between atoms: N3_26  and  S1_27 
REMARK    8  A    between atoms: S1_27  and  C17_30 
ROOT
HETATM    1  C8  UNL     1       4.380  -2.385 -11.575  1.00  0.00     0.025 C 
HETATM    2  C16 UNL     1       4.374  -0.953 -12.074  1.00  0.00     0.123 C 
HETATM    3  N3  UNL     1       4.110  -0.027 -11.000  1.00  0.00    -0.209 NA
HETATM    4  C22 UNL     1       2.939  -0.323 -10.251  1.00  0.00     0.109 C 
HETATM    5  C23 UNL     1       2.902  -1.739  -9.753  1.00  0.00     0.037 C 
HETATM    6  C24 UNL     1       3.047  -2.653 -10.950  1.00  0.00     0.098 C 
HETATM    7 CL1  UNL     1       1.805  -2.073 -12.121  1.00  0.00    -0.124 Cl
ENDROOT
BRANCH   1   8
HETATM    8  C7  UNL     1       5.544  -2.479 -10.610  1.00  0.00     0.120 C 
BRANCH   8   9
HETATM    9  C6  UNL     1       5.369  -3.481  -9.548  1.00  0.00     0.219 C 
HETATM   10  N2  UNL     1       4.906  -4.772  -9.898  1.00  0.00    -0.356 N 
ATOM     11  H2  UNL     1       4.693  -4.979 -10.873  1.00  0.00     0.162 HD
HETATM   12  O2  UNL     1       5.616  -3.227  -8.353  1.00  0.00    -0.274 OA
BRANCH  10  13
HETATM   13  C5  UNL     1       4.728  -5.818  -8.881  1.00  0.00     0.087 C 
HETATM   14  C4  UNL     1       5.151  -7.137  -9.454  1.00  0.00     0.045 C 
HETATM   15  C3  UNL     1       4.819  -8.317  -8.603  1.00  0.00     0.127 C 
HETATM   16  N1  UNL     1       3.550  -8.135  -7.919  1.00  0.00    -0.352 N 
HETATM   17  C2  UNL     1       3.224  -8.932  -6.805  1.00  0.00     0.215 C 
HETATM   18  C26 UNL     1       2.675  -7.115  -8.449  1.00  0.00     0.127 C 
HETATM   19  C1  UNL     1       1.952  -8.782  -6.061  1.00  0.00     0.117 C 
HETATM   20  O1  UNL     1       4.048  -9.812  -6.418  1.00  0.00    -0.274 OA
HETATM   21  C25 UNL     1       3.361  -5.787  -8.286  1.00  0.00     0.045 C 
ENDBRANCH  10  13
ENDBRANCH   8   9
ENDBRANCH   1   8
BRANCH   1  22
HETATM   22  C9  UNL     1       4.642  -3.281 -12.712  1.00  0.00    -0.046 A 
HETATM   23  C10 UNL     1       5.168  -2.776 -13.912  1.00  0.00     0.011 A 
HETATM   24  C11 UNL     1       5.443  -3.561 -14.998  1.00  0.00     0.037 A 
HETATM   25  C12 UNL     1       5.209  -4.907 -14.958  1.00  0.00     0.078 A 
HETATM   26  C14 UNL     1       4.699  -5.449 -13.822  1.00  0.00     0.037 A 
HETATM   27  C15 UNL     1       4.420  -4.637 -12.712  1.00  0.00     0.011 A 
BRANCH  25  28
HETATM   28  O3  UNL     1       5.500  -5.669 -16.077  1.00  0.00    -0.255 OA
BRANCH  28  29
HETATM   29  C13 UNL     1       6.532  -6.614 -16.016  1.00  0.00     0.530 C 
HETATM   30  F1  UNL     1       7.323  -6.413 -14.876  1.00  0.00    -0.144 F 
HETATM   31  F2  UNL     1       5.966  -7.886 -15.906  1.00  0.00    -0.144 F 
HETATM   32  F3  UNL     1       7.291  -6.500 -17.162  1.00  0.00    -0.144 F 
ENDBRANCH  28  29
ENDBRANCH  25  28
ENDBRANCH   1  22
BRANCH   3  33
HETATM   33  S1  UNL     1       4.227   1.546 -11.573  1.00  0.00     0.215 S 
HETATM   34  O4  UNL     1       2.866   1.994 -12.034  1.00  0.00    -0.211 OA
HETATM   35  O5  UNL     1       4.568   2.472 -10.411  1.00  0.00    -0.211 OA
BRANCH  33  36
HETATM   36  C17 UNL     1       5.470   1.838 -12.794  1.00  0.00     0.128 C 
HETATM   37  C18 UNL     1       4.936   1.902 -14.205  1.00  0.00     0.047 C 
HETATM   38  C19 UNL     1       5.843   2.852 -15.001  1.00  0.00     0.168 C 
HETATM   39  O6  UNL     1       5.679   4.161 -14.632  1.00  0.00    -0.391 OA
HETATM   40  C20 UNL     1       5.235   4.220 -13.309  1.00  0.00     0.168 C 
HETATM   41  C21 UNL     1       6.050   3.213 -12.509  1.00  0.00     0.047 C 
ENDBRANCH  33  36
ENDBRANCH   3  33
TORSDOF 8
ENDMDL
MODEL 5
REMARK VINA RESULT: -8.353630955      3.801      7.455
REMARK  8 active torsions:
REMARK  status: ('A' for Active; 'I' for Inactive)
REMARK       I    between atoms: C2_2  and  N1_4 
REMARK    1  A    between atoms: C5_7  and  N2_8 
REMARK       I    between atoms: N2_8  and  C6_10 
REMARK    2  A    between atoms: C6_10  and  C7_12 
REMARK    3  A    between atoms: C7_12  and  C8_13 
REMARK    4  A    between atoms: C8_13  and  C9_14 
REMARK    5  A    between atoms: C12_17  and  O3_18 
REMARK    6  A    between atoms: O3_18  and  C13_19 
REMARK    7  A    between atoms: N3_26  and  S1_27 
REMARK    8  A    between atoms: S1_27  and  C17_30 
ROOT
HETATM    1  C8  UNL     1       4.020  -2.234 -12.545  1.00  0.00     0.025 C 
HETATM    2  C16 UNL     1       3.670  -3.004 -11.287  1.00  0.00     0.123 C 
HETATM    3  N3  UNL     1       3.081  -2.141 -10.293  1.00  0.00    -0.209 NA
HETATM    4  C22 UNL     1       3.850  -0.982  -9.998  1.00  0.00     0.109 C 
HETATM    5  C23 UNL     1       4.230  -0.202 -11.224  1.00  0.00     0.037 C 
HETATM    6  C24 UNL     1       4.963  -1.139 -12.159  1.00  0.00     0.098 C 
HETATM    7 CL1  UNL     1       6.240  -1.897 -11.137  1.00  0.00    -0.124 Cl
ENDROOT
BRANCH   1   8
HETATM    8  C7  UNL     1       2.702  -1.744 -13.108  1.00  0.00     0.120 C 
BRANCH   8   9
HETATM    9  C6  UNL     1       2.810  -0.532 -13.932  1.00  0.00     0.219 C 
HETATM   10  N2  UNL     1       3.894  -0.414 -14.833  1.00  0.00    -0.356 N 
ATOM     11  H2  UNL     1       4.584  -1.164 -14.887  1.00  0.00     0.162 HD
HETATM   12  O2  UNL     1       1.976   0.392 -13.861  1.00  0.00    -0.274 OA
BRANCH  10  13
HETATM   13  C5  UNL     1       4.045   0.768 -15.694  1.00  0.00     0.087 C 
HETATM   14  C4  UNL     1       4.868   0.401 -16.892  1.00  0.00     0.045 C 
HETATM   15  C3  UNL     1       5.280   1.559 -17.738  1.00  0.00     0.127 C 
HETATM   16  N1  UNL     1       5.560   2.732 -16.928  1.00  0.00    -0.352 N 
HETATM   17  C2  UNL     1       5.601   4.009 -17.520  1.00  0.00     0.215 C 
HETATM   18  C26 UNL     1       5.790   2.502 -15.521  1.00  0.00     0.127 C 
HETATM   19  C1  UNL     1       5.869   5.241 -16.742  1.00  0.00     0.117 C 
HETATM   20  O1  UNL     1       5.401   4.116 -18.766  1.00  0.00    -0.274 OA
HETATM   21  C25 UNL     1       4.520   1.955 -14.929  1.00  0.00     0.045 C 
ENDBRANCH  10  13
ENDBRANCH   8   9
ENDBRANCH   1   8
BRANCH   1  22
HETATM   22  C9  UNL     1       4.625  -3.162 -13.514  1.00  0.00    -0.046 A 
HETATM   23  C10 UNL     1       4.501  -4.550 -13.348  1.00  0.00     0.011 A 
HETATM   24  C11 UNL     1       5.031  -5.460 -14.220  1.00  0.00     0.037 A 
HETATM   25  C12 UNL     1       5.724  -5.042 -15.321  1.00  0.00     0.078 A 
HETATM   26  C14 UNL     1       5.877  -3.709 -15.531  1.00  0.00     0.037 A 
HETATM   27  C15 UNL     1       5.330  -2.782 -14.632  1.00  0.00     0.011 A 
BRANCH  25  28
HETATM   28  O3  UNL     1       6.247  -5.993 -16.181  1.00  0.00    -0.255 OA
BRANCH  28  29
HETATM   29  C13 UNL     1       5.672  -6.164 -17.447  1.00  0.00     0.530 C 
HETATM   30  F1  UNL     1       4.515  -5.383 -17.577  1.00  0.00    -0.144 F 
HETATM   31  F2  UNL     1       6.578  -5.722 -18.413  1.00  0.00    -0.144 F 
HETATM   32  F3  UNL     1       5.378  -7.502 -17.610  1.00  0.00    -0.144 F 
ENDBRANCH  28  29
ENDBRANCH  25  28
ENDBRANCH   1  22
BRANCH   3  33
HETATM   33  S1  UNL     1       2.605  -3.053  -8.967  1.00  0.00     0.215 S 
HETATM   34  O4  UNL     1       3.835  -3.505  -8.227  1.00  0.00    -0.211 OA
HETATM   35  O5  UNL     1       1.869  -2.150  -7.983  1.00  0.00    -0.211 OA
BRANCH  33  36
HETATM   36  C17 UNL     1       1.501  -4.391  -9.300  1.00  0.00     0.128 C 
HETATM   37  C18 UNL     1       2.155  -5.752  -9.239  1.00  0.00     0.047 C 
HETATM   38  C19 UNL     1       1.087  -6.759  -8.787  1.00  0.00     0.168 C 
HETATM   39  O6  UNL     1       0.750  -6.605  -7.468  1.00  0.00    -0.391 OA
HETATM   40  C20 UNL     1       0.977  -5.282  -7.081  1.00  0.00     0.168 C 
HETATM   41  C21 UNL     1       0.458  -4.385  -8.196  1.00  0.00     0.047 C 
ENDBRANCH  33  36
ENDBRANCH   3  33
TORSDOF 8
ENDMDL
