MODEL 1
REMARK VINA RESULT: -6.758144324      0.000      0.000
REMARK  4 active torsions:
REMARK  status: ('A' for Active; 'I' for Inactive)
REMARK    1  A    between atoms: C1_4  and  C2_6 
REMARK    2  A    between atoms: C5_9  and  N3_10 
REMARK    3  A    between atoms: N3_10  and  C6_12 
REMARK    4  A    between atoms: C6_12  and  C7_13 
ROOT
HETATM    1  C2  UNL     1      18.258  16.822  33.436  1.00  0.00     0.005 A 
HETATM    2  C3  UNL     1      17.080  17.484  33.130  1.00  0.00     0.017 A 
HETATM    3  C4  UNL     1      16.212  16.969  32.188  1.00  0.00     0.030 A 
HETATM    4  C5  UNL     1      16.519  15.794  31.554  1.00  0.00     0.028 A 
HETATM    5  C10 UNL     1      17.681  15.130  31.850  1.00  0.00     0.030 A 
HETATM    6  C11 UNL     1      18.544  15.650  32.792  1.00  0.00     0.017 A 
ENDROOT
BRANCH   4   7
HETATM    7  N3  UNL     1      15.633  15.271  30.596  1.00  0.00    -0.384 N 
ATOM      8  H3  UNL     1      15.941  15.126  29.635  1.00  0.00     0.160 HD
BRANCH   7   9
HETATM    9  C6  UNL     1      14.278  14.940  30.987  1.00  0.00     0.178 C 
BRANCH   9  10
HETATM   10  C7  UNL     1      13.328  15.252  29.869  1.00  0.00     0.044 A 
HETATM   11  C8  UNL     1      12.362  16.223  29.927  1.00  0.00     0.047 A 
HETATM   12  C9  UNL     1      11.701  16.198  28.708  1.00  0.00     0.109 A 
HETATM   13  N4  UNL     1      12.285  15.230  27.975  1.00  0.00    -0.312 N 
HETATM   14  N5  UNL     1      13.245  14.676  28.666  1.00  0.00    -0.304 N 
ATOM     15  H4  UNL     1      12.018  14.970  27.025  1.00  0.00     0.186 HD
ATOM     16  H5  UNL     1      13.841  13.918  28.336  1.00  0.00     0.186 HD
ENDBRANCH   9  10
ENDBRANCH   7   9
ENDBRANCH   4   7
BRANCH   1  17
HETATM   17  C1  UNL     1      19.171  17.378  34.436  1.00  0.00     0.120 C 
HETATM   18  N1  UNL     1      20.423  17.186  34.365  1.00  0.00    -0.387 N 
ATOM     19  H12 UNL     1      21.060  17.573  35.062  1.00  0.00     0.157 HD
ATOM     20  H11 UNL     1      20.822  16.636  33.605  1.00  0.00     0.157 HD
HETATM   21  N2  UNL     1      18.606  18.154  35.511  1.00  0.00    -0.082 NA
ENDBRANCH   1  17
TORSDOF 4
ENDMDL
MODEL 2
REMARK VINA RESULT: -6.757040932      0.014      1.187
REMARK  4 active torsions:
REMARK  status: ('A' for Active; 'I' for Inactive)
REMARK    1  A    between atoms: C1_4  and  C2_6 
REMARK    2  A    between atoms: C5_9  and  N3_10 
REMARK    3  A    between atoms: N3_10  and  C6_12 
REMARK    4  A    between atoms: C6_12  and  C7_13 
ROOT
HETATM    1  C2  UNL     1      18.238  16.841  33.442  1.00  0.00     0.005 A 
HETATM    2  C3  UNL     1      18.539  15.657  32.789  1.00  0.00     0.017 A 
HETATM    3  C4  UNL     1      17.675  15.139  31.844  1.00  0.00     0.030 A 
HETATM    4  C5  UNL     1      16.514  15.804  31.551  1.00  0.00     0.028 A 
HETATM    5  C10 UNL     1      16.206  16.977  32.190  1.00  0.00     0.030 A 
HETATM    6  C11 UNL     1      17.074  17.489  33.133  1.00  0.00     0.017 A 
ENDROOT
BRANCH   4   7
HETATM    7  N3  UNL     1      15.637  15.275  30.588  1.00  0.00    -0.384 N 
ATOM      8  H3  UNL     1      15.949  15.141  29.626  1.00  0.00     0.160 HD
BRANCH   7   9
HETATM    9  C6  UNL     1      14.286  14.923  30.974  1.00  0.00     0.178 C 
BRANCH   9  10
HETATM   10  C7  UNL     1      13.331  15.247  29.864  1.00  0.00     0.044 A 
HETATM   11  C8  UNL     1      12.369  16.221  29.934  1.00  0.00     0.047 A 
HETATM   12  C9  UNL     1      11.702  16.208  28.718  1.00  0.00     0.109 A 
HETATM   13  N4  UNL     1      12.278  15.245  27.975  1.00  0.00    -0.312 N 
HETATM   14  N5  UNL     1      13.239  14.682  28.656  1.00  0.00    -0.304 N 
ATOM     15  H4  UNL     1      12.005  14.994  27.025  1.00  0.00     0.186 HD
ATOM     16  H5  UNL     1      13.831  13.924  28.317  1.00  0.00     0.186 HD
ENDBRANCH   9  10
ENDBRANCH   7   9
ENDBRANCH   4   7
BRANCH   1  17
HETATM   17  C1  UNL     1      19.161  17.381  34.441  1.00  0.00     0.120 C 
HETATM   18  N1  UNL     1      20.411  17.176  34.363  1.00  0.00    -0.387 N 
ATOM     19  H12 UNL     1      21.055  17.552  35.059  1.00  0.00     0.157 HD
ATOM     20  H11 UNL     1      20.801  16.628  33.596  1.00  0.00     0.157 HD
HETATM   21  N2  UNL     1      18.610  18.155  35.524  1.00  0.00    -0.082 NA
ENDBRANCH   1  17
TORSDOF 4
ENDMDL
MODEL 3
REMARK VINA RESULT: -6.338202066      1.353      1.943
REMARK  4 active torsions:
REMARK  status: ('A' for Active; 'I' for Inactive)
REMARK    1  A    between atoms: C1_4  and  C2_6 
REMARK    2  A    between atoms: C5_9  and  N3_10 
REMARK    3  A    between atoms: N3_10  and  C6_12 
REMARK    4  A    between atoms: C6_12  and  C7_13 
ROOT
HETATM    1  C2  UNL     1      18.072  16.747  33.287  1.00  0.00     0.005 A 
HETATM    2  C3  UNL     1      16.906  17.473  33.103  1.00  0.00     0.017 A 
HETATM    3  C4  UNL     1      15.995  17.102  32.134  1.00  0.00     0.030 A 
HETATM    4  C5  UNL     1      16.247  16.006  31.351  1.00  0.00     0.028 A 
HETATM    5  C10 UNL     1      17.396  15.279  31.525  1.00  0.00     0.030 A 
HETATM    6  C11 UNL     1      18.302  15.656  32.495  1.00  0.00     0.017 A 
ENDROOT
BRANCH   4   7
HETATM    7  N3  UNL     1      15.317  15.630  30.366  1.00  0.00    -0.384 N 
ATOM      8  H3  UNL     1      15.634  15.369  29.432  1.00  0.00     0.160 HD
BRANCH   7   9
HETATM    9  C6  UNL     1      13.906  15.616  30.690  1.00  0.00     0.178 C 
BRANCH   9  10
HETATM   10  C7  UNL     1      13.417  14.203  30.806  1.00  0.00     0.044 A 
HETATM   11  C8  UNL     1      13.384  13.493  31.978  1.00  0.00     0.047 A 
HETATM   12  C9  UNL     1      12.873  12.241  31.670  1.00  0.00     0.109 A 
HETATM   13  N4  UNL     1      12.620  12.245  30.347  1.00  0.00    -0.312 N 
HETATM   14  N5  UNL     1      12.943  13.406  29.843  1.00  0.00    -0.304 N 
ATOM     15  H4  UNL     1      12.236  11.461  29.820  1.00  0.00     0.186 HD
ATOM     16  H5  UNL     1      12.848  13.665  28.862  1.00  0.00     0.186 HD
ENDBRANCH   9  10
ENDBRANCH   7   9
ENDBRANCH   4   7
BRANCH   1  17
HETATM   17  C1  UNL     1      19.030  17.150  34.316  1.00  0.00     0.120 C 
HETATM   18  N1  UNL     1      20.189  16.635  34.377  1.00  0.00    -0.387 N 
ATOM     19  H12 UNL     1      20.857  16.916  35.094  1.00  0.00     0.157 HD
ATOM     20  H11 UNL     1      20.478  15.925  33.704  1.00  0.00     0.157 HD
HETATM   21  N2  UNL     1      18.621  18.153  35.267  1.00  0.00    -0.082 NA
ENDBRANCH   1  17
TORSDOF 4
ENDMDL
MODEL 4
REMARK VINA RESULT: -6.336867427      1.302      1.910
REMARK  4 active torsions:
REMARK  status: ('A' for Active; 'I' for Inactive)
REMARK    1  A    between atoms: C1_4  and  C2_6 
REMARK    2  A    between atoms: C5_9  and  N3_10 
REMARK    3  A    between atoms: N3_10  and  C6_12 
REMARK    4  A    between atoms: C6_12  and  C7_13 
ROOT
HETATM    1  C2  UNL     1      18.041  16.694  33.266  1.00  0.00     0.005 A 
HETATM    2  C3  UNL     1      18.308  15.566  32.508  1.00  0.00     0.017 A 
HETATM    3  C4  UNL     1      17.414  15.140  31.545  1.00  0.00     0.030 A 
HETATM    4  C5  UNL     1      16.256  15.841  31.339  1.00  0.00     0.028 A 
HETATM    5  C10 UNL     1      15.981  16.960  32.082  1.00  0.00     0.030 A 
HETATM    6  C11 UNL     1      16.879  17.380  33.042  1.00  0.00     0.017 A 
ENDROOT
BRANCH   4   7
HETATM    7  N3  UNL     1      15.348  15.406  30.358  1.00  0.00    -0.384 N 
ATOM      8  H3  UNL     1      15.642  14.739  29.645  1.00  0.00     0.160 HD
BRANCH   7   9
HETATM    9  C6  UNL     1      13.992  15.915  30.369  1.00  0.00     0.178 C 
BRANCH   9  10
HETATM   10  C7  UNL     1      13.021  14.789  30.560  1.00  0.00     0.044 A 
HETATM   11  C8  UNL     1      11.960  14.825  31.429  1.00  0.00     0.047 A 
HETATM   12  C9  UNL     1      11.311  13.604  31.313  1.00  0.00     0.109 A 
HETATM   13  N4  UNL     1      11.992  12.893  30.395  1.00  0.00    -0.312 N 
HETATM   14  N5  UNL     1      13.000  13.598  29.954  1.00  0.00    -0.304 N 
ATOM     15  H4  UNL     1      11.757  11.948  30.090  1.00  0.00     0.186 HD
ATOM     16  H5  UNL     1      13.671  13.286  29.252  1.00  0.00     0.186 HD
ENDBRANCH   9  10
ENDBRANCH   7   9
ENDBRANCH   4   7
BRANCH   1  17
HETATM   17  C1  UNL     1      18.996  17.136  34.283  1.00  0.00     0.120 C 
HETATM   18  N1  UNL     1      20.162  16.640  34.353  1.00  0.00    -0.387 N 
ATOM     19  H12 UNL     1      20.827  16.947  35.062  1.00  0.00     0.157 HD
ATOM     20  H11 UNL     1      20.459  15.918  33.697  1.00  0.00     0.157 HD
HETATM   21  N2  UNL     1      18.574  18.156  35.209  1.00  0.00    -0.082 NA
ENDBRANCH   1  17
TORSDOF 4
ENDMDL
MODEL 5
REMARK VINA RESULT: -6.336771131      1.191      1.542
REMARK  4 active torsions:
REMARK  status: ('A' for Active; 'I' for Inactive)
REMARK    1  A    between atoms: C1_4  and  C2_6 
REMARK    2  A    between atoms: C5_9  and  N3_10 
REMARK    3  A    between atoms: N3_10  and  C6_12 
REMARK    4  A    between atoms: C6_12  and  C7_13 
ROOT
HETATM    1  C2  UNL     1      17.448  16.690  33.868  1.00  0.00     0.005 A 
HETATM    2  C3  UNL     1      16.783  15.555  34.303  1.00  0.00     0.017 A 
HETATM    3  C4  UNL     1      15.570  15.197  33.748  1.00  0.00     0.030 A 
HETATM    4  C5  UNL     1      15.022  15.972  32.760  1.00  0.00     0.028 A 
HETATM    5  C10 UNL     1      15.671  17.097  32.321  1.00  0.00     0.030 A 
HETATM    6  C11 UNL     1      16.884  17.448  32.880  1.00  0.00     0.017 A 
ENDROOT
BRANCH   4   7
HETATM    7  N3  UNL     1      13.788  15.606  32.196  1.00  0.00    -0.384 N 
ATOM      8  H3  UNL     1      12.931  16.084  32.477  1.00  0.00     0.160 HD
BRANCH   7   9
HETATM    9  C6  UNL     1      13.742  14.544  31.212  1.00  0.00     0.178 C 
BRANCH   9  10
HETATM   10  C7  UNL     1      13.055  15.022  29.969  1.00  0.00     0.044 A 
HETATM   11  C8  UNL     1      12.251  16.131  29.910  1.00  0.00     0.047 A 
HETATM   12  C9  UNL     1      11.811  16.233  28.598  1.00  0.00     0.109 A 
HETATM   13  N4  UNL     1      12.357  15.200  27.929  1.00  0.00    -0.312 N 
HETATM   14  N5  UNL     1      13.090  14.489  28.743  1.00  0.00    -0.304 N 
ATOM     15  H4  UNL     1      12.219  15.003  26.938  1.00  0.00     0.186 HD
ATOM     16  H5  UNL     1      13.612  13.653  28.483  1.00  0.00     0.186 HD
ENDBRANCH   9  10
ENDBRANCH   7   9
ENDBRANCH   4   7
BRANCH   1  17
HETATM   17  C1  UNL     1      18.733  17.058  34.463  1.00  0.00     0.120 C 
HETATM   18  N1  UNL     1      19.797  16.428  34.178  1.00  0.00    -0.387 N 
ATOM     19  H12 UNL     1      20.692  16.684  34.593  1.00  0.00     0.157 HD
ATOM     20  H11 UNL     1      19.778  15.646  33.524  1.00  0.00     0.157 HD
HETATM   21  N2  UNL     1      18.758  18.163  35.389  1.00  0.00    -0.082 NA
ENDBRANCH   1  17
TORSDOF 4
ENDMDL
