MODEL 1
REMARK VINA RESULT: -7.082704568      0.000      0.000
REMARK  6 active torsions:
REMARK  status: ('A' for Active; 'I' for Inactive)
REMARK    1  A    between atoms: C2_2  and  O1_6 
REMARK    2  A    between atoms: O1_6  and  C3_7 
REMARK    3  A    between atoms: C6_10  and  C7_11 
REMARK    4  A    between atoms: C15_20  and  O2_22 
REMARK    5  A    between atoms: O2_22  and  O3_23 
REMARK    6  A    between atoms: C17_25  and  O4_26 
ROOT
HETATM    1  C3  UNL     1      -0.577  -5.884   9.634  1.00  0.00     0.170 C 
HETATM    2  C4  UNL     1      -1.922  -6.575   9.510  1.00  0.00    -0.049 C 
HETATM    3  C5  UNL     1      -2.642  -6.513   8.183  1.00  0.00     0.046 C 
HETATM    4  C6  UNL     1      -2.297  -7.141  10.637  1.00  0.00    -0.051 C 
HETATM    5  C12 UNL     1      -1.268  -6.837  11.672  1.00  0.00     0.030 C 
HETATM    6  C13 UNL     1      -1.714  -6.607  13.046  1.00  0.00     0.013 C 
HETATM    7  C14 UNL     1      -0.910  -5.582  13.820  1.00  0.00     0.044 C 
HETATM    8  C15 UNL     1      -0.719  -4.307  13.093  1.00  0.00     0.119 C 
HETATM    9  C16 UNL     1       0.597  -3.656  13.517  1.00  0.00     0.052 C 
HETATM   10  C17 UNL     1      -0.791  -4.418  11.584  1.00  0.00     0.167 C 
HETATM   11  C18 UNL     1      -0.383  -5.761  11.084  1.00  0.00     0.023 C 
HETATM   12  C19 UNL     1       1.079  -6.070  11.413  1.00  0.00     0.022 C 
ENDROOT
BRANCH   1  13
HETATM   13  O1  UNL     1      -0.596  -4.729   8.858  1.00  0.00    -0.329 OA
BRANCH  13  14
HETATM   14  C2  UNL     1       0.352  -4.292   7.968  1.00  0.00     0.108 C 
HETATM   15  C1  UNL     1       0.140  -4.184   6.488  1.00  0.00     0.097 C 
HETATM   16  N1  UNL     1       1.497  -3.962   8.509  1.00  0.00    -0.384 N 
ATOM     17  H12 UNL     1       2.201  -3.636   7.847  1.00  0.00     0.157 HD
ATOM     18  H11 UNL     1       1.640  -4.035   9.516  1.00  0.00     0.157 HD
ENDBRANCH  13  14
ENDBRANCH   1  13
BRANCH   4  19
HETATM   19  C7  UNL     1      -3.565  -7.883  10.785  1.00  0.00     0.043 C 
HETATM   20  S1  UNL     1      -3.806  -9.081   9.375  1.00  0.00    -0.082 SA
HETATM   21  C8  UNL     1      -3.575  -8.794  11.992  1.00  0.00     0.026 C 
HETATM   22  C9  UNL     1      -4.824  -8.441  12.769  1.00  0.00     0.002 C 
HETATM   23  C10 UNL     1      -5.761  -7.987  11.682  1.00  0.00     0.002 C 
HETATM   24  C11 UNL     1      -4.832  -7.113  10.815  1.00  0.00     0.026 C 
ENDBRANCH   4  19
BRANCH  10  25
HETATM   25  O4  UNL     1      -2.081  -4.161  11.178  1.00  0.00    -0.392 OA
ATOM     26  H4  UNL     1      -2.060  -3.550  10.451  1.00  0.00     0.210 HD
ENDBRANCH  10  25
BRANCH   8  27
HETATM   27  O2  UNL     1      -1.716  -3.372  13.459  1.00  0.00    -0.230 OA
BRANCH  27  28
HETATM   28  O3  UNL     1      -1.536  -2.224  12.868  1.00  0.00    -0.250 OA
ATOM     29  H3  UNL     1      -2.359  -1.850  12.573  1.00  0.00     0.253 HD
ENDBRANCH  27  28
ENDBRANCH   8  27
TORSDOF 6
ENDMDL
MODEL 2
REMARK VINA RESULT: -6.883633949      1.359      1.736
REMARK  6 active torsions:
REMARK  status: ('A' for Active; 'I' for Inactive)
REMARK    1  A    between atoms: C2_2  and  O1_6 
REMARK    2  A    between atoms: O1_6  and  C3_7 
REMARK    3  A    between atoms: C6_10  and  C7_11 
REMARK    4  A    between atoms: C15_20  and  O2_22 
REMARK    5  A    between atoms: O2_22  and  O3_23 
REMARK    6  A    between atoms: C17_25  and  O4_26 
ROOT
HETATM    1  C3  UNL     1       0.265  -5.431   9.148  1.00  0.00     0.170 C 
HETATM    2  C4  UNL     1      -0.929  -6.268   8.727  1.00  0.00    -0.049 C 
HETATM    3  C5  UNL     1      -1.432  -6.140   7.308  1.00  0.00     0.046 C 
HETATM    4  C6  UNL     1      -1.391  -7.008   9.712  1.00  0.00    -0.051 C 
HETATM    5  C12 UNL     1      -0.593  -6.701  10.934  1.00  0.00     0.030 C 
HETATM    6  C13 UNL     1      -1.279  -6.695  12.226  1.00  0.00     0.013 C 
HETATM    7  C14 UNL     1      -0.764  -5.675  13.222  1.00  0.00     0.044 C 
HETATM    8  C15 UNL     1      -0.648  -4.310  12.666  1.00  0.00     0.119 C 
HETATM    9  C16 UNL     1       0.477  -3.552  13.371  1.00  0.00     0.052 C 
HETATM   10  C17 UNL     1      -0.464  -4.248  11.163  1.00  0.00     0.167 C 
HETATM   11  C18 UNL     1       0.208  -5.459  10.614  1.00  0.00     0.023 C 
HETATM   12  C19 UNL     1       1.629  -5.617  11.159  1.00  0.00     0.022 C 
ENDROOT
BRANCH   1  13
HETATM   13  O1  UNL     1       0.202  -4.204   8.495  1.00  0.00    -0.329 OA
BRANCH  13  14
HETATM   14  C2  UNL     1       1.118  -3.654   7.635  1.00  0.00     0.108 C 
HETATM   15  C1  UNL     1       0.803  -3.182   6.248  1.00  0.00     0.097 C 
HETATM   16  N1  UNL     1       2.331  -3.563   8.117  1.00  0.00    -0.384 N 
ATOM     17  H12 UNL     1       3.012  -3.154   7.477  1.00  0.00     0.157 HD
ATOM     18  H11 UNL     1       2.544  -3.884   9.061  1.00  0.00     0.157 HD
ENDBRANCH  13  14
ENDBRANCH   1  13
BRANCH   4  19
HETATM   19  C7  UNL     1      -2.545  -7.917   9.567  1.00  0.00     0.043 C 
HETATM   20  S1  UNL     1      -2.460  -9.306  10.810  1.00  0.00    -0.082 SA
HETATM   21  C8  UNL     1      -3.861  -7.255   9.907  1.00  0.00     0.026 C 
HETATM   22  C9  UNL     1      -4.766  -7.497   8.720  1.00  0.00     0.002 C 
HETATM   23  C10 UNL     1      -4.261  -8.812   8.192  1.00  0.00     0.002 C 
HETATM   24  C11 UNL     1      -2.734  -8.613   8.271  1.00  0.00     0.026 C 
ENDBRANCH   4  19
BRANCH  10  25
HETATM   25  O4  UNL     1      -1.698  -4.110  10.567  1.00  0.00    -0.392 OA
ATOM     26  H4  UNL     1      -1.581  -3.746   9.698  1.00  0.00     0.210 HD
ENDBRANCH  10  25
BRANCH   8  27
HETATM   27  O2  UNL     1      -1.815  -3.559  12.943  1.00  0.00    -0.230 OA
BRANCH  27  28
HETATM   28  O3  UNL     1      -1.676  -2.310  12.593  1.00  0.00    -0.250 OA
ATOM     29  H3  UNL     1      -2.418  -1.786  12.871  1.00  0.00     0.253 HD
ENDBRANCH  27  28
ENDBRANCH   8  27
TORSDOF 6
ENDMDL
MODEL 3
REMARK VINA RESULT: -6.874106154      4.088      5.598
REMARK  6 active torsions:
REMARK  status: ('A' for Active; 'I' for Inactive)
REMARK    1  A    between atoms: C2_2  and  O1_6 
REMARK    2  A    between atoms: O1_6  and  C3_7 
REMARK    3  A    between atoms: C6_10  and  C7_11 
REMARK    4  A    between atoms: C15_20  and  O2_22 
REMARK    5  A    between atoms: O2_22  and  O3_23 
REMARK    6  A    between atoms: C17_25  and  O4_26 
ROOT
HETATM    1  C3  UNL     1       1.036  -7.980   9.279  1.00  0.00     0.170 C 
HETATM    2  C4  UNL     1       1.093  -6.615   9.939  1.00  0.00    -0.049 C 
HETATM    3  C5  UNL     1       2.068  -5.594   9.398  1.00  0.00     0.046 C 
HETATM    4  C6  UNL     1       0.259  -6.516  10.953  1.00  0.00    -0.051 C 
HETATM    5  C12 UNL     1      -0.412  -7.836  11.129  1.00  0.00     0.030 C 
HETATM    6  C13 UNL     1      -0.714  -8.283  12.488  1.00  0.00     0.013 C 
HETATM    7  C14 UNL     1      -0.607  -9.778  12.712  1.00  0.00     0.044 C 
HETATM    8  C15 UNL     1       0.661 -10.361  12.221  1.00  0.00     0.119 C 
HETATM    9  C16 UNL     1       0.440 -11.814  11.800  1.00  0.00     0.052 C 
HETATM   10  C17 UNL     1       1.329  -9.585  11.104  1.00  0.00     0.167 C 
HETATM   11  C18 UNL     1       0.357  -8.818  10.274  1.00  0.00     0.023 C 
HETATM   12  C19 UNL     1      -0.626  -9.742   9.551  1.00  0.00     0.022 C 
ENDROOT
BRANCH   1  13
HETATM   13  O1  UNL     1       2.319  -8.330   8.866  1.00  0.00    -0.329 OA
BRANCH  13  14
HETATM   14  C2  UNL     1       2.706  -8.854   7.660  1.00  0.00     0.108 C 
HETATM   15  C1  UNL     1       3.477  -8.105   6.616  1.00  0.00     0.097 C 
HETATM   16  N1  UNL     1       2.347 -10.098   7.467  1.00  0.00    -0.384 N 
ATOM     17  H12 UNL     1       2.636 -10.488   6.569  1.00  0.00     0.157 HD
ATOM     18  H11 UNL     1       1.823 -10.608   8.177  1.00  0.00     0.157 HD
ENDBRANCH  13  14
ENDBRANCH   1  13
BRANCH   4  19
HETATM   19  C7  UNL     1       0.115  -5.291  11.764  1.00  0.00     0.043 C 
HETATM   20  S1  UNL     1      -0.771  -3.958  10.806  1.00  0.00    -0.082 SA
HETATM   21  C8  UNL     1      -0.784  -5.484  12.964  1.00  0.00     0.026 C 
HETATM   22  C9  UNL     1       0.011  -5.009  14.159  1.00  0.00     0.002 C 
HETATM   23  C10 UNL     1       0.890  -3.945  13.559  1.00  0.00     0.002 C 
HETATM   24  C11 UNL     1       1.345  -4.620  12.249  1.00  0.00     0.026 C 
ENDBRANCH   4  19
BRANCH  10  25
HETATM   25  O4  UNL     1       2.240  -8.709  11.652  1.00  0.00    -0.392 OA
ATOM     26  H4  UNL     1       2.713  -8.278  10.950  1.00  0.00     0.210 HD
ENDBRANCH  10  25
BRANCH   8  27
HETATM   27  O2  UNL     1       1.613 -10.431  13.265  1.00  0.00    -0.230 OA
BRANCH  27  28
HETATM   28  O3  UNL     1       2.534 -11.321  13.016  1.00  0.00    -0.250 OA
ATOM     29  H3  UNL     1       3.147 -11.400  13.738  1.00  0.00     0.253 HD
ENDBRANCH  27  28
ENDBRANCH   8  27
TORSDOF 6
ENDMDL
MODEL 4
REMARK VINA RESULT: -6.845091055      3.833      5.766
REMARK  6 active torsions:
REMARK  status: ('A' for Active; 'I' for Inactive)
REMARK    1  A    between atoms: C2_2  and  O1_6 
REMARK    2  A    between atoms: O1_6  and  C3_7 
REMARK    3  A    between atoms: C6_10  and  C7_11 
REMARK    4  A    between atoms: C15_20  and  O2_22 
REMARK    5  A    between atoms: O2_22  and  O3_23 
REMARK    6  A    between atoms: C17_25  and  O4_26 
ROOT
HETATM    1  C3  UNL     1       0.202  -6.523   6.166  1.00  0.00     0.170 C 
HETATM    2  C4  UNL     1      -0.730  -6.333   7.348  1.00  0.00    -0.049 C 
HETATM    3  C5  UNL     1      -2.118  -6.925   7.272  1.00  0.00     0.046 C 
HETATM    4  C6  UNL     1      -0.176  -5.627   8.311  1.00  0.00    -0.051 C 
HETATM    5  C12 UNL     1       1.180  -5.207   7.854  1.00  0.00     0.030 C 
HETATM    6  C13 UNL     1       1.667  -3.886   8.254  1.00  0.00     0.013 C 
HETATM    7  C14 UNL     1       2.535  -3.184   7.229  1.00  0.00     0.044 C 
HETATM    8  C15 UNL     1       1.944  -3.154   5.872  1.00  0.00     0.119 C 
HETATM    9  C16 UNL     1       3.053  -3.135   4.821  1.00  0.00     0.052 C 
HETATM   10  C17 UNL     1       0.961  -4.270   5.582  1.00  0.00     0.167 C 
HETATM   11  C18 UNL     1       1.237  -5.502   6.373  1.00  0.00     0.023 C 
HETATM   12  C19 UNL     1       2.600  -6.106   6.027  1.00  0.00     0.022 C 
ENDROOT
BRANCH   1  13
HETATM   13  O1  UNL     1      -0.550  -6.492   4.995  1.00  0.00    -0.329 OA
BRANCH  13  14
HETATM   14  C2  UNL     1      -0.376  -7.237   3.858  1.00  0.00     0.108 C 
HETATM   15  C1  UNL     1       0.404  -8.515   3.791  1.00  0.00     0.097 C 
HETATM   16  N1  UNL     1      -0.954  -6.747   2.791  1.00  0.00    -0.384 N 
ATOM     17  H12 UNL     1      -0.825  -7.301   1.945  1.00  0.00     0.157 HD
ATOM     18  H11 UNL     1      -1.485  -5.877   2.837  1.00  0.00     0.157 HD
ENDBRANCH  13  14
ENDBRANCH   1  13
BRANCH   4  19
HETATM   19  C7  UNL     1      -0.867  -5.301   9.574  1.00  0.00     0.043 C 
HETATM   20  S1  UNL     1       0.352  -4.782  10.887  1.00  0.00    -0.082 SA
HETATM   21  C8  UNL     1      -1.760  -4.087   9.459  1.00  0.00     0.026 C 
HETATM   22  C9  UNL     1      -3.117  -4.519   9.965  1.00  0.00     0.002 C 
HETATM   23  C10 UNL     1      -2.762  -5.575  10.978  1.00  0.00     0.002 C 
HETATM   24  C11 UNL     1      -1.666  -6.363  10.234  1.00  0.00     0.026 C 
ENDBRANCH   4  19
BRANCH  10  25
HETATM   25  O4  UNL     1      -0.312  -3.829   5.868  1.00  0.00    -0.392 OA
ATOM     26  H4  UNL     1      -0.876  -4.581   5.999  1.00  0.00     0.210 HD
ENDBRANCH  10  25
BRANCH   8  27
HETATM   27  O2  UNL     1       1.232  -1.949   5.666  1.00  0.00    -0.230 OA
BRANCH  27  28
HETATM   28  O3  UNL     1       1.849  -1.167   4.824  1.00  0.00    -0.250 OA
ATOM     29  H3  UNL     1       2.782  -1.344   4.803  1.00  0.00     0.253 HD
ENDBRANCH  27  28
ENDBRANCH   8  27
TORSDOF 6
ENDMDL
MODEL 5
REMARK VINA RESULT: -6.842517056      5.705      9.284
REMARK  6 active torsions:
REMARK  status: ('A' for Active; 'I' for Inactive)
REMARK    1  A    between atoms: C2_2  and  O1_6 
REMARK    2  A    between atoms: O1_6  and  C3_7 
REMARK    3  A    between atoms: C6_10  and  C7_11 
REMARK    4  A    between atoms: C15_20  and  O2_22 
REMARK    5  A    between atoms: O2_22  and  O3_23 
REMARK    6  A    between atoms: C17_25  and  O4_26 
ROOT
HETATM    1  C3  UNL     1       3.114  -6.536   4.589  1.00  0.00     0.170 C 
HETATM    2  C4  UNL     1       4.403  -5.919   4.080  1.00  0.00    -0.049 C 
HETATM    3  C5  UNL     1       5.372  -6.799   3.324  1.00  0.00     0.046 C 
HETATM    4  C6  UNL     1       4.509  -4.648   4.403  1.00  0.00    -0.051 C 
HETATM    5  C12 UNL     1       3.322  -4.280   5.228  1.00  0.00     0.030 C 
HETATM    6  C13 UNL     1       3.507  -3.326   6.321  1.00  0.00     0.013 C 
HETATM    7  C14 UNL     1       2.644  -3.573   7.542  1.00  0.00     0.044 C 
HETATM    8  C15 UNL     1       2.692  -4.969   8.029  1.00  0.00     0.119 C 
HETATM    9  C16 UNL     1       1.369  -5.333   8.703  1.00  0.00     0.052 C 
HETATM   10  C17 UNL     1       3.048  -5.999   6.977  1.00  0.00     0.167 C 
HETATM   11  C18 UNL     1       2.650  -5.581   5.603  1.00  0.00     0.023 C 
HETATM   12  C19 UNL     1       1.133  -5.425   5.474  1.00  0.00     0.022 C 
ENDROOT
BRANCH   1  13
HETATM   13  O1  UNL     1       3.368  -7.851   4.969  1.00  0.00    -0.329 OA
BRANCH  13  14
HETATM   14  C2  UNL     1       2.469  -8.873   5.135  1.00  0.00     0.108 C 
HETATM   15  C1  UNL     1       1.381  -9.213   4.162  1.00  0.00     0.097 C 
HETATM   16  N1  UNL     1       2.622  -9.560   6.238  1.00  0.00    -0.384 N 
ATOM     17  H12 UNL     1       1.954 -10.320   6.361  1.00  0.00     0.157 HD
ATOM     18  H11 UNL     1       3.363  -9.328   6.900  1.00  0.00     0.157 HD
ENDBRANCH  13  14
ENDBRANCH   1  13
BRANCH   4  19
HETATM   19  C7  UNL     1       5.666  -3.812   4.026  1.00  0.00     0.043 C 
HETATM   20  S1  UNL     1       5.732  -3.559   2.179  1.00  0.00    -0.082 SA
HETATM   21  C8  UNL     1       5.562  -2.396   4.545  1.00  0.00     0.026 C 
HETATM   22  C9  UNL     1       6.853  -2.129   5.286  1.00  0.00     0.002 C 
HETATM   23  C10 UNL     1       7.834  -2.997   4.545  1.00  0.00     0.002 C 
HETATM   24  C11 UNL     1       7.025  -4.297   4.365  1.00  0.00     0.026 C 
ENDBRANCH   4  19
BRANCH  10  25
HETATM   25  O4  UNL     1       4.409  -6.212   7.004  1.00  0.00    -0.392 OA
ATOM     26  H4  UNL     1       4.781  -5.932   6.176  1.00  0.00     0.210 HD
ENDBRANCH  10  25
BRANCH   8  27
HETATM   27  O2  UNL     1       3.663  -5.107   9.049  1.00  0.00    -0.230 OA
BRANCH  27  28
HETATM   28  O3  UNL     1       3.113  -5.166  10.230  1.00  0.00    -0.250 OA
ATOM     29  H3  UNL     1       3.571  -5.776  10.797  1.00  0.00     0.253 HD
ENDBRANCH  27  28
ENDBRANCH   8  27
TORSDOF 6
ENDMDL
