MODEL 1
REMARK VINA RESULT: -6.108544071      0.000      0.000
REMARK  5 active torsions:
REMARK  status: ('A' for Active; 'I' for Inactive)
REMARK    1  A    between atoms: C2_2  and  N1_3 
REMARK    2  A    between atoms: C5_9  and  C6_10 
REMARK    3  A    between atoms: C5_9  and  C7_15 
REMARK    4  A    between atoms: C6_10  and  N2_11 
REMARK    5  A    between atoms: C8_16  and  N3_17 
ROOT
HETATM    1  C1  UNL     1      49.758 -48.445  -3.576  1.00  0.00     0.046 C 
HETATM    2  C2  UNL     1      50.182 -47.865  -4.899  1.00  0.00     0.120 C 
HETATM    3  C3  UNL     1      51.336 -46.884  -4.735  1.00  0.00     0.039 C 
HETATM    4  C4  UNL     1      51.472 -46.111  -5.993  1.00  0.00     0.018 C 
HETATM    5  C5  UNL     1      50.361 -45.024  -6.171  1.00  0.00     0.002 C 
HETATM    6  C12 UNL     1      49.271 -45.585  -5.284  1.00  0.00     0.018 C 
HETATM    7  C13 UNL     1      49.043 -47.078  -5.485  1.00  0.00     0.039 C 
ENDROOT
BRANCH   5   8
HETATM    8  C6  UNL     1      50.868 -43.773  -5.558  1.00  0.00     0.243 C 
BRANCH   8   9
HETATM    9  N2  UNL     1      52.248 -43.502  -5.657  1.00  0.00    -0.078 N 
ATOM     10  H23 UNL     1      52.669 -43.568  -4.730  1.00  0.00     0.274 HD
ATOM     11  H22 UNL     1      52.708 -44.277  -6.135  1.00  0.00     0.274 HD
ATOM     12  H21 UNL     1      52.533 -42.625  -6.092  1.00  0.00     0.274 HD
ENDBRANCH   8   9
ENDBRANCH   5   8
BRANCH   5  13
HETATM   13  C7  UNL     1      49.981 -45.021  -7.566  1.00  0.00     0.002 C 
HETATM   14  C8  UNL     1      50.764 -45.267  -8.745  1.00  0.00     0.094 C 
BRANCH  14  15
HETATM   15  N3  UNL     1      51.922 -44.480  -9.078  1.00  0.00    -0.328 N 
HETATM   16  C9  UNL     1      52.001 -43.255  -9.627  1.00  0.00     0.114 A 
HETATM   17  C10 UNL     1      53.312 -42.905  -9.767  1.00  0.00     0.106 A 
HETATM   18  N4  UNL     1      54.061 -43.913  -9.304  1.00  0.00    -0.360 N 
HETATM   19  C11 UNL     1      53.224 -44.866  -8.888  1.00  0.00     0.187 A 
ATOM     20  H4  UNL     1      55.080 -43.947  -9.275  1.00  0.00     0.166 HD
ENDBRANCH  14  15
ENDBRANCH   5  13
BRANCH   2  21
HETATM   21  N1  UNL     1      50.636 -48.934  -5.735  1.00  0.00    -0.071 N 
ATOM     22  H13 UNL     1      50.087 -49.786  -5.617  1.00  0.00     0.275 HD
ATOM     23  H12 UNL     1      50.432 -48.775  -6.722  1.00  0.00     0.275 HD
ATOM     24  H11 UNL     1      51.629 -49.081  -5.559  1.00  0.00     0.275 HD
ENDBRANCH   2  21
TORSDOF 5
ENDMDL
MODEL 2
REMARK VINA RESULT: -6.103223060      1.808      2.859
REMARK  5 active torsions:
REMARK  status: ('A' for Active; 'I' for Inactive)
REMARK    1  A    between atoms: C2_2  and  N1_3 
REMARK    2  A    between atoms: C5_9  and  C6_10 
REMARK    3  A    between atoms: C5_9  and  C7_15 
REMARK    4  A    between atoms: C6_10  and  N2_11 
REMARK    5  A    between atoms: C8_16  and  N3_17 
ROOT
HETATM    1  C1  UNL     1      50.126 -45.658  -3.528  1.00  0.00     0.046 C 
HETATM    2  C2  UNL     1      50.978 -45.257  -4.703  1.00  0.00     0.120 C 
HETATM    3  C3  UNL     1      50.278 -44.222  -5.574  1.00  0.00     0.039 C 
HETATM    4  C4  UNL     1      51.004 -44.131  -6.863  1.00  0.00     0.018 C 
HETATM    5  C5  UNL     1      50.735 -45.347  -7.810  1.00  0.00     0.002 C 
HETATM    6  C12 UNL     1      50.310 -46.397  -6.807  1.00  0.00     0.018 C 
HETATM    7  C13 UNL     1      51.211 -46.455  -5.580  1.00  0.00     0.039 C 
ENDROOT
BRANCH   5   8
HETATM    8  C6  UNL     1      49.564 -44.998  -8.650  1.00  0.00     0.243 C 
BRANCH   8   9
HETATM    9  N2  UNL     1      48.315 -45.554  -8.307  1.00  0.00    -0.078 N 
ATOM     10  H23 UNL     1      47.665 -45.418  -9.080  1.00  0.00     0.274 HD
ATOM     11  H22 UNL     1      48.394 -46.571  -8.297  1.00  0.00     0.274 HD
ATOM     12  H21 UNL     1      47.876 -45.243  -7.441  1.00  0.00     0.274 HD
ENDBRANCH   8   9
ENDBRANCH   5   8
BRANCH   5  13
HETATM   13  C7  UNL     1      51.987 -45.679  -8.451  1.00  0.00     0.002 C 
HETATM   14  C8  UNL     1      53.035 -44.831  -8.945  1.00  0.00     0.094 C 
BRANCH  14  15
HETATM   15  N3  UNL     1      52.805 -43.832  -9.955  1.00  0.00    -0.328 N 
HETATM   16  C9  UNL     1      52.082 -43.904 -11.086  1.00  0.00     0.114 A 
HETATM   17  C10 UNL     1      52.150 -42.711 -11.745  1.00  0.00     0.106 A 
HETATM   18  N4  UNL     1      52.919 -41.886 -11.025  1.00  0.00    -0.360 N 
HETATM   19  C11 UNL     1      53.317 -42.560  -9.944  1.00  0.00     0.187 A 
ATOM     20  H4  UNL     1      53.157 -40.922 -11.259  1.00  0.00     0.166 HD
ENDBRANCH  14  15
ENDBRANCH   5  13
BRANCH   2  21
HETATM   21  N1  UNL     1      52.182 -44.663  -4.205  1.00  0.00    -0.071 N 
ATOM     22  H13 UNL     1      52.013 -43.790  -3.707  1.00  0.00     0.275 HD
ATOM     23  H12 UNL     1      52.588 -45.188  -3.430  1.00  0.00     0.275 HD
ATOM     24  H11 UNL     1      52.831 -44.550  -4.984  1.00  0.00     0.275 HD
ENDBRANCH   2  21
TORSDOF 5
ENDMDL
MODEL 3
REMARK VINA RESULT: -6.016891488      2.502      3.938
REMARK  5 active torsions:
REMARK  status: ('A' for Active; 'I' for Inactive)
REMARK    1  A    between atoms: C2_2  and  N1_3 
REMARK    2  A    between atoms: C5_9  and  C6_10 
REMARK    3  A    between atoms: C5_9  and  C7_15 
REMARK    4  A    between atoms: C6_10  and  N2_11 
REMARK    5  A    between atoms: C8_16  and  N3_17 
ROOT
HETATM    1  C1  UNL     1      49.717 -45.348  -5.604  1.00  0.00     0.046 C 
HETATM    2  C2  UNL     1      50.168 -45.605  -7.018  1.00  0.00     0.120 C 
HETATM    3  C3  UNL     1      51.684 -45.730  -7.108  1.00  0.00     0.039 C 
HETATM    4  C4  UNL     1      52.074 -45.639  -8.535  1.00  0.00     0.018 C 
HETATM    5  C5  UNL     1      51.999 -44.183  -9.103  1.00  0.00     0.002 C 
HETATM    6  C12 UNL     1      51.010 -43.556  -8.145  1.00  0.00     0.018 C 
HETATM    7  C13 UNL     1      49.792 -44.433  -7.881  1.00  0.00     0.039 C 
ENDROOT
BRANCH   5   8
HETATM    8  C6  UNL     1      53.326 -43.558  -8.886  1.00  0.00     0.243 C 
BRANCH   8   9
HETATM    9  N2  UNL     1      54.469 -44.283  -9.277  1.00  0.00    -0.078 N 
ATOM     10  H23 UNL     1      55.241 -44.053  -8.652  1.00  0.00     0.274 HD
ATOM     11  H22 UNL     1      54.331 -45.270  -9.059  1.00  0.00     0.274 HD
ATOM     12  H21 UNL     1      54.783 -44.194 -10.244  1.00  0.00     0.274 HD
ENDBRANCH   8   9
ENDBRANCH   5   8
BRANCH   5  13
HETATM   13  C7  UNL     1      51.474 -44.273 -10.448  1.00  0.00     0.002 C 
HETATM   14  C8  UNL     1      51.170 -43.242 -11.400  1.00  0.00     0.094 C 
BRANCH  14  15
HETATM   15  N3  UNL     1      50.227 -42.191 -11.122  1.00  0.00    -0.328 N 
HETATM   16  C9  UNL     1      48.916 -42.267 -10.830  1.00  0.00     0.114 A 
HETATM   17  C10 UNL     1      48.420 -41.010 -10.645  1.00  0.00     0.106 A 
HETATM   18  N4  UNL     1      49.421 -40.140 -10.822  1.00  0.00    -0.360 N 
HETATM   19  C11 UNL     1      50.514 -40.850 -11.110  1.00  0.00     0.187 A 
ATOM     20  H4  UNL     1      49.361 -39.125 -10.749  1.00  0.00     0.166 HD
ENDBRANCH  14  15
ENDBRANCH   5  13
BRANCH   2  21
HETATM   21  N1  UNL     1      49.603 -46.846  -7.453  1.00  0.00    -0.071 N 
ATOM     22  H13 UNL     1      49.954 -47.644  -6.923  1.00  0.00     0.275 HD
ATOM     23  H12 UNL     1      48.617 -46.938  -7.204  1.00  0.00     0.275 HD
ATOM     24  H11 UNL     1      49.764 -46.940  -8.455  1.00  0.00     0.275 HD
ENDBRANCH   2  21
TORSDOF 5
ENDMDL
MODEL 4
REMARK VINA RESULT: -5.991236545      2.101      2.920
REMARK  5 active torsions:
REMARK  status: ('A' for Active; 'I' for Inactive)
REMARK    1  A    between atoms: C2_2  and  N1_3 
REMARK    2  A    between atoms: C5_9  and  C6_10 
REMARK    3  A    between atoms: C5_9  and  C7_15 
REMARK    4  A    between atoms: C6_10  and  N2_11 
REMARK    5  A    between atoms: C8_16  and  N3_17 
ROOT
HETATM    1  C1  UNL     1      51.722 -44.642  -3.313  1.00  0.00     0.046 C 
HETATM    2  C2  UNL     1      50.862 -45.079  -4.469  1.00  0.00     0.120 C 
HETATM    3  C3  UNL     1      51.548 -46.156  -5.301  1.00  0.00     0.039 C 
HETATM    4  C4  UNL     1      50.817 -46.290  -6.583  1.00  0.00     0.018 C 
HETATM    5  C5  UNL     1      51.097 -45.115  -7.578  1.00  0.00     0.002 C 
HETATM    6  C12 UNL     1      51.537 -44.031  -6.618  1.00  0.00     0.018 C 
HETATM    7  C13 UNL     1      50.641 -43.914  -5.392  1.00  0.00     0.039 C 
ENDROOT
BRANCH   5   8
HETATM    8  C6  UNL     1      52.261 -45.510  -8.407  1.00  0.00     0.243 C 
BRANCH   8   9
HETATM    9  N2  UNL     1      53.380 -44.653  -8.425  1.00  0.00    -0.078 N 
ATOM     10  H23 UNL     1      54.224 -45.201  -8.258  1.00  0.00     0.274 HD
ATOM     11  H22 UNL     1      53.542 -44.334  -9.380  1.00  0.00     0.274 HD
ATOM     12  H21 UNL     1      53.375 -43.848  -7.799  1.00  0.00     0.274 HD
ENDBRANCH   8   9
ENDBRANCH   5   8
BRANCH   5  13
HETATM   13  C7  UNL     1      49.846 -44.794  -8.228  1.00  0.00     0.002 C 
HETATM   14  C8  UNL     1      49.560 -44.502  -9.604  1.00  0.00     0.094 C 
BRANCH  14  15
HETATM   15  N3  UNL     1      50.183 -43.410 -10.305  1.00  0.00    -0.328 N 
HETATM   16  C9  UNL     1      50.237 -42.104  -9.989  1.00  0.00     0.114 A 
HETATM   17  C10 UNL     1      50.932 -41.433 -10.952  1.00  0.00     0.106 A 
HETATM   18  N4  UNL     1      51.317 -42.320 -11.878  1.00  0.00    -0.360 N 
HETATM   19  C11 UNL     1      50.865 -43.515 -11.490  1.00  0.00     0.187 A 
ATOM     20  H4  UNL     1      51.854 -42.121 -12.721  1.00  0.00     0.166 HD
ENDBRANCH  14  15
ENDBRANCH   5  13
BRANCH   2  21
HETATM   21  N1  UNL     1      49.653 -45.640  -3.945  1.00  0.00    -0.071 N 
ATOM     22  H13 UNL     1      49.337 -45.168  -3.098  1.00  0.00     0.275 HD
ATOM     23  H12 UNL     1      48.841 -45.436  -4.528  1.00  0.00     0.275 HD
ATOM     24  H11 UNL     1      49.796 -46.640  -3.806  1.00  0.00     0.275 HD
ENDBRANCH   2  21
TORSDOF 5
ENDMDL
MODEL 5
REMARK VINA RESULT: -5.927407902      2.197      5.757
REMARK  5 active torsions:
REMARK  status: ('A' for Active; 'I' for Inactive)
REMARK    1  A    between atoms: C2_2  and  N1_3 
REMARK    2  A    between atoms: C5_9  and  C6_10 
REMARK    3  A    between atoms: C5_9  and  C7_15 
REMARK    4  A    between atoms: C6_10  and  N2_11 
REMARK    5  A    between atoms: C8_16  and  N3_17 
ROOT
HETATM    1  C1  UNL     1      52.744 -41.870 -10.940  1.00  0.00     0.046 C 
HETATM    2  C2  UNL     1      51.916 -43.122 -10.819  1.00  0.00     0.120 C 
HETATM    3  C3  UNL     1      50.443 -42.848 -11.098  1.00  0.00     0.039 C 
HETATM    4  C4  UNL     1      49.657 -44.016 -10.636  1.00  0.00     0.018 C 
HETATM    5  C5  UNL     1      49.515 -44.087  -9.080  1.00  0.00     0.002 C 
HETATM    6  C12 UNL     1      50.715 -43.272  -8.649  1.00  0.00     0.018 C 
HETATM    7  C13 UNL     1      51.987 -43.630  -9.407  1.00  0.00     0.039 C 
ENDROOT
BRANCH   5   8
HETATM    8  C6  UNL     1      48.286 -43.343  -8.717  1.00  0.00     0.243 C 
BRANCH   8   9
HETATM    9  N2  UNL     1      47.061 -43.789  -9.253  1.00  0.00    -0.078 N 
ATOM     10  H23 UNL     1      46.865 -44.727  -8.903  1.00  0.00     0.274 HD
ATOM     11  H22 UNL     1      46.298 -43.261  -8.830  1.00  0.00     0.274 HD
ATOM     12  H21 UNL     1      46.952 -43.781 -10.267  1.00  0.00     0.274 HD
ENDBRANCH   8   9
ENDBRANCH   5   8
BRANCH   5  13
HETATM   13  C7  UNL     1      49.635 -45.477  -8.700  1.00  0.00     0.002 C 
HETATM   14  C8  UNL     1      49.446 -46.115  -7.427  1.00  0.00     0.094 C 
BRANCH  14  15
HETATM   15  N3  UNL     1      50.208 -45.750  -6.262  1.00  0.00    -0.328 N 
HETATM   16  C9  UNL     1      49.972 -44.796  -5.344  1.00  0.00     0.114 A 
HETATM   17  C10 UNL     1      50.969 -44.806  -4.413  1.00  0.00     0.106 A 
HETATM   18  N4  UNL     1      51.836 -45.770  -4.747  1.00  0.00    -0.360 N 
HETATM   19  C11 UNL     1      51.379 -46.342  -5.863  1.00  0.00     0.187 A 
ATOM     20  H4  UNL     1      52.685 -46.021  -4.242  1.00  0.00     0.166 HD
ENDBRANCH  14  15
ENDBRANCH   5  13
BRANCH   2  21
HETATM   21  N1  UNL     1      52.376 -44.062 -11.796  1.00  0.00    -0.071 N 
ATOM     22  H13 UNL     1      52.468 -43.651 -12.724  1.00  0.00     0.275 HD
ATOM     23  H12 UNL     1      53.354 -44.321 -11.662  1.00  0.00     0.275 HD
ATOM     24  H11 UNL     1      51.752 -44.869 -11.784  1.00  0.00     0.275 HD
ENDBRANCH   2  21
TORSDOF 5
ENDMDL
