MODEL 1
REMARK VINA RESULT: -5.709548573      0.000      0.000
REMARK  7 active torsions:
REMARK  status: ('A' for Active; 'I' for Inactive)
REMARK    1  A    between atoms: C2_2  and  O1_3 
REMARK    2  A    between atoms: C2_2  and  C6_7 
REMARK    3  A    between atoms: O1_3  and  C3_4 
REMARK    4  A    between atoms: C3_4  and  C4_5 
REMARK    5  A    between atoms: C6_7  and  C7_8 
REMARK    6  A    between atoms: C7_8  and  N1_10 
REMARK    7  A    between atoms: C9_17  and  N3_18 
ROOT
HETATM    1  C6  UNL     1      47.678 -41.713 -10.388  1.00  0.00     0.209 C 
HETATM    2  N2  UNL     1      46.601 -42.482 -10.999  1.00  0.00    -0.029 N 
ATOM      3  H21 UNL     1      46.922 -43.392 -11.331  1.00  0.00     0.281 HD
ATOM      4  H22 UNL     1      46.311 -42.090 -11.895  1.00  0.00     0.281 HD
HETATM    5  C9  UNL     1      45.520 -42.600 -10.097  1.00  0.00     0.382 C 
HETATM    6  C10 UNL     1      45.714 -41.488  -9.111  1.00  0.00     0.074 C 
HETATM    7  C11 UNL     1      47.229 -41.437  -9.007  1.00  0.00    -0.002 C 
HETATM    8  C12 UNL     1      47.580 -42.609  -8.062  1.00  0.00     0.018 C 
HETATM    9  C13 UNL     1      47.624 -40.198  -8.326  1.00  0.00     0.018 C 
ENDROOT
BRANCH   1  10
HETATM   10  C2  UNL     1      48.885 -42.622 -10.397  1.00  0.00     0.076 C 
HETATM   11  C1  UNL     1      48.816 -43.722 -11.111  1.00  0.00     0.048 C 
BRANCH  10  12
HETATM   12  O1  UNL     1      50.042 -42.366  -9.698  1.00  0.00    -0.354 OA
BRANCH  12  13
HETATM   13  C3  UNL     1      51.130 -43.241  -9.722  1.00  0.00     0.175 C 
BRANCH  13  14
HETATM   14  C4  UNL     1      52.398 -42.744 -10.313  1.00  0.00     0.022 C 
HETATM   15  C5  UNL     1      52.284 -42.578 -11.816  1.00  0.00     0.007 C 
ENDBRANCH  13  14
ENDBRANCH  12  13
ENDBRANCH  10  12
ENDBRANCH   1  10
BRANCH   1  16
HETATM   16  C7  UNL     1      47.940 -40.600 -11.314  1.00  0.00     0.223 C 
HETATM   17  C8  UNL     1      49.408 -40.208 -11.461  1.00  0.00     0.043 C 
BRANCH  16  18
HETATM   18  N1  UNL     1      47.365 -40.754 -12.635  1.00  0.00    -0.072 N 
ATOM     19  H13 UNL     1      46.677 -41.507 -12.634  1.00  0.00     0.274 HD
ATOM     20  H12 UNL     1      46.760 -39.962 -12.850  1.00  0.00     0.274 HD
ATOM     21  H11 UNL     1      48.040 -40.896 -13.385  1.00  0.00     0.274 HD
ENDBRANCH  16  18
ENDBRANCH   1  16
BRANCH   5  22
HETATM   22  N3  UNL     1      44.249 -42.473 -10.799  1.00  0.00    -0.050 N 
ATOM     23  H33 UNL     1      44.240 -43.011 -11.666  1.00  0.00     0.276 HD
ATOM     24  H32 UNL     1      43.497 -42.958 -10.310  1.00  0.00     0.276 HD
ATOM     25  H31 UNL     1      44.024 -41.492 -10.961  1.00  0.00     0.276 HD
ENDBRANCH   5  22
TORSDOF 7
ENDMDL
MODEL 2
REMARK VINA RESULT: -5.529862296      2.022      3.244
REMARK  7 active torsions:
REMARK  status: ('A' for Active; 'I' for Inactive)
REMARK    1  A    between atoms: C2_2  and  O1_3 
REMARK    2  A    between atoms: C2_2  and  C6_7 
REMARK    3  A    between atoms: O1_3  and  C3_4 
REMARK    4  A    between atoms: C3_4  and  C4_5 
REMARK    5  A    between atoms: C6_7  and  C7_8 
REMARK    6  A    between atoms: C7_8  and  N1_10 
REMARK    7  A    between atoms: C9_17  and  N3_18 
ROOT
HETATM    1  C6  UNL     1      48.562 -42.543  -9.667  1.00  0.00     0.209 C 
HETATM    2  N2  UNL     1      48.994 -41.379  -8.903  1.00  0.00    -0.029 N 
ATOM      3  H21 UNL     1      49.912 -41.046  -9.199  1.00  0.00     0.281 HD
ATOM      4  H22 UNL     1      49.227 -41.620  -7.939  1.00  0.00     0.281 HD
HETATM    5  C9  UNL     1      48.015 -40.364  -8.973  1.00  0.00     0.382 C 
HETATM    6  C10 UNL     1      46.752 -41.069  -9.365  1.00  0.00     0.074 C 
HETATM    7  C11 UNL     1      47.284 -42.147 -10.295  1.00  0.00    -0.002 C 
HETATM    8  C12 UNL     1      47.525 -41.405 -11.630  1.00  0.00     0.018 C 
HETATM    9  C13 UNL     1      46.229 -43.139 -10.535  1.00  0.00     0.018 C 
ENDROOT
BRANCH   1  10
HETATM   10  C2  UNL     1      49.633 -42.769 -10.708  1.00  0.00     0.076 C 
HETATM   11  C1  UNL     1      49.620 -43.910 -11.359  1.00  0.00     0.048 C 
BRANCH  10  12
HETATM   12  O1  UNL     1      50.618 -41.856 -11.005  1.00  0.00    -0.354 OA
BRANCH  12  13
HETATM   13  C3  UNL     1      51.859 -42.246 -11.514  1.00  0.00     0.175 C 
BRANCH  13  14
HETATM   14  C4  UNL     1      53.035 -42.136 -10.614  1.00  0.00     0.022 C 
HETATM   15  C5  UNL     1      53.183 -43.367  -9.739  1.00  0.00     0.007 C 
ENDBRANCH  13  14
ENDBRANCH  12  13
ENDBRANCH  10  12
ENDBRANCH   1  10
BRANCH   1  16
HETATM   16  C7  UNL     1      48.600 -43.670  -8.722  1.00  0.00     0.223 C 
HETATM   17  C8  UNL     1      49.857 -43.753  -7.860  1.00  0.00     0.043 C 
BRANCH  16  18
HETATM   18  N1  UNL     1      47.439 -43.789  -7.864  1.00  0.00    -0.072 N 
ATOM     19  H13 UNL     1      47.727 -43.845  -6.887  1.00  0.00     0.274 HD
ATOM     20  H12 UNL     1      46.923 -42.910  -7.847  1.00  0.00     0.274 HD
ATOM     21  H11 UNL     1      46.813 -44.561  -8.090  1.00  0.00     0.274 HD
ENDBRANCH  16  18
ENDBRANCH   1  16
BRANCH   5  22
HETATM   22  N3  UNL     1      47.873 -39.696  -7.685  1.00  0.00    -0.050 N 
ATOM     23  H33 UNL     1      47.257 -40.212  -7.057  1.00  0.00     0.276 HD
ATOM     24  H32 UNL     1      48.731 -39.748  -7.135  1.00  0.00     0.276 HD
ATOM     25  H31 UNL     1      47.563 -38.733  -7.811  1.00  0.00     0.276 HD
ENDBRANCH   5  22
TORSDOF 7
ENDMDL
MODEL 3
REMARK VINA RESULT: -5.430492391      6.354      8.226
REMARK  7 active torsions:
REMARK  status: ('A' for Active; 'I' for Inactive)
REMARK    1  A    between atoms: C2_2  and  O1_3 
REMARK    2  A    between atoms: C2_2  and  C6_7 
REMARK    3  A    between atoms: O1_3  and  C3_4 
REMARK    4  A    between atoms: C3_4  and  C4_5 
REMARK    5  A    between atoms: C6_7  and  C7_8 
REMARK    6  A    between atoms: C7_8  and  N1_10 
REMARK    7  A    between atoms: C9_17  and  N3_18 
ROOT
HETATM    1  C6  UNL     1      49.552 -46.165  -4.800  1.00  0.00     0.209 C 
HETATM    2  N2  UNL     1      49.965 -44.826  -5.202  1.00  0.00    -0.029 N 
ATOM      3  H21 UNL     1      49.987 -44.179  -4.414  1.00  0.00     0.281 HD
ATOM      4  H22 UNL     1      49.251 -44.357  -5.761  1.00  0.00     0.281 HD
HETATM    5  C9  UNL     1      51.207 -44.885  -5.872  1.00  0.00     0.382 C 
HETATM    6  C10 UNL     1      51.336 -46.307  -6.328  1.00  0.00     0.074 C 
HETATM    7  C11 UNL     1      50.669 -47.053  -5.185  1.00  0.00    -0.002 C 
HETATM    8  C12 UNL     1      51.752 -47.096  -4.083  1.00  0.00     0.018 C 
HETATM    9  C13 UNL     1      50.414 -48.438  -5.597  1.00  0.00     0.018 C 
ENDROOT
BRANCH   1  10
HETATM   10  C2  UNL     1      49.393 -46.109  -3.298  1.00  0.00     0.076 C 
HETATM   11  C1  UNL     1      48.929 -47.179  -2.694  1.00  0.00     0.048 C 
BRANCH  10  12
HETATM   12  O1  UNL     1      49.699 -45.006  -2.536  1.00  0.00    -0.354 OA
BRANCH  12  13
HETATM   13  C3  UNL     1      50.359 -45.115  -1.310  1.00  0.00     0.175 C 
BRANCH  13  14
HETATM   14  C4  UNL     1      51.515 -44.214  -1.071  1.00  0.00     0.022 C 
HETATM   15  C5  UNL     1      52.139 -43.753  -2.375  1.00  0.00     0.007 C 
ENDBRANCH  13  14
ENDBRANCH  12  13
ENDBRANCH  10  12
ENDBRANCH   1  10
BRANCH   1  16
HETATM   16  C7  UNL     1      48.218 -46.359  -5.392  1.00  0.00     0.223 C 
HETATM   17  C8  UNL     1      47.132 -45.426  -4.864  1.00  0.00     0.043 C 
BRANCH  16  18
HETATM   18  N1  UNL     1      48.183 -46.343  -6.840  1.00  0.00    -0.072 N 
ATOM     19  H13 UNL     1      47.561 -45.605  -7.169  1.00  0.00     0.274 HD
ATOM     20  H12 UNL     1      49.072 -46.004  -7.209  1.00  0.00     0.274 HD
ATOM     21  H11 UNL     1      47.936 -47.231  -7.275  1.00  0.00     0.274 HD
ENDBRANCH  16  18
ENDBRANCH   1  16
BRANCH   5  22
HETATM   22  N3  UNL     1      51.229 -43.961  -6.999  1.00  0.00    -0.050 N 
ATOM     23  H33 UNL     1      52.090 -44.042  -7.538  1.00  0.00     0.276 HD
ATOM     24  H32 UNL     1      50.566 -44.233  -7.724  1.00  0.00     0.276 HD
ATOM     25  H31 UNL     1      51.070 -43.004  -6.682  1.00  0.00     0.276 HD
ENDBRANCH   5  22
TORSDOF 7
ENDMDL
MODEL 4
REMARK VINA RESULT: -5.415043204      6.011      7.759
REMARK  7 active torsions:
REMARK  status: ('A' for Active; 'I' for Inactive)
REMARK    1  A    between atoms: C2_2  and  O1_3 
REMARK    2  A    between atoms: C2_2  and  C6_7 
REMARK    3  A    between atoms: O1_3  and  C3_4 
REMARK    4  A    between atoms: C3_4  and  C4_5 
REMARK    5  A    between atoms: C6_7  and  C7_8 
REMARK    6  A    between atoms: C7_8  and  N1_10 
REMARK    7  A    between atoms: C9_17  and  N3_18 
ROOT
HETATM    1  C6  UNL     1      50.597 -45.016  -5.488  1.00  0.00     0.209 C 
HETATM    2  N2  UNL     1      51.574 -45.793  -6.241  1.00  0.00    -0.029 N 
ATOM      3  H21 UNL     1      51.878 -46.623  -5.732  1.00  0.00     0.281 HD
ATOM      4  H22 UNL     1      52.475 -45.317  -6.303  1.00  0.00     0.281 HD
HETATM    5  C9  UNL     1      51.056 -46.115  -7.515  1.00  0.00     0.382 C 
HETATM    6  C10 UNL     1      49.957 -45.122  -7.750  1.00  0.00     0.074 C 
HETATM    7  C11 UNL     1      49.396 -44.955  -6.348  1.00  0.00    -0.002 C 
HETATM    8  C12 UNL     1      48.504 -46.202  -6.150  1.00  0.00     0.018 C 
HETATM    9  C13 UNL     1      48.515 -43.782  -6.319  1.00  0.00     0.018 C 
ENDROOT
BRANCH   1  10
HETATM   10  C2  UNL     1      50.326 -45.810  -4.231  1.00  0.00     0.076 C 
HETATM   11  C1  UNL     1      51.070 -46.869  -4.006  1.00  0.00     0.048 C 
BRANCH  10  12
HETATM   12  O1  UNL     1      49.347 -45.491  -3.320  1.00  0.00    -0.354 OA
BRANCH  12  13
HETATM   13  C3  UNL     1      49.056 -46.313  -2.228  1.00  0.00     0.175 C 
BRANCH  13  14
HETATM   14  C4  UNL     1      48.861 -45.659  -0.910  1.00  0.00     0.022 C 
HETATM   15  C5  UNL     1      50.105 -44.909  -0.471  1.00  0.00     0.007 C 
ENDBRANCH  13  14
ENDBRANCH  12  13
ENDBRANCH  10  12
ENDBRANCH   1  10
BRANCH   1  16
HETATM   16  C7  UNL     1      51.292 -43.777  -5.103  1.00  0.00     0.223 C 
HETATM   17  C8  UNL     1      51.761 -43.720  -3.652  1.00  0.00     0.043 C 
BRANCH  16  18
HETATM   18  N1  UNL     1      52.395 -43.402  -5.964  1.00  0.00    -0.072 N 
ATOM     19  H13 UNL     1      53.272 -43.430  -5.445  1.00  0.00     0.274 HD
ATOM     20  H12 UNL     1      52.571 -44.136  -6.650  1.00  0.00     0.274 HD
ATOM     21  H11 UNL     1      52.291 -42.501  -6.430  1.00  0.00     0.274 HD
ENDBRANCH  16  18
ENDBRANCH   1  16
BRANCH   5  22
HETATM   22  N3  UNL     1      52.094 -46.010  -8.534  1.00  0.00    -0.050 N 
ATOM     23  H33 UNL     1      52.649 -45.162  -8.422  1.00  0.00     0.276 HD
ATOM     24  H32 UNL     1      52.833 -46.698  -8.392  1.00  0.00     0.276 HD
ATOM     25  H31 UNL     1      51.689 -46.077  -9.467  1.00  0.00     0.276 HD
ENDBRANCH   5  22
TORSDOF 7
ENDMDL
MODEL 5
REMARK VINA RESULT: -5.405583021      7.295      9.002
REMARK  7 active torsions:
REMARK  status: ('A' for Active; 'I' for Inactive)
REMARK    1  A    between atoms: C2_2  and  O1_3 
REMARK    2  A    between atoms: C2_2  and  C6_7 
REMARK    3  A    between atoms: O1_3  and  C3_4 
REMARK    4  A    between atoms: C3_4  and  C4_5 
REMARK    5  A    between atoms: C6_7  and  C7_8 
REMARK    6  A    between atoms: C7_8  and  N1_10 
REMARK    7  A    between atoms: C9_17  and  N3_18 
ROOT
HETATM    1  C6  UNL     1      50.097 -45.878  -4.114  1.00  0.00     0.209 C 
HETATM    2  N2  UNL     1      51.067 -46.843  -4.615  1.00  0.00    -0.029 N 
ATOM      3  H21 UNL     1      51.890 -46.905  -4.016  1.00  0.00     0.281 HD
ATOM      4  H22 UNL     1      51.526 -46.518  -5.467  1.00  0.00     0.281 HD
HETATM    5  C9  UNL     1      50.448 -48.100  -4.795  1.00  0.00     0.382 C 
HETATM    6  C10 UNL     1      48.982 -47.803  -4.880  1.00  0.00     0.074 C 
HETATM    7  C11 UNL     1      48.851 -46.644  -3.905  1.00  0.00    -0.002 C 
HETATM    8  C12 UNL     1      48.839 -47.323  -2.516  1.00  0.00     0.018 C 
HETATM    9  C13 UNL     1      47.542 -46.007  -4.088  1.00  0.00     0.018 C 
ENDROOT
BRANCH   1  10
HETATM   10  C2  UNL     1      50.657 -45.381  -2.801  1.00  0.00     0.076 C 
HETATM   11  C1  UNL     1      51.871 -45.761  -2.472  1.00  0.00     0.048 C 
BRANCH  10  12
HETATM   12  O1  UNL     1      49.968 -44.565  -1.934  1.00  0.00    -0.354 OA
BRANCH  12  13
HETATM   13  C3  UNL     1      50.364 -44.394  -0.606  1.00  0.00     0.175 C 
BRANCH  13  14
HETATM   14  C4  UNL     1      49.539 -45.041   0.445  1.00  0.00     0.022 C 
HETATM   15  C5  UNL     1      49.705 -44.351   1.786  1.00  0.00     0.007 C 
ENDBRANCH  13  14
ENDBRANCH  12  13
ENDBRANCH  10  12
ENDBRANCH   1  10
BRANCH   1  16
HETATM   16  C7  UNL     1      50.124 -44.760  -5.071  1.00  0.00     0.223 C 
HETATM   17  C8  UNL     1      51.320 -43.821  -4.940  1.00  0.00     0.043 C 
BRANCH  16  18
HETATM   18  N1  UNL     1      49.982 -45.143  -6.461  1.00  0.00    -0.072 N 
ATOM     19  H13 UNL     1      50.390 -44.430  -7.066  1.00  0.00     0.274 HD
ATOM     20  H12 UNL     1      50.596 -45.929  -6.674  1.00  0.00     0.274 HD
ATOM     21  H11 UNL     1      49.029 -45.350  -6.757  1.00  0.00     0.274 HD
ENDBRANCH  16  18
ENDBRANCH   1  16
BRANCH   5  22
HETATM   22  N3  UNL     1      50.933 -48.743  -6.010  1.00  0.00    -0.050 N 
ATOM     23  H33 UNL     1      50.171 -48.953  -6.656  1.00  0.00     0.276 HD
ATOM     24  H32 UNL     1      51.457 -48.095  -6.597  1.00  0.00     0.276 HD
ATOM     25  H31 UNL     1      51.477 -49.575  -5.785  1.00  0.00     0.276 HD
ENDBRANCH   5  22
TORSDOF 7
ENDMDL
