MODEL 1
REMARK VINA RESULT: -7.992990813      0.000      0.000
REMARK  5 active torsions:
REMARK  status: ('A' for Active; 'I' for Inactive)
REMARK       I    between atoms: N1_7  and  C7_8 
REMARK    1  A    between atoms: C7_8  and  C8_10 
REMARK    2  A    between atoms: C14_17  and  C15_18 
REMARK       I    between atoms: C15_18  and  N2_20 
REMARK    3  A    between atoms: N2_20  and  C16_22 
REMARK    4  A    between atoms: C16_22  and  C17_23 
REMARK    5  A    between atoms: C17_23  and  N3_24 
ROOT
HETATM    1  C8  UNL     1       2.653  10.061   1.829  1.00  0.00     0.122 C 
HETATM    2  C9  UNL     1       3.295  11.410   1.603  1.00  0.00     0.136 C 
HETATM    3  C10 UNL     1       4.640  11.263   0.887  1.00  0.00     0.039 C 
HETATM    4  C11 UNL     1       5.565  10.975   2.053  1.00  0.00     0.014 C 
HETATM    5  C12 UNL     1       6.590   9.949   1.790  1.00  0.00     0.012 C 
HETATM    6  C13 UNL     1       4.553  10.607   3.116  1.00  0.00     0.139 C 
HETATM    7  O2  UNL     1       3.668  11.690   2.945  1.00  0.00    -0.378 OA
HETATM    8  C14 UNL     1       3.716   9.402   2.689  1.00  0.00     0.122 C 
ENDROOT
BRANCH   8   9
HETATM    9  C15 UNL     1       3.172   8.806   3.915  1.00  0.00     0.225 C 
HETATM   10  O3  UNL     1       1.955   8.535   3.966  1.00  0.00    -0.273 OA
HETATM   11  N2  UNL     1       3.980   8.526   5.047  1.00  0.00    -0.359 N 
ATOM     12  H2  UNL     1       4.976   8.746   5.011  1.00  0.00     0.162 HD
BRANCH  11  13
HETATM   13  C16 UNL     1       3.441   7.946   6.239  1.00  0.00     0.142 C 
BRANCH  13  14
HETATM   14  C17 UNL     1       3.740   6.515   6.480  1.00  0.00     0.145 C 
BRANCH  14  15
HETATM   15  N3  UNL     1       5.001   6.308   7.143  1.00  0.00    -0.351 N 
HETATM   16  C18 UNL     1       6.281   6.797   6.674  1.00  0.00     0.126 C 
HETATM   17  C19 UNL     1       7.239   5.607   6.702  1.00  0.00     0.020 C 
HETATM   18  C20 UNL     1       7.510   5.190   8.123  1.00  0.00     0.011 C 
HETATM   19  C21 UNL     1       6.390   5.456   9.073  1.00  0.00     0.103 C 
HETATM   20  C22 UNL     1       5.072   5.583   8.396  1.00  0.00     0.219 C 
HETATM   21  O4  UNL     1       4.037   5.085   8.876  1.00  0.00    -0.273 OA
ENDBRANCH  14  15
ENDBRANCH  13  14
ENDBRANCH  11  13
ENDBRANCH   8   9
BRANCH   1  22
HETATM   22  C7  UNL     1       2.333   9.315   0.623  1.00  0.00     0.227 C 
HETATM   23  N1  UNL     1       1.090   9.284  -0.007  1.00  0.00    -0.351 N 
HETATM   24  C6  UNL     1      -0.037   9.995   0.540  1.00  0.00     0.130 C 
HETATM   25  C23 UNL     1       0.888   8.558  -1.225  1.00  0.00     0.130 C 
HETATM   26  C4  UNL     1      -0.466  11.042  -0.469  1.00  0.00    -0.000 C 
HETATM   27  C3  UNL     1      -0.520  10.503  -1.860  1.00  0.00     0.011 C 
HETATM   28  C5  UNL     1      -1.824  11.588  -0.100  1.00  0.00     0.011 C 
HETATM   29  C2  UNL     1      -0.329   9.030  -1.990  1.00  0.00    -0.000 C 
HETATM   30  C1  UNL     1      -1.561   8.222  -1.633  1.00  0.00     0.011 C 
HETATM   31  O1  UNL     1       3.268   8.639   0.105  1.00  0.00    -0.273 OA
ENDBRANCH   1  22
TORSDOF 5
ENDMDL
MODEL 2
REMARK VINA RESULT: -7.933843053      1.234      1.453
REMARK  5 active torsions:
REMARK  status: ('A' for Active; 'I' for Inactive)
REMARK       I    between atoms: N1_7  and  C7_8 
REMARK    1  A    between atoms: C7_8  and  C8_10 
REMARK    2  A    between atoms: C14_17  and  C15_18 
REMARK       I    between atoms: C15_18  and  N2_20 
REMARK    3  A    between atoms: N2_20  and  C16_22 
REMARK    4  A    between atoms: C16_22  and  C17_23 
REMARK    5  A    between atoms: C17_23  and  N3_24 
ROOT
HETATM    1  C8  UNL     1       2.933  10.537   2.282  1.00  0.00     0.122 C 
HETATM    2  C9  UNL     1       3.621  11.710   1.622  1.00  0.00     0.136 C 
HETATM    3  C10 UNL     1       4.451  11.252   0.421  1.00  0.00     0.039 C 
HETATM    4  C11 UNL     1       5.740  10.827   1.097  1.00  0.00     0.014 C 
HETATM    5  C12 UNL     1       6.347   9.599   0.555  1.00  0.00     0.012 C 
HETATM    6  C13 UNL     1       5.271  10.727   2.532  1.00  0.00     0.139 C 
HETATM    7  O2  UNL     1       4.601  11.964   2.619  1.00  0.00    -0.378 OA
HETATM    8  C14 UNL     1       4.142   9.708   2.675  1.00  0.00     0.122 C 
ENDROOT
BRANCH   8   9
HETATM    9  C15 UNL     1       4.119   9.294   4.083  1.00  0.00     0.225 C 
HETATM   10  O3  UNL     1       4.961   9.778   4.868  1.00  0.00    -0.273 OA
HETATM   11  N2  UNL     1       3.176   8.361   4.586  1.00  0.00    -0.359 N 
ATOM     12  H2  UNL     1       2.487   7.962   3.949  1.00  0.00     0.162 HD
BRANCH  11  13
HETATM   13  C16 UNL     1       3.162   7.962   5.961  1.00  0.00     0.142 C 
BRANCH  13  14
HETATM   14  C17 UNL     1       3.518   6.555   6.253  1.00  0.00     0.145 C 
BRANCH  14  15
HETATM   15  N3  UNL     1       4.805   6.420   6.885  1.00  0.00    -0.351 N 
HETATM   16  C18 UNL     1       6.053   6.926   6.356  1.00  0.00     0.126 C 
HETATM   17  C19 UNL     1       7.050   5.770   6.410  1.00  0.00     0.020 C 
HETATM   18  C20 UNL     1       7.377   5.431   7.840  1.00  0.00     0.011 C 
HETATM   19  C21 UNL     1       6.277   5.707   8.811  1.00  0.00     0.103 C 
HETATM   20  C22 UNL     1       4.936   5.760   8.169  1.00  0.00     0.219 C 
HETATM   21  O4  UNL     1       3.933   5.252   8.704  1.00  0.00    -0.273 OA
ENDBRANCH  14  15
ENDBRANCH  13  14
ENDBRANCH  11  13
ENDBRANCH   8   9
BRANCH   1  22
HETATM   22  C7  UNL     1       1.983   9.822   1.446  1.00  0.00     0.227 C 
HETATM   23  N1  UNL     1       0.650  10.177   1.246  1.00  0.00    -0.351 N 
HETATM   24  C6  UNL     1       0.076  11.314   1.919  1.00  0.00     0.130 C 
HETATM   25  C23 UNL     1      -0.196   9.436   0.359  1.00  0.00     0.130 C 
HETATM   26  C4  UNL     1      -0.352  12.316   0.865  1.00  0.00    -0.000 C 
HETATM   27  C3  UNL     1      -1.074  11.672  -0.272  1.00  0.00     0.011 C 
HETATM   28  C5  UNL     1      -1.245  13.365   1.482  1.00  0.00     0.011 C 
HETATM   29  C2  UNL     1      -1.402  10.228  -0.094  1.00  0.00    -0.000 C 
HETATM   30  C1  UNL     1      -2.600   9.982   0.801  1.00  0.00     0.011 C 
HETATM   31  O1  UNL     1       2.410   8.792   0.850  1.00  0.00    -0.273 OA
ENDBRANCH   1  22
TORSDOF 5
ENDMDL
MODEL 3
REMARK VINA RESULT: -7.923141522      2.040      2.659
REMARK  5 active torsions:
REMARK  status: ('A' for Active; 'I' for Inactive)
REMARK       I    between atoms: N1_7  and  C7_8 
REMARK    1  A    between atoms: C7_8  and  C8_10 
REMARK    2  A    between atoms: C14_17  and  C15_18 
REMARK       I    between atoms: C15_18  and  N2_20 
REMARK    3  A    between atoms: N2_20  and  C16_22 
REMARK    4  A    between atoms: C16_22  and  C17_23 
REMARK    5  A    between atoms: C17_23  and  N3_24 
ROOT
HETATM    1  C8  UNL     1       1.680  10.407   2.504  1.00  0.00     0.122 C 
HETATM    2  C9  UNL     1       2.264  11.671   1.915  1.00  0.00     0.136 C 
HETATM    3  C10 UNL     1       2.755  11.432   0.486  1.00  0.00     0.039 C 
HETATM    4  C11 UNL     1       4.138  10.866   0.740  1.00  0.00     0.014 C 
HETATM    5  C12 UNL     1       4.522   9.751  -0.143  1.00  0.00     0.012 C 
HETATM    6  C13 UNL     1       4.018  10.507   2.204  1.00  0.00     0.139 C 
HETATM    7  O2  UNL     1       3.466  11.718   2.671  1.00  0.00    -0.378 OA
HETATM    8  C14 UNL     1       2.894   9.499   2.436  1.00  0.00     0.122 C 
ENDROOT
BRANCH   8   9
HETATM    9  C15 UNL     1       3.180   8.829   3.710  1.00  0.00     0.225 C 
HETATM   10  O3  UNL     1       2.274   8.173   4.265  1.00  0.00    -0.273 OA
HETATM   11  N2  UNL     1       4.450   8.900   4.338  1.00  0.00    -0.359 N 
ATOM     12  H2  UNL     1       5.194   9.435   3.890  1.00  0.00     0.162 HD
BRANCH  11  13
HETATM   13  C16 UNL     1       4.720   8.244   5.582  1.00  0.00     0.142 C 
BRANCH  13  14
HETATM   14  C17 UNL     1       6.023   7.552   5.704  1.00  0.00     0.145 C 
BRANCH  14  15
HETATM   15  N3  UNL     1       5.973   6.409   6.578  1.00  0.00    -0.351 N 
HETATM   16  C18 UNL     1       4.850   5.505   6.707  1.00  0.00     0.126 C 
HETATM   17  C19 UNL     1       4.566   5.373   8.202  1.00  0.00     0.020 C 
HETATM   18  C20 UNL     1       5.694   4.646   8.884  1.00  0.00     0.011 C 
HETATM   19  C21 UNL     1       7.029   4.829   8.243  1.00  0.00     0.103 C 
HETATM   20  C22 UNL     1       7.108   6.058   7.409  1.00  0.00     0.219 C 
HETATM   21  O4  UNL     1       8.118   6.786   7.408  1.00  0.00    -0.273 OA
ENDBRANCH  14  15
ENDBRANCH  13  14
ENDBRANCH  11  13
ENDBRANCH   8   9
BRANCH   1  22
HETATM   22  C7  UNL     1       0.516   9.879   1.812  1.00  0.00     0.227 C 
HETATM   23  N1  UNL     1      -0.800  10.295   2.003  1.00  0.00    -0.351 N 
HETATM   24  C6  UNL     1      -1.126  11.304   2.978  1.00  0.00     0.130 C 
HETATM   25  C23 UNL     1      -1.876   9.746   1.233  1.00  0.00     0.130 C 
HETATM   26  C4  UNL     1      -1.720  12.490   2.245  1.00  0.00    -0.000 C 
HETATM   27  C3  UNL     1      -2.728  12.080   1.223  1.00  0.00     0.011 C 
HETATM   28  C5  UNL     1      -2.373  13.431   3.228  1.00  0.00     0.011 C 
HETATM   29  C2  UNL     1      -3.100  10.635   1.226  1.00  0.00    -0.000 C 
HETATM   30  C1  UNL     1      -4.070  10.259   2.327  1.00  0.00     0.011 C 
HETATM   31  O1  UNL     1       0.723   8.964   0.964  1.00  0.00    -0.273 OA
ENDBRANCH   1  22
TORSDOF 5
ENDMDL
MODEL 4
REMARK VINA RESULT: -7.755583649      2.914      4.274
REMARK  5 active torsions:
REMARK  status: ('A' for Active; 'I' for Inactive)
REMARK       I    between atoms: N1_7  and  C7_8 
REMARK    1  A    between atoms: C7_8  and  C8_10 
REMARK    2  A    between atoms: C14_17  and  C15_18 
REMARK       I    between atoms: C15_18  and  N2_20 
REMARK    3  A    between atoms: N2_20  and  C16_22 
REMARK    4  A    between atoms: C16_22  and  C17_23 
REMARK    5  A    between atoms: C17_23  and  N3_24 
ROOT
HETATM    1  C8  UNL     1       3.995  11.355   0.828  1.00  0.00     0.122 C 
HETATM    2  C9  UNL     1       5.505  11.419   0.838  1.00  0.00     0.136 C 
HETATM    3  C10 UNL     1       6.089  10.753  -0.410  1.00  0.00     0.039 C 
HETATM    4  C11 UNL     1       6.109   9.298   0.013  1.00  0.00     0.014 C 
HETATM    5  C12 UNL     1       5.714   8.343  -1.038  1.00  0.00     0.012 C 
HETATM    6  C13 UNL     1       5.180   9.351   1.205  1.00  0.00     0.139 C 
HETATM    7  O2  UNL     1       5.746  10.463   1.861  1.00  0.00    -0.378 OA
HETATM    8  C14 UNL     1       3.793   9.852   0.805  1.00  0.00     0.122 C 
ENDROOT
BRANCH   8   9
HETATM    9  C15 UNL     1       2.858   9.384   1.835  1.00  0.00     0.225 C 
HETATM   10  O3  UNL     1       1.644   9.302   1.556  1.00  0.00    -0.273 OA
HETATM   11  N2  UNL     1       3.283   9.022   3.140  1.00  0.00    -0.359 N 
ATOM     12  H2  UNL     1       4.274   9.088   3.373  1.00  0.00     0.162 HD
BRANCH  11  13
HETATM   13  C16 UNL     1       2.364   8.567   4.138  1.00  0.00     0.142 C 
BRANCH  13  14
HETATM   14  C17 UNL     1       2.744   8.797   5.551  1.00  0.00     0.145 C 
BRANCH  14  15
HETATM   15  N3  UNL     1       3.736   7.865   6.024  1.00  0.00    -0.351 N 
HETATM   16  C18 UNL     1       5.132   7.868   5.644  1.00  0.00     0.126 C 
HETATM   17  C19 UNL     1       5.474   6.438   5.227  1.00  0.00     0.020 C 
HETATM   18  C20 UNL     1       5.427   5.523   6.422  1.00  0.00     0.011 C 
HETATM   19  C21 UNL     1       4.463   5.937   7.484  1.00  0.00     0.103 C 
HETATM   20  C22 UNL     1       3.388   6.829   6.976  1.00  0.00     0.219 C 
HETATM   21  O4  UNL     1       2.205   6.708   7.347  1.00  0.00    -0.273 OA
ENDBRANCH  14  15
ENDBRANCH  13  14
ENDBRANCH  11  13
ENDBRANCH   8   9
BRANCH   1  22
HETATM   22  C7  UNL     1       3.352  12.047  -0.277  1.00  0.00     0.227 C 
HETATM   23  N1  UNL     1       3.394  13.421  -0.510  1.00  0.00    -0.351 N 
HETATM   24  C6  UNL     1       4.082  14.306   0.395  1.00  0.00     0.130 C 
HETATM   25  C23 UNL     1       2.769  14.004  -1.659  1.00  0.00     0.130 C 
HETATM   26  C4  UNL     1       5.213  14.969  -0.366  1.00  0.00    -0.000 C 
HETATM   27  C3  UNL     1       4.784  15.454  -1.712  1.00  0.00     0.011 C 
HETATM   28  C5  UNL     1       5.755  16.134   0.426  1.00  0.00     0.011 C 
HETATM   29  C2  UNL     1       3.322  15.371  -1.993  1.00  0.00    -0.000 C 
HETATM   30  C1  UNL     1       2.514  16.476  -1.343  1.00  0.00     0.011 C 
HETATM   31  O1  UNL     1       2.700  11.336  -1.094  1.00  0.00    -0.273 OA
ENDBRANCH   1  22
TORSDOF 5
ENDMDL
MODEL 5
REMARK VINA RESULT: -7.647366836      1.264      1.713
REMARK  5 active torsions:
REMARK  status: ('A' for Active; 'I' for Inactive)
REMARK       I    between atoms: N1_7  and  C7_8 
REMARK    1  A    between atoms: C7_8  and  C8_10 
REMARK    2  A    between atoms: C14_17  and  C15_18 
REMARK       I    between atoms: C15_18  and  N2_20 
REMARK    3  A    between atoms: N2_20  and  C16_22 
REMARK    4  A    between atoms: C16_22  and  C17_23 
REMARK    5  A    between atoms: C17_23  and  N3_24 
ROOT
HETATM    1  C8  UNL     1       2.429  10.340   2.420  1.00  0.00     0.122 C 
HETATM    2  C9  UNL     1       3.280  11.561   2.152  1.00  0.00     0.136 C 
HETATM    3  C10 UNL     1       4.342  11.265   1.091  1.00  0.00     0.039 C 
HETATM    4  C11 UNL     1       5.436  10.639   1.933  1.00  0.00     0.014 C 
HETATM    5  C12 UNL     1       6.111   9.486   1.313  1.00  0.00     0.012 C 
HETATM    6  C13 UNL     1       4.659  10.321   3.191  1.00  0.00     0.139 C 
HETATM    7  O2  UNL     1       4.022  11.567   3.364  1.00  0.00    -0.378 OA
HETATM    8  C14 UNL     1       3.496   9.373   2.899  1.00  0.00     0.122 C 
ENDROOT
BRANCH   8   9
HETATM    9  C15 UNL     1       3.151   8.721   4.167  1.00  0.00     0.225 C 
HETATM   10  O3  UNL     1       1.978   8.332   4.346  1.00  0.00    -0.273 OA
HETATM   11  N2  UNL     1       4.101   8.516   5.201  1.00  0.00    -0.359 N 
ATOM     12  H2  UNL     1       5.060   8.832   5.060  1.00  0.00     0.162 HD
BRANCH  11  13
HETATM   13  C16 UNL     1       3.754   7.879   6.435  1.00  0.00     0.142 C 
BRANCH  13  14
HETATM   14  C17 UNL     1       3.787   6.399   6.456  1.00  0.00     0.145 C 
BRANCH  14  15
HETATM   15  N3  UNL     1       4.979   5.872   7.068  1.00  0.00    -0.351 N 
HETATM   16  C18 UNL     1       5.017   5.089   8.285  1.00  0.00     0.126 C 
HETATM   17  C19 UNL     1       6.074   5.729   9.183  1.00  0.00     0.020 C 
HETATM   18  C20 UNL     1       7.445   5.540   8.590  1.00  0.00     0.011 C 
HETATM   19  C21 UNL     1       7.471   5.459   7.100  1.00  0.00     0.103 C 
HETATM   20  C22 UNL     1       6.280   6.081   6.464  1.00  0.00     0.219 C 
HETATM   21  O4  UNL     1       6.373   6.773   5.432  1.00  0.00    -0.273 OA
ENDBRANCH  14  15
ENDBRANCH  13  14
ENDBRANCH  11  13
ENDBRANCH   8   9
BRANCH   1  22
HETATM   22  C7  UNL     1       1.667   9.852   1.283  1.00  0.00     0.227 C 
HETATM   23  N1  UNL     1       0.345  10.181   0.990  1.00  0.00    -0.351 N 
HETATM   24  C6  UNL     1      -0.415  11.043   1.858  1.00  0.00     0.130 C 
HETATM   25  C23 UNL     1      -0.305   9.687  -0.187  1.00  0.00     0.130 C 
HETATM   26  C4  UNL     1      -0.792  12.285   1.075  1.00  0.00    -0.000 C 
HETATM   27  C3  UNL     1      -1.296  11.962  -0.293  1.00  0.00     0.011 C 
HETATM   28  C5  UNL     1      -1.851  13.063   1.817  1.00  0.00     0.011 C 
HETATM   29  C2  UNL     1      -1.510  10.514  -0.579  1.00  0.00    -0.000 C 
HETATM   30  C1  UNL     1      -2.787   9.958   0.018  1.00  0.00     0.011 C 
HETATM   31  O1  UNL     1       2.262   9.062   0.495  1.00  0.00    -0.273 OA
ENDBRANCH   1  22
TORSDOF 5
ENDMDL
