MODEL 1
REMARK VINA RESULT: -7.975473575      0.000      0.000
REMARK  11 active torsions:
REMARK  status: ('A' for Active; 'I' for Inactive)
REMARK    1  A    between atoms: C2_2  and  C3_3 
REMARK    2  A    between atoms: C3_3  and  C4_4 
REMARK    3  A    between atoms: C4_4  and  C5_5 
REMARK    4  A    between atoms: C5_5  and  C6_6 
REMARK    5  A    between atoms: C6_6  and  C7_7 
REMARK    6  A    between atoms: C8_8  and  C9_9 
REMARK    7  A    between atoms: C9_9  and  C10_10 
REMARK    8  A    between atoms: C10_10  and  C11_11 
REMARK    9  A    between atoms: C11_11  and  C12_12 
REMARK   10  A    between atoms: C12_12  and  C13_13 
REMARK   11  A    between atoms: C13_13  and  N1_15 
ROOT
HETATM    1  C10 UNL     1     -16.242  -9.409 157.799  1.00  0.00     0.004 C 
ENDROOT
BRANCH   1   2
HETATM    2  C9  UNL     1     -16.535  -8.224 156.915  1.00  0.00     0.027 C 
BRANCH   2   3
HETATM    3  C8  UNL     1     -16.553  -8.759 155.500  1.00  0.00    -0.031 C 
HETATM    4  C7  UNL     1     -16.233 -10.005 155.256  1.00  0.00    -0.031 C 
BRANCH   4   5
HETATM    5  C6  UNL     1     -16.197 -10.661 153.957  1.00  0.00     0.027 C 
BRANCH   5   6
HETATM    6  C5  UNL     1     -16.629 -12.080 153.852  1.00  0.00     0.004 C 
BRANCH   6   7
HETATM    7  C4  UNL     1     -17.952 -12.366 154.500  1.00  0.00     0.004 C 
BRANCH   7   8
HETATM    8  C3  UNL     1     -18.323 -13.832 154.303  1.00  0.00     0.026 C 
BRANCH   8   9
HETATM    9  C2  UNL     1     -18.968 -14.001 152.999  1.00  0.00    -0.037 C 
HETATM   10  C1  UNL     1     -19.905 -13.156 152.587  1.00  0.00     0.007 C 
ENDBRANCH   8   9
ENDBRANCH   7   8
ENDBRANCH   6   7
ENDBRANCH   5   6
ENDBRANCH   4   5
ENDBRANCH   2   3
ENDBRANCH   1   2
BRANCH   1  11
HETATM   11  C11 UNL     1     -16.380  -9.109 159.265  1.00  0.00     0.006 C 
BRANCH  11  12
HETATM   12  C12 UNL     1     -17.775  -8.885 159.718  1.00  0.00     0.058 C 
BRANCH  12  13
HETATM   13  C13 UNL     1     -17.954  -7.455 160.066  1.00  0.00     0.024 C 
HETATM   14  C14 UNL     1     -17.009  -6.883 160.820  1.00  0.00     0.040 C 
BRANCH  13  15
HETATM   15  N1  UNL     1     -19.062  -6.675 159.634  1.00  0.00    -0.273 N 
HETATM   16  C15 UNL     1     -19.691  -6.750 158.460  1.00  0.00     0.117 A 
HETATM   17  C16 UNL     1     -20.714  -5.813 158.475  1.00  0.00     0.038 A 
HETATM   18  C17 UNL     1     -20.661  -5.188 159.700  1.00  0.00     0.109 A 
HETATM   19  N2  UNL     1     -19.643  -5.745 160.368  1.00  0.00    -0.306 N 
ATOM     20  H2  UNL     1     -19.356  -5.486 161.312  1.00  0.00     0.186 HD
ENDBRANCH  13  15
ENDBRANCH  12  13
ENDBRANCH  11  12
ENDBRANCH   1  11
TORSDOF 11
ENDMDL
MODEL 2
REMARK VINA RESULT: -7.710147828      1.540      2.268
REMARK  11 active torsions:
REMARK  status: ('A' for Active; 'I' for Inactive)
REMARK    1  A    between atoms: C2_2  and  C3_3 
REMARK    2  A    between atoms: C3_3  and  C4_4 
REMARK    3  A    between atoms: C4_4  and  C5_5 
REMARK    4  A    between atoms: C5_5  and  C6_6 
REMARK    5  A    between atoms: C6_6  and  C7_7 
REMARK    6  A    between atoms: C8_8  and  C9_9 
REMARK    7  A    between atoms: C9_9  and  C10_10 
REMARK    8  A    between atoms: C10_10  and  C11_11 
REMARK    9  A    between atoms: C11_11  and  C12_12 
REMARK   10  A    between atoms: C12_12  and  C13_13 
REMARK   11  A    between atoms: C13_13  and  N1_15 
ROOT
HETATM    1  C10 UNL     1     -16.572  -9.114 157.969  1.00  0.00     0.004 C 
ENDROOT
BRANCH   1   2
HETATM    2  C9  UNL     1     -16.714  -8.016 156.945  1.00  0.00     0.027 C 
BRANCH   2   3
HETATM    3  C8  UNL     1     -16.273  -8.619 155.630  1.00  0.00    -0.031 C 
HETATM    4  C7  UNL     1     -16.667  -9.819 155.283  1.00  0.00    -0.031 C 
BRANCH   4   5
HETATM    5  C6  UNL     1     -16.326 -10.532 154.061  1.00  0.00     0.027 C 
BRANCH   5   6
HETATM    6  C5  UNL     1     -16.609 -11.990 153.972  1.00  0.00     0.004 C 
BRANCH   6   7
HETATM    7  C4  UNL     1     -17.994 -12.370 154.406  1.00  0.00     0.004 C 
BRANCH   7   8
HETATM    8  C3  UNL     1     -18.227 -13.857 154.162  1.00  0.00     0.026 C 
BRANCH   8   9
HETATM    9  C2  UNL     1     -19.016 -14.033 152.941  1.00  0.00    -0.037 C 
HETATM   10  C1  UNL     1     -19.906 -13.121 152.567  1.00  0.00     0.007 C 
ENDBRANCH   8   9
ENDBRANCH   7   8
ENDBRANCH   6   7
ENDBRANCH   5   6
ENDBRANCH   4   5
ENDBRANCH   2   3
ENDBRANCH   1   2
BRANCH   1  11
HETATM   11  C11 UNL     1     -17.279  -8.820 159.262  1.00  0.00     0.006 C 
BRANCH  11  12
HETATM   12  C12 UNL     1     -16.714  -7.679 160.026  1.00  0.00     0.058 C 
BRANCH  12  13
HETATM   13  C13 UNL     1     -17.793  -6.709 160.328  1.00  0.00     0.024 C 
HETATM   14  C14 UNL     1     -18.895  -6.759 159.572  1.00  0.00     0.040 C 
BRANCH  13  15
HETATM   15  N1  UNL     1     -17.714  -5.749 161.375  1.00  0.00    -0.273 N 
HETATM   16  C15 UNL     1     -17.886  -5.965 162.680  1.00  0.00     0.117 A 
HETATM   17  C16 UNL     1     -17.709  -4.752 163.330  1.00  0.00     0.038 A 
HETATM   18  C17 UNL     1     -17.426  -3.820 162.358  1.00  0.00     0.109 A 
HETATM   19  N2  UNL     1     -17.441  -4.472 161.188  1.00  0.00    -0.306 N 
ATOM     20  H2  UNL     1     -17.264  -4.042 160.281  1.00  0.00     0.186 HD
ENDBRANCH  13  15
ENDBRANCH  12  13
ENDBRANCH  11  12
ENDBRANCH   1  11
TORSDOF 11
ENDMDL
MODEL 3
REMARK VINA RESULT: -7.702521988      0.932      1.301
REMARK  11 active torsions:
REMARK  status: ('A' for Active; 'I' for Inactive)
REMARK    1  A    between atoms: C2_2  and  C3_3 
REMARK    2  A    between atoms: C3_3  and  C4_4 
REMARK    3  A    between atoms: C4_4  and  C5_5 
REMARK    4  A    between atoms: C5_5  and  C6_6 
REMARK    5  A    between atoms: C6_6  and  C7_7 
REMARK    6  A    between atoms: C8_8  and  C9_9 
REMARK    7  A    between atoms: C9_9  and  C10_10 
REMARK    8  A    between atoms: C10_10  and  C11_11 
REMARK    9  A    between atoms: C11_11  and  C12_12 
REMARK   10  A    between atoms: C12_12  and  C13_13 
REMARK   11  A    between atoms: C13_13  and  N1_15 
ROOT
HETATM    1  C10 UNL     1     -16.313  -9.311 158.179  1.00  0.00     0.004 C 
ENDROOT
BRANCH   1   2
HETATM    2  C9  UNL     1     -16.757  -8.346 157.109  1.00  0.00     0.027 C 
BRANCH   2   3
HETATM    3  C8  UNL     1     -16.615  -9.089 155.799  1.00  0.00    -0.031 C 
HETATM    4  C7  UNL     1     -16.097 -10.291 155.769  1.00  0.00    -0.031 C 
BRANCH   4   5
HETATM    5  C6  UNL     1     -15.890 -11.125 154.594  1.00  0.00     0.027 C 
BRANCH   5   6
HETATM    6  C5  UNL     1     -17.072 -11.588 153.820  1.00  0.00     0.004 C 
BRANCH   6   7
HETATM    7  C4  UNL     1     -17.798 -12.743 154.445  1.00  0.00     0.004 C 
BRANCH   7   8
HETATM    8  C3  UNL     1     -19.300 -12.594 154.226  1.00  0.00     0.026 C 
BRANCH   8   9
HETATM    9  C2  UNL     1     -19.659 -13.148 152.918  1.00  0.00    -0.037 C 
HETATM   10  C1  UNL     1     -19.178 -14.318 152.518  1.00  0.00     0.007 C 
ENDBRANCH   8   9
ENDBRANCH   7   8
ENDBRANCH   6   7
ENDBRANCH   5   6
ENDBRANCH   4   5
ENDBRANCH   2   3
ENDBRANCH   1   2
BRANCH   1  11
HETATM   11  C11 UNL     1     -16.911  -9.024 159.528  1.00  0.00     0.006 C 
BRANCH  11  12
HETATM   12  C12 UNL     1     -18.161  -8.225 159.488  1.00  0.00     0.058 C 
BRANCH  12  13
HETATM   13  C13 UNL     1     -17.994  -7.012 160.323  1.00  0.00     0.024 C 
HETATM   14  C14 UNL     1     -16.833  -6.866 160.970  1.00  0.00     0.040 C 
BRANCH  13  15
HETATM   15  N1  UNL     1     -18.992  -6.008 160.457  1.00  0.00    -0.273 N 
HETATM   16  C15 UNL     1     -18.943  -4.922 161.230  1.00  0.00     0.117 A 
HETATM   17  C16 UNL     1     -20.126  -4.222 161.040  1.00  0.00     0.038 A 
HETATM   18  C17 UNL     1     -20.868  -4.937 160.128  1.00  0.00     0.109 A 
HETATM   19  N2  UNL     1     -20.139  -6.012 159.804  1.00  0.00    -0.306 N 
ATOM     20  H2  UNL     1     -20.429  -6.734 159.144  1.00  0.00     0.186 HD
ENDBRANCH  13  15
ENDBRANCH  12  13
ENDBRANCH  11  12
ENDBRANCH   1  11
TORSDOF 11
ENDMDL
MODEL 4
REMARK VINA RESULT: -7.625047405      1.221      1.976
REMARK  11 active torsions:
REMARK  status: ('A' for Active; 'I' for Inactive)
REMARK    1  A    between atoms: C2_2  and  C3_3 
REMARK    2  A    between atoms: C3_3  and  C4_4 
REMARK    3  A    between atoms: C4_4  and  C5_5 
REMARK    4  A    between atoms: C5_5  and  C6_6 
REMARK    5  A    between atoms: C6_6  and  C7_7 
REMARK    6  A    between atoms: C8_8  and  C9_9 
REMARK    7  A    between atoms: C9_9  and  C10_10 
REMARK    8  A    between atoms: C10_10  and  C11_11 
REMARK    9  A    between atoms: C11_11  and  C12_12 
REMARK   10  A    between atoms: C12_12  and  C13_13 
REMARK   11  A    between atoms: C13_13  and  N1_15 
ROOT
HETATM    1  C10 UNL     1     -16.659  -9.001 157.894  1.00  0.00     0.004 C 
ENDROOT
BRANCH   1   2
HETATM    2  C9  UNL     1     -16.682  -8.110 156.679  1.00  0.00     0.027 C 
BRANCH   2   3
HETATM    3  C8  UNL     1     -16.291  -8.991 155.513  1.00  0.00    -0.031 C 
HETATM    4  C7  UNL     1     -16.107 -10.276 155.684  1.00  0.00    -0.031 C 
BRANCH   4   5
HETATM    5  C6  UNL     1     -15.725 -11.247 154.668  1.00  0.00     0.027 C 
BRANCH   5   6
HETATM    6  C5  UNL     1     -16.788 -12.023 153.975  1.00  0.00     0.004 C 
BRANCH   6   7
HETATM    7  C4  UNL     1     -18.183 -11.623 154.356  1.00  0.00     0.004 C 
BRANCH   7   8
HETATM    8  C3  UNL     1     -19.095 -12.846 154.348  1.00  0.00     0.026 C 
BRANCH   8   9
HETATM    9  C2  UNL     1     -18.281 -14.062 154.409  1.00  0.00    -0.037 C 
HETATM   10  C1  UNL     1     -18.602 -15.133 153.695  1.00  0.00     0.007 C 
ENDBRANCH   8   9
ENDBRANCH   7   8
ENDBRANCH   6   7
ENDBRANCH   5   6
ENDBRANCH   4   5
ENDBRANCH   2   3
ENDBRANCH   1   2
BRANCH   1  11
HETATM   11  C11 UNL     1     -16.887  -8.262 159.182  1.00  0.00     0.006 C 
BRANCH  11  12
HETATM   12  C12 UNL     1     -18.274  -8.350 159.704  1.00  0.00     0.058 C 
BRANCH  12  13
HETATM   13  C13 UNL     1     -18.921  -7.020 159.605  1.00  0.00     0.024 C 
HETATM   14  C14 UNL     1     -19.659  -6.774 158.517  1.00  0.00     0.040 C 
BRANCH  13  15
HETATM   15  N1  UNL     1     -18.801  -6.014 160.603  1.00  0.00    -0.273 N 
HETATM   16  C15 UNL     1     -18.018  -6.039 161.683  1.00  0.00     0.117 A 
HETATM   17  C16 UNL     1     -18.215  -4.849 162.368  1.00  0.00     0.038 A 
HETATM   18  C17 UNL     1     -19.141  -4.127 161.651  1.00  0.00     0.109 A 
HETATM   19  N2  UNL     1     -19.467  -4.875 160.589  1.00  0.00    -0.306 N 
ATOM     20  H2  UNL     1     -20.136  -4.601 159.869  1.00  0.00     0.186 HD
ENDBRANCH  13  15
ENDBRANCH  12  13
ENDBRANCH  11  12
ENDBRANCH   1  11
TORSDOF 11
ENDMDL
MODEL 5
REMARK VINA RESULT: -7.449357406      1.989      3.348
REMARK  11 active torsions:
REMARK  status: ('A' for Active; 'I' for Inactive)
REMARK    1  A    between atoms: C2_2  and  C3_3 
REMARK    2  A    between atoms: C3_3  and  C4_4 
REMARK    3  A    between atoms: C4_4  and  C5_5 
REMARK    4  A    between atoms: C5_5  and  C6_6 
REMARK    5  A    between atoms: C6_6  and  C7_7 
REMARK    6  A    between atoms: C8_8  and  C9_9 
REMARK    7  A    between atoms: C9_9  and  C10_10 
REMARK    8  A    between atoms: C10_10  and  C11_11 
REMARK    9  A    between atoms: C11_11  and  C12_12 
REMARK   10  A    between atoms: C12_12  and  C13_13 
REMARK   11  A    between atoms: C13_13  and  N1_15 
ROOT
HETATM    1  C10 UNL     1     -18.373  -8.293 159.699  1.00  0.00     0.004 C 
ENDROOT
BRANCH   1   2
HETATM    2  C9  UNL     1     -16.936  -8.703 159.506  1.00  0.00     0.027 C 
BRANCH   2   3
HETATM    3  C8  UNL     1     -16.740  -8.836 158.012  1.00  0.00    -0.031 C 
HETATM    4  C7  UNL     1     -15.939  -9.751 157.526  1.00  0.00    -0.031 C 
BRANCH   4   5
HETATM    5  C6  UNL     1     -15.645  -9.998 156.122  1.00  0.00     0.027 C 
BRANCH   5   6
HETATM    6  C5  UNL     1     -16.704  -9.750 155.107  1.00  0.00     0.004 C 
BRANCH   6   7
HETATM    7  C4  UNL     1     -16.481 -10.462 153.805  1.00  0.00     0.004 C 
BRANCH   7   8
HETATM    8  C3  UNL     1     -16.548 -11.971 154.019  1.00  0.00     0.026 C 
BRANCH   8   9
HETATM    9  C2  UNL     1     -17.947 -12.380 154.167  1.00  0.00    -0.037 C 
HETATM   10  C1  UNL     1     -18.260 -13.623 154.512  1.00  0.00     0.007 C 
ENDBRANCH   8   9
ENDBRANCH   7   8
ENDBRANCH   6   7
ENDBRANCH   5   6
ENDBRANCH   4   5
ENDBRANCH   2   3
ENDBRANCH   1   2
BRANCH   1  11
HETATM   11  C11 UNL     1     -18.593  -6.811 159.579  1.00  0.00     0.006 C 
BRANCH  11  12
HETATM   12  C12 UNL     1     -18.833  -6.119 160.870  1.00  0.00     0.058 C 
BRANCH  12  13
HETATM   13  C13 UNL     1     -19.803  -5.018 160.663  1.00  0.00     0.024 C 
HETATM   14  C14 UNL     1     -20.858  -5.266 159.879  1.00  0.00     0.040 C 
BRANCH  13  15
HETATM   15  N1  UNL     1     -19.669  -3.732 161.257  1.00  0.00    -0.273 N 
HETATM   16  C15 UNL     1     -19.145  -3.447 162.450  1.00  0.00     0.117 A 
HETATM   17  C16 UNL     1     -19.210  -2.072 162.616  1.00  0.00     0.038 A 
HETATM   18  C17 UNL     1     -19.790  -1.562 161.477  1.00  0.00     0.109 A 
HETATM   19  N2  UNL     1     -20.052  -2.608 160.682  1.00  0.00    -0.306 N 
ATOM     20  H2  UNL     1     -20.485  -2.544 159.761  1.00  0.00     0.186 HD
ENDBRANCH  13  15
ENDBRANCH  12  13
ENDBRANCH  11  12
ENDBRANCH   1  11
TORSDOF 11
ENDMDL
