MODEL 1
REMARK VINA RESULT: -5.047498036      0.000      0.000
REMARK  5 active torsions:
REMARK  status: ('A' for Active; 'I' for Inactive)
REMARK    1  A    between atoms: C2_2  and  C3_3 
REMARK    2  A    between atoms: C3_3  and  N1_4 
REMARK    3  A    between atoms: N4_13  and  N5_15 
REMARK    4  A    between atoms: C7_20  and  N7_21 
REMARK    5  A    between atoms: N7_21  and  N8_23 
ROOT
HETATM    1  N1  UNL     1       0.683 -19.858 -50.477  1.00  0.00    -0.289 N 
HETATM    2  C4  UNL     1      -0.164 -20.867 -50.751  1.00  0.00     0.329 A 
HETATM    3  O1  UNL     1       0.019 -21.861 -51.500  1.00  0.00    -0.246 OA
HETATM    4  N2  UNL     1      -1.329 -20.671 -50.069  1.00  0.00    -0.292 N 
ATOM      5  H2  UNL     1      -2.152 -21.274 -50.082  1.00  0.00     0.172 HD
HETATM    6  C5  UNL     1      -1.181 -19.528 -49.376  1.00  0.00     0.156 A 
HETATM    7  N3  UNL     1      -2.034 -18.896 -48.552  1.00  0.00    -0.173 N 
ATOM      8  H3  UNL     1      -2.955 -19.300 -48.386  1.00  0.00     0.186 HD
HETATM    9  C6  UNL     1      -1.705 -17.750 -47.943  1.00  0.00     0.699 A 
HETATM   10  N4  UNL     1      -2.512 -17.132 -47.150  1.00  0.00    -0.138 N 
ATOM     11  H4  UNL     1      -2.243 -16.259 -46.696  1.00  0.00     0.205 HD
HETATM   12  N6  UNL     1      -0.472 -17.221 -48.173  1.00  0.00    -0.171 N 
ATOM     13  H6  UNL     1      -0.211 -16.348 -47.715  1.00  0.00     0.186 HD
HETATM   14  C7  UNL     1       0.418 -17.832 -49.000  1.00  0.00     0.166 A 
HETATM   15  C10 UNL     1       0.092 -19.009 -49.631  1.00  0.00     0.130 A 
ENDROOT
BRANCH  14  16
HETATM   16  N7  UNL     1       1.565 -17.315 -49.202  1.00  0.00    -0.284 N 
ATOM     17  H7  UNL     1       2.371 -17.765 -48.768  1.00  0.00     0.188 HD
BRANCH  16  18
HETATM   18  N8  UNL     1       1.792 -16.190 -49.967  1.00  0.00    -0.315 N 
HETATM   19  C8  UNL     1       1.539 -16.060 -51.203  1.00  0.00     0.075 C 
HETATM   20  C9  UNL     1       1.852 -14.766 -51.870  1.00  0.00     0.056 C 
ATOM     21  H8  UNL     1       2.202 -15.385 -49.492  1.00  0.00     0.185 HD
ENDBRANCH  16  18
ENDBRANCH  14  16
BRANCH   1  22
HETATM   22  C3  UNL     1       2.020 -19.715 -51.016  1.00  0.00     0.160 C 
BRANCH  22  23
HETATM   23  C2  UNL     1       3.039 -20.340 -50.139  1.00  0.00    -0.017 C 
HETATM   24  C1  UNL     1       3.445 -21.572 -50.400  1.00  0.00     0.008 C 
ENDBRANCH  22  23
ENDBRANCH   1  22
BRANCH  10  25
HETATM   25  N5  UNL     1      -3.769 -17.701 -46.937  1.00  0.00    -0.331 N 
ATOM     26  H52 UNL     1      -3.880 -18.716 -46.929  1.00  0.00     0.177 HD
ATOM     27  H51 UNL     1      -4.555 -17.067 -46.792  1.00  0.00     0.177 HD
ENDBRANCH  10  25
TORSDOF 5
ENDMDL
MODEL 2
REMARK VINA RESULT: -4.841196360      1.897      4.484
REMARK  5 active torsions:
REMARK  status: ('A' for Active; 'I' for Inactive)
REMARK    1  A    between atoms: C2_2  and  C3_3 
REMARK    2  A    between atoms: C3_3  and  N1_4 
REMARK    3  A    between atoms: N4_13  and  N5_15 
REMARK    4  A    between atoms: C7_20  and  N7_21 
REMARK    5  A    between atoms: N7_21  and  N8_23 
ROOT
HETATM    1  N1  UNL     1      -0.897 -20.202 -50.238  1.00  0.00    -0.289 N 
HETATM    2  C4  UNL     1      -0.806 -20.475 -51.551  1.00  0.00     0.329 A 
HETATM    3  O1  UNL     1      -1.227 -21.485 -52.172  1.00  0.00    -0.246 OA
HETATM    4  N2  UNL     1      -0.158 -19.451 -52.177  1.00  0.00    -0.292 N 
ATOM      5  H2  UNL     1       0.056 -19.382 -53.173  1.00  0.00     0.172 HD
HETATM    6  C5  UNL     1       0.146 -18.550 -51.226  1.00  0.00     0.156 A 
HETATM    7  N3  UNL     1       0.783 -17.370 -51.319  1.00  0.00    -0.173 N 
ATOM      8  H3  UNL     1       1.111 -17.054 -52.231  1.00  0.00     0.186 HD
HETATM    9  C6  UNL     1       0.998 -16.599 -50.246  1.00  0.00     0.699 A 
HETATM   10  N4  UNL     1       1.607 -15.466 -50.319  1.00  0.00    -0.138 N 
ATOM     11  H4  UNL     1       1.760 -14.893 -49.489  1.00  0.00     0.205 HD
HETATM   12  N6  UNL     1       0.554 -17.033 -49.034  1.00  0.00    -0.171 N 
ATOM     13  H6  UNL     1       0.712 -16.454 -48.209  1.00  0.00     0.186 HD
HETATM   14  C7  UNL     1      -0.094 -18.221 -48.900  1.00  0.00     0.166 A 
HETATM   15  C10 UNL     1      -0.320 -19.022 -49.995  1.00  0.00     0.130 A 
ENDROOT
BRANCH  14  16
HETATM   16  N7  UNL     1      -0.497 -18.606 -47.755  1.00  0.00    -0.284 N 
ATOM     17  H7  UNL     1       0.165 -19.110 -47.164  1.00  0.00     0.188 HD
BRANCH  16  18
HETATM   18  N8  UNL     1      -1.765 -18.390 -47.258  1.00  0.00    -0.315 N 
HETATM   19  C8  UNL     1      -2.622 -17.576 -47.719  1.00  0.00     0.075 C 
HETATM   20  C9  UNL     1      -3.949 -17.473 -47.052  1.00  0.00     0.056 C 
ATOM     21  H8  UNL     1      -2.041 -18.937 -46.442  1.00  0.00     0.185 HD
ENDBRANCH  16  18
ENDBRANCH  14  16
BRANCH   1  22
HETATM   22  C3  UNL     1      -1.519 -21.054 -49.244  1.00  0.00     0.160 C 
BRANCH  22  23
HETATM   23  C2  UNL     1      -2.999 -21.014 -49.330  1.00  0.00    -0.017 C 
HETATM   24  C1  UNL     1      -3.675 -22.150 -49.329  1.00  0.00     0.008 C 
ENDBRANCH  22  23
ENDBRANCH   1  22
BRANCH  10  25
HETATM   25  N5  UNL     1       2.049 -15.051 -51.578  1.00  0.00    -0.331 N 
ATOM     26  H52 UNL     1       1.613 -15.419 -52.423  1.00  0.00     0.177 HD
ATOM     27  H51 UNL     1       2.813 -14.376 -51.609  1.00  0.00     0.177 HD
ENDBRANCH  10  25
TORSDOF 5
ENDMDL
MODEL 3
REMARK VINA RESULT: -4.831093116      0.691      1.117
REMARK  5 active torsions:
REMARK  status: ('A' for Active; 'I' for Inactive)
REMARK    1  A    between atoms: C2_2  and  C3_3 
REMARK    2  A    between atoms: C3_3  and  N1_4 
REMARK    3  A    between atoms: N4_13  and  N5_15 
REMARK    4  A    between atoms: C7_20  and  N7_21 
REMARK    5  A    between atoms: N7_21  and  N8_23 
ROOT
HETATM    1  N1  UNL     1       0.566 -19.895 -50.465  1.00  0.00    -0.289 N 
HETATM    2  C4  UNL     1      -0.304 -20.888 -50.719  1.00  0.00     0.329 A 
HETATM    3  O1  UNL     1      -0.157 -21.886 -51.471  1.00  0.00    -0.246 OA
HETATM    4  N2  UNL     1      -1.451 -20.669 -50.012  1.00  0.00    -0.292 N 
ATOM      5  H2  UNL     1      -2.285 -21.256 -50.007  1.00  0.00     0.172 HD
HETATM    6  C5  UNL     1      -1.266 -19.528 -49.324  1.00  0.00     0.156 A 
HETATM    7  N3  UNL     1      -2.089 -18.880 -48.482  1.00  0.00    -0.173 N 
ATOM      8  H3  UNL     1      -3.014 -19.266 -48.296  1.00  0.00     0.186 HD
HETATM    9  C6  UNL     1      -1.726 -17.740 -47.882  1.00  0.00     0.699 A 
HETATM   10  N4  UNL     1      -2.504 -17.106 -47.073  1.00  0.00    -0.138 N 
ATOM     11  H4  UNL     1      -2.208 -16.238 -46.626  1.00  0.00     0.205 HD
HETATM   12  N6  UNL     1      -0.489 -17.234 -48.140  1.00  0.00    -0.171 N 
ATOM     13  H6  UNL     1      -0.201 -16.366 -47.688  1.00  0.00     0.186 HD
HETATM   14  C7  UNL     1       0.372 -17.862 -48.985  1.00  0.00     0.166 A 
HETATM   15  C10 UNL     1       0.011 -19.034 -49.608  1.00  0.00     0.130 A 
ENDROOT
BRANCH  14  16
HETATM   16  N7  UNL     1       1.524 -17.368 -49.212  1.00  0.00    -0.284 N 
ATOM     17  H7  UNL     1       2.328 -17.817 -48.775  1.00  0.00     0.188 HD
BRANCH  16  18
HETATM   18  N8  UNL     1       1.758 -16.266 -50.009  1.00  0.00    -0.315 N 
HETATM   19  C8  UNL     1       1.071 -15.907 -51.012  1.00  0.00     0.075 C 
HETATM   20  C9  UNL     1       1.472 -14.683 -51.760  1.00  0.00     0.056 C 
ATOM     21  H8  UNL     1       2.561 -15.685 -49.768  1.00  0.00     0.185 HD
ENDBRANCH  16  18
ENDBRANCH  14  16
BRANCH   1  22
HETATM   22  C3  UNL     1       1.894 -19.777 -51.032  1.00  0.00     0.160 C 
BRANCH  22  23
HETATM   23  C2  UNL     1       1.861 -19.218 -52.405  1.00  0.00    -0.017 C 
HETATM   24  C1  UNL     1       2.922 -18.575 -52.865  1.00  0.00     0.008 C 
ENDBRANCH  22  23
ENDBRANCH   1  22
BRANCH  10  25
HETATM   25  N5  UNL     1      -3.766 -17.652 -46.831  1.00  0.00    -0.331 N 
ATOM     26  H52 UNL     1      -4.458 -17.700 -47.580  1.00  0.00     0.177 HD
ATOM     27  H51 UNL     1      -3.959 -17.993 -45.889  1.00  0.00     0.177 HD
ENDBRANCH  10  25
TORSDOF 5
ENDMDL
MODEL 4
REMARK VINA RESULT: -4.740402192      2.420      5.328
REMARK  5 active torsions:
REMARK  status: ('A' for Active; 'I' for Inactive)
REMARK    1  A    between atoms: C2_2  and  C3_3 
REMARK    2  A    between atoms: C3_3  and  N1_4 
REMARK    3  A    between atoms: N4_13  and  N5_15 
REMARK    4  A    between atoms: C7_20  and  N7_21 
REMARK    5  A    between atoms: N7_21  and  N8_23 
ROOT
HETATM    1  N1  UNL     1       0.528 -17.158 -51.769  1.00  0.00    -0.289 N 
HETATM    2  C4  UNL     1       0.693 -17.519 -53.054  1.00  0.00     0.329 A 
HETATM    3  O1  UNL     1       0.174 -17.012 -54.083  1.00  0.00    -0.246 OA
HETATM    4  N2  UNL     1       1.554 -18.575 -53.115  1.00  0.00    -0.292 N 
ATOM      5  H2  UNL     1       1.866 -19.060 -53.958  1.00  0.00     0.172 HD
HETATM    6  C5  UNL     1       1.911 -18.853 -51.849  1.00  0.00     0.156 A 
HETATM    7  N3  UNL     1       2.735 -19.799 -51.368  1.00  0.00    -0.173 N 
ATOM      8  H3  UNL     1       3.193 -20.437 -52.019  1.00  0.00     0.186 HD
HETATM    9  C6  UNL     1       2.971 -19.926 -50.056  1.00  0.00     0.699 A 
HETATM   10  N4  UNL     1       3.759 -20.828 -49.579  1.00  0.00    -0.138 N 
ATOM     11  H4  UNL     1       3.926 -20.908 -48.576  1.00  0.00     0.205 HD
HETATM   12  N6  UNL     1       2.354 -19.069 -49.198  1.00  0.00    -0.171 N 
ATOM     13  H6  UNL     1       2.526 -19.156 -48.196  1.00  0.00     0.186 HD
HETATM   14  C7  UNL     1       1.514 -18.099 -49.648  1.00  0.00     0.166 A 
HETATM   15  C10 UNL     1       1.263 -17.958 -50.992  1.00  0.00     0.130 A 
ENDROOT
BRANCH  14  16
HETATM   16  N7  UNL     1       0.945 -17.310 -48.824  1.00  0.00    -0.284 N 
ATOM     17  H7  UNL     1       1.352 -16.384 -48.696  1.00  0.00     0.188 HD
BRANCH  16  18
HETATM   18  N8  UNL     1      -0.182 -17.623 -48.094  1.00  0.00    -0.315 N 
HETATM   19  C8  UNL     1      -1.360 -17.211 -48.321  1.00  0.00     0.075 C 
HETATM   20  C9  UNL     1      -2.463 -17.653 -47.424  1.00  0.00     0.056 C 
ATOM     21  H8  UNL     1      -0.056 -18.244 -47.294  1.00  0.00     0.185 HD
ENDBRANCH  16  18
ENDBRANCH  14  16
BRANCH   1  22
HETATM   22  C3  UNL     1      -0.315 -16.076 -51.302  1.00  0.00     0.160 C 
BRANCH  22  23
HETATM   23  C2  UNL     1       0.346 -14.758 -51.448  1.00  0.00    -0.017 C 
HETATM   24  C1  UNL     1      -0.200 -13.846 -52.236  1.00  0.00     0.008 C 
ENDBRANCH  22  23
ENDBRANCH   1  22
BRANCH  10  25
HETATM   25  N5  UNL     1       4.376 -21.692 -50.487  1.00  0.00    -0.331 N 
ATOM     26  H52 UNL     1       5.161 -21.369 -51.053  1.00  0.00     0.177 HD
ATOM     27  H51 UNL     1       4.010 -22.642 -50.556  1.00  0.00     0.177 HD
ENDBRANCH  10  25
TORSDOF 5
ENDMDL
MODEL 5
REMARK VINA RESULT: -4.738728792      2.156      4.504
REMARK  5 active torsions:
REMARK  status: ('A' for Active; 'I' for Inactive)
REMARK    1  A    between atoms: C2_2  and  C3_3 
REMARK    2  A    between atoms: C3_3  and  N1_4 
REMARK    3  A    between atoms: N4_13  and  N5_15 
REMARK    4  A    between atoms: C7_20  and  N7_21 
REMARK    5  A    between atoms: N7_21  and  N8_23 
ROOT
HETATM    1  N1  UNL     1       0.393 -18.464 -49.437  1.00  0.00    -0.289 N 
HETATM    2  C4  UNL     1      -0.017 -18.011 -48.239  1.00  0.00     0.329 A 
HETATM    3  O1  UNL     1       0.457 -17.068 -47.555  1.00  0.00    -0.246 OA
HETATM    4  N2  UNL     1      -1.085 -18.750 -47.823  1.00  0.00    -0.292 N 
ATOM      5  H2  UNL     1      -1.605 -18.635 -46.952  1.00  0.00     0.172 HD
HETATM    6  C5  UNL     1      -1.321 -19.660 -48.785  1.00  0.00     0.156 A 
HETATM    7  N3  UNL     1      -2.258 -20.621 -48.860  1.00  0.00    -0.173 N 
ATOM      8  H3  UNL     1      -2.925 -20.725 -48.096  1.00  0.00     0.186 HD
HETATM    9  C6  UNL     1      -2.338 -21.446 -49.911  1.00  0.00     0.699 A 
HETATM   10  N4  UNL     1      -3.230 -22.372 -49.998  1.00  0.00    -0.138 N 
ATOM     11  H4  UNL     1      -3.274 -22.990 -50.808  1.00  0.00     0.205 HD
HETATM   12  N6  UNL     1      -1.441 -21.297 -50.924  1.00  0.00    -0.171 N 
ATOM     13  H6  UNL     1      -1.492 -21.919 -51.731  1.00  0.00     0.186 HD
HETATM   14  C7  UNL     1      -0.479 -20.336 -50.884  1.00  0.00     0.166 A 
HETATM   15  C10 UNL     1      -0.387 -19.483 -49.810  1.00  0.00     0.130 A 
ENDROOT
BRANCH  14  16
HETATM   16  N7  UNL     1       0.351 -20.219 -51.844  1.00  0.00    -0.284 N 
ATOM     17  H7  UNL     1       0.251 -19.413 -52.461  1.00  0.00     0.188 HD
BRANCH  16  18
HETATM   18  N8  UNL     1       1.374 -21.106 -52.105  1.00  0.00    -0.315 N 
HETATM   19  C8  UNL     1       2.231 -21.528 -51.271  1.00  0.00     0.075 C 
HETATM   20  C9  UNL     1       3.271 -22.489 -51.730  1.00  0.00     0.056 C 
ATOM     21  H8  UNL     1       1.449 -21.455 -53.061  1.00  0.00     0.185 HD
ENDBRANCH  16  18
ENDBRANCH  14  16
BRANCH   1  22
HETATM   22  C3  UNL     1       1.504 -17.933 -50.200  1.00  0.00     0.160 C 
BRANCH  22  23
HETATM   23  C2  UNL     1       1.103 -16.766 -51.021  1.00  0.00    -0.017 C 
HETATM   24  C1  UNL     1       1.492 -15.556 -50.653  1.00  0.00     0.008 C 
ENDBRANCH  22  23
ENDBRANCH   1  22
BRANCH  10  25
HETATM   25  N5  UNL     1      -4.134 -22.497 -48.941  1.00  0.00    -0.331 N 
ATOM     26  H52 UNL     1      -5.051 -22.053 -48.992  1.00  0.00     0.177 HD
ATOM     27  H51 UNL     1      -3.839 -23.044 -48.131  1.00  0.00     0.177 HD
ENDBRANCH  10  25
TORSDOF 5
ENDMDL
