MODEL 1
REMARK VINA RESULT: -4.758112897      0.000      0.000
REMARK  5 active torsions:
REMARK  status: ('A' for Active; 'I' for Inactive)
REMARK    1  A    between atoms: C2_2  and  C3_3 
REMARK    2  A    between atoms: C3_3  and  C4_4 
REMARK    3  A    between atoms: N1_5  and  C5_7 
REMARK    4  A    between atoms: C6_10  and  N3_11 
REMARK    5  A    between atoms: C10_23  and  N7_24 
ROOT
HETATM    1  C5  UNL     1       0.619 -17.933 -51.797  1.00  0.00     0.720 A 
HETATM    2  N2  UNL     1       0.220 -18.772 -52.812  1.00  0.00    -0.021 N 
ATOM      3  H2  UNL     1       0.565 -18.608 -53.758  1.00  0.00     0.203 HD
HETATM    4  C6  UNL     1      -0.609 -19.796 -52.587  1.00  0.00     0.692 A 
HETATM    5  N4  UNL     1      -1.086 -20.046 -51.361  1.00  0.00    -0.170 N 
ATOM      6  H4  UNL     1      -1.718 -20.831 -51.206  1.00  0.00     0.186 HD
HETATM    7  C7  UNL     1      -0.729 -19.261 -50.342  1.00  0.00     0.205 A 
HETATM    8  C8  UNL     1      -1.208 -19.501 -49.070  1.00  0.00     0.164 A 
HETATM    9  N5  UNL     1      -2.001 -20.454 -48.773  1.00  0.00    -0.377 N 
ATOM     10  H5  UNL     1      -2.270 -20.505 -47.790  1.00  0.00     0.160 HD
HETATM   11  C9  UNL     1      -2.564 -21.454 -49.608  1.00  0.00     0.148 C 
HETATM   12  N6  UNL     1      -0.853 -18.708 -48.018  1.00  0.00    -0.172 N 
ATOM     13  H6  UNL     1      -1.205 -18.881 -47.077  1.00  0.00     0.186 HD
HETATM   14  C10 UNL     1      -0.023 -17.696 -48.283  1.00  0.00     0.693 A 
HETATM   15  N8  UNL     1       0.449 -17.464 -49.547  1.00  0.00    -0.109 N 
ATOM     16  H8  UNL     1       1.080 -16.676 -49.697  1.00  0.00     0.207 HD
HETATM   17  N9  UNL     1       0.120 -18.216 -50.579  1.00  0.00    -0.050 N 
ENDROOT
BRANCH   1  18
HETATM   18  N1  UNL     1       1.368 -17.030 -52.072  1.00  0.00    -0.203 N 
HETATM   19  C4  UNL     1       2.275 -16.340 -52.797  1.00  0.00     0.079 C 
ATOM     20  H1  UNL     1       1.239 -16.412 -51.272  1.00  0.00     0.183 HD
BRANCH  19  21
HETATM   21  C3  UNL     1       2.704 -14.987 -52.245  1.00  0.00     0.045 C 
BRANCH  21  22
HETATM   22  C2  UNL     1       1.993 -13.861 -52.980  1.00  0.00     0.001 C 
HETATM   23  C1  UNL     1       3.023 -13.070 -53.753  1.00  0.00     0.005 C 
ENDBRANCH  21  22
ENDBRANCH  19  21
ENDBRANCH   1  18
BRANCH   4  24
HETATM   24  N3  UNL     1      -0.990 -20.595 -53.542  1.00  0.00    -0.234 N 
ATOM     25  H32 UNL     1      -0.817 -20.287 -54.499  1.00  0.00     0.174 HD
ATOM     26  H31 UNL     1      -1.442 -21.489 -53.349  1.00  0.00     0.174 HD
ENDBRANCH   4  24
BRANCH  14  27
HETATM   27  N7  UNL     1       0.366 -16.896 -47.350  1.00  0.00    -0.233 N 
ATOM     28  H72 UNL     1      -0.112 -16.959 -46.451  1.00  0.00     0.174 HD
ATOM     29  H71 UNL     1       1.121 -16.230 -47.511  1.00  0.00     0.174 HD
ENDBRANCH  14  27
TORSDOF 5
ENDMDL
MODEL 2
REMARK VINA RESULT: -4.626318597      1.354      6.723
REMARK  5 active torsions:
REMARK  status: ('A' for Active; 'I' for Inactive)
REMARK    1  A    between atoms: C2_2  and  C3_3 
REMARK    2  A    between atoms: C3_3  and  C4_4 
REMARK    3  A    between atoms: N1_5  and  C5_7 
REMARK    4  A    between atoms: C6_10  and  N3_11 
REMARK    5  A    between atoms: C10_23  and  N7_24 
ROOT
HETATM    1  C5  UNL     1      -1.118 -19.548 -49.549  1.00  0.00     0.720 A 
HETATM    2  N2  UNL     1      -0.695 -18.891 -48.416  1.00  0.00    -0.021 N 
ATOM      3  H2  UNL     1      -0.934 -19.272 -47.500  1.00  0.00     0.203 HD
HETATM    4  C6  UNL     1       0.023 -17.765 -48.487  1.00  0.00     0.692 A 
HETATM    5  N4  UNL     1       0.357 -17.230 -49.669  1.00  0.00    -0.170 N 
ATOM      6  H4  UNL     1       0.903 -16.370 -49.707  1.00  0.00     0.186 HD
HETATM    7  C7  UNL     1      -0.030 -17.829 -50.797  1.00  0.00     0.205 A 
HETATM    8  C8  UNL     1       0.304 -17.295 -52.026  1.00  0.00     0.164 A 
HETATM    9  N5  UNL     1       0.983 -16.228 -52.180  1.00  0.00    -0.377 N 
ATOM     10  H5  UNL     1       1.151 -15.955 -53.148  1.00  0.00     0.160 HD
HETATM   11  C9  UNL     1       1.539 -15.361 -51.202  1.00  0.00     0.148 C 
HETATM   12  N6  UNL     1      -0.084 -17.894 -53.187  1.00  0.00    -0.172 N 
ATOM     13  H6  UNL     1       0.160 -17.504 -54.098  1.00  0.00     0.186 HD
HETATM   14  C10 UNL     1      -0.798 -19.017 -53.074  1.00  0.00     0.693 A 
HETATM   15  N8  UNL     1      -1.126 -19.542 -51.853  1.00  0.00    -0.109 N 
ATOM     16  H8  UNL     1      -1.674 -20.402 -51.821  1.00  0.00     0.207 HD
HETATM   17  N9  UNL     1      -0.763 -18.980 -50.716  1.00  0.00    -0.050 N 
ENDROOT
BRANCH   1  18
HETATM   18  N1  UNL     1      -1.761 -20.557 -49.408  1.00  0.00    -0.203 N 
HETATM   19  C4  UNL     1      -2.859 -21.319 -49.207  1.00  0.00     0.079 C 
ATOM     20  H1  UNL     1      -1.036 -21.269 -49.492  1.00  0.00     0.183 HD
BRANCH  19  21
HETATM   21  C3  UNL     1      -2.656 -22.828 -49.227  1.00  0.00     0.045 C 
BRANCH  21  22
HETATM   22  C2  UNL     1      -3.996 -23.545 -49.269  1.00  0.00     0.001 C 
HETATM   23  C1  UNL     1      -4.903 -22.807 -50.228  1.00  0.00     0.005 C 
ENDBRANCH  21  22
ENDBRANCH  19  21
ENDBRANCH   1  18
BRANCH   4  24
HETATM   24  N3  UNL     1       0.428 -17.138 -47.421  1.00  0.00    -0.234 N 
ATOM     25  H32 UNL     1       0.284 -17.607 -46.527  1.00  0.00     0.174 HD
ATOM     26  H31 UNL     1       0.870 -16.221 -47.470  1.00  0.00     0.174 HD
ENDBRANCH   4  24
BRANCH  14  27
HETATM   27  N7  UNL     1      -1.207 -19.651 -54.119  1.00  0.00    -0.233 N 
ATOM     28  H72 UNL     1      -0.772 -20.552 -54.320  1.00  0.00     0.174 HD
ATOM     29  H71 UNL     1      -1.936 -19.262 -54.717  1.00  0.00     0.174 HD
ENDBRANCH  14  27
TORSDOF 5
ENDMDL
MODEL 3
REMARK VINA RESULT: -4.551507576      1.380      5.805
REMARK  5 active torsions:
REMARK  status: ('A' for Active; 'I' for Inactive)
REMARK    1  A    between atoms: C2_2  and  C3_3 
REMARK    2  A    between atoms: C3_3  and  C4_4 
REMARK    3  A    between atoms: N1_5  and  C5_7 
REMARK    4  A    between atoms: C6_10  and  N3_11 
REMARK    5  A    between atoms: C10_23  and  N7_24 
ROOT
HETATM    1  C5  UNL     1      -0.820 -19.662 -51.263  1.00  0.00     0.720 A 
HETATM    2  N2  UNL     1      -0.701 -19.812 -52.626  1.00  0.00    -0.021 N 
ATOM      3  H2  UNL     1      -1.190 -20.580 -53.087  1.00  0.00     0.203 HD
HETATM    4  C6  UNL     1       0.040 -18.975 -53.360  1.00  0.00     0.692 A 
HETATM    5  N4  UNL     1       0.698 -17.955 -52.794  1.00  0.00    -0.170 N 
ATOM      6  H4  UNL     1       1.259 -17.325 -53.367  1.00  0.00     0.186 HD
HETATM    7  C7  UNL     1       0.615 -17.766 -51.475  1.00  0.00     0.205 A 
HETATM    8  C8  UNL     1       1.284 -16.721 -50.872  1.00  0.00     0.164 A 
HETATM    9  N5  UNL     1       2.010 -15.881 -51.498  1.00  0.00    -0.377 N 
ATOM     10  H5  UNL     1       2.442 -15.162 -50.918  1.00  0.00     0.160 HD
HETATM   11  C9  UNL     1       2.304 -15.798 -52.885  1.00  0.00     0.148 C 
HETATM   12  N6  UNL     1       1.210 -16.515 -49.526  1.00  0.00    -0.172 N 
ATOM     13  H6  UNL     1       1.703 -15.744 -49.075  1.00  0.00     0.186 HD
HETATM   14  C10 UNL     1       0.459 -17.372 -48.828  1.00  0.00     0.693 A 
HETATM   15  N8  UNL     1      -0.202 -18.407 -49.433  1.00  0.00    -0.109 N 
ATOM     16  H8  UNL     1      -0.762 -19.034 -48.854  1.00  0.00     0.207 HD
HETATM   17  N9  UNL     1      -0.145 -18.626 -50.732  1.00  0.00    -0.050 N 
ENDROOT
BRANCH   1  18
HETATM   18  N1  UNL     1      -1.505 -20.454 -50.666  1.00  0.00    -0.203 N 
HETATM   19  C4  UNL     1      -1.980 -21.664 -50.301  1.00  0.00     0.079 C 
ATOM     20  H1  UNL     1      -2.066 -19.834 -50.083  1.00  0.00     0.183 HD
BRANCH  19  21
HETATM   21  C3  UNL     1      -3.047 -21.679 -49.213  1.00  0.00     0.045 C 
BRANCH  21  22
HETATM   22  C2  UNL     1      -3.785 -23.008 -49.209  1.00  0.00     0.001 C 
HETATM   23  C1  UNL     1      -2.764 -24.121 -49.142  1.00  0.00     0.005 C 
ENDBRANCH  21  22
ENDBRANCH  19  21
ENDBRANCH   1  18
BRANCH   4  24
HETATM   24  N3  UNL     1       0.157 -19.109 -54.649  1.00  0.00    -0.234 N 
ATOM     25  H32 UNL     1       0.039 -20.048 -55.028  1.00  0.00     0.174 HD
ATOM     26  H31 UNL     1       0.357 -18.316 -55.258  1.00  0.00     0.174 HD
ENDBRANCH   4  24
BRANCH  14  27
HETATM   27  N7  UNL     1       0.332 -17.253 -47.551  1.00  0.00    -0.233 N 
ATOM     28  H72 UNL     1       1.181 -17.093 -47.008  1.00  0.00     0.174 HD
ATOM     29  H71 UNL     1      -0.584 -17.318 -47.107  1.00  0.00     0.174 HD
ENDBRANCH  14  27
TORSDOF 5
ENDMDL
MODEL 4
REMARK VINA RESULT: -4.529340460      1.666      5.558
REMARK  5 active torsions:
REMARK  status: ('A' for Active; 'I' for Inactive)
REMARK    1  A    between atoms: C2_2  and  C3_3 
REMARK    2  A    between atoms: C3_3  and  C4_4 
REMARK    3  A    between atoms: N1_5  and  C5_7 
REMARK    4  A    between atoms: C6_10  and  N3_11 
REMARK    5  A    between atoms: C10_23  and  N7_24 
ROOT
HETATM    1  C5  UNL     1      -0.066 -20.431 -51.492  1.00  0.00     0.720 A 
HETATM    2  N2  UNL     1       0.599 -20.230 -52.680  1.00  0.00    -0.021 N 
ATOM      3  H2  UNL     1       0.596 -20.969 -53.384  1.00  0.00     0.203 HD
HETATM    4  C6  UNL     1       1.250 -19.090 -52.933  1.00  0.00     0.692 A 
HETATM    5  N4  UNL     1       1.281 -18.096 -52.035  1.00  0.00    -0.170 N 
ATOM      6  H4  UNL     1       1.782 -17.233 -52.243  1.00  0.00     0.186 HD
HETATM    7  C7  UNL     1       0.651 -18.241 -50.868  1.00  0.00     0.205 A 
HETATM    8  C8  UNL     1       0.670 -17.230 -49.929  1.00  0.00     0.164 A 
HETATM    9  N5  UNL     1       1.266 -16.115 -50.092  1.00  0.00    -0.377 N 
ATOM     10  H5  UNL     1       1.193 -15.464 -49.310  1.00  0.00     0.160 HD
HETATM   11  C9  UNL     1       2.018 -15.646 -51.202  1.00  0.00     0.148 C 
HETATM   12  N6  UNL     1       0.032 -17.363 -48.731  1.00  0.00    -0.172 N 
ATOM     13  H6  UNL     1       0.043 -16.619 -48.034  1.00  0.00     0.186 HD
HETATM   14  C10 UNL     1      -0.606 -18.516 -48.517  1.00  0.00     0.693 A 
HETATM   15  N8  UNL     1      -0.621 -19.516 -49.451  1.00  0.00    -0.109 N 
ATOM     16  H8  UNL     1      -1.123 -20.378 -49.238  1.00  0.00     0.207 HD
HETATM   17  N9  UNL     1      -0.012 -19.410 -50.617  1.00  0.00    -0.050 N 
ENDROOT
BRANCH   1  18
HETATM   18  N1  UNL     1      -0.630 -21.484 -51.332  1.00  0.00    -0.203 N 
HETATM   19  C4  UNL     1      -0.768 -22.825 -51.252  1.00  0.00     0.079 C 
ATOM     20  H1  UNL     1      -1.583 -21.173 -51.144  1.00  0.00     0.183 HD
BRANCH  19  21
HETATM   21  C3  UNL     1      -2.152 -23.349 -50.891  1.00  0.00     0.045 C 
BRANCH  21  22
HETATM   22  C2  UNL     1      -2.443 -23.110 -49.417  1.00  0.00     0.001 C 
HETATM   23  C1  UNL     1      -3.513 -22.046 -49.309  1.00  0.00     0.005 C 
ENDBRANCH  21  22
ENDBRANCH  19  21
ENDBRANCH   1  18
BRANCH   4  24
HETATM   24  N3  UNL     1       1.880 -18.892 -54.054  1.00  0.00    -0.234 N 
ATOM     25  H32 UNL     1       1.452 -18.247 -54.718  1.00  0.00     0.174 HD
ATOM     26  H31 UNL     1       2.764 -19.356 -54.265  1.00  0.00     0.174 HD
ENDBRANCH   4  24
BRANCH  14  27
HETATM   27  N7  UNL     1      -1.237 -18.729 -47.412  1.00  0.00    -0.233 N 
ATOM     28  H72 UNL     1      -0.754 -19.270 -46.695  1.00  0.00     0.174 HD
ATOM     29  H71 UNL     1      -2.180 -18.369 -47.269  1.00  0.00     0.174 HD
ENDBRANCH  14  27
TORSDOF 5
ENDMDL
MODEL 5
REMARK VINA RESULT: -4.520597940      1.511      5.460
REMARK  5 active torsions:
REMARK  status: ('A' for Active; 'I' for Inactive)
REMARK    1  A    between atoms: C2_2  and  C3_3 
REMARK    2  A    between atoms: C3_3  and  C4_4 
REMARK    3  A    between atoms: N1_5  and  C5_7 
REMARK    4  A    between atoms: C6_10  and  N3_11 
REMARK    5  A    between atoms: C10_23  and  N7_24 
ROOT
HETATM    1  C5  UNL     1       0.278 -19.809 -51.858  1.00  0.00     0.720 A 
HETATM    2  N2  UNL     1       0.689 -19.613 -53.157  1.00  0.00    -0.021 N 
ATOM      3  H2  UNL     1       0.529 -20.349 -53.846  1.00  0.00     0.203 HD
HETATM    4  C6  UNL     1       1.292 -18.482 -53.537  1.00  0.00     0.692 A 
HETATM    5  N4  UNL     1       1.522 -17.493 -52.664  1.00  0.00    -0.170 N 
ATOM      6  H4  UNL     1       1.984 -16.637 -52.969  1.00  0.00     0.186 HD
HETATM    7  C7  UNL     1       1.143 -17.633 -51.392  1.00  0.00     0.205 A 
HETATM    8  C8  UNL     1       1.370 -16.626 -50.476  1.00  0.00     0.164 A 
HETATM    9  N5  UNL     1       1.937 -15.520 -50.757  1.00  0.00    -0.377 N 
ATOM     10  H5  UNL     1       2.036 -14.872 -49.976  1.00  0.00     0.160 HD
HETATM   11  C9  UNL     1       2.453 -15.058 -51.997  1.00  0.00     0.148 C 
HETATM   12  N6  UNL     1       0.989 -16.755 -49.173  1.00  0.00    -0.172 N 
ATOM     13  H6  UNL     1       1.154 -16.014 -48.492  1.00  0.00     0.186 HD
HETATM   14  C10 UNL     1       0.389 -17.899 -48.834  1.00  0.00     0.693 A 
HETATM   15  N8  UNL     1       0.167 -18.894 -49.747  1.00  0.00    -0.109 N 
ATOM     16  H8  UNL     1      -0.294 -19.749 -49.436  1.00  0.00     0.207 HD
HETATM   17  N9  UNL     1       0.526 -18.793 -51.012  1.00  0.00    -0.050 N 
ENDROOT
BRANCH   1  18
HETATM   18  N1  UNL     1      -0.259 -20.854 -51.588  1.00  0.00    -0.203 N 
HETATM   19  C4  UNL     1      -0.423 -22.193 -51.532  1.00  0.00     0.079 C 
ATOM     20  H1  UNL     1      -1.100 -20.528 -51.112  1.00  0.00     0.183 HD
BRANCH  19  21
HETATM   21  C3  UNL     1      -1.661 -22.700 -50.802  1.00  0.00     0.045 C 
BRANCH  21  22
HETATM   22  C2  UNL     1      -2.265 -21.595 -49.949  1.00  0.00     0.001 C 
HETATM   23  C1  UNL     1      -3.506 -22.137 -49.276  1.00  0.00     0.005 C 
ENDBRANCH  21  22
ENDBRANCH  19  21
ENDBRANCH   1  18
BRANCH   4  24
HETATM   24  N3  UNL     1       1.683 -18.289 -54.763  1.00  0.00    -0.234 N 
ATOM     25  H32 UNL     1       2.187 -19.053 -55.214  1.00  0.00     0.174 HD
ATOM     26  H31 UNL     1       1.495 -17.417 -55.258  1.00  0.00     0.174 HD
ENDBRANCH   4  24
BRANCH  14  27
HETATM   27  N7  UNL     1      -0.005 -18.107 -47.624  1.00  0.00    -0.233 N 
ATOM     28  H72 UNL     1       0.432 -17.552 -46.887  1.00  0.00     0.174 HD
ATOM     29  H71 UNL     1      -0.724 -18.800 -47.418  1.00  0.00     0.174 HD
ENDBRANCH  14  27
TORSDOF 5
ENDMDL
