MODEL 1
REMARK VINA RESULT: -7.207878181      0.000      0.000
REMARK  9 active torsions:
REMARK  status: ('A' for Active; 'I' for Inactive)
REMARK    1  A    between atoms: N1_1  and  C1_4 
REMARK    2  A    between atoms: C2_7  and  N3_8 
REMARK    3  A    between atoms: N3_8  and  C3_10 
REMARK    4  A    between atoms: C3_10  and  C4_11 
REMARK    5  A    between atoms: C4_11  and  C5_12 
REMARK    6  A    between atoms: C5_12  and  C6_13 
REMARK    7  A    between atoms: C6_13  and  N4_14 
REMARK    8  A    between atoms: C7_16  and  C8_17 
REMARK    9  A    between atoms: C8_17  and  N5_18 
ROOT
HETATM    1  C1  UNL     1       3.188  56.677  19.406  1.00  0.00     0.678 A 
HETATM    2  N2  UNL     1       4.149  57.597  19.646  1.00  0.00    -0.176 N 
ATOM      3  H2  UNL     1       4.615  58.018  18.841  1.00  0.00     0.186 HD
HETATM    4  C2  UNL     1       4.534  57.995  20.867  1.00  0.00     0.134 A 
HETATM    5  C14 UNL     1       3.906  57.426  22.006  1.00  0.00     0.051 A 
HETATM    6  C15 UNL     1       4.148  57.692  23.297  1.00  0.00    -0.021 A 
HETATM    7  C16 UNL     1       3.399  57.005  24.228  1.00  0.00     0.060 A 
HETATM    8  S1  UNL     1       2.391  56.020  23.272  1.00  0.00    -0.067 SA
HETATM    9  C17 UNL     1       2.939  56.500  21.721  1.00  0.00     0.105 A 
HETATM   10  N6  UNL     1       2.581  56.127  20.472  1.00  0.00    -0.185 N 
ATOM     11  H6  UNL     1       1.851  55.427  20.338  1.00  0.00     0.185 HD
HETATM   12  C18 UNL     1       3.545  57.186  25.681  1.00  0.00     0.167 C 
HETATM   13  O1  UNL     1       2.565  56.963  26.438  1.00  0.00    -0.292 OA
HETATM   14  C19 UNL     1       4.821  57.627  26.295  1.00  0.00     0.085 C 
HETATM   15  C20 UNL     1       5.780  57.870  25.170  1.00  0.00     0.012 C 
HETATM   16  C21 UNL     1       5.109  58.625  24.009  1.00  0.00     0.041 C 
ENDROOT
BRANCH   4  17
HETATM   17  N3  UNL     1       5.445  58.861  20.979  1.00  0.00    -0.355 N 
ATOM     18  H3  UNL     1       5.953  58.863  21.863  1.00  0.00     0.166 HD
BRANCH  17  19
HETATM   19  C3  UNL     1       5.845  59.821  20.036  1.00  0.00     0.062 C 
BRANCH  19  20
HETATM   20  C4  UNL     1       7.327  60.165  20.105  1.00  0.00     0.046 C 
BRANCH  20  21
HETATM   21  C5  UNL     1       7.609  61.499  19.460  1.00  0.00     0.025 C 
BRANCH  21  22
HETATM   22  C6  UNL     1       7.550  62.630  20.458  1.00  0.00     0.119 C 
BRANCH  22  23
HETATM   23  N4  UNL     1       6.252  63.228  20.525  1.00  0.00    -0.400 N 
HETATM   24  C7  UNL     1       5.450  63.147  21.493  1.00  0.00     0.085 C 
ATOM     25  H4  UNL     1       5.949  63.770  19.715  1.00  0.00     0.158 HD
BRANCH  24  26
HETATM   26  C8  UNL     1       5.737  62.401  22.738  1.00  0.00     0.316 C 
BRANCH  26  27
HETATM   27  N5  UNL     1       4.614  62.391  23.622  1.00  0.00     0.093 N 
HETATM   28  C9  UNL     1       3.681  63.459  23.447  1.00  0.00     0.273 C 
HETATM   29  C10 UNL     1       2.970  63.833  24.723  1.00  0.00     0.030 C 
HETATM   30  C11 UNL     1       2.575  62.604  25.514  1.00  0.00     0.003 C 
HETATM   31  C12 UNL     1       3.766  61.727  25.785  1.00  0.00     0.030 C 
HETATM   32  C13 UNL     1       4.975  62.139  24.984  1.00  0.00     0.273 C 
ENDBRANCH  26  27
ENDBRANCH  24  26
ENDBRANCH  22  23
ENDBRANCH  21  22
ENDBRANCH  20  21
ENDBRANCH  19  20
ENDBRANCH  17  19
ENDBRANCH   4  17
BRANCH   1  33
HETATM   33  N1  UNL     1       2.903  56.372  18.194  1.00  0.00    -0.234 N 
ATOM     34  H12 UNL     1       3.483  56.633  17.397  1.00  0.00     0.174 HD
ATOM     35  H11 UNL     1       2.053  55.842  18.001  1.00  0.00     0.174 HD
ENDBRANCH   1  33
TORSDOF 9
ENDMDL
MODEL 2
REMARK VINA RESULT: -7.117593130      1.984      4.461
REMARK  9 active torsions:
REMARK  status: ('A' for Active; 'I' for Inactive)
REMARK    1  A    between atoms: N1_1  and  C1_4 
REMARK    2  A    between atoms: C2_7  and  N3_8 
REMARK    3  A    between atoms: N3_8  and  C3_10 
REMARK    4  A    between atoms: C3_10  and  C4_11 
REMARK    5  A    between atoms: C4_11  and  C5_12 
REMARK    6  A    between atoms: C5_12  and  C6_13 
REMARK    7  A    between atoms: C6_13  and  N4_14 
REMARK    8  A    between atoms: C7_16  and  C8_17 
REMARK    9  A    between atoms: C8_17  and  N5_18 
ROOT
HETATM    1  C1  UNL     1       3.878  56.882  19.231  1.00  0.00     0.678 A 
HETATM    2  N2  UNL     1       4.446  57.897  19.922  1.00  0.00    -0.176 N 
ATOM      3  H2  UNL     1       5.026  58.557  19.404  1.00  0.00     0.186 HD
HETATM    4  C2  UNL     1       4.299  58.095  21.240  1.00  0.00     0.134 A 
HETATM    5  C14 UNL     1       3.499  57.191  21.987  1.00  0.00     0.051 A 
HETATM    6  C15 UNL     1       3.233  57.221  23.300  1.00  0.00    -0.021 A 
HETATM    7  C16 UNL     1       2.420  56.225  23.797  1.00  0.00     0.060 A 
HETATM    8  S1  UNL     1       2.059  55.290  22.420  1.00  0.00    -0.067 SA
HETATM    9  C17 UNL     1       2.943  56.180  21.252  1.00  0.00     0.105 A 
HETATM   10  N6  UNL     1       3.117  56.016  19.921  1.00  0.00    -0.185 N 
ATOM     11  H6  UNL     1       2.670  55.235  19.441  1.00  0.00     0.185 HD
HETATM   12  C18 UNL     1       2.035  56.121  25.213  1.00  0.00     0.167 C 
HETATM   13  O1  UNL     1       0.952  55.563  25.525  1.00  0.00    -0.292 OA
HETATM   14  C19 UNL     1       2.888  56.657  26.302  1.00  0.00     0.085 C 
HETATM   15  C20 UNL     1       4.067  57.308  25.646  1.00  0.00     0.012 C 
HETATM   16  C21 UNL     1       3.644  58.149  24.429  1.00  0.00     0.041 C 
ENDROOT
BRANCH   4  17
HETATM   17  N3  UNL     1       4.876  59.074  21.788  1.00  0.00    -0.355 N 
ATOM     18  H3  UNL     1       5.221  58.918  22.734  1.00  0.00     0.166 HD
BRANCH  17  19
HETATM   19  C3  UNL     1       5.101  60.353  21.254  1.00  0.00     0.062 C 
BRANCH  19  20
HETATM   20  C4  UNL     1       3.893  61.275  21.346  1.00  0.00     0.046 C 
BRANCH  20  21
HETATM   21  C5  UNL     1       4.300  62.723  21.237  1.00  0.00     0.025 C 
BRANCH  21  22
HETATM   22  C6  UNL     1       5.772  62.916  21.512  1.00  0.00     0.119 C 
BRANCH  22  23
HETATM   23  N4  UNL     1       6.390  63.799  20.572  1.00  0.00    -0.400 N 
HETATM   24  C7  UNL     1       7.312  63.495  19.769  1.00  0.00     0.085 C 
ATOM     25  H4  UNL     1       6.053  64.761  20.548  1.00  0.00     0.158 HD
BRANCH  24  26
HETATM   26  C8  UNL     1       7.911  62.145  19.677  1.00  0.00     0.316 C 
BRANCH  26  27
HETATM   27  N5  UNL     1       7.611  61.514  18.431  1.00  0.00     0.093 N 
HETATM   28  C9  UNL     1       7.630  60.084  18.441  1.00  0.00     0.273 C 
HETATM   29  C10 UNL     1       8.009  59.492  17.108  1.00  0.00     0.030 C 
HETATM   30  C11 UNL     1       7.343  60.232  15.968  1.00  0.00     0.003 C 
HETATM   31  C12 UNL     1       7.650  61.704  16.022  1.00  0.00     0.030 C 
HETATM   32  C13 UNL     1       8.297  62.105  17.323  1.00  0.00     0.273 C 
ENDBRANCH  26  27
ENDBRANCH  24  26
ENDBRANCH  22  23
ENDBRANCH  21  22
ENDBRANCH  20  21
ENDBRANCH  19  20
ENDBRANCH  17  19
ENDBRANCH   4  17
BRANCH   1  33
HETATM   33  N1  UNL     1       4.088  56.790  17.970  1.00  0.00    -0.234 N 
ATOM     34  H12 UNL     1       4.788  57.343  17.474  1.00  0.00     0.174 HD
ATOM     35  H11 UNL     1       3.533  56.135  17.420  1.00  0.00     0.174 HD
ENDBRANCH   1  33
TORSDOF 9
ENDMDL
MODEL 3
REMARK VINA RESULT: -7.111896500      1.301      2.107
REMARK  9 active torsions:
REMARK  status: ('A' for Active; 'I' for Inactive)
REMARK    1  A    between atoms: N1_1  and  C1_4 
REMARK    2  A    between atoms: C2_7  and  N3_8 
REMARK    3  A    between atoms: N3_8  and  C3_10 
REMARK    4  A    between atoms: C3_10  and  C4_11 
REMARK    5  A    between atoms: C4_11  and  C5_12 
REMARK    6  A    between atoms: C5_12  and  C6_13 
REMARK    7  A    between atoms: C6_13  and  N4_14 
REMARK    8  A    between atoms: C7_16  and  C8_17 
REMARK    9  A    between atoms: C8_17  and  N5_18 
ROOT
HETATM    1  C1  UNL     1       3.487  56.958  19.451  1.00  0.00     0.678 A 
HETATM    2  N2  UNL     1       4.381  57.906  19.812  1.00  0.00    -0.176 N 
ATOM      3  H2  UNL     1       4.879  58.397  19.069  1.00  0.00     0.186 HD
HETATM    4  C2  UNL     1       4.659  58.247  21.079  1.00  0.00     0.134 A 
HETATM    5  C14 UNL     1       3.982  57.581  22.135  1.00  0.00     0.051 A 
HETATM    6  C15 UNL     1       4.120  57.779  23.453  1.00  0.00    -0.021 A 
HETATM    7  C16 UNL     1       3.344  57.002  24.286  1.00  0.00     0.060 A 
HETATM    8  S1  UNL     1       2.456  56.032  23.205  1.00  0.00    -0.067 SA
HETATM    9  C17 UNL     1       3.086  56.630  21.727  1.00  0.00     0.105 A 
HETATM   10  N6  UNL     1       2.836  56.317  20.436  1.00  0.00    -0.185 N 
ATOM     11  H6  UNL     1       2.154  55.593  20.210  1.00  0.00     0.185 HD
HETATM   12  C18 UNL     1       3.378  57.102  25.754  1.00  0.00     0.167 C 
HETATM   13  O1  UNL     1       2.361  56.787  26.423  1.00  0.00    -0.292 OA
HETATM   14  C19 UNL     1       4.584  57.564  26.483  1.00  0.00     0.085 C 
HETATM   15  C20 UNL     1       5.605  57.919  25.447  1.00  0.00     0.012 C 
HETATM   16  C21 UNL     1       4.980  58.711  24.285  1.00  0.00     0.041 C 
ENDROOT
BRANCH   4  17
HETATM   17  N3  UNL     1       5.514  59.146  21.306  1.00  0.00    -0.355 N 
ATOM     18  H3  UNL     1       5.808  59.248  22.277  1.00  0.00     0.166 HD
BRANCH  17  19
HETATM   19  C3  UNL     1       6.111  60.023  20.386  1.00  0.00     0.062 C 
BRANCH  19  20
HETATM   20  C4  UNL     1       6.168  61.467  20.868  1.00  0.00     0.046 C 
BRANCH  20  21
HETATM   21  C5  UNL     1       4.800  61.966  21.259  1.00  0.00     0.025 C 
BRANCH  21  22
HETATM   22  C6  UNL     1       4.877  63.109  22.242  1.00  0.00     0.119 C 
BRANCH  22  23
HETATM   23  N4  UNL     1       5.291  62.680  23.542  1.00  0.00    -0.400 N 
HETATM   24  C7  UNL     1       4.576  62.669  24.579  1.00  0.00     0.085 C 
ATOM     25  H4  UNL     1       6.252  62.352  23.639  1.00  0.00     0.158 HD
BRANCH  24  26
HETATM   26  C8  UNL     1       3.164  63.111  24.609  1.00  0.00     0.316 C 
BRANCH  26  27
HETATM   27  N5  UNL     1       2.301  62.099  25.133  1.00  0.00     0.093 N 
HETATM   28  C9  UNL     1       2.450  61.823  26.528  1.00  0.00     0.273 C 
HETATM   29  C10 UNL     1       2.108  60.399  26.885  1.00  0.00     0.030 C 
HETATM   30  C11 UNL     1       0.874  59.926  26.146  1.00  0.00     0.003 C 
HETATM   31  C12 UNL     1       1.031  60.099  24.660  1.00  0.00     0.030 C 
HETATM   32  C13 UNL     1       2.235  60.935  24.305  1.00  0.00     0.273 C 
ENDBRANCH  26  27
ENDBRANCH  24  26
ENDBRANCH  22  23
ENDBRANCH  21  22
ENDBRANCH  20  21
ENDBRANCH  19  20
ENDBRANCH  17  19
ENDBRANCH   4  17
BRANCH   1  33
HETATM   33  N1  UNL     1       3.303  56.715  18.206  1.00  0.00    -0.234 N 
ATOM     34  H12 UNL     1       4.062  56.521  17.552  1.00  0.00     0.174 HD
ATOM     35  H11 UNL     1       2.353  56.713  17.834  1.00  0.00     0.174 HD
ENDBRANCH   1  33
TORSDOF 9
ENDMDL
MODEL 4
REMARK VINA RESULT: -7.108330404      1.464      2.321
REMARK  9 active torsions:
REMARK  status: ('A' for Active; 'I' for Inactive)
REMARK    1  A    between atoms: N1_1  and  C1_4 
REMARK    2  A    between atoms: C2_7  and  N3_8 
REMARK    3  A    between atoms: N3_8  and  C3_10 
REMARK    4  A    between atoms: C3_10  and  C4_11 
REMARK    5  A    between atoms: C4_11  and  C5_12 
REMARK    6  A    between atoms: C5_12  and  C6_13 
REMARK    7  A    between atoms: C6_13  and  N4_14 
REMARK    8  A    between atoms: C7_16  and  C8_17 
REMARK    9  A    between atoms: C8_17  and  N5_18 
ROOT
HETATM    1  C1  UNL     1       3.332  56.782  19.396  1.00  0.00     0.678 A 
HETATM    2  N2  UNL     1       4.285  57.696  19.689  1.00  0.00    -0.176 N 
ATOM      3  H2  UNL     1       4.776  58.136  18.910  1.00  0.00     0.186 HD
HETATM    4  C2  UNL     1       4.629  58.066  20.931  1.00  0.00     0.134 A 
HETATM    5  C14 UNL     1       3.963  57.470  22.035  1.00  0.00     0.051 A 
HETATM    6  C15 UNL     1       4.163  57.705  23.339  1.00  0.00    -0.021 A 
HETATM    7  C16 UNL     1       3.384  56.997  24.228  1.00  0.00     0.060 A 
HETATM    8  S1  UNL     1       2.408  56.035  23.217  1.00  0.00    -0.067 SA
HETATM    9  C17 UNL     1       3.007  56.551  21.696  1.00  0.00     0.105 A 
HETATM   10  N6  UNL     1       2.691  56.207  20.428  1.00  0.00    -0.185 N 
ATOM     11  H6  UNL     1       1.966  55.511  20.254  1.00  0.00     0.185 HD
HETATM   12  C18 UNL     1       3.482  57.144  25.690  1.00  0.00     0.167 C 
HETATM   13  O1  UNL     1       2.478  56.903  26.408  1.00  0.00    -0.292 OA
HETATM   14  C19 UNL     1       4.737  57.570  26.355  1.00  0.00     0.085 C 
HETATM   15  C20 UNL     1       5.732  57.839  25.269  1.00  0.00     0.012 C 
HETATM   16  C21 UNL     1       5.099  58.621  24.104  1.00  0.00     0.041 C 
ENDROOT
BRANCH   4  17
HETATM   17  N3  UNL     1       5.535  58.928  21.093  1.00  0.00    -0.355 N 
ATOM     18  H3  UNL     1       6.415  58.585  21.478  1.00  0.00     0.166 HD
BRANCH  17  19
HETATM   19  C3  UNL     1       5.481  60.302  20.810  1.00  0.00     0.062 C 
BRANCH  19  20
HETATM   20  C4  UNL     1       4.187  60.968  21.258  1.00  0.00     0.046 C 
BRANCH  20  21
HETATM   21  C5  UNL     1       4.385  62.444  21.496  1.00  0.00     0.025 C 
BRANCH  21  22
HETATM   22  C6  UNL     1       4.888  62.726  22.891  1.00  0.00     0.119 C 
BRANCH  22  23
HETATM   23  N4  UNL     1       4.079  63.687  23.576  1.00  0.00    -0.400 N 
HETATM   24  C7  UNL     1       3.437  63.488  24.641  1.00  0.00     0.085 C 
ATOM     25  H4  UNL     1       4.016  64.618  23.164  1.00  0.00     0.158 HD
BRANCH  24  26
HETATM   26  C8  UNL     1       3.423  62.197  25.364  1.00  0.00     0.316 C 
BRANCH  26  27
HETATM   27  N5  UNL     1       4.287  62.215  26.502  1.00  0.00     0.093 N 
HETATM   28  C9  UNL     1       4.562  63.507  27.048  1.00  0.00     0.273 C 
HETATM   29  C10 UNL     1       5.915  63.589  27.709  1.00  0.00     0.030 C 
HETATM   30  C11 UNL     1       6.208  62.345  28.520  1.00  0.00     0.003 C 
HETATM   31  C12 UNL     1       6.082  61.105  27.679  1.00  0.00     0.030 C 
HETATM   32  C13 UNL     1       5.440  61.383  26.343  1.00  0.00     0.273 C 
ENDBRANCH  26  27
ENDBRANCH  24  26
ENDBRANCH  22  23
ENDBRANCH  21  22
ENDBRANCH  20  21
ENDBRANCH  19  20
ENDBRANCH  17  19
ENDBRANCH   4  17
BRANCH   1  33
HETATM   33  N1  UNL     1       3.088  56.506  18.169  1.00  0.00    -0.234 N 
ATOM     34  H12 UNL     1       3.269  57.150  17.399  1.00  0.00     0.174 HD
ATOM     35  H11 UNL     1       2.687  55.598  17.933  1.00  0.00     0.174 HD
ENDBRANCH   1  33
TORSDOF 9
ENDMDL
MODEL 5
REMARK VINA RESULT: -7.077539359      2.647      5.729
REMARK  9 active torsions:
REMARK  status: ('A' for Active; 'I' for Inactive)
REMARK    1  A    between atoms: N1_1  and  C1_4 
REMARK    2  A    between atoms: C2_7  and  N3_8 
REMARK    3  A    between atoms: N3_8  and  C3_10 
REMARK    4  A    between atoms: C3_10  and  C4_11 
REMARK    5  A    between atoms: C4_11  and  C5_12 
REMARK    6  A    between atoms: C5_12  and  C6_13 
REMARK    7  A    between atoms: C6_13  and  N4_14 
REMARK    8  A    between atoms: C7_16  and  C8_17 
REMARK    9  A    between atoms: C8_17  and  N5_18 
ROOT
HETATM    1  C1  UNL     1       4.343  58.120  24.864  1.00  0.00     0.678 A 
HETATM    2  N2  UNL     1       4.937  58.580  23.740  1.00  0.00    -0.176 N 
ATOM      3  H2  UNL     1       5.639  59.314  23.841  1.00  0.00     0.186 HD
HETATM    4  C2  UNL     1       4.669  58.140  22.502  1.00  0.00     0.134 A 
HETATM    5  C14 UNL     1       3.696  57.120  22.330  1.00  0.00     0.051 A 
HETATM    6  C15 UNL     1       3.293  56.553  21.185  1.00  0.00    -0.021 A 
HETATM    7  C16 UNL     1       2.328  55.574  21.277  1.00  0.00     0.060 A 
HETATM    8  S1  UNL     1       2.020  55.482  22.949  1.00  0.00    -0.067 SA
HETATM    9  C17 UNL     1       3.119  56.682  23.491  1.00  0.00     0.105 A 
HETATM   10  N6  UNL     1       3.419  57.154  24.721  1.00  0.00    -0.185 N 
ATOM     11  H6  UNL     1       2.944  56.778  25.542  1.00  0.00     0.185 HD
HETATM   12  C18 UNL     1       1.784  54.857  20.113  1.00  0.00     0.167 C 
HETATM   13  O1  UNL     1       1.331  53.693  20.255  1.00  0.00    -0.292 OA
HETATM   14  C19 UNL     1       1.751  55.464  18.760  1.00  0.00     0.085 C 
HETATM   15  C20 UNL     1       2.398  56.810  18.875  1.00  0.00     0.012 C 
HETATM   16  C21 UNL     1       3.676  56.751  19.730  1.00  0.00     0.041 C 
ENDROOT
BRANCH   4  17
HETATM   17  N3  UNL     1       5.281  58.641  21.519  1.00  0.00    -0.355 N 
ATOM     18  H3  UNL     1       5.751  57.980  20.901  1.00  0.00     0.166 HD
BRANCH  17  19
HETATM   19  C3  UNL     1       5.396  59.997  21.172  1.00  0.00     0.062 C 
BRANCH  19  20
HETATM   20  C4  UNL     1       4.063  60.731  21.130  1.00  0.00     0.046 C 
BRANCH  20  21
HETATM   21  C5  UNL     1       4.263  62.226  21.128  1.00  0.00     0.025 C 
BRANCH  21  22
HETATM   22  C6  UNL     1       5.683  62.605  21.471  1.00  0.00     0.119 C 
BRANCH  22  23
HETATM   23  N4  UNL     1       6.202  63.613  20.599  1.00  0.00    -0.400 N 
HETATM   24  C7  UNL     1       7.166  63.474  19.800  1.00  0.00     0.085 C 
ATOM     25  H4  UNL     1       5.750  64.527  20.626  1.00  0.00     0.158 HD
BRANCH  24  26
HETATM   26  C8  UNL     1       7.927  62.215  19.640  1.00  0.00     0.316 C 
BRANCH  26  27
HETATM   27  N5  UNL     1       7.655  61.586  18.385  1.00  0.00     0.093 N 
HETATM   28  C9  UNL     1       7.648  60.156  18.400  1.00  0.00     0.273 C 
HETATM   29  C10 UNL     1       8.059  59.553  17.081  1.00  0.00     0.030 C 
HETATM   30  C11 UNL     1       7.445  60.302  15.917  1.00  0.00     0.003 C 
HETATM   31  C12 UNL     1       7.776  61.768  15.979  1.00  0.00     0.030 C 
HETATM   32  C13 UNL     1       8.388  62.162  17.300  1.00  0.00     0.273 C 
ENDBRANCH  26  27
ENDBRANCH  24  26
ENDBRANCH  22  23
ENDBRANCH  21  22
ENDBRANCH  20  21
ENDBRANCH  19  20
ENDBRANCH  17  19
ENDBRANCH   4  17
BRANCH   1  33
HETATM   33  N1  UNL     1       4.678  58.616  25.997  1.00  0.00    -0.234 N 
ATOM     34  H12 UNL     1       5.572  59.076  26.167  1.00  0.00     0.174 HD
ATOM     35  H11 UNL     1       4.027  58.554  26.779  1.00  0.00     0.174 HD
ENDBRANCH   1  33
TORSDOF 9
ENDMDL
