MODEL 1
REMARK VINA RESULT: -6.288230208      0.000      0.000
REMARK  17 active torsions:
REMARK  status: ('A' for Active; 'I' for Inactive)
REMARK    1  A    between atoms: C3_3  and  O1_4 
REMARK    2  A    between atoms: O1_4  and  C4_5 
REMARK       I    between atoms: C4_5  and  N1_7 
REMARK    3  A    between atoms: N1_7  and  C5_8 
REMARK    4  A    between atoms: C5_8  and  C6_9 
REMARK    5  A    between atoms: C5_8  and  N4_23 
REMARK    6  A    between atoms: C6_9  and  C7_10 
REMARK    7  A    between atoms: C7_10  and  C8_11 
REMARK    8  A    between atoms: C8_11  and  C9_12 
REMARK    9  A    between atoms: C9_12  and  C10_13 
REMARK   10  A    between atoms: C10_13  and  N2_14 
REMARK   11  A    between atoms: N2_14  and  C11_16 
REMARK   12  A    between atoms: C11_16  and  N3_18 
REMARK   13  A    between atoms: N3_18  and  C12_20 
REMARK   14  A    between atoms: C12_20  and  C13_21 
REMARK   15  A    between atoms: N4_23  and  N5_25 
REMARK       I    between atoms: N5_25  and  C15_27 
REMARK   16  A    between atoms: C15_27  and  O4_29 
REMARK   17  A    between atoms: O4_29  and  C16_30 
ROOT
HETATM    1  C1  UNL     1       7.903  60.080  16.776  1.00  0.00     0.014 C 
HETATM    2  C2  UNL     1       8.197  60.983  17.485  1.00  0.00    -0.091 C 
HETATM    3  C3  UNL     1       8.531  62.094  18.338  1.00  0.00     0.274 C 
ENDROOT
BRANCH   3   4
HETATM    4  O1  UNL     1       8.072  61.976  19.653  1.00  0.00    -0.281 OA
BRANCH   4   5
HETATM    5  C4  UNL     1       7.190  62.903  20.227  1.00  0.00     0.442 C 
HETATM    6  O2  UNL     1       7.307  64.071  19.692  1.00  0.00    -0.221 OA
HETATM    7  N1  UNL     1       6.312  62.710  21.200  1.00  0.00    -0.331 NA
BRANCH   7   8
HETATM    8  C5  UNL     1       5.304  62.499  21.798  1.00  0.00     0.176 C 
BRANCH   8   9
HETATM    9  C6  UNL     1       4.426  61.336  21.270  1.00  0.00     0.094 C 
BRANCH   9  10
HETATM   10  C7  UNL     1       5.226  60.112  21.506  1.00  0.00     0.008 C 
BRANCH  10  11
HETATM   11  C8  UNL     1       4.953  58.859  20.804  1.00  0.00     0.002 C 
BRANCH  11  12
HETATM   12  C9  UNL     1       4.257  57.755  21.490  1.00  0.00     0.020 C 
BRANCH  12  13
HETATM   13  C10 UNL     1       4.406  57.529  22.936  1.00  0.00     0.122 C 
BRANCH  13  14
HETATM   14  N2  UNL     1       3.122  57.895  23.555  1.00  0.00    -0.367 N 
ATOM     15  H2  UNL     1       2.260  57.433  23.265  1.00  0.00     0.161 HD
BRANCH  14  16
HETATM   16  C11 UNL     1       3.094  58.887  24.549  1.00  0.00     0.167 C 
HETATM   17  S1  UNL     1       1.671  59.683  24.830  1.00  0.00    -0.041 SA
BRANCH  16  18
HETATM   18  N3  UNL     1       4.257  59.267  25.281  1.00  0.00    -0.364 N 
ATOM     19  H3  UNL     1       4.793  60.072  24.958  1.00  0.00     0.162 HD
BRANCH  18  20
HETATM   20  C12 UNL     1       4.708  58.571  26.450  1.00  0.00     0.148 C 
BRANCH  20  21
HETATM   21  C13 UNL     1       6.170  58.338  26.468  1.00  0.00    -0.018 C 
HETATM   22  C14 UNL     1       6.628  57.223  25.913  1.00  0.00     0.008 C 
ENDBRANCH  20  21
ENDBRANCH  18  20
ENDBRANCH  16  18
ENDBRANCH  14  16
ENDBRANCH  13  14
ENDBRANCH  12  13
ENDBRANCH  11  12
ENDBRANCH  10  11
ENDBRANCH   9  10
ENDBRANCH   8   9
BRANCH   8  23
HETATM   23  N4  UNL     1       4.827  63.180  22.931  1.00  0.00    -0.273 N 
ATOM     24  H4  UNL     1       4.367  64.086  22.846  1.00  0.00     0.189 HD
BRANCH  23  25
HETATM   25  N5  UNL     1       5.001  62.581  24.162  1.00  0.00    -0.243 N 
HETATM   26  C15 UNL     1       4.045  62.688  25.184  1.00  0.00     0.380 C 
HETATM   27  O3  UNL     1       2.967  63.338  25.078  1.00  0.00    -0.237 OA
ATOM     28  H5  UNL     1       5.851  62.044  24.335  1.00  0.00     0.192 HD
BRANCH  26  29
HETATM   29  O4  UNL     1       4.212  62.065  26.431  1.00  0.00    -0.293 OA
BRANCH  29  30
HETATM   30  C16 UNL     1       4.769  62.635  27.561  1.00  0.00     0.061 C 
HETATM   31  C17 UNL     1       5.981  61.755  27.919  1.00  0.00     0.046 C 
HETATM   32  C18 UNL     1       3.867  62.607  28.773  1.00  0.00     0.046 C 
HETATM   33  C19 UNL     1       5.310  64.024  27.396  1.00  0.00     0.046 C 
ENDBRANCH  29  30
ENDBRANCH  26  29
ENDBRANCH  23  25
ENDBRANCH   8  23
ENDBRANCH   7   8
ENDBRANCH   4   5
ENDBRANCH   3   4
TORSDOF 17
ENDMDL
MODEL 2
REMARK VINA RESULT: -6.224444726      4.151      8.829
REMARK  17 active torsions:
REMARK  status: ('A' for Active; 'I' for Inactive)
REMARK    1  A    between atoms: C3_3  and  O1_4 
REMARK    2  A    between atoms: O1_4  and  C4_5 
REMARK       I    between atoms: C4_5  and  N1_7 
REMARK    3  A    between atoms: N1_7  and  C5_8 
REMARK    4  A    between atoms: C5_8  and  C6_9 
REMARK    5  A    between atoms: C5_8  and  N4_23 
REMARK    6  A    between atoms: C6_9  and  C7_10 
REMARK    7  A    between atoms: C7_10  and  C8_11 
REMARK    8  A    between atoms: C8_11  and  C9_12 
REMARK    9  A    between atoms: C9_12  and  C10_13 
REMARK   10  A    between atoms: C10_13  and  N2_14 
REMARK   11  A    between atoms: N2_14  and  C11_16 
REMARK   12  A    between atoms: C11_16  and  N3_18 
REMARK   13  A    between atoms: N3_18  and  C12_20 
REMARK   14  A    between atoms: C12_20  and  C13_21 
REMARK   15  A    between atoms: N4_23  and  N5_25 
REMARK       I    between atoms: N5_25  and  C15_27 
REMARK   16  A    between atoms: C15_27  and  O4_29 
REMARK   17  A    between atoms: O4_29  and  C16_30 
ROOT
HETATM    1  C1  UNL     1       1.379  59.802  24.683  1.00  0.00     0.014 C 
HETATM    2  C2  UNL     1       2.385  59.572  25.267  1.00  0.00    -0.091 C 
HETATM    3  C3  UNL     1       3.599  59.265  25.976  1.00  0.00     0.274 C 
ENDROOT
BRANCH   3   4
HETATM    4  O1  UNL     1       4.733  59.152  25.166  1.00  0.00    -0.281 OA
BRANCH   4   5
HETATM    5  C4  UNL     1       4.767  58.330  24.031  1.00  0.00     0.442 C 
HETATM    6  O2  UNL     1       4.759  57.078  24.345  1.00  0.00    -0.221 OA
HETATM    7  N1  UNL     1       4.807  58.688  22.756  1.00  0.00    -0.331 NA
BRANCH   7   8
HETATM    8  C5  UNL     1       4.494  58.957  21.639  1.00  0.00     0.176 C 
BRANCH   8   9
HETATM    9  C6  UNL     1       4.064  60.424  21.383  1.00  0.00     0.094 C 
BRANCH   9  10
HETATM   10  C7  UNL     1       5.060  61.248  22.107  1.00  0.00     0.008 C 
BRANCH  10  11
HETATM   11  C8  UNL     1       5.970  62.155  21.409  1.00  0.00     0.002 C 
BRANCH  11  12
HETATM   12  C9  UNL     1       6.442  61.840  20.048  1.00  0.00     0.020 C 
BRANCH  12  13
HETATM   13  C10 UNL     1       7.608  60.973  19.817  1.00  0.00     0.122 C 
BRANCH  13  14
HETATM   14  N2  UNL     1       7.405  60.333  18.507  1.00  0.00    -0.367 N 
ATOM     15  H2  UNL     1       6.799  59.517  18.421  1.00  0.00     0.161 HD
BRANCH  14  16
HETATM   16  C11 UNL     1       8.054  60.856  17.377  1.00  0.00     0.167 C 
HETATM   17  S1  UNL     1       9.018  62.187  17.566  1.00  0.00    -0.041 SA
BRANCH  16  18
HETATM   18  N3  UNL     1       7.868  60.316  16.070  1.00  0.00    -0.364 N 
ATOM     19  H3  UNL     1       8.600  60.463  15.375  1.00  0.00     0.162 HD
BRANCH  18  20
HETATM   20  C12 UNL     1       6.702  59.576  15.688  1.00  0.00     0.148 C 
BRANCH  20  21
HETATM   21  C13 UNL     1       6.036  60.111  14.479  1.00  0.00    -0.018 C 
HETATM   22  C14 UNL     1       5.774  61.412  14.439  1.00  0.00     0.008 C 
ENDBRANCH  20  21
ENDBRANCH  18  20
ENDBRANCH  16  18
ENDBRANCH  14  16
ENDBRANCH  13  14
ENDBRANCH  12  13
ENDBRANCH  11  12
ENDBRANCH  10  11
ENDBRANCH   9  10
ENDBRANCH   8   9
BRANCH   8  23
HETATM   23  N4  UNL     1       4.479  58.097  20.528  1.00  0.00    -0.273 N 
ATOM     24  H4  UNL     1       4.852  58.394  19.627  1.00  0.00     0.189 HD
BRANCH  23  25
HETATM   25  N5  UNL     1       3.944  56.836  20.698  1.00  0.00    -0.243 N 
HETATM   26  C15 UNL     1       3.614  56.014  19.608  1.00  0.00     0.380 C 
HETATM   27  O3  UNL     1       3.760  56.351  18.400  1.00  0.00    -0.237 OA
ATOM     28  H5  UNL     1       3.784  56.490  21.644  1.00  0.00     0.192 HD
BRANCH  26  29
HETATM   29  O4  UNL     1       3.087  54.725  19.779  1.00  0.00    -0.293 OA
BRANCH  29  30
HETATM   30  C16 UNL     1       1.783  54.414  20.119  1.00  0.00     0.061 C 
HETATM   31  C17 UNL     1       1.573  52.953  19.681  1.00  0.00     0.046 C 
HETATM   32  C18 UNL     1       0.743  55.221  19.377  1.00  0.00     0.046 C 
HETATM   33  C19 UNL     1       1.461  54.448  21.584  1.00  0.00     0.046 C 
ENDBRANCH  29  30
ENDBRANCH  26  29
ENDBRANCH  23  25
ENDBRANCH   8  23
ENDBRANCH   7   8
ENDBRANCH   4   5
ENDBRANCH   3   4
TORSDOF 17
ENDMDL
MODEL 3
REMARK VINA RESULT: -6.095031359      2.953      5.843
REMARK  17 active torsions:
REMARK  status: ('A' for Active; 'I' for Inactive)
REMARK    1  A    between atoms: C3_3  and  O1_4 
REMARK    2  A    between atoms: O1_4  and  C4_5 
REMARK       I    between atoms: C4_5  and  N1_7 
REMARK    3  A    between atoms: N1_7  and  C5_8 
REMARK    4  A    between atoms: C5_8  and  C6_9 
REMARK    5  A    between atoms: C5_8  and  N4_23 
REMARK    6  A    between atoms: C6_9  and  C7_10 
REMARK    7  A    between atoms: C7_10  and  C8_11 
REMARK    8  A    between atoms: C8_11  and  C9_12 
REMARK    9  A    between atoms: C9_12  and  C10_13 
REMARK   10  A    between atoms: C10_13  and  N2_14 
REMARK   11  A    between atoms: N2_14  and  C11_16 
REMARK   12  A    between atoms: C11_16  and  N3_18 
REMARK   13  A    between atoms: N3_18  and  C12_20 
REMARK   14  A    between atoms: C12_20  and  C13_21 
REMARK   15  A    between atoms: N4_23  and  N5_25 
REMARK       I    between atoms: N5_25  and  C15_27 
REMARK   16  A    between atoms: C15_27  and  O4_29 
REMARK   17  A    between atoms: O4_29  and  C16_30 
ROOT
HETATM    1  C1  UNL     1       7.572  59.225  16.494  1.00  0.00     0.014 C 
HETATM    2  C2  UNL     1       7.928  60.188  17.086  1.00  0.00    -0.091 C 
HETATM    3  C3  UNL     1       8.355  61.373  17.782  1.00  0.00     0.274 C 
ENDROOT
BRANCH   3   4
HETATM    4  O1  UNL     1       7.367  61.974  18.569  1.00  0.00    -0.281 OA
BRANCH   4   5
HETATM    5  C4  UNL     1       7.065  61.532  19.864  1.00  0.00     0.442 C 
HETATM    6  O2  UNL     1       7.464  62.369  20.762  1.00  0.00    -0.221 OA
HETATM    7  N1  UNL     1       6.454  60.415  20.231  1.00  0.00    -0.331 NA
BRANCH   7   8
HETATM    8  C5  UNL     1       5.626  59.629  20.570  1.00  0.00     0.176 C 
BRANCH   8   9
HETATM    9  C6  UNL     1       4.838  59.979  21.859  1.00  0.00     0.094 C 
BRANCH   9  10
HETATM   10  C7  UNL     1       4.027  61.166  21.503  1.00  0.00     0.008 C 
BRANCH  10  11
HETATM   11  C8  UNL     1       4.150  62.433  22.222  1.00  0.00     0.002 C 
BRANCH  11  12
HETATM   12  C9  UNL     1       5.012  62.536  23.413  1.00  0.00     0.020 C 
BRANCH  12  13
HETATM   13  C10 UNL     1       4.457  62.477  24.775  1.00  0.00     0.122 C 
BRANCH  13  14
HETATM   14  N2  UNL     1       4.766  61.136  25.299  1.00  0.00    -0.367 N 
ATOM     15  H2  UNL     1       5.714  60.905  25.595  1.00  0.00     0.161 HD
BRANCH  14  16
HETATM   16  C11 UNL     1       3.743  60.178  25.386  1.00  0.00     0.167 C 
HETATM   17  S1  UNL     1       2.181  60.668  25.149  1.00  0.00    -0.041 SA
BRANCH  16  18
HETATM   18  N3  UNL     1       3.998  58.817  25.725  1.00  0.00    -0.364 N 
ATOM     19  H3  UNL     1       3.341  58.338  26.340  1.00  0.00     0.162 HD
BRANCH  18  20
HETATM   20  C12 UNL     1       5.134  58.090  25.242  1.00  0.00     0.148 C 
BRANCH  20  21
HETATM   21  C13 UNL     1       4.827  57.217  24.086  1.00  0.00    -0.018 C 
HETATM   22  C14 UNL     1       3.559  56.879  23.883  1.00  0.00     0.008 C 
ENDBRANCH  20  21
ENDBRANCH  18  20
ENDBRANCH  16  18
ENDBRANCH  14  16
ENDBRANCH  13  14
ENDBRANCH  12  13
ENDBRANCH  11  12
ENDBRANCH  10  11
ENDBRANCH   9  10
ENDBRANCH   8   9
BRANCH   8  23
HETATM   23  N4  UNL     1       5.279  58.428  19.930  1.00  0.00    -0.273 N 
ATOM     24  H4  UNL     1       5.826  58.071  19.146  1.00  0.00     0.189 HD
BRANCH  23  25
HETATM   25  N5  UNL     1       4.173  57.746  20.396  1.00  0.00    -0.243 N 
HETATM   26  C15 UNL     1       3.496  56.799  19.611  1.00  0.00     0.380 C 
HETATM   27  O3  UNL     1       3.820  56.501  18.428  1.00  0.00    -0.237 OA
ATOM     28  H5  UNL     1       3.838  57.935  21.341  1.00  0.00     0.192 HD
BRANCH  26  29
HETATM   29  O4  UNL     1       2.383  56.091  20.091  1.00  0.00    -0.293 OA
BRANCH  29  30
HETATM   30  C16 UNL     1       2.367  54.769  20.494  1.00  0.00     0.061 C 
HETATM   31  C17 UNL     1       1.440  54.716  21.723  1.00  0.00     0.046 C 
HETATM   32  C18 UNL     1       3.707  54.253  20.966  1.00  0.00     0.046 C 
HETATM   33  C19 UNL     1       1.795  53.790  19.512  1.00  0.00     0.046 C 
ENDBRANCH  29  30
ENDBRANCH  26  29
ENDBRANCH  23  25
ENDBRANCH   8  23
ENDBRANCH   7   8
ENDBRANCH   4   5
ENDBRANCH   3   4
TORSDOF 17
ENDMDL
MODEL 4
REMARK VINA RESULT: -6.013479573      3.590      6.449
REMARK  17 active torsions:
REMARK  status: ('A' for Active; 'I' for Inactive)
REMARK    1  A    between atoms: C3_3  and  O1_4 
REMARK    2  A    between atoms: O1_4  and  C4_5 
REMARK       I    between atoms: C4_5  and  N1_7 
REMARK    3  A    between atoms: N1_7  and  C5_8 
REMARK    4  A    between atoms: C5_8  and  C6_9 
REMARK    5  A    between atoms: C5_8  and  N4_23 
REMARK    6  A    between atoms: C6_9  and  C7_10 
REMARK    7  A    between atoms: C7_10  and  C8_11 
REMARK    8  A    between atoms: C8_11  and  C9_12 
REMARK    9  A    between atoms: C9_12  and  C10_13 
REMARK   10  A    between atoms: C10_13  and  N2_14 
REMARK   11  A    between atoms: N2_14  and  C11_16 
REMARK   12  A    between atoms: C11_16  and  N3_18 
REMARK   13  A    between atoms: N3_18  and  C12_20 
REMARK   14  A    between atoms: C12_20  and  C13_21 
REMARK   15  A    between atoms: N4_23  and  N5_25 
REMARK       I    between atoms: N5_25  and  C15_27 
REMARK   16  A    between atoms: C15_27  and  O4_29 
REMARK   17  A    between atoms: O4_29  and  C16_30 
ROOT
HETATM    1  C1  UNL     1       8.355  61.001  16.846  1.00  0.00     0.014 C 
HETATM    2  C2  UNL     1       8.225  61.397  17.956  1.00  0.00    -0.091 C 
HETATM    3  C3  UNL     1       8.040  61.887  19.296  1.00  0.00     0.274 C 
ENDROOT
BRANCH   3   4
HETATM    4  O1  UNL     1       7.631  60.918  20.218  1.00  0.00    -0.281 OA
BRANCH   4   5
HETATM    5  C4  UNL     1       6.299  60.794  20.637  1.00  0.00     0.442 C 
HETATM    6  O2  UNL     1       5.679  61.926  20.608  1.00  0.00    -0.221 OA
HETATM    7  N1  UNL     1       5.659  59.704  21.035  1.00  0.00    -0.331 NA
BRANCH   7   8
HETATM    8  C5  UNL     1       4.979  58.728  21.056  1.00  0.00     0.176 C 
BRANCH   8   9
HETATM    9  C6  UNL     1       4.566  58.210  22.457  1.00  0.00     0.094 C 
BRANCH   9  10
HETATM   10  C7  UNL     1       3.919  59.366  23.119  1.00  0.00     0.008 C 
BRANCH  10  11
HETATM   11  C8  UNL     1       4.527  60.046  24.261  1.00  0.00     0.002 C 
BRANCH  11  12
HETATM   12  C9  UNL     1       4.857  61.481  24.188  1.00  0.00     0.020 C 
BRANCH  12  13
HETATM   13  C10 UNL     1       3.922  62.459  23.612  1.00  0.00     0.122 C 
BRANCH  13  14
HETATM   14  N2  UNL     1       3.873  63.597  24.544  1.00  0.00    -0.367 N 
ATOM     15  H2  UNL     1       4.239  64.508  24.265  1.00  0.00     0.161 HD
BRANCH  14  16
HETATM   16  C11 UNL     1       3.319  63.418  25.822  1.00  0.00     0.167 C 
HETATM   17  S1  UNL     1       4.218  63.850  27.141  1.00  0.00    -0.041 SA
BRANCH  16  18
HETATM   18  N3  UNL     1       2.035  62.829  26.021  1.00  0.00    -0.364 N 
ATOM     19  H3  UNL     1       1.208  63.377  25.788  1.00  0.00     0.162 HD
BRANCH  18  20
HETATM   20  C12 UNL     1       1.854  61.504  26.535  1.00  0.00     0.148 C 
BRANCH  20  21
HETATM   21  C13 UNL     1       0.668  60.814  25.977  1.00  0.00    -0.018 C 
HETATM   22  C14 UNL     1       0.787  60.239  24.787  1.00  0.00     0.008 C 
ENDBRANCH  20  21
ENDBRANCH  18  20
ENDBRANCH  16  18
ENDBRANCH  14  16
ENDBRANCH  13  14
ENDBRANCH  12  13
ENDBRANCH  11  12
ENDBRANCH  10  11
ENDBRANCH   9  10
ENDBRANCH   8   9
BRANCH   8  23
HETATM   23  N4  UNL     1       4.501  57.999  19.953  1.00  0.00    -0.273 N 
ATOM     24  H4  UNL     1       4.406  58.434  19.035  1.00  0.00     0.189 HD
BRANCH  23  25
HETATM   25  N5  UNL     1       4.165  56.675  20.153  1.00  0.00    -0.243 N 
HETATM   26  C15 UNL     1       3.002  56.111  19.605  1.00  0.00     0.380 C 
HETATM   27  O3  UNL     1       2.169  56.751  18.905  1.00  0.00    -0.237 OA
ATOM     28  H5  UNL     1       4.782  56.089  20.716  1.00  0.00     0.192 HD
BRANCH  26  29
HETATM   29  O4  UNL     1       2.669  54.760  19.792  1.00  0.00    -0.293 OA
BRANCH  29  30
HETATM   30  C16 UNL     1       2.010  54.225  20.883  1.00  0.00     0.061 C 
HETATM   31  C17 UNL     1       0.513  54.247  20.520  1.00  0.00     0.046 C 
HETATM   32  C18 UNL     1       2.140  55.046  22.145  1.00  0.00     0.046 C 
HETATM   33  C19 UNL     1       2.328  52.795  21.206  1.00  0.00     0.046 C 
ENDBRANCH  29  30
ENDBRANCH  26  29
ENDBRANCH  23  25
ENDBRANCH   8  23
ENDBRANCH   7   8
ENDBRANCH   4   5
ENDBRANCH   3   4
TORSDOF 17
ENDMDL
MODEL 5
REMARK VINA RESULT: -5.991027665      3.567      7.085
REMARK  17 active torsions:
REMARK  status: ('A' for Active; 'I' for Inactive)
REMARK    1  A    between atoms: C3_3  and  O1_4 
REMARK    2  A    between atoms: O1_4  and  C4_5 
REMARK       I    between atoms: C4_5  and  N1_7 
REMARK    3  A    between atoms: N1_7  and  C5_8 
REMARK    4  A    between atoms: C5_8  and  C6_9 
REMARK    5  A    between atoms: C5_8  and  N4_23 
REMARK    6  A    between atoms: C6_9  and  C7_10 
REMARK    7  A    between atoms: C7_10  and  C8_11 
REMARK    8  A    between atoms: C8_11  and  C9_12 
REMARK    9  A    between atoms: C9_12  and  C10_13 
REMARK   10  A    between atoms: C10_13  and  N2_14 
REMARK   11  A    between atoms: N2_14  and  C11_16 
REMARK   12  A    between atoms: C11_16  and  N3_18 
REMARK   13  A    between atoms: N3_18  and  C12_20 
REMARK   14  A    between atoms: C12_20  and  C13_21 
REMARK   15  A    between atoms: N4_23  and  N5_25 
REMARK       I    between atoms: N5_25  and  C15_27 
REMARK   16  A    between atoms: C15_27  and  O4_29 
REMARK   17  A    between atoms: O4_29  and  C16_30 
ROOT
HETATM    1  C1  UNL     1       8.166  59.159  16.358  1.00  0.00     0.014 C 
HETATM    2  C2  UNL     1       8.026  60.065  17.110  1.00  0.00    -0.091 C 
HETATM    3  C3  UNL     1       7.827  61.161  18.021  1.00  0.00     0.274 C 
ENDROOT
BRANCH   3   4
HETATM    4  O1  UNL     1       7.925  60.819  19.373  1.00  0.00    -0.281 OA
BRANCH   4   5
HETATM    5  C4  UNL     1       6.851  60.955  20.263  1.00  0.00     0.442 C 
HETATM    6  O2  UNL     1       6.636  62.189  20.571  1.00  0.00    -0.221 OA
HETATM    7  N1  UNL     1       6.089  60.004  20.785  1.00  0.00    -0.331 NA
BRANCH   7   8
HETATM    8  C5  UNL     1       5.195  59.245  20.986  1.00  0.00     0.176 C 
BRANCH   8   9
HETATM    9  C6  UNL     1       4.235  59.609  22.147  1.00  0.00     0.094 C 
BRANCH   9  10
HETATM   10  C7  UNL     1       3.682  60.935  21.787  1.00  0.00     0.008 C 
BRANCH  10  11
HETATM   11  C8  UNL     1       3.816  62.096  22.665  1.00  0.00     0.002 C 
BRANCH  11  12
HETATM   12  C9  UNL     1       4.888  62.150  23.675  1.00  0.00     0.020 C 
BRANCH  12  13
HETATM   13  C10 UNL     1       4.598  62.053  25.114  1.00  0.00     0.122 C 
BRANCH  13  14
HETATM   14  N2  UNL     1       4.115  63.378  25.538  1.00  0.00    -0.367 N 
ATOM     15  H2  UNL     1       3.511  63.926  24.926  1.00  0.00     0.161 HD
BRANCH  14  16
HETATM   16  C11 UNL     1       4.495  63.880  26.793  1.00  0.00     0.167 C 
HETATM   17  S1  UNL     1       4.222  62.948  28.132  1.00  0.00    -0.041 SA
BRANCH  16  18
HETATM   18  N3  UNL     1       5.055  65.181  26.957  1.00  0.00    -0.364 N 
ATOM     19  H3  UNL     1       6.070  65.282  26.915  1.00  0.00     0.162 HD
BRANCH  18  20
HETATM   20  C12 UNL     1       4.262  66.353  27.179  1.00  0.00     0.148 C 
BRANCH  20  21
HETATM   21  C13 UNL     1       3.914  67.073  25.933  1.00  0.00    -0.018 C 
HETATM   22  C14 UNL     1       2.675  67.533  25.807  1.00  0.00     0.008 C 
ENDBRANCH  20  21
ENDBRANCH  18  20
ENDBRANCH  16  18
ENDBRANCH  14  16
ENDBRANCH  13  14
ENDBRANCH  12  13
ENDBRANCH  11  12
ENDBRANCH  10  11
ENDBRANCH   9  10
ENDBRANCH   8   9
BRANCH   8  23
HETATM   23  N4  UNL     1       4.908  58.062  20.283  1.00  0.00    -0.273 N 
ATOM     24  H4  UNL     1       5.655  57.485  19.896  1.00  0.00     0.189 HD
BRANCH  23  25
HETATM   25  N5  UNL     1       3.583  57.706  20.136  1.00  0.00    -0.243 N 
HETATM   26  C15 UNL     1       3.145  56.880  19.088  1.00  0.00     0.380 C 
HETATM   27  O3  UNL     1       3.905  56.407  18.197  1.00  0.00    -0.237 OA
ATOM     28  H5  UNL     1       2.899  58.055  20.809  1.00  0.00     0.192 HD
BRANCH  26  29
HETATM   29  O4  UNL     1       1.801  56.503  18.947  1.00  0.00    -0.293 OA
BRANCH  29  30
HETATM   30  C16 UNL     1       1.264  55.265  19.249  1.00  0.00     0.061 C 
HETATM   31  C17 UNL     1       1.076  54.549  17.898  1.00  0.00     0.046 C 
HETATM   32  C18 UNL     1      -0.109  55.326  19.878  1.00  0.00     0.046 C 
HETATM   33  C19 UNL     1       2.129  54.357  20.072  1.00  0.00     0.046 C 
ENDBRANCH  29  30
ENDBRANCH  26  29
ENDBRANCH  23  25
ENDBRANCH   8  23
ENDBRANCH   7   8
ENDBRANCH   4   5
ENDBRANCH   3   4
TORSDOF 17
ENDMDL
