MODEL 1
REMARK VINA RESULT: -7.858866541      0.000      0.000
REMARK  20 active torsions:
REMARK  status: ('A' for Active; 'I' for Inactive)
REMARK    1  A    between atoms: C2_2  and  C4_4 
REMARK    2  A    between atoms: C4_4  and  C5_6 
REMARK    3  A    between atoms: C5_6  and  C6_7 
REMARK    4  A    between atoms: C5_6  and  N1_11 
REMARK    5  A    between atoms: C6_7  and  C7_8 
REMARK    6  A    between atoms: N1_11  and  C8_13 
REMARK    7  A    between atoms: C8_13  and  O4_14 
REMARK    8  A    between atoms: C8_13  and  C9_16 
REMARK    9  A    between atoms: C9_16  and  C10_17 
REMARK   10  A    between atoms: C10_17  and  C11_18 
REMARK   11  A    between atoms: C10_17  and  C18_25 
REMARK   12  A    between atoms: C11_18  and  C12_19 
REMARK       I    between atoms: C18_25  and  N2_27 
REMARK   13  A    between atoms: N2_27  and  C19_29 
REMARK   14  A    between atoms: C19_29  and  C21_31 
REMARK   15  A    between atoms: C21_31  and  O6_32 
REMARK   16  A    between atoms: C22_34  and  N3_35 
REMARK   17  A    between atoms: C22_34  and  C30_46 
REMARK   18  A    between atoms: N3_35  and  C23_37 
REMARK   19  A    between atoms: C30_46  and  C31_48 
REMARK   20  A    between atoms: C31_48  and  O8_51 
ROOT
HETATM    1  C23 UNL     1      -6.452  20.311  10.699  1.00  0.00     0.117 C 
HETATM    2  C24 UNL     1      -6.545  18.873  11.167  1.00  0.00     0.195 C 
HETATM    3  O7  UNL     1      -6.130  18.869  12.517  1.00  0.00    -0.369 OA
HETATM    4  C25 UNL     1      -5.787  20.160  12.881  1.00  0.00     0.237 C 
HETATM    5  C26 UNL     1      -6.047  20.425  14.298  1.00  0.00     0.092 C 
HETATM    6  N4  UNL     1      -6.274  20.640  15.411  1.00  0.00    -0.194 NA
HETATM    7  C27 UNL     1      -6.697  21.002  12.014  1.00  0.00     0.014 C 
HETATM    8  C28 UNL     1      -8.113  20.662  12.508  1.00  0.00     0.020 C 
HETATM    9  C29 UNL     1      -6.439  22.446  12.085  1.00  0.00     0.020 C 
ENDROOT
BRANCH   1  10
HETATM   10  N3  UNL     1      -5.354  20.552   9.957  1.00  0.00    -0.378 N 
ATOM     11  H3  UNL     1      -4.469  20.273  10.380  1.00  0.00     0.160 HD
BRANCH  10  12
HETATM   12  C22 UNL     1      -5.257  21.126   8.700  1.00  0.00     0.102 C 
HETATM   13  C21 UNL     1      -4.210  21.912   8.108  1.00  0.00     0.117 C 
BRANCH  13  14
HETATM   14  C19 UNL     1      -4.045  23.370   8.257  1.00  0.00     0.043 C 
HETATM   15  C20 UNL     1      -5.312  24.192   8.413  1.00  0.00     0.071 C 
BRANCH  14  16
HETATM   16  N2  UNL     1      -3.112  24.050   7.385  1.00  0.00    -0.328 N 
HETATM   17  C18 UNL     1      -1.776  24.251   7.714  1.00  0.00     0.226 C 
HETATM   18  O5  UNL     1      -1.365  23.805   8.843  1.00  0.00    -0.273 OA
ATOM     19  H2  UNL     1      -3.450  24.398   6.488  1.00  0.00     0.168 HD
BRANCH  17  20
HETATM   20  C10 UNL     1      -0.810  24.932   6.870  1.00  0.00     0.082 C 
BRANCH  20  21
HETATM   21  C9  UNL     1      -1.236  26.208   6.222  1.00  0.00     0.067 C 
BRANCH  21  22
HETATM   22  C8  UNL     1      -1.382  27.340   7.219  1.00  0.00     0.214 C 
BRANCH  22  23
HETATM   23  N1  UNL     1      -2.663  27.885   7.306  1.00  0.00    -0.385 N 
ATOM     24  H1  UNL     1      -3.478  27.390   6.943  1.00  0.00     0.156 HD
BRANCH  23  25
HETATM   25  C5  UNL     1      -2.785  29.182   7.931  1.00  0.00     0.159 C 
BRANCH  25  26
HETATM   26  C4  UNL     1      -3.470  30.188   7.128  1.00  0.00     0.153 C 
HETATM   27  O1  UNL     1      -4.652  30.445   7.352  1.00  0.00    -0.295 OA
BRANCH  26  28
HETATM   28  C2  UNL     1      -2.911  30.996   6.018  1.00  0.00     0.049 C 
HETATM   29  C1  UNL     1      -3.791  32.031   5.415  1.00  0.00     0.017 C 
HETATM   30  C3  UNL     1      -1.612  31.696   6.481  1.00  0.00     0.017 C 
ENDBRANCH  26  28
ENDBRANCH  25  26
BRANCH  25  31
HETATM   31  C6  UNL     1      -3.374  28.991   9.335  1.00  0.00     0.145 C 
BRANCH  31  32
HETATM   32  C7  UNL     1      -4.160  27.770   9.458  1.00  0.00     0.174 C 
HETATM   33  O2  UNL     1      -3.590  26.786  10.050  1.00  0.00    -0.648 OA
HETATM   34  O3  UNL     1      -5.435  27.526   9.024  1.00  0.00    -0.648 OA
ENDBRANCH  31  32
ENDBRANCH  25  31
ENDBRANCH  23  25
ENDBRANCH  22  23
BRANCH  22  35
HETATM   35  O4  UNL     1      -0.467  28.335   6.705  1.00  0.00    -0.377 OA
ATOM     36  H4  UNL     1      -0.130  28.859   7.423  1.00  0.00     0.212 HD
ENDBRANCH  22  35
ENDBRANCH  21  22
ENDBRANCH  20  21
BRANCH  20  37
HETATM   37  C11 UNL     1      -0.071  23.975   5.949  1.00  0.00     0.018 C 
BRANCH  37  38
HETATM   38  C12 UNL     1       1.145  23.369   6.631  1.00  0.00    -0.014 C 
HETATM   39  C13 UNL     1       0.853  21.948   7.070  1.00  0.00     0.005 C 
HETATM   40  C14 UNL     1       2.158  21.213   7.344  1.00  0.00     0.000 C 
HETATM   41  C15 UNL     1       3.299  22.166   7.565  1.00  0.00     0.000 C 
HETATM   42  C16 UNL     1       3.552  23.038   6.366  1.00  0.00     0.000 C 
HETATM   43  C17 UNL     1       2.279  23.266   5.622  1.00  0.00     0.005 C 
ENDBRANCH  37  38
ENDBRANCH  20  37
ENDBRANCH  17  20
ENDBRANCH  14  16
ENDBRANCH  13  14
BRANCH  13  44
HETATM   44  O6  UNL     1      -2.941  21.257   8.059  1.00  0.00    -0.357 OA
ATOM     45  H6  UNL     1      -2.473  21.483   7.264  1.00  0.00     0.218 HD
ENDBRANCH  13  44
BRANCH  12  46
HETATM   46  C30 UNL     1      -5.981  20.146   7.754  1.00  0.00     0.156 C 
HETATM   47  F1  UNL     1      -5.252  19.712   6.714  1.00  0.00    -0.205 F 
BRANCH  46  48
HETATM   48  C31 UNL     1      -7.375  20.483   7.403  1.00  0.00     0.106 C 
HETATM   49  C32 UNL     1      -8.341  19.331   7.663  1.00  0.00     0.053 C 
HETATM   50  C33 UNL     1      -7.951  21.775   7.801  1.00  0.00     0.053 C 
BRANCH  48  51
HETATM   51  O8  UNL     1      -7.352  20.522   5.948  1.00  0.00    -0.383 OA
ATOM     52  H8  UNL     1      -8.203  20.883   5.727  1.00  0.00     0.211 HD
ENDBRANCH  48  51
ENDBRANCH  46  48
ENDBRANCH  12  46
ENDBRANCH  10  12
ENDBRANCH   1  10
TORSDOF 20
ENDMDL
MODEL 2
REMARK VINA RESULT: -7.119146399      1.311      2.206
REMARK  20 active torsions:
REMARK  status: ('A' for Active; 'I' for Inactive)
REMARK    1  A    between atoms: C2_2  and  C4_4 
REMARK    2  A    between atoms: C4_4  and  C5_6 
REMARK    3  A    between atoms: C5_6  and  C6_7 
REMARK    4  A    between atoms: C5_6  and  N1_11 
REMARK    5  A    between atoms: C6_7  and  C7_8 
REMARK    6  A    between atoms: N1_11  and  C8_13 
REMARK    7  A    between atoms: C8_13  and  O4_14 
REMARK    8  A    between atoms: C8_13  and  C9_16 
REMARK    9  A    between atoms: C9_16  and  C10_17 
REMARK   10  A    between atoms: C10_17  and  C11_18 
REMARK   11  A    between atoms: C10_17  and  C18_25 
REMARK   12  A    between atoms: C11_18  and  C12_19 
REMARK       I    between atoms: C18_25  and  N2_27 
REMARK   13  A    between atoms: N2_27  and  C19_29 
REMARK   14  A    between atoms: C19_29  and  C21_31 
REMARK   15  A    between atoms: C21_31  and  O6_32 
REMARK   16  A    between atoms: C22_34  and  N3_35 
REMARK   17  A    between atoms: C22_34  and  C30_46 
REMARK   18  A    between atoms: N3_35  and  C23_37 
REMARK   19  A    between atoms: C30_46  and  C31_48 
REMARK   20  A    between atoms: C31_48  and  O8_51 
ROOT
HETATM    1  C23 UNL     1      -6.525  19.822  10.574  1.00  0.00     0.117 C 
HETATM    2  C24 UNL     1      -5.580  18.813  11.194  1.00  0.00     0.195 C 
HETATM    3  O7  UNL     1      -5.730  18.937  12.593  1.00  0.00    -0.369 OA
HETATM    4  C25 UNL     1      -6.658  19.931  12.854  1.00  0.00     0.237 C 
HETATM    5  C26 UNL     1      -7.412  19.678  14.085  1.00  0.00     0.092 C 
HETATM    6  N4  UNL     1      -8.021  19.466  15.044  1.00  0.00    -0.194 NA
HETATM    7  C27 UNL     1      -7.575  19.853  11.652  1.00  0.00     0.014 C 
HETATM    8  C28 UNL     1      -8.228  18.465  11.762  1.00  0.00     0.020 C 
HETATM    9  C29 UNL     1      -8.586  20.916  11.589  1.00  0.00     0.020 C 
ENDROOT
BRANCH   1  10
HETATM   10  N3  UNL     1      -5.898  20.938  10.151  1.00  0.00    -0.378 N 
ATOM     11  H3  UNL     1      -5.516  21.531  10.888  1.00  0.00     0.160 HD
BRANCH  10  12
HETATM   12  C22 UNL     1      -5.700  21.393   8.858  1.00  0.00     0.102 C 
HETATM   13  C21 UNL     1      -4.561  22.023   8.252  1.00  0.00     0.117 C 
BRANCH  13  14
HETATM   14  C19 UNL     1      -4.258  23.466   8.292  1.00  0.00     0.043 C 
HETATM   15  C20 UNL     1      -5.441  24.414   8.368  1.00  0.00     0.071 C 
BRANCH  14  16
HETATM   16  N2  UNL     1      -3.258  23.985   7.384  1.00  0.00    -0.328 N 
HETATM   17  C18 UNL     1      -2.009  24.428   7.804  1.00  0.00     0.226 C 
HETATM   18  O5  UNL     1      -1.743  24.365   9.056  1.00  0.00    -0.273 OA
ATOM     19  H2  UNL     1      -3.480  24.027   6.389  1.00  0.00     0.168 HD
BRANCH  17  20
HETATM   20  C10 UNL     1      -0.981  24.959   6.926  1.00  0.00     0.082 C 
BRANCH  20  21
HETATM   21  C9  UNL     1      -1.295  26.209   6.172  1.00  0.00     0.067 C 
BRANCH  21  22
HETATM   22  C8  UNL     1      -1.429  27.413   7.082  1.00  0.00     0.214 C 
BRANCH  22  23
HETATM   23  N1  UNL     1      -2.564  28.193   6.862  1.00  0.00    -0.385 N 
ATOM     24  H1  UNL     1      -2.858  28.452   5.921  1.00  0.00     0.156 HD
BRANCH  23  25
HETATM   25  C5  UNL     1      -3.307  28.617   8.028  1.00  0.00     0.159 C 
BRANCH  25  26
HETATM   26  C4  UNL     1      -2.505  29.243   9.071  1.00  0.00     0.153 C 
HETATM   27  O1  UNL     1      -1.626  30.047   8.764  1.00  0.00    -0.295 OA
BRANCH  26  28
HETATM   28  C2  UNL     1      -2.606  29.042  10.536  1.00  0.00     0.049 C 
HETATM   29  C1  UNL     1      -1.455  29.480  11.368  1.00  0.00     0.017 C 
HETATM   30  C3  UNL     1      -3.871  29.749  11.077  1.00  0.00     0.017 C 
ENDBRANCH  26  28
ENDBRANCH  25  26
BRANCH  25  31
HETATM   31  C6  UNL     1      -4.502  29.458   7.562  1.00  0.00     0.145 C 
BRANCH  31  32
HETATM   32  C7  UNL     1      -4.118  30.794   7.126  1.00  0.00     0.174 C 
HETATM   33  O2  UNL     1      -3.520  30.872   5.995  1.00  0.00    -0.648 OA
HETATM   34  O3  UNL     1      -4.310  31.990   7.763  1.00  0.00    -0.648 OA
ENDBRANCH  31  32
ENDBRANCH  25  31
ENDBRANCH  23  25
ENDBRANCH  22  23
BRANCH  22  35
HETATM   35  O4  UNL     1      -0.245  28.183   6.764  1.00  0.00    -0.377 OA
ATOM     36  H4  UNL     1       0.088  28.595   7.553  1.00  0.00     0.212 HD
ENDBRANCH  22  35
ENDBRANCH  21  22
ENDBRANCH  20  21
BRANCH  20  37
HETATM   37  C11 UNL     1      -0.312  23.876   6.097  1.00  0.00     0.018 C 
BRANCH  37  38
HETATM   38  C12 UNL     1       0.898  23.294   6.810  1.00  0.00    -0.014 C 
HETATM   39  C13 UNL     1       0.591  21.902   7.325  1.00  0.00     0.005 C 
HETATM   40  C14 UNL     1       1.888  21.169   7.637  1.00  0.00     0.000 C 
HETATM   41  C15 UNL     1       3.041  22.119   7.806  1.00  0.00     0.000 C 
HETATM   42  C16 UNL     1       3.301  22.923   6.560  1.00  0.00     0.000 C 
HETATM   43  C17 UNL     1       2.029  23.125   5.807  1.00  0.00     0.005 C 
ENDBRANCH  37  38
ENDBRANCH  20  37
ENDBRANCH  17  20
ENDBRANCH  14  16
ENDBRANCH  13  14
BRANCH  13  44
HETATM   44  O6  UNL     1      -3.362  21.247   8.310  1.00  0.00    -0.357 OA
ATOM     45  H6  UNL     1      -2.595  21.806   8.273  1.00  0.00     0.218 HD
ENDBRANCH  13  44
BRANCH  12  46
HETATM   46  C30 UNL     1      -6.485  20.412   7.964  1.00  0.00     0.156 C 
HETATM   47  F1  UNL     1      -5.783  19.876   6.952  1.00  0.00    -0.205 F 
BRANCH  46  48
HETATM   48  C31 UNL     1      -7.853  20.818   7.587  1.00  0.00     0.106 C 
HETATM   49  C32 UNL     1      -8.874  19.704   7.794  1.00  0.00     0.053 C 
HETATM   50  C33 UNL     1      -8.383  22.124   8.002  1.00  0.00     0.053 C 
BRANCH  48  51
HETATM   51  O8  UNL     1      -7.792  20.891   6.134  1.00  0.00    -0.383 OA
ATOM     52  H8  UNL     1      -8.705  20.966   5.881  1.00  0.00     0.211 HD
ENDBRANCH  48  51
ENDBRANCH  46  48
ENDBRANCH  12  46
ENDBRANCH  10  12
ENDBRANCH   1  10
TORSDOF 20
ENDMDL
MODEL 3
REMARK VINA RESULT: -6.984421422     12.166     18.596
REMARK  20 active torsions:
REMARK  status: ('A' for Active; 'I' for Inactive)
REMARK    1  A    between atoms: C2_2  and  C4_4 
REMARK    2  A    between atoms: C4_4  and  C5_6 
REMARK    3  A    between atoms: C5_6  and  C6_7 
REMARK    4  A    between atoms: C5_6  and  N1_11 
REMARK    5  A    between atoms: C6_7  and  C7_8 
REMARK    6  A    between atoms: N1_11  and  C8_13 
REMARK    7  A    between atoms: C8_13  and  O4_14 
REMARK    8  A    between atoms: C8_13  and  C9_16 
REMARK    9  A    between atoms: C9_16  and  C10_17 
REMARK   10  A    between atoms: C10_17  and  C11_18 
REMARK   11  A    between atoms: C10_17  and  C18_25 
REMARK   12  A    between atoms: C11_18  and  C12_19 
REMARK       I    between atoms: C18_25  and  N2_27 
REMARK   13  A    between atoms: N2_27  and  C19_29 
REMARK   14  A    between atoms: C19_29  and  C21_31 
REMARK   15  A    between atoms: C21_31  and  O6_32 
REMARK   16  A    between atoms: C22_34  and  N3_35 
REMARK   17  A    between atoms: C22_34  and  C30_46 
REMARK   18  A    between atoms: N3_35  and  C23_37 
REMARK   19  A    between atoms: C30_46  and  C31_48 
REMARK   20  A    between atoms: C31_48  and  O8_51 
ROOT
HETATM    1  C23 UNL     1      12.529  30.775   0.445  1.00  0.00     0.117 C 
HETATM    2  C24 UNL     1      11.579  31.342  -0.590  1.00  0.00     0.195 C 
HETATM    3  O7  UNL     1      12.122  32.583  -0.987  1.00  0.00    -0.369 OA
HETATM    4  C25 UNL     1      13.288  32.807  -0.275  1.00  0.00     0.237 C 
HETATM    5  C26 UNL     1      14.265  33.589  -1.038  1.00  0.00     0.092 C 
HETATM    6  N4  UNL     1      15.043  34.186  -1.649  1.00  0.00    -0.194 NA
HETATM    7  C27 UNL     1      13.808  31.406  -0.038  1.00  0.00     0.014 C 
HETATM    8  C28 UNL     1      14.131  30.878  -1.446  1.00  0.00     0.020 C 
HETATM    9  C29 UNL     1      14.981  31.332   0.842  1.00  0.00     0.020 C 
ENDROOT
BRANCH   1  10
HETATM   10  N3  UNL     1      12.085  30.932   1.708  1.00  0.00    -0.378 N 
ATOM     11  H3  UNL     1      12.726  30.625   2.440  1.00  0.00     0.160 HD
BRANCH  10  12
HETATM   12  C22 UNL     1      10.880  31.451   2.153  1.00  0.00     0.102 C 
HETATM   13  C21 UNL     1       9.724  30.798   2.699  1.00  0.00     0.117 C 
BRANCH  13  14
HETATM   14  C19 UNL     1       8.626  30.202   1.915  1.00  0.00     0.043 C 
HETATM   15  C20 UNL     1       7.211  30.534   2.353  1.00  0.00     0.071 C 
BRANCH  14  16
HETATM   16  N2  UNL     1       8.721  28.806   1.546  1.00  0.00    -0.328 N 
HETATM   17  C18 UNL     1       8.716  28.369   0.226  1.00  0.00     0.226 C 
HETATM   18  O5  UNL     1       8.626  29.254  -0.697  1.00  0.00    -0.273 OA
ATOM     19  H2  UNL     1       8.795  28.111   2.288  1.00  0.00     0.168 HD
BRANCH  17  20
HETATM   20  C10 UNL     1       8.805  26.979  -0.185  1.00  0.00     0.082 C 
BRANCH  20  21
HETATM   21  C9  UNL     1       9.495  26.028   0.737  1.00  0.00     0.067 C 
BRANCH  21  22
HETATM   22  C8  UNL     1       8.607  24.868   1.139  1.00  0.00     0.214 C 
BRANCH  22  23
HETATM   23  N1  UNL     1       8.629  24.556   2.498  1.00  0.00    -0.385 N 
ATOM     24  H1  UNL     1       9.415  24.061   2.918  1.00  0.00     0.156 HD
BRANCH  23  25
HETATM   25  C5  UNL     1       7.487  24.963   3.285  1.00  0.00     0.159 C 
BRANCH  25  26
HETATM   26  C4  UNL     1       7.057  23.997   4.289  1.00  0.00     0.153 C 
HETATM   27  O1  UNL     1       7.677  22.943   4.424  1.00  0.00    -0.295 OA
BRANCH  26  28
HETATM   28  C2  UNL     1       5.916  24.112   5.228  1.00  0.00     0.049 C 
HETATM   29  C1  UNL     1       4.567  24.320   4.642  1.00  0.00     0.017 C 
HETATM   30  C3  UNL     1       5.848  22.855   6.128  1.00  0.00     0.017 C 
ENDBRANCH  26  28
ENDBRANCH  25  26
BRANCH  25  31
HETATM   31  C6  UNL     1       7.756  26.368   3.839  1.00  0.00     0.145 C 
BRANCH  31  32
HETATM   32  C7  UNL     1       9.100  26.515   4.383  1.00  0.00     0.174 C 
HETATM   33  O2  UNL     1       9.334  27.595   5.032  1.00  0.00    -0.648 OA
HETATM   34  O3  UNL     1      10.157  25.650   4.295  1.00  0.00    -0.648 OA
ENDBRANCH  31  32
ENDBRANCH  25  31
ENDBRANCH  23  25
ENDBRANCH  22  23
BRANCH  22  35
HETATM   35  O4  UNL     1       9.162  23.768   0.381  1.00  0.00    -0.377 OA
ATOM     36  H4  UNL     1       8.719  23.705  -0.458  1.00  0.00     0.212 HD
ENDBRANCH  22  35
ENDBRANCH  21  22
ENDBRANCH  20  21
BRANCH  20  37
HETATM   37  C11 UNL     1       9.194  26.831  -1.646  1.00  0.00     0.018 C 
BRANCH  37  38
HETATM   38  C12 UNL     1      10.695  26.652  -1.810  1.00  0.00    -0.014 C 
HETATM   39  C13 UNL     1      10.994  25.424  -2.646  1.00  0.00     0.005 C 
HETATM   40  C14 UNL     1      12.423  25.488  -3.166  1.00  0.00     0.000 C 
HETATM   41  C15 UNL     1      13.265  26.444  -2.369  1.00  0.00     0.000 C 
HETATM   42  C16 UNL     1      12.734  27.851  -2.425  1.00  0.00     0.000 C 
HETATM   43  C17 UNL     1      11.252  27.832  -2.593  1.00  0.00     0.005 C 
ENDBRANCH  37  38
ENDBRANCH  20  37
ENDBRANCH  17  20
ENDBRANCH  14  16
ENDBRANCH  13  14
BRANCH  13  44
HETATM   44  O6  UNL     1       9.986  30.030   3.876  1.00  0.00    -0.357 OA
ATOM     45  H6  UNL     1      10.873  29.691   3.870  1.00  0.00     0.218 HD
ENDBRANCH  13  44
BRANCH  12  46
HETATM   46  C30 UNL     1      11.237  32.819   2.770  1.00  0.00     0.156 C 
HETATM   47  F1  UNL     1      11.766  32.769   4.003  1.00  0.00    -0.205 F 
BRANCH  46  48
HETATM   48  C31 UNL     1      10.243  33.897   2.595  1.00  0.00     0.106 C 
HETATM   49  C32 UNL     1       9.662  33.936   1.185  1.00  0.00     0.053 C 
HETATM   50  C33 UNL     1       9.210  34.129   3.615  1.00  0.00     0.053 C 
BRANCH  48  51
HETATM   51  O8  UNL     1      11.054  35.105   2.611  1.00  0.00    -0.383 OA
ATOM     52  H8  UNL     1      11.248  35.225   3.533  1.00  0.00     0.211 HD
ENDBRANCH  48  51
ENDBRANCH  46  48
ENDBRANCH  12  46
ENDBRANCH  10  12
ENDBRANCH   1  10
TORSDOF 20
ENDMDL
MODEL 4
REMARK VINA RESULT: -6.941078593      9.939     13.874
REMARK  20 active torsions:
REMARK  status: ('A' for Active; 'I' for Inactive)
REMARK    1  A    between atoms: C2_2  and  C4_4 
REMARK    2  A    between atoms: C4_4  and  C5_6 
REMARK    3  A    between atoms: C5_6  and  C6_7 
REMARK    4  A    between atoms: C5_6  and  N1_11 
REMARK    5  A    between atoms: C6_7  and  C7_8 
REMARK    6  A    between atoms: N1_11  and  C8_13 
REMARK    7  A    between atoms: C8_13  and  O4_14 
REMARK    8  A    between atoms: C8_13  and  C9_16 
REMARK    9  A    between atoms: C9_16  and  C10_17 
REMARK   10  A    between atoms: C10_17  and  C11_18 
REMARK   11  A    between atoms: C10_17  and  C18_25 
REMARK   12  A    between atoms: C11_18  and  C12_19 
REMARK       I    between atoms: C18_25  and  N2_27 
REMARK   13  A    between atoms: N2_27  and  C19_29 
REMARK   14  A    between atoms: C19_29  and  C21_31 
REMARK   15  A    between atoms: C21_31  and  O6_32 
REMARK   16  A    between atoms: C22_34  and  N3_35 
REMARK   17  A    between atoms: C22_34  and  C30_46 
REMARK   18  A    between atoms: N3_35  and  C23_37 
REMARK   19  A    between atoms: C30_46  and  C31_48 
REMARK   20  A    between atoms: C31_48  and  O8_51 
ROOT
HETATM    1  C23 UNL     1       8.611  27.223   3.750  1.00  0.00     0.117 C 
HETATM    2  C24 UNL     1       8.565  27.271   5.263  1.00  0.00     0.195 C 
HETATM    3  O7  UNL     1       7.634  26.287   5.662  1.00  0.00    -0.369 OA
HETATM    4  C25 UNL     1       7.117  25.679   4.531  1.00  0.00     0.237 C 
HETATM    5  C26 UNL     1       6.762  24.277   4.767  1.00  0.00     0.092 C 
HETATM    6  N4  UNL     1       6.504  23.165   4.948  1.00  0.00    -0.194 NA
HETATM    7  C27 UNL     1       8.266  25.771   3.550  1.00  0.00     0.014 C 
HETATM    8  C28 UNL     1       9.369  24.899   4.174  1.00  0.00     0.020 C 
HETATM    9  C29 UNL     1       7.941  25.328   2.189  1.00  0.00     0.020 C 
ENDROOT
BRANCH   1  10
HETATM   10  N3  UNL     1       7.904  28.214   3.171  1.00  0.00    -0.378 N 
ATOM     11  H3  UNL     1       6.910  28.024   3.040  1.00  0.00     0.160 HD
BRANCH  10  12
HETATM   12  C22 UNL     1       8.337  29.452   2.727  1.00  0.00     0.102 C 
HETATM   13  C21 UNL     1       8.851  30.579   3.453  1.00  0.00     0.117 C 
BRANCH  13  14
HETATM   14  C19 UNL     1       8.038  31.629   4.094  1.00  0.00     0.043 C 
HETATM   15  C20 UNL     1       8.150  33.030   3.520  1.00  0.00     0.071 C 
BRANCH  14  16
HETATM   16  N2  UNL     1       7.997  31.683   5.539  1.00  0.00    -0.328 N 
HETATM   17  C18 UNL     1       7.281  30.775   6.311  1.00  0.00     0.226 C 
HETATM   18  O5  UNL     1       6.635  29.851   5.702  1.00  0.00    -0.273 OA
ATOM     19  H2  UNL     1       8.517  32.420   6.014  1.00  0.00     0.168 HD
BRANCH  17  20
HETATM   20  C10 UNL     1       7.211  30.797   7.762  1.00  0.00     0.082 C 
BRANCH  20  21
HETATM   21  C9  UNL     1       6.272  31.772   8.394  1.00  0.00     0.067 C 
BRANCH  21  22
HETATM   22  C8  UNL     1       4.820  31.397   8.177  1.00  0.00     0.214 C 
BRANCH  22  23
HETATM   23  N1  UNL     1       3.932  31.918   9.118  1.00  0.00    -0.385 N 
ATOM     24  H1  UNL     1       3.741  32.918   9.173  1.00  0.00     0.156 HD
BRANCH  23  25
HETATM   25  C5  UNL     1       3.296  30.978  10.013  1.00  0.00     0.159 C 
BRANCH  25  26
HETATM   26  C4  UNL     1       3.829  30.966  11.370  1.00  0.00     0.153 C 
HETATM   27  O1  UNL     1       3.123  31.342  12.305  1.00  0.00    -0.295 OA
BRANCH  26  28
HETATM   28  C2  UNL     1       5.177  30.535  11.811  1.00  0.00     0.049 C 
HETATM   29  C1  UNL     1       6.106  31.587  12.296  1.00  0.00     0.017 C 
HETATM   30  C3  UNL     1       5.049  29.470  12.926  1.00  0.00     0.017 C 
ENDBRANCH  26  28
ENDBRANCH  25  26
BRANCH  25  31
HETATM   31  C6  UNL     1       1.778  31.186   9.935  1.00  0.00     0.145 C 
BRANCH  31  32
HETATM   32  C7  UNL     1       1.226  30.852   8.629  1.00  0.00     0.174 C 
HETATM   33  O2  UNL     1       1.184  31.803   7.770  1.00  0.00    -0.648 OA
HETATM   34  O3  UNL     1       0.742  29.650   8.186  1.00  0.00    -0.648 OA
ENDBRANCH  31  32
ENDBRANCH  25  31
ENDBRANCH  23  25
ENDBRANCH  22  23
BRANCH  22  35
HETATM   35  O4  UNL     1       4.846  29.955   8.283  1.00  0.00    -0.377 OA
ATOM     36  H4  UNL     1       5.544  29.608   7.738  1.00  0.00     0.212 HD
ENDBRANCH  22  35
ENDBRANCH  21  22
ENDBRANCH  20  21
BRANCH  20  37
HETATM   37  C11 UNL     1       8.584  30.736   8.409  1.00  0.00     0.018 C 
BRANCH  37  38
HETATM   38  C12 UNL     1       8.520  30.136   9.803  1.00  0.00    -0.014 C 
HETATM   39  C13 UNL     1       7.787  28.810   9.777  1.00  0.00     0.005 C 
HETATM   40  C14 UNL     1       8.096  28.023  11.043  1.00  0.00     0.000 C 
HETATM   41  C15 UNL     1       8.621  28.909  12.138  1.00  0.00     0.000 C 
HETATM   42  C16 UNL     1       9.901  29.597  11.747  1.00  0.00     0.000 C 
HETATM   43  C17 UNL     1       9.932  29.820  10.272  1.00  0.00     0.005 C 
ENDBRANCH  37  38
ENDBRANCH  20  37
ENDBRANCH  17  20
ENDBRANCH  14  16
ENDBRANCH  13  14
BRANCH  13  44
HETATM   44  O6  UNL     1      10.019  30.295   4.226  1.00  0.00    -0.357 OA
ATOM     45  H6  UNL     1      10.452  29.510   3.911  1.00  0.00     0.218 HD
ENDBRANCH  13  44
BRANCH  12  46
HETATM   46  C30 UNL     1       8.983  29.183   1.353  1.00  0.00     0.156 C 
HETATM   47  F1  UNL     1      10.179  29.760   1.161  1.00  0.00    -0.205 F 
BRANCH  46  48
HETATM   48  C31 UNL     1       8.090  29.267   0.180  1.00  0.00     0.106 C 
HETATM   49  C32 UNL     1       7.327  30.586   0.116  1.00  0.00     0.053 C 
HETATM   50  C33 UNL     1       8.562  28.848  -1.147  1.00  0.00     0.053 C 
BRANCH  48  51
HETATM   51  O8  UNL     1       7.025  28.329   0.504  1.00  0.00    -0.383 OA
ATOM     52  H8  UNL     1       7.291  27.534   0.056  1.00  0.00     0.211 HD
ENDBRANCH  48  51
ENDBRANCH  46  48
ENDBRANCH  12  46
ENDBRANCH  10  12
ENDBRANCH   1  10
TORSDOF 20
ENDMDL
MODEL 5
REMARK VINA RESULT: -6.725488797     11.759     14.905
REMARK  20 active torsions:
REMARK  status: ('A' for Active; 'I' for Inactive)
REMARK    1  A    between atoms: C2_2  and  C4_4 
REMARK    2  A    between atoms: C4_4  and  C5_6 
REMARK    3  A    between atoms: C5_6  and  C6_7 
REMARK    4  A    between atoms: C5_6  and  N1_11 
REMARK    5  A    between atoms: C6_7  and  C7_8 
REMARK    6  A    between atoms: N1_11  and  C8_13 
REMARK    7  A    between atoms: C8_13  and  O4_14 
REMARK    8  A    between atoms: C8_13  and  C9_16 
REMARK    9  A    between atoms: C9_16  and  C10_17 
REMARK   10  A    between atoms: C10_17  and  C11_18 
REMARK   11  A    between atoms: C10_17  and  C18_25 
REMARK   12  A    between atoms: C11_18  and  C12_19 
REMARK       I    between atoms: C18_25  and  N2_27 
REMARK   13  A    between atoms: N2_27  and  C19_29 
REMARK   14  A    between atoms: C19_29  and  C21_31 
REMARK   15  A    between atoms: C21_31  and  O6_32 
REMARK   16  A    between atoms: C22_34  and  N3_35 
REMARK   17  A    between atoms: C22_34  and  C30_46 
REMARK   18  A    between atoms: N3_35  and  C23_37 
REMARK   19  A    between atoms: C30_46  and  C31_48 
REMARK   20  A    between atoms: C31_48  and  O8_51 
ROOT
HETATM    1  C23 UNL     1       8.711  27.294   3.557  1.00  0.00     0.117 C 
HETATM    2  C24 UNL     1       8.762  27.340   5.070  1.00  0.00     0.195 C 
HETATM    3  O7  UNL     1       7.851  26.362   5.527  1.00  0.00    -0.369 OA
HETATM    4  C25 UNL     1       7.258  25.760   4.430  1.00  0.00     0.237 C 
HETATM    5  C26 UNL     1       6.909  24.360   4.686  1.00  0.00     0.092 C 
HETATM    6  N4  UNL     1       6.654  23.250   4.882  1.00  0.00    -0.194 NA
HETATM    7  C27 UNL     1       8.343  25.846   3.378  1.00  0.00     0.014 C 
HETATM    8  C28 UNL     1       9.477  24.965   3.929  1.00  0.00     0.020 C 
HETATM    9  C29 UNL     1       7.928  25.407   2.039  1.00  0.00     0.020 C 
ENDROOT
BRANCH   1  10
HETATM   10  N3  UNL     1       7.975  28.291   3.026  1.00  0.00    -0.378 N 
ATOM     11  H3  UNL     1       6.988  28.078   2.881  1.00  0.00     0.160 HD
BRANCH  10  12
HETATM   12  C22 UNL     1       8.371  29.564   2.648  1.00  0.00     0.102 C 
HETATM   13  C21 UNL     1       9.001  30.611   3.402  1.00  0.00     0.117 C 
BRANCH  13  14
HETATM   14  C19 UNL     1       8.302  31.600   4.243  1.00  0.00     0.043 C 
HETATM   15  C20 UNL     1       8.590  33.064   3.964  1.00  0.00     0.071 C 
BRANCH  14  16
HETATM   16  N2  UNL     1       8.235  31.367   5.670  1.00  0.00    -0.328 N 
HETATM   17  C18 UNL     1       7.372  30.442   6.247  1.00  0.00     0.226 C 
HETATM   18  O5  UNL     1       6.608  29.770   5.468  1.00  0.00    -0.273 OA
ATOM     19  H2  UNL     1       8.849  31.906   6.280  1.00  0.00     0.168 HD
BRANCH  17  20
HETATM   20  C10 UNL     1       7.272  30.182   7.673  1.00  0.00     0.082 C 
BRANCH  20  21
HETATM   21  C9  UNL     1       8.143  29.111   8.243  1.00  0.00     0.067 C 
BRANCH  21  22
HETATM   22  C8  UNL     1       9.039  29.627   9.351  1.00  0.00     0.214 C 
BRANCH  22  23
HETATM   23  N1  UNL     1       8.410  29.794  10.585  1.00  0.00    -0.385 N 
ATOM     24  H1  UNL     1       8.376  30.703  11.045  1.00  0.00     0.156 HD
BRANCH  23  25
HETATM   25  C5  UNL     1       7.810  28.623  11.182  1.00  0.00     0.159 C 
BRANCH  25  26
HETATM   26  C4  UNL     1       8.713  27.818  11.996  1.00  0.00     0.153 C 
HETATM   27  O1  UNL     1       8.735  26.597  11.855  1.00  0.00    -0.295 OA
BRANCH  26  28
HETATM   28  C2  UNL     1       9.667  28.290  13.027  1.00  0.00     0.049 C 
HETATM   29  C1  UNL     1       9.640  27.608  14.347  1.00  0.00     0.017 C 
HETATM   30  C3  UNL     1      11.113  28.204  12.484  1.00  0.00     0.017 C 
ENDBRANCH  26  28
ENDBRANCH  25  26
BRANCH  25  31
HETATM   31  C6  UNL     1       6.525  29.050  11.903  1.00  0.00     0.145 C 
BRANCH  31  32
HETATM   32  C7  UNL     1       6.576  30.424  12.384  1.00  0.00     0.174 C 
HETATM   33  O2  UNL     1       5.689  31.223  11.916  1.00  0.00    -0.648 OA
HETATM   34  O3  UNL     1       7.448  30.986  13.276  1.00  0.00    -0.648 OA
ENDBRANCH  31  32
ENDBRANCH  25  31
ENDBRANCH  23  25
ENDBRANCH  22  23
BRANCH  22  35
HETATM   35  O4  UNL     1       9.460  30.914   8.844  1.00  0.00    -0.377 OA
ATOM     36  H4  UNL     1       9.378  30.925   7.897  1.00  0.00     0.212 HD
ENDBRANCH  22  35
ENDBRANCH  21  22
ENDBRANCH  20  21
BRANCH  20  37
HETATM   37  C11 UNL     1       5.831  30.143   8.154  1.00  0.00     0.018 C 
BRANCH  37  38
HETATM   38  C12 UNL     1       5.189  31.520   8.111  1.00  0.00    -0.014 C 
HETATM   39  C13 UNL     1       3.886  31.523   8.884  1.00  0.00     0.005 C 
HETATM   40  C14 UNL     1       3.479  32.954   9.207  1.00  0.00     0.000 C 
HETATM   41  C15 UNL     1       4.170  33.946   8.315  1.00  0.00     0.000 C 
HETATM   42  C16 UNL     1       5.667  33.892   8.459  1.00  0.00     0.000 C 
HETATM   43  C17 UNL     1       6.097  32.511   8.826  1.00  0.00     0.005 C 
ENDBRANCH  37  38
ENDBRANCH  20  37
ENDBRANCH  17  20
ENDBRANCH  14  16
ENDBRANCH  13  14
BRANCH  13  44
HETATM   44  O6  UNL     1      10.255  30.244   3.981  1.00  0.00    -0.357 OA
ATOM     45  H6  UNL     1      10.863  30.973   3.965  1.00  0.00     0.218 HD
ENDBRANCH  13  44
BRANCH  12  46
HETATM   46  C30 UNL     1       8.823  29.424   1.180  1.00  0.00     0.156 C 
HETATM   47  F1  UNL     1       9.960  30.065   0.869  1.00  0.00    -0.205 F 
BRANCH  46  48
HETATM   48  C31 UNL     1       7.770  29.553   0.154  1.00  0.00     0.106 C 
HETATM   49  C32 UNL     1       6.869  30.762   0.387  1.00  0.00     0.053 C 
HETATM   50  C33 UNL     1       8.092  29.384  -1.270  1.00  0.00     0.053 C 
BRANCH  48  51
HETATM   51  O8  UNL     1       6.867  28.453   0.460  1.00  0.00    -0.383 OA
ATOM     52  H8  UNL     1       6.096  28.654  -0.057  1.00  0.00     0.211 HD
ENDBRANCH  48  51
ENDBRANCH  46  48
ENDBRANCH  12  46
ENDBRANCH  10  12
ENDBRANCH   1  10
TORSDOF 20
ENDMDL
