MODEL 1
REMARK VINA RESULT: -9.178870184      0.000      0.000
REMARK  22 active torsions:
REMARK  status: ('A' for Active; 'I' for Inactive)
REMARK    1  A    between atoms: N1_13  and  C13_14 
REMARK    2  A    between atoms: C13_14  and  C14_15 
REMARK    3  A    between atoms: C14_15  and  C15_16 
REMARK    4  A    between atoms: C15_16  and  C16_17 
REMARK    5  A    between atoms: C16_17  and  C17_18 
REMARK    6  A    between atoms: C17_18  and  C18_19 
REMARK    7  A    between atoms: C18_19  and  N2_20 
REMARK    8  A    between atoms: N2_20  and  C19_22 
REMARK    9  A    between atoms: C19_22  and  C20_23 
REMARK   10  A    between atoms: C20_23  and  C21_24 
REMARK   11  A    between atoms: C21_24  and  N3_25 
REMARK   12  A    between atoms: C24_28  and  N4_29 
REMARK       I    between atoms: N4_29  and  C25_31 
REMARK   13  A    between atoms: C25_31  and  C26_33 
REMARK   14  A    between atoms: C26_33  and  N5_34 
REMARK   15  A    between atoms: C26_33  and  C27_38 
REMARK   16  A    between atoms: C27_38  and  C28_39 
REMARK   17  A    between atoms: C28_39  and  C29_40 
REMARK   18  A    between atoms: C29_40  and  C30_41 
REMARK   19  A    between atoms: C30_41  and  N6_42 
REMARK   20  A    between atoms: C34_50  and  O2_51 
REMARK   21  A    between atoms: C35_53  and  O3_54 
REMARK   22  A    between atoms: C36_56  and  O4_57 
ROOT
HETATM    1  C18 UNL     1       0.216  22.574   6.600  1.00  0.00     0.060 C 
ENDROOT
BRANCH   1   2
HETATM    2  C17 UNL     1       0.197  21.600   7.691  1.00  0.00     0.044 C 
BRANCH   2   3
HETATM    3  C16 UNL     1      -1.072  20.944   8.005  1.00  0.00     0.005 C 
BRANCH   3   4
HETATM    4  C15 UNL     1      -2.317  21.119   7.256  1.00  0.00     0.005 C 
BRANCH   4   5
HETATM    5  C14 UNL     1      -3.535  20.510   7.837  1.00  0.00     0.044 C 
BRANCH   5   6
HETATM    6  C13 UNL     1      -4.561  21.524   8.335  1.00  0.00     0.064 C 
BRANCH   6   7
HETATM    7  N1  UNL     1      -5.850  21.057   8.622  1.00  0.00    -0.360 N 
HETATM    8  C12 UNL     1      -6.216  20.833   9.947  1.00  0.00     0.033 C 
HETATM    9  C2  UNL     1      -7.318  19.862  10.209  1.00  0.00     0.028 C 
HETATM   10  C11 UNL     1      -6.309  21.970  10.878  1.00  0.00    -0.006 A 
HETATM   11  C1  UNL     1      -6.792  18.428  10.348  1.00  0.00     0.025 C 
HETATM   12  C3  UNL     1      -8.202  20.205  11.378  1.00  0.00     0.018 C 
HETATM   13  C36 UNL     1      -8.300  19.764   9.025  1.00  0.00     0.163 C 
HETATM   14  C4  UNL     1      -7.672  19.897  12.732  1.00  0.00     0.006 C 
HETATM   15  C5  UNL     1      -6.374  20.602  13.050  1.00  0.00     0.039 C 
HETATM   16  C6  UNL     1      -6.365  21.895  12.276  1.00  0.00    -0.046 A 
HETATM   17  C7  UNL     1      -6.435  23.007  13.071  1.00  0.00     0.008 A 
HETATM   18  C8  UNL     1      -6.457  24.268  12.534  1.00  0.00     0.001 A 
HETATM   19  C9  UNL     1      -6.404  24.372  11.166  1.00  0.00     0.001 A 
HETATM   20  C10 UNL     1      -6.332  23.226  10.365  1.00  0.00     0.014 A 
HETATM   21  C35 UNL     1      -7.702  19.119   7.822  1.00  0.00     0.178 C 
HETATM   22  C34 UNL     1      -7.348  20.218   6.849  1.00  0.00     0.167 C 
HETATM   23  C33 UNL     1      -6.830  21.377   7.660  1.00  0.00     0.162 C 
BRANCH  13  24
HETATM   24  O4  UNL     1      -9.271  18.834   9.490  1.00  0.00    -0.392 OA
ATOM     25  H4  UNL     1      -9.128  18.079   8.931  1.00  0.00     0.210 HD
ENDBRANCH  13  24
BRANCH  21  26
HETATM   26  O3  UNL     1      -8.605  18.263   7.174  1.00  0.00    -0.390 OA
ATOM     27  H3  UNL     1      -8.471  17.391   7.527  1.00  0.00     0.210 HD
ENDBRANCH  21  26
BRANCH  22  28
HETATM   28  O2  UNL     1      -6.427  19.788   5.903  1.00  0.00    -0.391 OA
ATOM     29  H2  UNL     1      -6.070  20.509   5.399  1.00  0.00     0.210 HD
ENDBRANCH  22  28
ENDBRANCH   6   7
ENDBRANCH   5   6
ENDBRANCH   4   5
ENDBRANCH   3   4
ENDBRANCH   2   3
ENDBRANCH   1   2
BRANCH   1  30
HETATM   30  N2  UNL     1       1.351  22.713   5.788  1.00  0.00    -0.382 N 
ATOM     31  H2  UNL     1       1.205  23.124   4.866  1.00  0.00     0.163 HD
BRANCH  30  32
HETATM   32  C19 UNL     1       2.637  22.354   6.105  1.00  0.00     0.062 C 
BRANCH  32  33
HETATM   33  C20 UNL     1       3.755  23.153   5.497  1.00  0.00     0.074 C 
BRANCH  33  34
HETATM   34  C21 UNL     1       5.099  22.575   5.758  1.00  0.00     0.277 C 
BRANCH  34  35
HETATM   35  N3  UNL     1       6.174  23.572   5.698  1.00  0.00     0.091 N 
HETATM   36  C22 UNL     1       5.734  24.583   4.733  1.00  0.00     0.274 C 
HETATM   37  C23 UNL     1       6.680  25.732   4.598  1.00  0.00     0.058 C 
HETATM   38  C24 UNL     1       8.079  25.181   4.273  1.00  0.00     0.121 C 
HETATM   39  C31 UNL     1       8.463  24.125   5.257  1.00  0.00     0.221 C 
HETATM   40  F1  UNL     1       9.662  23.539   5.018  1.00  0.00    -0.245 F 
HETATM   41  C32 UNL     1       7.411  23.016   5.190  1.00  0.00     0.311 C 
BRANCH  38  42
HETATM   42  N4  UNL     1       8.161  24.810   2.908  1.00  0.00    -0.352 N 
HETATM   43  C25 UNL     1       8.742  25.504   1.838  1.00  0.00     0.248 C 
HETATM   44  O1  UNL     1       9.286  26.617   2.049  1.00  0.00    -0.271 OA
ATOM     45  H4  UNL     1       7.738  23.913   2.670  1.00  0.00     0.163 HD
BRANCH  43  46
HETATM   46  C26 UNL     1       8.759  25.002   0.441  1.00  0.00     0.274 C 
BRANCH  46  47
HETATM   47  N5  UNL     1       9.373  23.683   0.346  1.00  0.00    -0.067 N 
ATOM     48  H53 UNL     1       9.439  23.237   1.261  1.00  0.00     0.275 HD
ATOM     49  H52 UNL     1       8.752  23.016  -0.112  1.00  0.00     0.275 HD
ATOM     50  H51 UNL     1      10.282  23.720  -0.115  1.00  0.00     0.275 HD
ENDBRANCH  46  47
BRANCH  46  51
HETATM   51  C27 UNL     1       9.463  25.936  -0.488  1.00  0.00     0.042 C 
BRANCH  51  52
HETATM   52  C28 UNL     1      10.559  25.319  -1.289  1.00  0.00     0.004 C 
BRANCH  52  53
HETATM   53  C29 UNL     1      10.313  25.444  -2.764  1.00  0.00     0.027 C 
BRANCH  53  54
HETATM   54  C30 UNL     1       9.556  24.235  -3.263  1.00  0.00     0.229 C 
BRANCH  54  55
HETATM   55  N6  UNL     1      10.452  23.060  -3.250  1.00  0.00    -0.079 N 
ATOM     56  H63 UNL     1      10.972  22.960  -4.122  1.00  0.00     0.274 HD
ATOM     57  H62 UNL     1      11.247  23.185  -2.623  1.00  0.00     0.274 HD
ATOM     58  H61 UNL     1       9.910  22.226  -3.025  1.00  0.00     0.274 HD
ENDBRANCH  54  55
ENDBRANCH  53  54
ENDBRANCH  52  53
ENDBRANCH  51  52
ENDBRANCH  46  51
ENDBRANCH  43  46
ENDBRANCH  38  42
ENDBRANCH  34  35
ENDBRANCH  33  34
ENDBRANCH  32  33
ENDBRANCH  30  32
ENDBRANCH   1  30
TORSDOF 22
ENDMDL
MODEL 2
REMARK VINA RESULT: -8.960680873      0.994      1.645
REMARK  22 active torsions:
REMARK  status: ('A' for Active; 'I' for Inactive)
REMARK    1  A    between atoms: N1_13  and  C13_14 
REMARK    2  A    between atoms: C13_14  and  C14_15 
REMARK    3  A    between atoms: C14_15  and  C15_16 
REMARK    4  A    between atoms: C15_16  and  C16_17 
REMARK    5  A    between atoms: C16_17  and  C17_18 
REMARK    6  A    between atoms: C17_18  and  C18_19 
REMARK    7  A    between atoms: C18_19  and  N2_20 
REMARK    8  A    between atoms: N2_20  and  C19_22 
REMARK    9  A    between atoms: C19_22  and  C20_23 
REMARK   10  A    between atoms: C20_23  and  C21_24 
REMARK   11  A    between atoms: C21_24  and  N3_25 
REMARK   12  A    between atoms: C24_28  and  N4_29 
REMARK       I    between atoms: N4_29  and  C25_31 
REMARK   13  A    between atoms: C25_31  and  C26_33 
REMARK   14  A    between atoms: C26_33  and  N5_34 
REMARK   15  A    between atoms: C26_33  and  C27_38 
REMARK   16  A    between atoms: C27_38  and  C28_39 
REMARK   17  A    between atoms: C28_39  and  C29_40 
REMARK   18  A    between atoms: C29_40  and  C30_41 
REMARK   19  A    between atoms: C30_41  and  N6_42 
REMARK   20  A    between atoms: C34_50  and  O2_51 
REMARK   21  A    between atoms: C35_53  and  O3_54 
REMARK   22  A    between atoms: C36_56  and  O4_57 
ROOT
HETATM    1  C18 UNL     1       0.681  22.642   6.796  1.00  0.00     0.060 C 
ENDROOT
BRANCH   1   2
HETATM    2  C17 UNL     1       0.127  21.725   7.791  1.00  0.00     0.044 C 
BRANCH   2   3
HETATM    3  C16 UNL     1      -0.994  20.874   7.392  1.00  0.00     0.005 C 
BRANCH   3   4
HETATM    4  C15 UNL     1      -2.338  21.353   7.064  1.00  0.00     0.005 C 
BRANCH   4   5
HETATM    5  C14 UNL     1      -3.470  20.680   7.743  1.00  0.00     0.044 C 
BRANCH   5   6
HETATM    6  C13 UNL     1      -4.496  21.639   8.339  1.00  0.00     0.064 C 
BRANCH   6   7
HETATM    7  N1  UNL     1      -5.769  21.131   8.626  1.00  0.00    -0.360 N 
HETATM    8  C12 UNL     1      -6.130  20.903   9.952  1.00  0.00     0.033 C 
HETATM    9  C2  UNL     1      -7.200  19.897  10.218  1.00  0.00     0.028 C 
HETATM   10  C11 UNL     1      -6.263  22.041  10.876  1.00  0.00    -0.006 A 
HETATM   11  C1  UNL     1      -6.626  18.482  10.366  1.00  0.00     0.025 C 
HETATM   12  C3  UNL     1      -8.096  20.217  11.384  1.00  0.00     0.018 C 
HETATM   13  C36 UNL     1      -8.176  19.760   9.033  1.00  0.00     0.163 C 
HETATM   14  C4  UNL     1      -7.559  19.934  12.740  1.00  0.00     0.006 C 
HETATM   15  C5  UNL     1      -6.286  20.683  13.056  1.00  0.00     0.039 C 
HETATM   16  C6  UNL     1      -6.319  21.972  12.275  1.00  0.00    -0.046 A 
HETATM   17  C7  UNL     1      -6.427  23.086  13.064  1.00  0.00     0.008 A 
HETATM   18  C8  UNL     1      -6.489  24.342  12.520  1.00  0.00     0.001 A 
HETATM   19  C9  UNL     1      -6.438  24.440  11.151  1.00  0.00     0.001 A 
HETATM   20  C10 UNL     1      -6.326  23.293  10.356  1.00  0.00     0.014 A 
HETATM   21  C35 UNL     1      -7.555  19.129   7.834  1.00  0.00     0.178 C 
HETATM   22  C34 UNL     1      -7.236  20.233   6.855  1.00  0.00     0.167 C 
HETATM   23  C33 UNL     1      -6.758  21.413   7.661  1.00  0.00     0.162 C 
BRANCH  13  24
HETATM   24  O4  UNL     1      -9.116  18.801   9.501  1.00  0.00    -0.392 OA
ATOM     25  H4  UNL     1      -9.780  18.802   8.822  1.00  0.00     0.210 HD
ENDBRANCH  13  24
BRANCH  21  26
HETATM   26  O3  UNL     1      -8.428  18.239   7.189  1.00  0.00    -0.390 OA
ATOM     27  H3  UNL     1      -9.282  18.337   7.594  1.00  0.00     0.210 HD
ENDBRANCH  21  26
BRANCH  22  28
HETATM   28  O2  UNL     1      -6.300  19.828   5.914  1.00  0.00    -0.391 OA
ATOM     29  H2  UNL     1      -5.954  18.964   6.101  1.00  0.00     0.210 HD
ENDBRANCH  22  28
ENDBRANCH   6   7
ENDBRANCH   5   6
ENDBRANCH   4   5
ENDBRANCH   3   4
ENDBRANCH   2   3
ENDBRANCH   1   2
BRANCH   1  30
HETATM   30  N2  UNL     1       1.855  22.315   6.103  1.00  0.00    -0.382 N 
ATOM     31  H2  UNL     1       1.942  22.681   5.154  1.00  0.00     0.163 HD
BRANCH  30  32
HETATM   32  C19 UNL     1       2.899  21.554   6.567  1.00  0.00     0.062 C 
BRANCH  32  33
HETATM   33  C20 UNL     1       4.257  22.196   6.629  1.00  0.00     0.074 C 
BRANCH  33  34
HETATM   34  C21 UNL     1       4.551  23.061   5.458  1.00  0.00     0.277 C 
BRANCH  34  35
HETATM   35  N3  UNL     1       5.812  23.801   5.593  1.00  0.00     0.091 N 
HETATM   36  C22 UNL     1       5.690  24.970   4.717  1.00  0.00     0.274 C 
HETATM   37  C23 UNL     1       6.863  25.892   4.784  1.00  0.00     0.058 C 
HETATM   38  C24 UNL     1       8.142  25.081   4.506  1.00  0.00     0.121 C 
HETATM   39  C31 UNL     1       8.198  23.880   5.391  1.00  0.00     0.221 C 
HETATM   40  F1  UNL     1       9.265  23.071   5.178  1.00  0.00    -0.245 F 
HETATM   41  C32 UNL     1       6.949  23.039   5.120  1.00  0.00     0.311 C 
BRANCH  38  42
HETATM   42  N4  UNL     1       8.277  24.832   3.118  1.00  0.00    -0.352 N 
HETATM   43  C25 UNL     1       8.846  25.643   2.126  1.00  0.00     0.248 C 
HETATM   44  O1  UNL     1       9.323  26.761   2.444  1.00  0.00    -0.271 OA
ATOM     45  H4  UNL     1       7.910  23.937   2.794  1.00  0.00     0.163 HD
BRANCH  43  46
HETATM   46  C26 UNL     1       8.925  25.262   0.693  1.00  0.00     0.274 C 
BRANCH  46  47
HETATM   47  N5  UNL     1       9.305  23.864   0.524  1.00  0.00    -0.067 N 
ATOM     48  H53 UNL     1       9.990  23.579   1.224  1.00  0.00     0.275 HD
ATOM     49  H52 UNL     1       8.543  23.238   0.782  1.00  0.00     0.275 HD
ATOM     50  H51 UNL     1       9.639  23.674  -0.421  1.00  0.00     0.275 HD
ENDBRANCH  46  47
BRANCH  46  51
HETATM   51  C27 UNL     1       9.877  26.122  -0.070  1.00  0.00     0.042 C 
BRANCH  51  52
HETATM   52  C28 UNL     1       9.241  27.063  -1.035  1.00  0.00     0.004 C 
BRANCH  52  53
HETATM   53  C29 UNL     1       9.116  28.447  -0.469  1.00  0.00     0.027 C 
BRANCH  53  54
HETATM   54  C30 UNL     1       7.685  28.709  -0.061  1.00  0.00     0.229 C 
BRANCH  54  55
HETATM   55  N6  UNL     1       7.640  29.027   1.381  1.00  0.00    -0.079 N 
ATOM     56  H63 UNL     1       6.761  29.467   1.653  1.00  0.00     0.274 HD
ATOM     57  H62 UNL     1       7.567  28.191   1.960  1.00  0.00     0.274 HD
ATOM     58  H61 UNL     1       8.450  29.597   1.625  1.00  0.00     0.274 HD
ENDBRANCH  54  55
ENDBRANCH  53  54
ENDBRANCH  52  53
ENDBRANCH  51  52
ENDBRANCH  46  51
ENDBRANCH  43  46
ENDBRANCH  38  42
ENDBRANCH  34  35
ENDBRANCH  33  34
ENDBRANCH  32  33
ENDBRANCH  30  32
ENDBRANCH   1  30
TORSDOF 22
ENDMDL
MODEL 3
REMARK VINA RESULT: -8.883265440      0.945      1.048
REMARK  22 active torsions:
REMARK  status: ('A' for Active; 'I' for Inactive)
REMARK    1  A    between atoms: N1_13  and  C13_14 
REMARK    2  A    between atoms: C13_14  and  C14_15 
REMARK    3  A    between atoms: C14_15  and  C15_16 
REMARK    4  A    between atoms: C15_16  and  C16_17 
REMARK    5  A    between atoms: C16_17  and  C17_18 
REMARK    6  A    between atoms: C17_18  and  C18_19 
REMARK    7  A    between atoms: C18_19  and  N2_20 
REMARK    8  A    between atoms: N2_20  and  C19_22 
REMARK    9  A    between atoms: C19_22  and  C20_23 
REMARK   10  A    between atoms: C20_23  and  C21_24 
REMARK   11  A    between atoms: C21_24  and  N3_25 
REMARK   12  A    between atoms: C24_28  and  N4_29 
REMARK       I    between atoms: N4_29  and  C25_31 
REMARK   13  A    between atoms: C25_31  and  C26_33 
REMARK   14  A    between atoms: C26_33  and  N5_34 
REMARK   15  A    between atoms: C26_33  and  C27_38 
REMARK   16  A    between atoms: C27_38  and  C28_39 
REMARK   17  A    between atoms: C28_39  and  C29_40 
REMARK   18  A    between atoms: C29_40  and  C30_41 
REMARK   19  A    between atoms: C30_41  and  N6_42 
REMARK   20  A    between atoms: C34_50  and  O2_51 
REMARK   21  A    between atoms: C35_53  and  O3_54 
REMARK   22  A    between atoms: C36_56  and  O4_57 
ROOT
HETATM    1  C18 UNL     1       0.782  22.398   6.940  1.00  0.00     0.060 C 
ENDROOT
BRANCH   1   2
HETATM    2  C17 UNL     1       0.419  21.264   7.790  1.00  0.00     0.044 C 
BRANCH   2   3
HETATM    3  C16 UNL     1      -0.965  21.168   8.253  1.00  0.00     0.005 C 
BRANCH   3   4
HETATM    4  C15 UNL     1      -2.146  21.221   7.390  1.00  0.00     0.005 C 
BRANCH   4   5
HETATM    5  C14 UNL     1      -3.395  20.640   7.934  1.00  0.00     0.044 C 
BRANCH   5   6
HETATM    6  C13 UNL     1      -4.491  21.666   8.208  1.00  0.00     0.064 C 
BRANCH   6   7
HETATM    7  N1  UNL     1      -5.768  21.184   8.523  1.00  0.00    -0.360 N 
HETATM    8  C12 UNL     1      -6.122  21.015   9.859  1.00  0.00     0.033 C 
HETATM    9  C2  UNL     1      -7.202  20.033  10.172  1.00  0.00     0.028 C 
HETATM   10  C11 UNL     1      -6.238  22.192  10.736  1.00  0.00    -0.006 A 
HETATM   11  C1  UNL     1      -6.642  18.619  10.376  1.00  0.00     0.025 C 
HETATM   12  C3  UNL     1      -8.088  20.411  11.329  1.00  0.00     0.018 C 
HETATM   13  C36 UNL     1      -8.186  19.857   9.000  1.00  0.00     0.163 C 
HETATM   14  C4  UNL     1      -7.545  20.179  12.693  1.00  0.00     0.006 C 
HETATM   15  C5  UNL     1      -6.262  20.926  12.971  1.00  0.00     0.039 C 
HETATM   16  C6  UNL     1      -6.286  22.181  12.137  1.00  0.00    -0.046 A 
HETATM   17  C7  UNL     1      -6.377  23.328  12.879  1.00  0.00     0.008 A 
HETATM   18  C8  UNL     1      -6.430  24.562  12.284  1.00  0.00     0.001 A 
HETATM   19  C9  UNL     1      -6.386  24.602  10.912  1.00  0.00     0.001 A 
HETATM   20  C10 UNL     1      -6.291  23.422  10.165  1.00  0.00     0.014 A 
HETATM   21  C35 UNL     1      -7.579  19.170   7.825  1.00  0.00     0.178 C 
HETATM   22  C34 UNL     1      -7.254  20.229   6.799  1.00  0.00     0.167 C 
HETATM   23  C33 UNL     1      -6.759  21.436   7.552  1.00  0.00     0.162 C 
BRANCH  13  24
HETATM   24  O4  UNL     1      -9.134  18.929   9.513  1.00  0.00    -0.392 OA
ATOM     25  H4  UNL     1      -8.769  18.089   9.258  1.00  0.00     0.210 HD
ENDBRANCH  13  24
BRANCH  21  26
HETATM   26  O3  UNL     1      -8.465  18.264   7.223  1.00  0.00    -0.390 OA
ATOM     27  H3  UNL     1      -8.900  17.787   7.920  1.00  0.00     0.210 HD
ENDBRANCH  21  26
BRANCH  22  28
HETATM   28  O2  UNL     1      -6.328  19.776   5.870  1.00  0.00    -0.391 OA
ATOM     29  H2  UNL     1      -6.603  18.966   5.457  1.00  0.00     0.210 HD
ENDBRANCH  22  28
ENDBRANCH   6   7
ENDBRANCH   5   6
ENDBRANCH   4   5
ENDBRANCH   3   4
ENDBRANCH   2   3
ENDBRANCH   1   2
BRANCH   1  30
HETATM   30  N2  UNL     1       2.092  22.900   6.944  1.00  0.00    -0.382 N 
ATOM     31  H2  UNL     1       2.236  23.801   6.487  1.00  0.00     0.163 HD
BRANCH  30  32
HETATM   32  C19 UNL     1       3.198  22.306   7.497  1.00  0.00     0.062 C 
BRANCH  32  33
HETATM   33  C20 UNL     1       4.369  22.033   6.595  1.00  0.00     0.074 C 
BRANCH  33  34
HETATM   34  C21 UNL     1       4.512  23.030   5.503  1.00  0.00     0.277 C 
BRANCH  34  35
HETATM   35  N3  UNL     1       5.756  23.804   5.592  1.00  0.00     0.091 N 
HETATM   36  C22 UNL     1       5.602  24.924   4.659  1.00  0.00     0.274 C 
HETATM   37  C23 UNL     1       6.754  25.876   4.672  1.00  0.00     0.058 C 
HETATM   38  C24 UNL     1       8.049  25.082   4.427  1.00  0.00     0.121 C 
HETATM   39  C31 UNL     1       8.139  23.928   5.371  1.00  0.00     0.221 C 
HETATM   40  F1  UNL     1       9.223  23.135   5.192  1.00  0.00    -0.245 F 
HETATM   41  C32 UNL     1       6.908  23.046   5.151  1.00  0.00     0.311 C 
BRANCH  38  42
HETATM   42  N4  UNL     1       8.183  24.766   3.052  1.00  0.00    -0.352 N 
HETATM   43  C25 UNL     1       8.726  25.540   2.018  1.00  0.00     0.248 C 
HETATM   44  O1  UNL     1       9.176  26.685   2.275  1.00  0.00    -0.271 OA
ATOM     45  H4  UNL     1       7.836  23.847   2.777  1.00  0.00     0.163 HD
BRANCH  43  46
HETATM   46  C26 UNL     1       8.806  25.089   0.605  1.00  0.00     0.274 C 
BRANCH  46  47
HETATM   47  N5  UNL     1       9.352  23.741   0.496  1.00  0.00    -0.067 N 
ATOM     48  H53 UNL     1       9.171  23.198   1.340  1.00  0.00     0.275 HD
ATOM     49  H52 UNL     1       8.824  23.179  -0.171  1.00  0.00     0.275 HD
ATOM     50  H51 UNL     1      10.346  23.752   0.268  1.00  0.00     0.275 HD
ENDBRANCH  46  47
BRANCH  46  51
HETATM   51  C27 UNL     1       9.620  26.014  -0.239  1.00  0.00     0.042 C 
BRANCH  51  52
HETATM   52  C28 UNL     1      10.584  25.344  -1.158  1.00  0.00     0.004 C 
BRANCH  52  53
HETATM   53  C29 UNL     1      10.847  26.162  -2.388  1.00  0.00     0.027 C 
BRANCH  53  54
HETATM   54  C30 UNL     1      10.460  27.601  -2.140  1.00  0.00     0.229 C 
BRANCH  54  55
HETATM   55  N6  UNL     1       9.637  28.085  -3.269  1.00  0.00    -0.079 N 
ATOM     56  H63 UNL     1       9.890  27.639  -4.151  1.00  0.00     0.274 HD
ATOM     57  H62 UNL     1       8.673  27.758  -3.213  1.00  0.00     0.274 HD
ATOM     58  H61 UNL     1       9.699  29.102  -3.317  1.00  0.00     0.274 HD
ENDBRANCH  54  55
ENDBRANCH  53  54
ENDBRANCH  52  53
ENDBRANCH  51  52
ENDBRANCH  46  51
ENDBRANCH  43  46
ENDBRANCH  38  42
ENDBRANCH  34  35
ENDBRANCH  33  34
ENDBRANCH  32  33
ENDBRANCH  30  32
ENDBRANCH   1  30
TORSDOF 22
ENDMDL
MODEL 4
REMARK VINA RESULT: -8.772379107      2.531      3.147
REMARK  22 active torsions:
REMARK  status: ('A' for Active; 'I' for Inactive)
REMARK    1  A    between atoms: N1_13  and  C13_14 
REMARK    2  A    between atoms: C13_14  and  C14_15 
REMARK    3  A    between atoms: C14_15  and  C15_16 
REMARK    4  A    between atoms: C15_16  and  C16_17 
REMARK    5  A    between atoms: C16_17  and  C17_18 
REMARK    6  A    between atoms: C17_18  and  C18_19 
REMARK    7  A    between atoms: C18_19  and  N2_20 
REMARK    8  A    between atoms: N2_20  and  C19_22 
REMARK    9  A    between atoms: C19_22  and  C20_23 
REMARK   10  A    between atoms: C20_23  and  C21_24 
REMARK   11  A    between atoms: C21_24  and  N3_25 
REMARK   12  A    between atoms: C24_28  and  N4_29 
REMARK       I    between atoms: N4_29  and  C25_31 
REMARK   13  A    between atoms: C25_31  and  C26_33 
REMARK   14  A    between atoms: C26_33  and  N5_34 
REMARK   15  A    between atoms: C26_33  and  C27_38 
REMARK   16  A    between atoms: C27_38  and  C28_39 
REMARK   17  A    between atoms: C28_39  and  C29_40 
REMARK   18  A    between atoms: C29_40  and  C30_41 
REMARK   19  A    between atoms: C30_41  and  N6_42 
REMARK   20  A    between atoms: C34_50  and  O2_51 
REMARK   21  A    between atoms: C35_53  and  O3_54 
REMARK   22  A    between atoms: C36_56  and  O4_57 
ROOT
HETATM    1  C18 UNL     1       0.457  22.654   6.437  1.00  0.00     0.060 C 
ENDROOT
BRANCH   1   2
HETATM    2  C17 UNL     1      -0.045  22.072   7.681  1.00  0.00     0.044 C 
BRANCH   2   3
HETATM    3  C16 UNL     1      -1.032  20.997   7.588  1.00  0.00     0.005 C 
BRANCH   3   4
HETATM    4  C15 UNL     1      -2.385  21.142   7.051  1.00  0.00     0.005 C 
BRANCH   4   5
HETATM    5  C14 UNL     1      -3.486  20.556   7.850  1.00  0.00     0.044 C 
BRANCH   5   6
HETATM    6  C13 UNL     1      -4.544  21.567   8.286  1.00  0.00     0.064 C 
BRANCH   6   7
HETATM    7  N1  UNL     1      -5.820  21.078   8.594  1.00  0.00    -0.360 N 
HETATM    8  C12 UNL     1      -6.164  20.863   9.926  1.00  0.00     0.033 C 
HETATM    9  C2  UNL     1      -7.244  19.874  10.214  1.00  0.00     0.028 C 
HETATM   10  C11 UNL     1      -6.268  22.009  10.846  1.00  0.00    -0.006 A 
HETATM   11  C1  UNL     1      -6.689  18.452  10.362  1.00  0.00     0.025 C 
HETATM   12  C3  UNL     1      -8.119  20.214  11.391  1.00  0.00     0.018 C 
HETATM   13  C36 UNL     1      -8.240  19.744   9.045  1.00  0.00     0.163 C 
HETATM   14  C4  UNL     1      -7.566  19.931  12.742  1.00  0.00     0.006 C 
HETATM   15  C5  UNL     1      -6.277  20.664  13.034  1.00  0.00     0.039 C 
HETATM   16  C6  UNL     1      -6.304  21.948  12.245  1.00  0.00    -0.046 A 
HETATM   17  C7  UNL     1      -6.384  23.068  13.029  1.00  0.00     0.008 A 
HETATM   18  C8  UNL     1      -6.437  24.322  12.478  1.00  0.00     0.001 A 
HETATM   19  C9  UNL     1      -6.405  24.411  11.108  1.00  0.00     0.001 A 
HETATM   20  C10 UNL     1      -6.321  23.258  10.319  1.00  0.00     0.014 A 
HETATM   21  C35 UNL     1      -7.646  19.097   7.841  1.00  0.00     0.178 C 
HETATM   22  C34 UNL     1      -7.325  20.190   6.851  1.00  0.00     0.167 C 
HETATM   23  C33 UNL     1      -6.819  21.368   7.642  1.00  0.00     0.162 C 
BRANCH  13  24
HETATM   24  O4  UNL     1      -9.186  18.801   9.533  1.00  0.00    -0.392 OA
ATOM     25  H4  UNL     1      -9.454  18.340   8.746  1.00  0.00     0.210 HD
ENDBRANCH  13  24
BRANCH  21  26
HETATM   26  O3  UNL     1      -8.540  18.216   7.214  1.00  0.00    -0.390 OA
ATOM     27  H3  UNL     1      -9.387  18.328   7.631  1.00  0.00     0.210 HD
ENDBRANCH  21  26
BRANCH  22  28
HETATM   28  O2  UNL     1      -6.409  19.767   5.898  1.00  0.00    -0.391 OA
ATOM     29  H2  UNL     1      -6.655  20.037   5.021  1.00  0.00     0.210 HD
ENDBRANCH  22  28
ENDBRANCH   6   7
ENDBRANCH   5   6
ENDBRANCH   4   5
ENDBRANCH   3   4
ENDBRANCH   2   3
ENDBRANCH   1   2
BRANCH   1  30
HETATM   30  N2  UNL     1       1.720  22.298   5.943  1.00  0.00    -0.382 N 
ATOM     31  H2  UNL     1       1.933  22.581   4.986  1.00  0.00     0.163 HD
BRANCH  30  32
HETATM   32  C19 UNL     1       2.700  21.609   6.613  1.00  0.00     0.062 C 
BRANCH  32  33
HETATM   33  C20 UNL     1       4.116  22.094   6.470  1.00  0.00     0.074 C 
BRANCH  33  34
HETATM   34  C21 UNL     1       4.238  23.308   5.622  1.00  0.00     0.277 C 
BRANCH  34  35
HETATM   35  N3  UNL     1       5.567  23.455   5.017  1.00  0.00     0.091 N 
HETATM   36  C22 UNL     1       6.495  23.674   6.131  1.00  0.00     0.274 C 
HETATM   37  C23 UNL     1       7.924  23.770   5.708  1.00  0.00     0.058 C 
HETATM   38  C24 UNL     1       8.044  24.855   4.623  1.00  0.00     0.121 C 
HETATM   39  C31 UNL     1       7.051  24.612   3.534  1.00  0.00     0.221 C 
HETATM   40  F1  UNL     1       7.043  25.552   2.557  1.00  0.00    -0.245 F 
HETATM   41  C32 UNL     1       5.655  24.620   4.162  1.00  0.00     0.311 C 
BRANCH  38  42
HETATM   42  N4  UNL     1       8.016  26.145   5.207  1.00  0.00    -0.352 N 
HETATM   43  C25 UNL     1       8.760  27.283   4.869  1.00  0.00     0.248 C 
HETATM   44  O1  UNL     1       9.586  27.221   3.925  1.00  0.00    -0.271 OA
ATOM     45  H4  UNL     1       7.362  26.262   5.981  1.00  0.00     0.163 HD
BRANCH  43  46
HETATM   46  C26 UNL     1       8.636  28.587   5.569  1.00  0.00     0.274 C 
BRANCH  46  47
HETATM   47  N5  UNL     1       7.420  28.659   6.371  1.00  0.00    -0.067 N 
ATOM     48  H53 UNL     1       7.046  29.607   6.393  1.00  0.00     0.275 HD
ATOM     49  H52 UNL     1       6.642  28.190   5.908  1.00  0.00     0.275 HD
ATOM     50  H51 UNL     1       7.566  28.296   7.313  1.00  0.00     0.275 HD
ENDBRANCH  46  47
BRANCH  46  51
HETATM   51  C27 UNL     1       8.665  29.742   4.623  1.00  0.00     0.042 C 
BRANCH  51  52
HETATM   52  C28 UNL     1       7.326  30.236   4.191  1.00  0.00     0.004 C 
BRANCH  52  53
HETATM   53  C29 UNL     1       7.310  30.617   2.740  1.00  0.00     0.027 C 
BRANCH  53  54
HETATM   54  C30 UNL     1       8.366  29.837   1.993  1.00  0.00     0.229 C 
BRANCH  54  55
HETATM   55  N6  UNL     1       7.788  28.559   1.526  1.00  0.00    -0.079 N 
ATOM     56  H63 UNL     1       6.885  28.362   1.958  1.00  0.00     0.274 HD
ATOM     57  H62 UNL     1       7.476  28.606   0.556  1.00  0.00     0.274 HD
ATOM     58  H61 UNL     1       8.462  27.809   1.679  1.00  0.00     0.274 HD
ENDBRANCH  54  55
ENDBRANCH  53  54
ENDBRANCH  52  53
ENDBRANCH  51  52
ENDBRANCH  46  51
ENDBRANCH  43  46
ENDBRANCH  38  42
ENDBRANCH  34  35
ENDBRANCH  33  34
ENDBRANCH  32  33
ENDBRANCH  30  32
ENDBRANCH   1  30
TORSDOF 22
ENDMDL
MODEL 5
REMARK VINA RESULT: -8.663051930      2.764      4.552
REMARK  22 active torsions:
REMARK  status: ('A' for Active; 'I' for Inactive)
REMARK    1  A    between atoms: N1_13  and  C13_14 
REMARK    2  A    between atoms: C13_14  and  C14_15 
REMARK    3  A    between atoms: C14_15  and  C15_16 
REMARK    4  A    between atoms: C15_16  and  C16_17 
REMARK    5  A    between atoms: C16_17  and  C17_18 
REMARK    6  A    between atoms: C17_18  and  C18_19 
REMARK    7  A    between atoms: C18_19  and  N2_20 
REMARK    8  A    between atoms: N2_20  and  C19_22 
REMARK    9  A    between atoms: C19_22  and  C20_23 
REMARK   10  A    between atoms: C20_23  and  C21_24 
REMARK   11  A    between atoms: C21_24  and  N3_25 
REMARK   12  A    between atoms: C24_28  and  N4_29 
REMARK       I    between atoms: N4_29  and  C25_31 
REMARK   13  A    between atoms: C25_31  and  C26_33 
REMARK   14  A    between atoms: C26_33  and  N5_34 
REMARK   15  A    between atoms: C26_33  and  C27_38 
REMARK   16  A    between atoms: C27_38  and  C28_39 
REMARK   17  A    between atoms: C28_39  and  C29_40 
REMARK   18  A    between atoms: C29_40  and  C30_41 
REMARK   19  A    between atoms: C30_41  and  N6_42 
REMARK   20  A    between atoms: C34_50  and  O2_51 
REMARK   21  A    between atoms: C35_53  and  O3_54 
REMARK   22  A    between atoms: C36_56  and  O4_57 
ROOT
HETATM    1  C18 UNL     1       1.353  21.442   7.566  1.00  0.00     0.060 C 
ENDROOT
BRANCH   1   2
HETATM    2  C17 UNL     1       0.032  21.215   8.152  1.00  0.00     0.044 C 
BRANCH   2   3
HETATM    3  C16 UNL     1      -1.129  21.786   7.469  1.00  0.00     0.005 C 
BRANCH   3   4
HETATM    4  C15 UNL     1      -2.325  21.040   7.077  1.00  0.00     0.005 C 
BRANCH   4   5
HETATM    5  C14 UNL     1      -3.280  20.697   8.156  1.00  0.00     0.044 C 
BRANCH   5   6
HETATM    6  C13 UNL     1      -4.435  21.684   8.301  1.00  0.00     0.064 C 
BRANCH   6   7
HETATM    7  N1  UNL     1      -5.708  21.161   8.562  1.00  0.00    -0.360 N 
HETATM    8  C12 UNL     1      -6.106  20.962   9.881  1.00  0.00     0.033 C 
HETATM    9  C2  UNL     1      -7.166  19.944  10.141  1.00  0.00     0.028 C 
HETATM   10  C11 UNL     1      -6.288  22.122  10.770  1.00  0.00    -0.006 A 
HETATM   11  C1  UNL     1      -6.573  18.544  10.346  1.00  0.00     0.025 C 
HETATM   12  C3  UNL     1      -8.105  20.279  11.270  1.00  0.00     0.018 C 
HETATM   13  C36 UNL     1      -8.102  19.757   8.931  1.00  0.00     0.163 C 
HETATM   14  C4  UNL     1      -7.605  20.043  12.650  1.00  0.00     0.006 C 
HETATM   15  C5  UNL     1      -6.356  20.823  12.984  1.00  0.00     0.039 C 
HETATM   16  C6  UNL     1      -6.387  22.089  12.167  1.00  0.00    -0.046 A 
HETATM   17  C7  UNL     1      -6.539  23.222  12.921  1.00  0.00     0.008 A 
HETATM   18  C8  UNL     1      -6.606  24.462  12.341  1.00  0.00     0.001 A 
HETATM   19  C9  UNL     1      -6.514  24.524  10.972  1.00  0.00     0.001 A 
HETATM   20  C10 UNL     1      -6.357  23.357  10.214  1.00  0.00     0.014 A 
HETATM   21  C35 UNL     1      -7.432  19.105   7.770  1.00  0.00     0.178 C 
HETATM   22  C34 UNL     1      -7.102  20.188   6.772  1.00  0.00     0.167 C 
HETATM   23  C33 UNL     1      -6.670  21.398   7.559  1.00  0.00     0.162 C 
BRANCH  13  24
HETATM   24  O4  UNL     1      -9.039  18.794   9.396  1.00  0.00    -0.392 OA
ATOM     25  H4  UNL     1      -8.874  18.045   8.835  1.00  0.00     0.210 HD
ENDBRANCH  13  24
BRANCH  21  26
HETATM   26  O3  UNL     1      -8.269  18.183   7.123  1.00  0.00    -0.390 OA
ATOM     27  H3  UNL     1      -7.910  17.317   7.280  1.00  0.00     0.210 HD
ENDBRANCH  21  26
BRANCH  22  28
HETATM   28  O2  UNL     1      -6.129  19.776   5.871  1.00  0.00    -0.391 OA
ATOM     29  H2  UNL     1      -5.531  20.478   5.644  1.00  0.00     0.210 HD
ENDBRANCH  22  28
ENDBRANCH   6   7
ENDBRANCH   5   6
ENDBRANCH   4   5
ENDBRANCH   3   4
ENDBRANCH   2   3
ENDBRANCH   1   2
BRANCH   1  30
HETATM   30  N2  UNL     1       1.505  22.288   6.458  1.00  0.00    -0.382 N 
ATOM     31  H2  UNL     1       1.026  22.008   5.601  1.00  0.00     0.163 HD
BRANCH  30  32
HETATM   32  C19 UNL     1       2.229  23.453   6.406  1.00  0.00     0.062 C 
BRANCH  32  33
HETATM   33  C20 UNL     1       3.381  23.516   5.442  1.00  0.00     0.074 C 
BRANCH  33  34
HETATM   34  C21 UNL     1       4.601  22.830   5.942  1.00  0.00     0.277 C 
BRANCH  34  35
HETATM   35  N3  UNL     1       5.818  23.229   5.224  1.00  0.00     0.091 N 
HETATM   36  C22 UNL     1       6.773  23.651   6.252  1.00  0.00     0.274 C 
HETATM   37  C23 UNL     1       8.113  24.023   5.706  1.00  0.00     0.058 C 
HETATM   38  C24 UNL     1       7.920  25.087   4.611  1.00  0.00     0.121 C 
HETATM   39  C31 UNL     1       6.907  24.629   3.614  1.00  0.00     0.221 C 
HETATM   40  F1  UNL     1       6.628  25.528   2.638  1.00  0.00    -0.245 F 
HETATM   41  C32 UNL     1       5.597  24.370   4.361  1.00  0.00     0.311 C 
BRANCH  38  42
HETATM   42  N4  UNL     1       7.682  26.357   5.192  1.00  0.00    -0.352 N 
HETATM   43  C25 UNL     1       8.062  27.625   4.729  1.00  0.00     0.248 C 
HETATM   44  O1  UNL     1       8.705  27.721   3.654  1.00  0.00    -0.271 OA
ATOM     45  H4  UNL     1       7.162  26.349   6.069  1.00  0.00     0.163 HD
BRANCH  43  46
HETATM   46  C26 UNL     1       7.750  28.890   5.441  1.00  0.00     0.274 C 
BRANCH  46  47
HETATM   47  N5  UNL     1       8.859  29.835   5.379  1.00  0.00    -0.067 N 
ATOM     48  H53 UNL     1       9.494  29.714   6.167  1.00  0.00     0.275 HD
ATOM     49  H52 UNL     1       9.500  29.605   4.619  1.00  0.00     0.275 HD
ATOM     50  H51 UNL     1       8.532  30.799   5.310  1.00  0.00     0.275 HD
ENDBRANCH  46  47
BRANCH  46  51
HETATM   51  C27 UNL     1       7.385  28.660   6.871  1.00  0.00     0.042 C 
BRANCH  51  52
HETATM   52  C28 UNL     1       8.102  29.526   7.850  1.00  0.00     0.004 C 
BRANCH  52  53
HETATM   53  C29 UNL     1       7.798  29.139   9.268  1.00  0.00     0.027 C 
BRANCH  53  54
HETATM   54  C30 UNL     1       6.723  30.041   9.827  1.00  0.00     0.229 C 
BRANCH  54  55
HETATM   55  N6  UNL     1       5.549  29.225  10.203  1.00  0.00    -0.079 N 
ATOM     56  H63 UNL     1       4.739  29.416   9.612  1.00  0.00     0.274 HD
ATOM     57  H62 UNL     1       5.670  28.240   9.965  1.00  0.00     0.274 HD
ATOM     58  H61 UNL     1       5.347  29.362  11.193  1.00  0.00     0.274 HD
ENDBRANCH  54  55
ENDBRANCH  53  54
ENDBRANCH  52  53
ENDBRANCH  51  52
ENDBRANCH  46  51
ENDBRANCH  43  46
ENDBRANCH  38  42
ENDBRANCH  34  35
ENDBRANCH  33  34
ENDBRANCH  32  33
ENDBRANCH  30  32
ENDBRANCH   1  30
TORSDOF 22
ENDMDL
