MODEL 1
REMARK VINA RESULT: -7.882321896      0.000      0.000
REMARK  9 active torsions:
REMARK  status: ('A' for Active; 'I' for Inactive)
REMARK    1  A    between atoms: C1_2  and  C2_4 
REMARK    2  A    between atoms: C2_4  and  C3_5 
REMARK    3  A    between atoms: N2_11  and  C9_12 
REMARK    4  A    between atoms: C9_12  and  C10_13 
REMARK    5  A    between atoms: C10_13  and  O2_14 
REMARK    6  A    between atoms: O2_14  and  C11_15 
REMARK    7  A    between atoms: C11_15  and  O3_16 
REMARK    8  A    between atoms: C11_15  and  C12_18 
REMARK    9  A    between atoms: C11_15  and  C18_24 
ROOT
HETATM    1  O2  UNL     1       3.578  60.215  22.608  1.00  0.00    -0.346 OA
ENDROOT
BRANCH   1   2
HETATM    2  C10 UNL     1       2.944  59.988  23.780  1.00  0.00     0.202 C 
BRANCH   2   3
HETATM    3  C9  UNL     1       2.622  61.143  24.660  1.00  0.00     0.298 C 
BRANCH   3   4
HETATM    4  N2  UNL     1       3.279  61.050  25.943  1.00  0.00     0.090 N 
HETATM    5  C8  UNL     1       4.591  61.658  25.921  1.00  0.00     0.273 C 
HETATM    6  C7  UNL     1       5.691  60.671  26.209  1.00  0.00     0.049 C 
HETATM    7  C2  UNL     1       5.488  59.986  27.554  1.00  0.00     0.045 C 
HETATM    8  C25 UNL     1       4.045  59.797  27.804  1.00  0.00     0.049 C 
HETATM    9  C24 UNL     1       3.315  59.718  26.477  1.00  0.00     0.273 C 
BRANCH   7  10
HETATM   10  C1  UNL     1       6.010  60.942  28.602  1.00  0.00     0.240 C 
HETATM   11  N1  UNL     1       5.361  61.002  29.864  1.00  0.00    -0.061 NA
HETATM   12  O1  UNL     1       6.997  61.683  28.390  1.00  0.00    -0.276 OA
ENDBRANCH   7  10
BRANCH   7  13
HETATM   13  C3  UNL     1       6.366  58.801  27.596  1.00  0.00     0.003 C 
HETATM   14  C4  UNL     1       6.711  58.054  26.367  1.00  0.00     0.006 C 
HETATM   15  C5  UNL     1       6.859  56.820  27.278  1.00  0.00     0.001 C 
HETATM   16  C6  UNL     1       5.804  57.512  28.160  1.00  0.00     0.006 C 
ENDBRANCH   7  13
ENDBRANCH   3   4
ENDBRANCH   2   3
ENDBRANCH   1   2
BRANCH   1  17
HETATM   17  C11 UNL     1       4.657  59.478  22.256  1.00  0.00     0.220 C 
BRANCH  17  18
HETATM   18  O3  UNL     1       5.448  59.025  23.302  1.00  0.00    -0.358 OA
ATOM     19  H3  UNL     1       6.298  58.679  23.059  1.00  0.00     0.213 HD
ENDBRANCH  17  18
BRANCH  17  20
HETATM   20  C12 UNL     1       4.265  58.236  21.490  1.00  0.00     0.008 A 
HETATM   21  C13 UNL     1       3.851  58.279  20.178  1.00  0.00     0.013 A 
HETATM   22  C14 UNL     1       3.488  57.179  19.449  1.00  0.00     0.001 A 
HETATM   23  C15 UNL     1       3.544  55.950  20.078  1.00  0.00     0.000 A 
HETATM   24  C16 UNL     1       3.952  55.846  21.395  1.00  0.00     0.001 A 
HETATM   25  C17 UNL     1       4.307  56.983  22.086  1.00  0.00     0.013 A 
ENDBRANCH  17  20
BRANCH  17  26
HETATM   26  C18 UNL     1       5.581  60.277  21.375  1.00  0.00     0.008 A 
HETATM   27  C19 UNL     1       6.613  59.672  20.697  1.00  0.00     0.013 A 
HETATM   28  C20 UNL     1       7.476  60.388  19.884  1.00  0.00     0.001 A 
HETATM   29  C21 UNL     1       7.297  61.755  19.746  1.00  0.00     0.000 A 
HETATM   30  C22 UNL     1       6.270  62.382  20.414  1.00  0.00     0.001 A 
HETATM   31  C23 UNL     1       5.414  61.633  21.228  1.00  0.00     0.013 A 
ENDBRANCH  17  26
ENDBRANCH   1  17
TORSDOF 9
ENDMDL
MODEL 2
REMARK VINA RESULT: -7.812443606      1.152      3.480
REMARK  9 active torsions:
REMARK  status: ('A' for Active; 'I' for Inactive)
REMARK    1  A    between atoms: C1_2  and  C2_4 
REMARK    2  A    between atoms: C2_4  and  C3_5 
REMARK    3  A    between atoms: N2_11  and  C9_12 
REMARK    4  A    between atoms: C9_12  and  C10_13 
REMARK    5  A    between atoms: C10_13  and  O2_14 
REMARK    6  A    between atoms: O2_14  and  C11_15 
REMARK    7  A    between atoms: C11_15  and  O3_16 
REMARK    8  A    between atoms: C11_15  and  C12_18 
REMARK    9  A    between atoms: C11_15  and  C18_24 
ROOT
HETATM    1  O2  UNL     1       5.060  61.490  23.204  1.00  0.00    -0.346 OA
ENDROOT
BRANCH   1   2
HETATM    2  C10 UNL     1       4.135  62.301  23.763  1.00  0.00     0.202 C 
BRANCH   2   3
HETATM    3  C9  UNL     1       3.042  61.696  24.571  1.00  0.00     0.298 C 
BRANCH   3   4
HETATM    4  N2  UNL     1       3.467  61.385  25.916  1.00  0.00     0.090 N 
HETATM    5  C8  UNL     1       4.810  61.856  26.178  1.00  0.00     0.273 C 
HETATM    6  C7  UNL     1       5.764  60.737  26.498  1.00  0.00     0.049 C 
HETATM    7  C2  UNL     1       5.288  59.919  27.691  1.00  0.00     0.045 C 
HETATM    8  C25 UNL     1       3.813  59.848  27.687  1.00  0.00     0.049 C 
HETATM    9  C24 UNL     1       3.309  60.001  26.265  1.00  0.00     0.273 C 
BRANCH   7  10
HETATM   10  C1  UNL     1       5.703  60.686  28.926  1.00  0.00     0.240 C 
HETATM   11  N1  UNL     1       6.766  61.623  28.830  1.00  0.00    -0.061 NA
HETATM   12  O1  UNL     1       5.136  60.520  30.030  1.00  0.00    -0.276 OA
ENDBRANCH   7  10
BRANCH   7  13
HETATM   13  C3  UNL     1       6.049  58.656  27.708  1.00  0.00     0.003 C 
HETATM   14  C4  UNL     1       6.936  58.276  26.587  1.00  0.00     0.006 C 
HETATM   15  C5  UNL     1       6.646  56.815  26.983  1.00  0.00     0.001 C 
HETATM   16  C6  UNL     1       5.296  57.362  27.483  1.00  0.00     0.006 C 
ENDBRANCH   7  13
ENDBRANCH   3   4
ENDBRANCH   2   3
ENDBRANCH   1   2
BRANCH   1  17
HETATM   17  C11 UNL     1       4.821  60.892  22.013  1.00  0.00     0.220 C 
BRANCH  17  18
HETATM   18  O3  UNL     1       3.667  61.294  21.356  1.00  0.00    -0.358 OA
ATOM     19  H3  UNL     1       3.769  61.516  20.438  1.00  0.00     0.213 HD
ENDBRANCH  17  18
BRANCH  17  20
HETATM   20  C12 UNL     1       5.941  61.130  21.029  1.00  0.00     0.008 A 
HETATM   21  C13 UNL     1       6.705  60.106  20.518  1.00  0.00     0.013 A 
HETATM   22  C14 UNL     1       7.727  60.279  19.624  1.00  0.00     0.001 A 
HETATM   23  C15 UNL     1       8.004  61.568  19.214  1.00  0.00     0.000 A 
HETATM   24  C16 UNL     1       7.270  62.638  19.693  1.00  0.00     0.001 A 
HETATM   25  C17 UNL     1       6.251  62.412  20.591  1.00  0.00     0.013 A 
ENDBRANCH  17  20
BRANCH  17  26
HETATM   26  C18 UNL     1       4.683  59.402  22.187  1.00  0.00     0.008 A 
HETATM   27  C19 UNL     1       5.006  58.795  23.378  1.00  0.00     0.013 A 
HETATM   28  C20 UNL     1       4.889  57.427  23.558  1.00  0.00     0.001 A 
HETATM   29  C21 UNL     1       4.434  56.642  22.510  1.00  0.00     0.000 A 
HETATM   30  C22 UNL     1       4.104  57.229  21.309  1.00  0.00     0.001 A 
HETATM   31  C23 UNL     1       4.232  58.613  21.156  1.00  0.00     0.013 A 
ENDBRANCH  17  26
ENDBRANCH   1  17
TORSDOF 9
ENDMDL
MODEL 3
REMARK VINA RESULT: -7.793648352      3.831      7.970
REMARK  9 active torsions:
REMARK  status: ('A' for Active; 'I' for Inactive)
REMARK    1  A    between atoms: C1_2  and  C2_4 
REMARK    2  A    between atoms: C2_4  and  C3_5 
REMARK    3  A    between atoms: N2_11  and  C9_12 
REMARK    4  A    between atoms: C9_12  and  C10_13 
REMARK    5  A    between atoms: C10_13  and  O2_14 
REMARK    6  A    between atoms: O2_14  and  C11_15 
REMARK    7  A    between atoms: C11_15  and  O3_16 
REMARK    8  A    between atoms: C11_15  and  C12_18 
REMARK    9  A    between atoms: C11_15  and  C18_24 
ROOT
HETATM    1  O2  UNL     1       4.720  58.181  20.865  1.00  0.00    -0.346 OA
ENDROOT
BRANCH   1   2
HETATM    2  C10 UNL     1       3.824  57.932  19.885  1.00  0.00     0.202 C 
BRANCH   2   3
HETATM    3  C9  UNL     1       3.627  56.529  19.429  1.00  0.00     0.298 C 
BRANCH   3   4
HETATM    4  N2  UNL     1       2.431  55.940  19.981  1.00  0.00     0.090 N 
HETATM    5  C8  UNL     1       2.702  54.675  20.629  1.00  0.00     0.273 C 
HETATM    6  C7  UNL     1       1.979  53.525  19.979  1.00  0.00     0.049 C 
HETATM    7  C2  UNL     1       0.474  53.753  19.956  1.00  0.00     0.045 C 
HETATM    8  C25 UNL     1       0.191  55.190  19.772  1.00  0.00     0.049 C 
HETATM    9  C24 UNL     1       1.351  55.837  19.040  1.00  0.00     0.273 C 
BRANCH   7  10
HETATM   10  C1  UNL     1      -0.037  53.361  21.324  1.00  0.00     0.240 C 
HETATM   11  N1  UNL     1       0.170  52.033  21.783  1.00  0.00    -0.061 NA
HETATM   12  O1  UNL     1      -0.638  54.173  22.065  1.00  0.00    -0.276 OA
ENDBRANCH   7  10
BRANCH   7  13
HETATM   13  C3  UNL     1      -0.115  52.796  19.001  1.00  0.00     0.003 C 
HETATM   14  C4  UNL     1       0.710  52.133  17.968  1.00  0.00     0.006 C 
HETATM   15  C5  UNL     1      -0.579  52.063  17.125  1.00  0.00     0.001 C 
HETATM   16  C6  UNL     1      -0.983  53.339  17.885  1.00  0.00     0.006 C 
ENDBRANCH   7  13
ENDBRANCH   3   4
ENDBRANCH   2   3
ENDBRANCH   1   2
BRANCH   1  17
HETATM   17  C11 UNL     1       4.710  59.366  21.521  1.00  0.00     0.220 C 
BRANCH  17  18
HETATM   18  O3  UNL     1       3.523  60.080  21.460  1.00  0.00    -0.358 OA
ATOM     19  H3  UNL     1       3.210  60.434  22.284  1.00  0.00     0.213 HD
ENDBRANCH  17  18
BRANCH  17  20
HETATM   20  C12 UNL     1       4.996  59.195  22.994  1.00  0.00     0.008 A 
HETATM   21  C13 UNL     1       5.029  60.259  23.867  1.00  0.00     0.013 A 
HETATM   22  C14 UNL     1       5.283  60.147  25.208  1.00  0.00     0.001 A 
HETATM   23  C15 UNL     1       5.520  58.882  25.709  1.00  0.00     0.000 A 
HETATM   24  C16 UNL     1       5.500  57.776  24.879  1.00  0.00     0.001 A 
HETATM   25  C17 UNL     1       5.239  57.940  23.537  1.00  0.00     0.013 A 
ENDBRANCH  17  20
BRANCH  17  26
HETATM   26  C18 UNL     1       5.761  60.289  20.962  1.00  0.00     0.008 A 
HETATM   27  C19 UNL     1       5.567  61.651  20.942  1.00  0.00     0.013 A 
HETATM   28  C20 UNL     1       6.519  62.519  20.430  1.00  0.00     0.001 A 
HETATM   29  C21 UNL     1       7.702  62.004  19.924  1.00  0.00     0.000 A 
HETATM   30  C22 UNL     1       7.916  60.644  19.935  1.00  0.00     0.001 A 
HETATM   31  C23 UNL     1       6.938  59.792  20.458  1.00  0.00     0.013 A 
ENDBRANCH  17  26
ENDBRANCH   1  17
TORSDOF 9
ENDMDL
MODEL 4
REMARK VINA RESULT: -7.789277367      3.628      6.917
REMARK  9 active torsions:
REMARK  status: ('A' for Active; 'I' for Inactive)
REMARK    1  A    between atoms: C1_2  and  C2_4 
REMARK    2  A    between atoms: C2_4  and  C3_5 
REMARK    3  A    between atoms: N2_11  and  C9_12 
REMARK    4  A    between atoms: C9_12  and  C10_13 
REMARK    5  A    between atoms: C10_13  and  O2_14 
REMARK    6  A    between atoms: O2_14  and  C11_15 
REMARK    7  A    between atoms: C11_15  and  O3_16 
REMARK    8  A    between atoms: C11_15  and  C12_18 
REMARK    9  A    between atoms: C11_15  and  C18_24 
ROOT
HETATM    1  O2  UNL     1       4.720  58.496  20.711  1.00  0.00    -0.346 OA
ENDROOT
BRANCH   1   2
HETATM    2  C10 UNL     1       3.586  58.048  20.129  1.00  0.00     0.202 C 
BRANCH   2   3
HETATM    3  C9  UNL     1       3.687  57.041  19.037  1.00  0.00     0.298 C 
BRANCH   3   4
HETATM    4  N2  UNL     1       3.299  55.722  19.477  1.00  0.00     0.090 N 
HETATM    5  C8  UNL     1       1.881  55.490  19.302  1.00  0.00     0.273 C 
HETATM    6  C7  UNL     1       1.171  55.236  20.604  1.00  0.00     0.049 C 
HETATM    7  C2  UNL     1       1.774  54.053  21.349  1.00  0.00     0.045 C 
HETATM    8  C25 UNL     1       3.232  54.009  21.115  1.00  0.00     0.049 C 
HETATM    9  C24 UNL     1       3.730  55.408  20.811  1.00  0.00     0.273 C 
BRANCH   7  10
HETATM   10  C1  UNL     1       1.177  52.810  20.728  1.00  0.00     0.240 C 
HETATM   11  N1  UNL     1       2.039  51.867  20.109  1.00  0.00    -0.061 NA
HETATM   12  O1  UNL     1      -0.056  52.589  20.744  1.00  0.00    -0.276 OA
ENDBRANCH   7  10
BRANCH   7  13
HETATM   13  C3  UNL     1       1.290  54.098  22.741  1.00  0.00     0.003 C 
HETATM   14  C4  UNL     1       1.920  54.980  23.747  1.00  0.00     0.006 C 
HETATM   15  C5  UNL     1       1.466  53.944  24.794  1.00  0.00     0.001 C 
HETATM   16  C6  UNL     1       1.604  52.926  23.647  1.00  0.00     0.006 C 
ENDBRANCH   7  13
ENDBRANCH   3   4
ENDBRANCH   2   3
ENDBRANCH   1   2
BRANCH   1  17
HETATM   17  C11 UNL     1       4.729  59.672  21.383  1.00  0.00     0.220 C 
BRANCH  17  18
HETATM   18  O3  UNL     1       3.564  60.421  21.308  1.00  0.00    -0.358 OA
ATOM     19  H3  UNL     1       3.189  60.688  22.138  1.00  0.00     0.213 HD
ENDBRANCH  17  18
BRANCH  17  20
HETATM   20  C12 UNL     1       4.978  59.473  22.860  1.00  0.00     0.008 A 
HETATM   21  C13 UNL     1       5.216  58.233  23.408  1.00  0.00     0.013 A 
HETATM   22  C14 UNL     1       5.447  58.011  24.739  1.00  0.00     0.001 A 
HETATM   23  C15 UNL     1       5.438  59.108  25.579  1.00  0.00     0.000 A 
HETATM   24  C16 UNL     1       5.205  60.378  25.085  1.00  0.00     0.001 A 
HETATM   25  C17 UNL     1       4.978  60.549  23.738  1.00  0.00     0.013 A 
ENDBRANCH  17  20
BRANCH  17  26
HETATM   26  C18 UNL     1       5.817  60.573  20.860  1.00  0.00     0.008 A 
HETATM   27  C19 UNL     1       6.989  60.052  20.362  1.00  0.00     0.013 A 
HETATM   28  C20 UNL     1       8.003  60.862  19.879  1.00  0.00     0.001 A 
HETATM   29  C21 UNL     1       7.837  62.238  19.896  1.00  0.00     0.000 A 
HETATM   30  C22 UNL     1       6.673  62.780  20.390  1.00  0.00     0.001 A 
HETATM   31  C23 UNL     1       5.666  61.938  20.871  1.00  0.00     0.013 A 
ENDBRANCH  17  26
ENDBRANCH   1  17
TORSDOF 9
ENDMDL
MODEL 5
REMARK VINA RESULT: -7.782932202      1.146      3.402
REMARK  9 active torsions:
REMARK  status: ('A' for Active; 'I' for Inactive)
REMARK    1  A    between atoms: C1_2  and  C2_4 
REMARK    2  A    between atoms: C2_4  and  C3_5 
REMARK    3  A    between atoms: N2_11  and  C9_12 
REMARK    4  A    between atoms: C9_12  and  C10_13 
REMARK    5  A    between atoms: C10_13  and  O2_14 
REMARK    6  A    between atoms: O2_14  and  C11_15 
REMARK    7  A    between atoms: C11_15  and  O3_16 
REMARK    8  A    between atoms: C11_15  and  C12_18 
REMARK    9  A    between atoms: C11_15  and  C18_24 
ROOT
HETATM    1  O2  UNL     1       5.056  61.462  23.222  1.00  0.00    -0.346 OA
ENDROOT
BRANCH   1   2
HETATM    2  C10 UNL     1       4.135  62.287  23.768  1.00  0.00     0.202 C 
BRANCH   2   3
HETATM    3  C9  UNL     1       3.038  61.700  24.584  1.00  0.00     0.298 C 
BRANCH   3   4
HETATM    4  N2  UNL     1       3.468  61.384  25.926  1.00  0.00     0.090 N 
HETATM    5  C8  UNL     1       4.811  61.856  26.187  1.00  0.00     0.273 C 
HETATM    6  C7  UNL     1       5.767  60.735  26.499  1.00  0.00     0.049 C 
HETATM    7  C2  UNL     1       5.295  59.913  27.690  1.00  0.00     0.045 C 
HETATM    8  C25 UNL     1       3.820  59.841  27.691  1.00  0.00     0.049 C 
HETATM    9  C24 UNL     1       3.312  59.999  26.271  1.00  0.00     0.273 C 
BRANCH   7  10
HETATM   10  C1  UNL     1       5.713  60.675  28.927  1.00  0.00     0.240 C 
HETATM   11  N1  UNL     1       6.783  61.605  28.834  1.00  0.00    -0.061 NA
HETATM   12  O1  UNL     1       5.144  60.512  30.030  1.00  0.00    -0.276 OA
ENDBRANCH   7  10
BRANCH   7  13
HETATM   13  C3  UNL     1       6.057  58.650  27.701  1.00  0.00     0.003 C 
HETATM   14  C4  UNL     1       6.942  58.276  26.576  1.00  0.00     0.006 C 
HETATM   15  C5  UNL     1       6.653  56.813  26.966  1.00  0.00     0.001 C 
HETATM   16  C6  UNL     1       5.304  57.356  27.471  1.00  0.00     0.006 C 
ENDBRANCH   7  13
ENDBRANCH   3   4
ENDBRANCH   2   3
ENDBRANCH   1   2
BRANCH   1  17
HETATM   17  C11 UNL     1       4.820  60.858  22.034  1.00  0.00     0.220 C 
BRANCH  17  18
HETATM   18  O3  UNL     1       3.667  61.255  21.372  1.00  0.00    -0.358 OA
ATOM     19  H3  UNL     1       2.869  61.242  21.885  1.00  0.00     0.213 HD
ENDBRANCH  17  18
BRANCH  17  20
HETATM   20  C12 UNL     1       5.942  61.091  21.050  1.00  0.00     0.008 A 
HETATM   21  C13 UNL     1       6.278  62.347  20.598  1.00  0.00     0.013 A 
HETATM   22  C14 UNL     1       7.287  62.602  19.710  1.00  0.00     0.001 A 
HETATM   23  C15 UNL     1       8.011  61.523  19.241  1.00  0.00     0.000 A 
HETATM   24  C16 UNL     1       7.720  60.238  19.660  1.00  0.00     0.001 A 
HETATM   25  C17 UNL     1       6.694  60.034  20.556  1.00  0.00     0.013 A 
ENDBRANCH  17  20
BRANCH  17  26
HETATM   26  C18 UNL     1       4.682  59.369  22.214  1.00  0.00     0.008 A 
HETATM   27  C19 UNL     1       4.231  58.570  21.190  1.00  0.00     0.013 A 
HETATM   28  C20 UNL     1       4.094  57.199  21.335  1.00  0.00     0.001 A 
HETATM   29  C21 UNL     1       4.421  56.611  22.546  1.00  0.00     0.000 A 
HETATM   30  C22 UNL     1       4.876  57.391  23.585  1.00  0.00     0.001 A 
HETATM   31  C23 UNL     1       5.003  58.772  23.410  1.00  0.00     0.013 A 
ENDBRANCH  17  26
ENDBRANCH   1  17
TORSDOF 9
ENDMDL
