MODEL 1
REMARK VINA RESULT: -7.796103165      0.000      0.000
REMARK  8 active torsions:
REMARK  status: ('A' for Active; 'I' for Inactive)
REMARK       I    between atoms: C1_2  and  N1_3 
REMARK    1  A    between atoms: C1_2  and  C7_10 
REMARK    2  A    between atoms: N1_3  and  C2_5 
REMARK    3  A    between atoms: C10_13  and  N2_14 
REMARK    4  A    between atoms: N2_14  and  C11_17 
REMARK    5  A    between atoms: C11_17  and  C12_18 
REMARK    6  A    between atoms: C12_18  and  C13_19 
REMARK    7  A    between atoms: C13_19  and  N3_20 
REMARK    8  A    between atoms: N4_23  and  C16_24 
ROOT
HETATM    1  N2  UNL     1       4.781  60.771  25.046  1.00  0.00    -0.071 N 
ATOM      2  H21 UNL     1       5.746  61.101  25.026  1.00  0.00     0.277 HD
ATOM      3  H22 UNL     1       4.673  60.683  26.056  1.00  0.00     0.277 HD
ENDROOT
BRANCH   1   4
HETATM    4  C10 UNL     1       4.630  59.498  24.373  1.00  0.00     0.186 C 
HETATM    5  C9  UNL     1       3.172  59.159  24.155  1.00  0.00     0.034 C 
HETATM    6  C8  UNL     1       2.837  57.779  24.618  1.00  0.00     0.016 C 
HETATM    7  C7  UNL     1       3.863  56.744  24.245  1.00  0.00     0.078 C 
HETATM    8  C24 UNL     1       5.285  57.174  24.359  1.00  0.00     0.016 C 
HETATM    9  C23 UNL     1       5.327  58.438  25.186  1.00  0.00     0.034 C 
BRANCH   7  10
HETATM   10  C1  UNL     1       3.632  56.310  22.820  1.00  0.00     0.222 C 
HETATM   11  O1  UNL     1       4.437  56.781  21.942  1.00  0.00    -0.273 OA
HETATM   12  N1  UNL     1       2.598  55.437  22.464  1.00  0.00    -0.356 N 
ATOM     13  H1  UNL     1       1.968  55.081  23.183  1.00  0.00     0.162 HD
BRANCH  12  14
HETATM   14  C2  UNL     1       2.411  55.033  21.082  1.00  0.00     0.084 C 
HETATM   15  C3  UNL     1       0.930  55.038  20.789  1.00  0.00     0.025 C 
HETATM   16  C4  UNL     1       0.451  53.904  21.674  1.00  0.00     0.002 C 
HETATM   17  C5  UNL     1       1.589  52.913  21.702  1.00  0.00     0.002 C 
HETATM   18  C6  UNL     1       2.753  53.572  20.977  1.00  0.00     0.025 C 
ENDBRANCH  12  14
ENDBRANCH   7  10
ENDBRANCH   1   4
BRANCH   1  19
HETATM   19  C11 UNL     1       3.863  61.746  24.484  1.00  0.00     0.234 C 
BRANCH  19  20
HETATM   20  C12 UNL     1       4.592  62.562  23.430  1.00  0.00     0.057 C 
BRANCH  20  21
HETATM   21  C13 UNL     1       4.013  62.182  22.103  1.00  0.00     0.274 C 
BRANCH  21  22
HETATM   22  N3  UNL     1       5.022  61.606  21.272  1.00  0.00     0.091 N 
HETATM   23  C14 UNL     1       6.323  62.030  21.779  1.00  0.00     0.292 C 
HETATM   24  C15 UNL     1       7.258  61.994  20.561  1.00  0.00     0.154 C 
HETATM   25  N4  UNL     1       7.083  60.681  19.984  1.00  0.00    -0.364 N 
HETATM   26  C21 UNL     1       6.351  59.678  20.719  1.00  0.00     0.154 C 
HETATM   27  C22 UNL     1       4.946  60.205  21.041  1.00  0.00     0.292 C 
BRANCH  25  28
HETATM   28  C16 UNL     1       7.632  60.418  18.710  1.00  0.00     0.102 A 
HETATM   29  C17 UNL     1       8.384  61.376  18.057  1.00  0.00     0.048 A 
HETATM   30  C18 UNL     1       8.899  61.081  16.826  1.00  0.00     0.005 A 
HETATM   31  C19 UNL     1       8.676  59.853  16.237  1.00  0.00     0.017 A 
HETATM   32  C20 UNL     1       7.912  58.943  16.950  1.00  0.00     0.089 A 
HETATM   33  N5  UNL     1       7.392  59.199  18.161  1.00  0.00    -0.352 N 
ATOM     34  H5  UNL     1       6.835  58.501  18.654  1.00  0.00     0.166 HD
ENDBRANCH  25  28
ENDBRANCH  21  22
ENDBRANCH  20  21
ENDBRANCH  19  20
ENDBRANCH   1  19
TORSDOF 8
ENDMDL
MODEL 2
REMARK VINA RESULT: -7.791133414      1.945      3.526
REMARK  8 active torsions:
REMARK  status: ('A' for Active; 'I' for Inactive)
REMARK       I    between atoms: C1_2  and  N1_3 
REMARK    1  A    between atoms: C1_2  and  C7_10 
REMARK    2  A    between atoms: N1_3  and  C2_5 
REMARK    3  A    between atoms: C10_13  and  N2_14 
REMARK    4  A    between atoms: N2_14  and  C11_17 
REMARK    5  A    between atoms: C11_17  and  C12_18 
REMARK    6  A    between atoms: C12_18  and  C13_19 
REMARK    7  A    between atoms: C13_19  and  N3_20 
REMARK    8  A    between atoms: N4_23  and  C16_24 
ROOT
HETATM    1  N2  UNL     1       3.821  57.138  24.277  1.00  0.00    -0.071 N 
ATOM      2  H21 UNL     1       4.622  57.761  24.384  1.00  0.00     0.277 HD
ATOM      3  H22 UNL     1       4.232  56.295  24.679  1.00  0.00     0.277 HD
ENDROOT
BRANCH   1   4
HETATM    4  C10 UNL     1       3.461  56.955  22.887  1.00  0.00     0.186 C 
HETATM    5  C9  UNL     1       3.152  55.505  22.585  1.00  0.00     0.034 C 
HETATM    6  C8  UNL     1       3.887  55.009  21.382  1.00  0.00     0.016 C 
HETATM    7  C7  UNL     1       3.904  55.980  20.234  1.00  0.00     0.078 C 
HETATM    8  C24 UNL     1       4.087  57.412  20.601  1.00  0.00     0.016 C 
HETATM    9  C23 UNL     1       4.585  57.470  22.026  1.00  0.00     0.034 C 
BRANCH   7  10
HETATM   10  C1  UNL     1       2.608  55.867  19.473  1.00  0.00     0.222 C 
HETATM   11  O1  UNL     1       2.147  56.949  18.967  1.00  0.00    -0.273 OA
HETATM   12  N1  UNL     1       1.937  54.648  19.319  1.00  0.00    -0.356 N 
ATOM     13  H1  UNL     1       2.324  53.802  19.736  1.00  0.00     0.162 HD
BRANCH  12  14
HETATM   14  C2  UNL     1       0.695  54.576  18.570  1.00  0.00     0.084 C 
HETATM   15  C3  UNL     1      -0.449  54.671  19.551  1.00  0.00     0.025 C 
HETATM   16  C4  UNL     1      -0.290  53.373  20.316  1.00  0.00     0.002 C 
HETATM   17  C5  UNL     1       0.252  52.383  19.313  1.00  0.00     0.002 C 
HETATM   18  C6  UNL     1       0.550  53.172  18.048  1.00  0.00     0.025 C 
ENDBRANCH  12  14
ENDBRANCH   7  10
ENDBRANCH   1   4
BRANCH   1  19
HETATM   19  C11 UNL     1       2.672  57.597  25.037  1.00  0.00     0.234 C 
BRANCH  19  20
HETATM   20  C12 UNL     1       2.334  59.017  24.613  1.00  0.00     0.057 C 
BRANCH  20  21
HETATM   21  C13 UNL     1       3.444  59.896  25.100  1.00  0.00     0.274 C 
BRANCH  21  22
HETATM   22  N3  UNL     1       4.159  60.445  23.993  1.00  0.00     0.091 N 
HETATM   23  C14 UNL     1       3.186  60.933  23.022  1.00  0.00     0.292 C 
HETATM   24  C15 UNL     1       3.903  60.861  21.665  1.00  0.00     0.154 C 
HETATM   25  N4  UNL     1       5.160  61.547  21.860  1.00  0.00    -0.364 N 
HETATM   26  C21 UNL     1       5.370  62.308  23.069  1.00  0.00     0.154 C 
HETATM   27  C22 UNL     1       5.176  61.394  24.287  1.00  0.00     0.292 C 
BRANCH  25  28
HETATM   28  C16 UNL     1       6.152  61.450  20.861  1.00  0.00     0.102 A 
HETATM   29  C17 UNL     1       6.639  60.217  20.472  1.00  0.00     0.048 A 
HETATM   30  C18 UNL     1       7.598  60.165  19.500  1.00  0.00     0.005 A 
HETATM   31  C19 UNL     1       8.080  61.318  18.914  1.00  0.00     0.017 A 
HETATM   32  C20 UNL     1       7.546  62.519  19.355  1.00  0.00     0.089 A 
HETATM   33  N5  UNL     1       6.602  62.605  20.306  1.00  0.00    -0.352 N 
ATOM     34  H5  UNL     1       6.235  63.509  20.603  1.00  0.00     0.166 HD
ENDBRANCH  25  28
ENDBRANCH  21  22
ENDBRANCH  20  21
ENDBRANCH  19  20
ENDBRANCH   1  19
TORSDOF 8
ENDMDL
MODEL 3
REMARK VINA RESULT: -7.706102744      1.712      6.840
REMARK  8 active torsions:
REMARK  status: ('A' for Active; 'I' for Inactive)
REMARK       I    between atoms: C1_2  and  N1_3 
REMARK    1  A    between atoms: C1_2  and  C7_10 
REMARK    2  A    between atoms: N1_3  and  C2_5 
REMARK    3  A    between atoms: C10_13  and  N2_14 
REMARK    4  A    between atoms: N2_14  and  C11_17 
REMARK    5  A    between atoms: C11_17  and  C12_18 
REMARK    6  A    between atoms: C12_18  and  C13_19 
REMARK    7  A    between atoms: C13_19  and  N3_20 
REMARK    8  A    between atoms: N4_23  and  C16_24 
ROOT
HETATM    1  N2  UNL     1       3.689  63.275  24.639  1.00  0.00    -0.071 N 
ATOM      2  H21 UNL     1       2.762  63.599  24.361  1.00  0.00     0.277 HD
ATOM      3  H22 UNL     1       4.185  64.164  24.570  1.00  0.00     0.277 HD
ENDROOT
BRANCH   1   4
HETATM    4  C10 UNL     1       4.216  62.289  23.720  1.00  0.00     0.186 C 
HETATM    5  C9  UNL     1       4.714  62.934  22.445  1.00  0.00     0.034 C 
HETATM    6  C8  UNL     1       4.172  62.265  21.224  1.00  0.00     0.016 C 
HETATM    7  C7  UNL     1       4.173  60.763  21.299  1.00  0.00     0.078 C 
HETATM    8  C24 UNL     1       3.794  60.182  22.618  1.00  0.00     0.016 C 
HETATM    9  C23 UNL     1       3.141  61.271  23.439  1.00  0.00     0.034 C 
BRANCH   7  10
HETATM   10  C1  UNL     1       5.548  60.252  20.955  1.00  0.00     0.222 C 
HETATM   11  O1  UNL     1       5.876  59.117  21.450  1.00  0.00    -0.273 OA
HETATM   12  N1  UNL     1       6.428  60.969  20.136  1.00  0.00    -0.356 N 
ATOM     13  H1  UNL     1       6.143  61.872  19.759  1.00  0.00     0.162 HD
BRANCH  12  14
HETATM   14  C2  UNL     1       7.742  60.440  19.818  1.00  0.00     0.084 C 
HETATM   15  C3  UNL     1       8.721  61.589  19.818  1.00  0.00     0.025 C 
HETATM   16  C4  UNL     1       8.239  62.387  18.623  1.00  0.00     0.002 C 
HETATM   17  C5  UNL     1       7.705  61.364  17.650  1.00  0.00     0.002 C 
HETATM   18  C6  UNL     1       7.736  60.026  18.372  1.00  0.00     0.025 C 
ENDBRANCH  12  14
ENDBRANCH   7  10
ENDBRANCH   1   4
BRANCH   1  19
HETATM   19  C11 UNL     1       3.697  62.753  25.994  1.00  0.00     0.234 C 
BRANCH  19  20
HETATM   20  C12 UNL     1       4.977  61.965  26.212  1.00  0.00     0.057 C 
BRANCH  20  21
HETATM   21  C13 UNL     1       4.645  60.832  27.133  1.00  0.00     0.274 C 
BRANCH  21  22
HETATM   22  N3  UNL     1       4.418  59.639  26.382  1.00  0.00     0.091 N 
HETATM   23  C14 UNL     1       5.673  58.899  26.316  1.00  0.00     0.292 C 
HETATM   24  C15 UNL     1       5.584  58.073  25.024  1.00  0.00     0.154 C 
HETATM   25  N4  UNL     1       4.320  57.376  25.103  1.00  0.00    -0.364 N 
HETATM   26  C21 UNL     1       3.587  57.380  26.346  1.00  0.00     0.154 C 
HETATM   27  C22 UNL     1       3.316  58.829  26.774  1.00  0.00     0.292 C 
BRANCH  25  28
HETATM   28  C16 UNL     1       3.835  56.713  23.955  1.00  0.00     0.102 A 
HETATM   29  C17 UNL     1       2.675  55.964  24.013  1.00  0.00     0.048 A 
HETATM   30  C18 UNL     1       2.239  55.338  22.879  1.00  0.00     0.005 A 
HETATM   31  C19 UNL     1       2.937  55.446  21.694  1.00  0.00     0.017 A 
HETATM   32  C20 UNL     1       4.092  56.213  21.711  1.00  0.00     0.089 A 
HETATM   33  N5  UNL     1       4.548  56.841  22.806  1.00  0.00    -0.352 N 
ATOM     34  H5  UNL     1       5.403  57.397  22.776  1.00  0.00     0.166 HD
ENDBRANCH  25  28
ENDBRANCH  21  22
ENDBRANCH  20  21
ENDBRANCH  19  20
ENDBRANCH   1  19
TORSDOF 8
ENDMDL
MODEL 4
REMARK VINA RESULT: -7.472133914      2.001      6.849
REMARK  8 active torsions:
REMARK  status: ('A' for Active; 'I' for Inactive)
REMARK       I    between atoms: C1_2  and  N1_3 
REMARK    1  A    between atoms: C1_2  and  C7_10 
REMARK    2  A    between atoms: N1_3  and  C2_5 
REMARK    3  A    between atoms: C10_13  and  N2_14 
REMARK    4  A    between atoms: N2_14  and  C11_17 
REMARK    5  A    between atoms: C11_17  and  C12_18 
REMARK    6  A    between atoms: C12_18  and  C13_19 
REMARK    7  A    between atoms: C13_19  and  N3_20 
REMARK    8  A    between atoms: N4_23  and  C16_24 
ROOT
HETATM    1  N2  UNL     1       3.099  61.684  24.814  1.00  0.00    -0.071 N 
ATOM      2  H21 UNL     1       2.357  60.990  24.727  1.00  0.00     0.277 HD
ATOM      3  H22 UNL     1       2.519  62.521  24.849  1.00  0.00     0.277 HD
ENDROOT
BRANCH   1   4
HETATM    4  C10 UNL     1       3.978  61.682  23.663  1.00  0.00     0.186 C 
HETATM    5  C9  UNL     1       4.271  63.090  23.192  1.00  0.00     0.034 C 
HETATM    6  C8  UNL     1       4.051  63.252  21.723  1.00  0.00     0.016 C 
HETATM    7  C7  UNL     1       4.576  62.110  20.897  1.00  0.00     0.078 C 
HETATM    8  C24 UNL     1       4.370  60.751  21.471  1.00  0.00     0.016 C 
HETATM    9  C23 UNL     1       3.342  60.858  22.573  1.00  0.00     0.034 C 
BRANCH   7  10
HETATM   10  C1  UNL     1       6.056  62.294  20.684  1.00  0.00     0.222 C 
HETATM   11  O1  UNL     1       6.780  62.365  21.737  1.00  0.00    -0.273 OA
HETATM   12  N1  UNL     1       6.621  62.382  19.406  1.00  0.00    -0.356 N 
ATOM     13  H1  UNL     1       6.020  62.327  18.584  1.00  0.00     0.162 HD
BRANCH  12  14
HETATM   14  C2  UNL     1       8.053  62.550  19.239  1.00  0.00     0.084 C 
HETATM   15  C3  UNL     1       8.315  62.932  17.802  1.00  0.00     0.025 C 
HETATM   16  C4  UNL     1       7.908  61.662  17.081  1.00  0.00     0.002 C 
HETATM   17  C5  UNL     1       8.254  60.538  18.027  1.00  0.00     0.002 C 
HETATM   18  C6  UNL     1       8.692  61.191  19.329  1.00  0.00     0.025 C 
ENDBRANCH  12  14
ENDBRANCH   7  10
ENDBRANCH   1   4
BRANCH   1  19
HETATM   19  C11 UNL     1       3.869  61.505  26.032  1.00  0.00     0.234 C 
BRANCH  19  20
HETATM   20  C12 UNL     1       4.859  60.370  25.829  1.00  0.00     0.057 C 
BRANCH  20  21
HETATM   21  C13 UNL     1       4.169  59.107  26.241  1.00  0.00     0.274 C 
BRANCH  21  22
HETATM   22  N3  UNL     1       3.932  58.281  25.101  1.00  0.00     0.091 N 
HETATM   23  C14 UNL     1       5.087  57.407  24.927  1.00  0.00     0.292 C 
HETATM   24  C15 UNL     1       5.117  57.078  23.426  1.00  0.00     0.154 C 
HETATM   25  N4  UNL     1       3.785  56.613  23.110  1.00  0.00    -0.364 N 
HETATM   26  C21 UNL     1       2.863  56.331  24.183  1.00  0.00     0.154 C 
HETATM   27  C22 UNL     1       2.695  57.582  25.055  1.00  0.00     0.292 C 
BRANCH  25  28
HETATM   28  C16 UNL     1       3.423  56.454  21.755  1.00  0.00     0.102 A 
HETATM   29  C17 UNL     1       4.038  57.203  20.771  1.00  0.00     0.048 A 
HETATM   30  C18 UNL     1       3.659  57.018  19.471  1.00  0.00     0.005 A 
HETATM   31  C19 UNL     1       2.680  56.103  19.138  1.00  0.00     0.017 A 
HETATM   32  C20 UNL     1       2.107  55.388  20.179  1.00  0.00     0.089 A 
HETATM   33  N5  UNL     1       2.457  55.545  21.466  1.00  0.00    -0.352 N 
ATOM     34  H5  UNL     1       2.010  54.998  22.202  1.00  0.00     0.166 HD
ENDBRANCH  25  28
ENDBRANCH  21  22
ENDBRANCH  20  21
ENDBRANCH  19  20
ENDBRANCH   1  19
TORSDOF 8
ENDMDL
MODEL 5
REMARK VINA RESULT: -7.276047398      2.346      7.591
REMARK  8 active torsions:
REMARK  status: ('A' for Active; 'I' for Inactive)
REMARK       I    between atoms: C1_2  and  N1_3 
REMARK    1  A    between atoms: C1_2  and  C7_10 
REMARK    2  A    between atoms: N1_3  and  C2_5 
REMARK    3  A    between atoms: C10_13  and  N2_14 
REMARK    4  A    between atoms: N2_14  and  C11_17 
REMARK    5  A    between atoms: C11_17  and  C12_18 
REMARK    6  A    between atoms: C12_18  and  C13_19 
REMARK    7  A    between atoms: C13_19  and  N3_20 
REMARK    8  A    between atoms: N4_23  and  C16_24 
ROOT
HETATM    1  N2  UNL     1       3.759  61.098  21.659  1.00  0.00    -0.071 N 
ATOM      2  H21 UNL     1       3.316  60.287  21.228  1.00  0.00     0.277 HD
ATOM      3  H22 UNL     1       2.946  61.711  21.696  1.00  0.00     0.277 HD
ENDROOT
BRANCH   1   4
HETATM    4  C10 UNL     1       4.811  61.645  20.828  1.00  0.00     0.186 C 
HETATM    5  C9  UNL     1       5.853  60.598  20.498  1.00  0.00     0.034 C 
HETATM    6  C8  UNL     1       7.241  61.077  20.769  1.00  0.00     0.016 C 
HETATM    7  C7  UNL     1       7.498  62.490  20.324  1.00  0.00     0.078 C 
HETATM    8  C24 UNL     1       6.388  63.454  20.562  1.00  0.00     0.016 C 
HETATM    9  C23 UNL     1       5.422  62.824  21.539  1.00  0.00     0.034 C 
BRANCH   7  10
HETATM   10  C1  UNL     1       7.798  62.496  18.847  1.00  0.00     0.222 C 
HETATM   11  O1  UNL     1       8.027  63.638  18.315  1.00  0.00    -0.273 OA
HETATM   12  N1  UNL     1       7.829  61.321  18.087  1.00  0.00    -0.356 N 
ATOM     13  H1  UNL     1       7.639  60.425  18.535  1.00  0.00     0.162 HD
BRANCH  12  14
HETATM   14  C2  UNL     1       8.131  61.364  16.668  1.00  0.00     0.084 C 
HETATM   15  C3  UNL     1       6.951  60.790  15.921  1.00  0.00     0.025 C 
HETATM   16  C4  UNL     1       6.998  59.342  16.363  1.00  0.00     0.002 C 
HETATM   17  C5  UNL     1       8.463  59.033  16.560  1.00  0.00     0.002 C 
HETATM   18  C6  UNL     1       9.207  60.349  16.393  1.00  0.00     0.025 C 
ENDBRANCH  12  14
ENDBRANCH   7  10
ENDBRANCH   1   4
BRANCH   1  19
HETATM   19  C11 UNL     1       4.273  60.797  22.984  1.00  0.00     0.234 C 
BRANCH  19  20
HETATM   20  C12 UNL     1       3.686  59.477  23.453  1.00  0.00     0.057 C 
BRANCH  20  21
HETATM   21  C13 UNL     1       4.645  58.401  23.050  1.00  0.00     0.274 C 
BRANCH  21  22
HETATM   22  N3  UNL     1       3.995  57.455  22.201  1.00  0.00     0.091 N 
HETATM   23  C14 UNL     1       4.591  57.553  20.873  1.00  0.00     0.292 C 
HETATM   24  C15 UNL     1       3.492  57.088  19.906  1.00  0.00     0.154 C 
HETATM   25  N4  UNL     1       3.043  55.814  20.421  1.00  0.00    -0.364 N 
HETATM   26  C21 UNL     1       3.798  55.171  21.469  1.00  0.00     0.154 C 
HETATM   27  C22 UNL     1       3.909  56.116  22.673  1.00  0.00     0.292 C 
BRANCH  25  28
HETATM   28  C16 UNL     1       1.872  55.237  19.885  1.00  0.00     0.102 A 
HETATM   29  C17 UNL     1       0.820  54.887  20.710  1.00  0.00     0.048 A 
HETATM   30  C18 UNL     1      -0.297  54.331  20.152  1.00  0.00     0.005 A 
HETATM   31  C19 UNL     1      -0.381  54.118  18.790  1.00  0.00     0.017 A 
HETATM   32  C20 UNL     1       0.713  54.494  18.026  1.00  0.00     0.089 A 
HETATM   33  N5  UNL     1       1.824  55.042  18.542  1.00  0.00    -0.352 N 
ATOM     34  H5  UNL     1       2.608  55.305  17.944  1.00  0.00     0.166 HD
ENDBRANCH  25  28
ENDBRANCH  21  22
ENDBRANCH  20  21
ENDBRANCH  19  20
ENDBRANCH   1  19
TORSDOF 8
ENDMDL
