MODEL 1
REMARK VINA RESULT: -8.264992290      0.000      0.000
REMARK  8 active torsions:
REMARK  status: ('A' for Active; 'I' for Inactive)
REMARK    1  A    between atoms: N1_2  and  C2_5 
REMARK    2  A    between atoms: C6_10  and  C7_11 
REMARK    3  A    between atoms: C7_11  and  O2_12 
REMARK    4  A    between atoms: N2_16  and  C10_17 
REMARK    5  A    between atoms: C10_17  and  C11_18 
REMARK    6  A    between atoms: C11_18  and  C12_19 
REMARK    7  A    between atoms: C12_19  and  C13_20 
REMARK    8  A    between atoms: C12_19  and  C19_26 
ROOT
HETATM    1  C2  UNL     1       1.704  53.510  22.588  1.00  0.00     0.202 C 
HETATM    2  C3  UNL     1       0.379  52.926  22.275  1.00  0.00     0.037 C 
HETATM    3  C4  UNL     1       0.098  52.679  20.827  1.00  0.00     0.035 C 
HETATM    4  C5  UNL     1       0.754  53.608  19.878  1.00  0.00     0.132 C 
HETATM    5  O1  UNL     1       1.938  53.021  19.433  1.00  0.00    -0.377 OA
HETATM    6  C6  UNL     1       2.903  53.253  20.387  1.00  0.00     0.161 C 
HETATM    7  C8  UNL     1       2.351  54.166  21.433  1.00  0.00     0.059 C 
HETATM    8  C9  UNL     1       3.222  55.341  21.731  1.00  0.00     0.083 C 
HETATM    9  N2  UNL     1       3.058  56.175  20.607  1.00  0.00    -0.353 N 
HETATM   10  C25 UNL     1       1.998  55.801  19.804  1.00  0.00     0.076 C 
HETATM   11  C26 UNL     1       1.218  54.826  20.635  1.00  0.00     0.072 C 
ENDROOT
BRANCH   9  12
HETATM   12  C10 UNL     1       3.852  57.285  20.410  1.00  0.00     0.069 C 
BRANCH  12  13
HETATM   13  C11 UNL     1       4.871  57.616  21.443  1.00  0.00     0.059 C 
BRANCH  13  14
HETATM   14  C12 UNL     1       4.473  58.796  22.296  1.00  0.00     0.056 C 
BRANCH  14  15
HETATM   15  C13 UNL     1       4.959  58.661  23.688  1.00  0.00    -0.049 A 
HETATM   16  C14 UNL     1       5.381  57.411  24.084  1.00  0.00     0.008 A 
HETATM   17  C15 UNL     1       5.825  57.254  25.378  1.00  0.00     0.001 A 
HETATM   18  C16 UNL     1       5.863  58.297  26.284  1.00  0.00     0.000 A 
HETATM   19  C17 UNL     1       5.445  59.551  25.903  1.00  0.00     0.001 A 
HETATM   20  C18 UNL     1       4.997  59.691  24.584  1.00  0.00     0.008 A 
ENDBRANCH  14  15
BRANCH  14  21
HETATM   21  C19 UNL     1       4.758  60.103  21.714  1.00  0.00    -0.049 A 
HETATM   22  C20 UNL     1       3.827  61.116  21.634  1.00  0.00     0.008 A 
HETATM   23  C21 UNL     1       4.127  62.349  21.078  1.00  0.00     0.001 A 
HETATM   24  C22 UNL     1       5.396  62.572  20.589  1.00  0.00     0.000 A 
HETATM   25  C23 UNL     1       6.372  61.572  20.650  1.00  0.00     0.001 A 
HETATM   26  C24 UNL     1       6.026  60.363  21.212  1.00  0.00     0.008 A 
ENDBRANCH  14  21
ENDBRANCH  13  14
ENDBRANCH  12  13
ENDBRANCH   9  12
BRANCH   1  27
HETATM   27  N1  UNL     1       1.531  54.531  23.625  1.00  0.00    -0.074 N 
HETATM   28  C1  UNL     1       1.521  53.936  24.944  1.00  0.00     0.267 C 
ATOM     29  H12 UNL     1       0.699  55.096  23.460  1.00  0.00     0.277 HD
ATOM     30  H11 UNL     1       2.235  55.265  23.549  1.00  0.00     0.277 HD
ENDBRANCH   1  27
BRANCH   6  31
HETATM   31  C7  UNL     1       3.481  51.974  20.919  1.00  0.00     0.197 C 
BRANCH  31  32
HETATM   32  O2  UNL     1       4.608  51.564  20.213  1.00  0.00    -0.398 OA
ATOM     33  H2  UNL     1       4.820  50.650  20.365  1.00  0.00     0.209 HD
ENDBRANCH  31  32
ENDBRANCH   6  31
TORSDOF 8
ENDMDL
MODEL 2
REMARK VINA RESULT: -8.221581107      4.457      7.732
REMARK  8 active torsions:
REMARK  status: ('A' for Active; 'I' for Inactive)
REMARK    1  A    between atoms: N1_2  and  C2_5 
REMARK    2  A    between atoms: C6_10  and  C7_11 
REMARK    3  A    between atoms: C7_11  and  O2_12 
REMARK    4  A    between atoms: N2_16  and  C10_17 
REMARK    5  A    between atoms: C10_17  and  C11_18 
REMARK    6  A    between atoms: C11_18  and  C12_19 
REMARK    7  A    between atoms: C12_19  and  C13_20 
REMARK    8  A    between atoms: C12_19  and  C19_26 
ROOT
HETATM    1  C2  UNL     1       5.373  60.103  27.372  1.00  0.00     0.202 C 
HETATM    2  C3  UNL     1       6.342  61.044  27.982  1.00  0.00     0.037 C 
HETATM    3  C4  UNL     1       5.909  62.474  28.053  1.00  0.00     0.035 C 
HETATM    4  C5  UNL     1       5.001  62.925  26.973  1.00  0.00     0.132 C 
HETATM    5  O1  UNL     1       3.687  62.824  27.431  1.00  0.00    -0.377 OA
HETATM    6  C6  UNL     1       3.289  61.516  27.273  1.00  0.00     0.161 C 
HETATM    7  C8  UNL     1       4.349  60.764  26.537  1.00  0.00     0.059 C 
HETATM    8  C9  UNL     1       3.841  59.993  25.365  1.00  0.00     0.083 C 
HETATM    9  N2  UNL     1       3.569  60.985  24.401  1.00  0.00    -0.353 N 
HETATM   10  C25 UNL     1       4.104  62.217  24.724  1.00  0.00     0.076 C 
HETATM   11  C26 UNL     1       5.065  61.932  25.841  1.00  0.00     0.072 C 
ENDROOT
BRANCH   9  12
HETATM   12  C10 UNL     1       2.898  60.692  23.233  1.00  0.00     0.069 C 
BRANCH  12  13
HETATM   13  C11 UNL     1       3.618  60.869  21.942  1.00  0.00     0.059 C 
BRANCH  13  14
HETATM   14  C12 UNL     1       4.820  59.964  21.817  1.00  0.00     0.056 C 
BRANCH  14  15
HETATM   15  C13 UNL     1       4.439  58.594  21.404  1.00  0.00    -0.049 A 
HETATM   16  C14 UNL     1       4.526  57.607  22.360  1.00  0.00     0.008 A 
HETATM   17  C15 UNL     1       4.191  56.320  21.999  1.00  0.00     0.001 A 
HETATM   18  C16 UNL     1       3.774  55.990  20.724  1.00  0.00     0.000 A 
HETATM   19  C17 UNL     1       3.682  56.966  19.758  1.00  0.00     0.001 A 
HETATM   20  C18 UNL     1       4.026  58.266  20.143  1.00  0.00     0.008 A 
ENDBRANCH  14  15
BRANCH  14  21
HETATM   21  C19 UNL     1       5.927  60.510  21.039  1.00  0.00    -0.049 A 
HETATM   22  C20 UNL     1       6.810  59.728  20.327  1.00  0.00     0.008 A 
HETATM   23  C21 UNL     1       7.851  60.276  19.593  1.00  0.00     0.001 A 
HETATM   24  C22 UNL     1       8.009  61.644  19.575  1.00  0.00     0.000 A 
HETATM   25  C23 UNL     1       7.135  62.475  20.284  1.00  0.00     0.001 A 
HETATM   26  C24 UNL     1       6.116  61.885  20.997  1.00  0.00     0.008 A 
ENDBRANCH  14  21
ENDBRANCH  13  14
ENDBRANCH  12  13
ENDBRANCH   9  12
BRANCH   1  27
HETATM   27  N1  UNL     1       6.105  59.175  26.506  1.00  0.00    -0.074 N 
HETATM   28  C1  UNL     1       6.800  58.174  27.287  1.00  0.00     0.267 C 
ATOM     29  H12 UNL     1       6.738  59.668  25.877  1.00  0.00     0.277 HD
ATOM     30  H11 UNL     1       5.494  58.750  25.809  1.00  0.00     0.277 HD
ENDBRANCH   1  27
BRANCH   6  31
HETATM   31  C7  UNL     1       2.879  60.896  28.576  1.00  0.00     0.197 C 
BRANCH  31  32
HETATM   32  O2  UNL     1       2.805  61.826  29.610  1.00  0.00    -0.398 OA
ATOM     33  H2  UNL     1       2.006  61.742  30.118  1.00  0.00     0.209 HD
ENDBRANCH  31  32
ENDBRANCH   6  31
TORSDOF 8
ENDMDL
MODEL 3
REMARK VINA RESULT: -8.180061387      0.812      3.319
REMARK  8 active torsions:
REMARK  status: ('A' for Active; 'I' for Inactive)
REMARK    1  A    between atoms: N1_2  and  C2_5 
REMARK    2  A    between atoms: C6_10  and  C7_11 
REMARK    3  A    between atoms: C7_11  and  O2_12 
REMARK    4  A    between atoms: N2_16  and  C10_17 
REMARK    5  A    between atoms: C10_17  and  C11_18 
REMARK    6  A    between atoms: C11_18  and  C12_19 
REMARK    7  A    between atoms: C12_19  and  C13_20 
REMARK    8  A    between atoms: C12_19  and  C19_26 
ROOT
HETATM    1  C2  UNL     1       1.870  53.872  22.579  1.00  0.00     0.202 C 
HETATM    2  C3  UNL     1       0.475  53.385  22.475  1.00  0.00     0.037 C 
HETATM    3  C4  UNL     1      -0.000  53.050  21.097  1.00  0.00     0.035 C 
HETATM    4  C5  UNL     1       0.605  53.839  19.998  1.00  0.00     0.132 C 
HETATM    5  O1  UNL     1       1.676  53.115  19.474  1.00  0.00    -0.377 OA
HETATM    6  C6  UNL     1       2.766  53.335  20.285  1.00  0.00     0.161 C 
HETATM    7  C8  UNL     1       2.421  54.374  21.302  1.00  0.00     0.059 C 
HETATM    8  C9  UNL     1       3.411  55.487  21.391  1.00  0.00     0.083 C 
HETATM    9  N2  UNL     1       3.176  56.240  20.223  1.00  0.00    -0.353 N 
HETATM   10  C25 UNL     1       1.999  55.900  19.585  1.00  0.00     0.076 C 
HETATM   11  C26 UNL     1       1.253  55.067  20.585  1.00  0.00     0.072 C 
ENDROOT
BRANCH   9  12
HETATM   12  C10 UNL     1       4.024  57.256  19.837  1.00  0.00     0.069 C 
BRANCH  12  13
HETATM   13  C11 UNL     1       3.999  58.528  20.610  1.00  0.00     0.059 C 
BRANCH  13  14
HETATM   14  C12 UNL     1       5.294  58.790  21.341  1.00  0.00     0.056 C 
BRANCH  14  15
HETATM   15  C13 UNL     1       5.975  60.005  20.841  1.00  0.00    -0.049 A 
HETATM   16  C14 UNL     1       7.187  59.828  20.211  1.00  0.00     0.008 A 
HETATM   17  C15 UNL     1       7.849  60.943  19.748  1.00  0.00     0.001 A 
HETATM   18  C16 UNL     1       7.344  62.222  19.891  1.00  0.00     0.000 A 
HETATM   19  C17 UNL     1       6.135  62.414  20.517  1.00  0.00     0.001 A 
HETATM   20  C18 UNL     1       5.476  61.270  20.981  1.00  0.00     0.008 A 
ENDBRANCH  14  15
BRANCH  14  21
HETATM   21  C19 UNL     1       5.201  58.743  22.797  1.00  0.00    -0.049 A 
HETATM   22  C20 UNL     1       5.176  57.569  23.516  1.00  0.00     0.008 A 
HETATM   23  C21 UNL     1       5.091  57.554  24.899  1.00  0.00     0.001 A 
HETATM   24  C22 UNL     1       5.030  58.752  25.578  1.00  0.00     0.000 A 
HETATM   25  C23 UNL     1       5.053  59.968  24.887  1.00  0.00     0.001 A 
HETATM   26  C24 UNL     1       5.139  59.931  23.513  1.00  0.00     0.008 A 
ENDBRANCH  14  21
ENDBRANCH  13  14
ENDBRANCH  12  13
ENDBRANCH   9  12
BRANCH   1  27
HETATM   27  N1  UNL     1       1.908  54.983  23.532  1.00  0.00    -0.074 N 
HETATM   28  C1  UNL     1       1.564  54.536  24.866  1.00  0.00     0.267 C 
ATOM     29  H12 UNL     1       1.316  55.757  23.231  1.00  0.00     0.277 HD
ATOM     30  H11 UNL     1       2.808  55.462  23.517  1.00  0.00     0.277 HD
ENDBRANCH   1  27
BRANCH   6  31
HETATM   31  C7  UNL     1       3.302  52.057  20.859  1.00  0.00     0.197 C 
BRANCH  31  32
HETATM   32  O2  UNL     1       4.409  51.582  20.160  1.00  0.00    -0.398 OA
ATOM     33  H2  UNL     1       4.177  50.928  19.511  1.00  0.00     0.209 HD
ENDBRANCH  31  32
ENDBRANCH   6  31
TORSDOF 8
ENDMDL
MODEL 4
REMARK VINA RESULT: -8.037617660      3.595      6.625
REMARK  8 active torsions:
REMARK  status: ('A' for Active; 'I' for Inactive)
REMARK    1  A    between atoms: N1_2  and  C2_5 
REMARK    2  A    between atoms: C6_10  and  C7_11 
REMARK    3  A    between atoms: C7_11  and  O2_12 
REMARK    4  A    between atoms: N2_16  and  C10_17 
REMARK    5  A    between atoms: C10_17  and  C11_18 
REMARK    6  A    between atoms: C11_18  and  C12_19 
REMARK    7  A    between atoms: C12_19  and  C13_20 
REMARK    8  A    between atoms: C12_19  and  C19_26 
ROOT
HETATM    1  C2  UNL     1       5.483  60.162  27.722  1.00  0.00     0.202 C 
HETATM    2  C3  UNL     1       4.772  59.377  28.758  1.00  0.00     0.037 C 
HETATM    3  C4  UNL     1       4.054  58.157  28.276  1.00  0.00     0.035 C 
HETATM    4  C5  UNL     1       3.532  58.223  26.891  1.00  0.00     0.132 C 
HETATM    5  O1  UNL     1       4.467  57.635  26.039  1.00  0.00    -0.377 OA
HETATM    6  C6  UNL     1       5.430  58.579  25.762  1.00  0.00     0.161 C 
HETATM    7  C8  UNL     1       5.016  59.891  26.346  1.00  0.00     0.059 C 
HETATM    8  C9  UNL     1       5.074  61.028  25.382  1.00  0.00     0.083 C 
HETATM    9  N2  UNL     1       3.969  60.809  24.536  1.00  0.00    -0.353 N 
HETATM   10  C25 UNL     1       3.091  59.860  25.024  1.00  0.00     0.076 C 
HETATM   11  C26 UNL     1       3.501  59.665  26.454  1.00  0.00     0.072 C 
ENDROOT
BRANCH   9  12
HETATM   12  C10 UNL     1       3.784  61.545  23.385  1.00  0.00     0.069 C 
BRANCH  12  13
HETATM   13  C11 UNL     1       3.698  60.818  22.089  1.00  0.00     0.059 C 
BRANCH  13  14
HETATM   14  C12 UNL     1       4.898  59.937  21.835  1.00  0.00     0.056 C 
BRANCH  14  15
HETATM   15  C13 UNL     1       4.503  58.567  21.440  1.00  0.00    -0.049 A 
HETATM   16  C14 UNL     1       4.551  57.597  22.417  1.00  0.00     0.008 A 
HETATM   17  C15 UNL     1       4.202  56.309  22.074  1.00  0.00     0.001 A 
HETATM   18  C16 UNL     1       3.810  55.960  20.796  1.00  0.00     0.000 A 
HETATM   19  C17 UNL     1       3.758  56.918  19.809  1.00  0.00     0.001 A 
HETATM   20  C18 UNL     1       4.115  58.220  20.177  1.00  0.00     0.008 A 
ENDBRANCH  14  15
BRANCH  14  21
HETATM   21  C19 UNL     1       5.914  60.515  20.962  1.00  0.00    -0.049 A 
HETATM   22  C20 UNL     1       6.821  59.759  20.253  1.00  0.00     0.008 A 
HETATM   23  C21 UNL     1       7.774  60.335  19.427  1.00  0.00     0.001 A 
HETATM   24  C22 UNL     1       7.817  61.708  19.312  1.00  0.00     0.000 A 
HETATM   25  C23 UNL     1       6.915  62.513  20.015  1.00  0.00     0.001 A 
HETATM   26  C24 UNL     1       5.986  61.894  20.821  1.00  0.00     0.008 A 
ENDBRANCH  14  21
ENDBRANCH  13  14
ENDBRANCH  12  13
ENDBRANCH   9  12
BRANCH   1  27
HETATM   27  N1  UNL     1       5.261  61.587  27.980  1.00  0.00    -0.074 N 
HETATM   28  C1  UNL     1       6.393  62.174  28.665  1.00  0.00     0.267 C 
ATOM     29  H12 UNL     1       4.391  61.746  28.488  1.00  0.00     0.277 HD
ATOM     30  H11 UNL     1       5.036  62.094  27.125  1.00  0.00     0.277 HD
ENDBRANCH   1  27
BRANCH   6  31
HETATM   31  C7  UNL     1       6.797  58.119  26.173  1.00  0.00     0.197 C 
BRANCH  31  32
HETATM   32  O2  UNL     1       6.830  56.765  26.497  1.00  0.00    -0.398 OA
ATOM     33  H2  UNL     1       5.963  56.407  26.650  1.00  0.00     0.209 HD
ENDBRANCH  31  32
ENDBRANCH   6  31
TORSDOF 8
ENDMDL
MODEL 5
REMARK VINA RESULT: -8.015962611      4.181      7.601
REMARK  8 active torsions:
REMARK  status: ('A' for Active; 'I' for Inactive)
REMARK    1  A    between atoms: N1_2  and  C2_5 
REMARK    2  A    between atoms: C6_10  and  C7_11 
REMARK    3  A    between atoms: C7_11  and  O2_12 
REMARK    4  A    between atoms: N2_16  and  C10_17 
REMARK    5  A    between atoms: C10_17  and  C11_18 
REMARK    6  A    between atoms: C11_18  and  C12_19 
REMARK    7  A    between atoms: C12_19  and  C13_20 
REMARK    8  A    between atoms: C12_19  and  C19_26 
ROOT
HETATM    1  C2  UNL     1       5.451  60.080  27.479  1.00  0.00     0.202 C 
HETATM    2  C3  UNL     1       6.372  61.074  28.080  1.00  0.00     0.037 C 
HETATM    3  C4  UNL     1       5.854  62.474  28.170  1.00  0.00     0.035 C 
HETATM    4  C5  UNL     1       4.899  62.876  27.111  1.00  0.00     0.132 C 
HETATM    5  O1  UNL     1       3.603  62.692  27.593  1.00  0.00    -0.377 OA
HETATM    6  C6  UNL     1       3.283  61.363  27.431  1.00  0.00     0.161 C 
HETATM    7  C8  UNL     1       4.373  60.683  26.669  1.00  0.00     0.059 C 
HETATM    8  C9  UNL     1       3.891  59.891  25.500  1.00  0.00     0.083 C 
HETATM    9  N2  UNL     1       3.540  60.871  24.550  1.00  0.00    -0.353 N 
HETATM   10  C25 UNL     1       4.005  62.131  24.873  1.00  0.00     0.076 C 
HETATM   11  C26 UNL     1       5.002  61.897  25.970  1.00  0.00     0.072 C 
ENDROOT
BRANCH   9  12
HETATM   12  C10 UNL     1       2.866  60.546  23.391  1.00  0.00     0.069 C 
BRANCH  12  13
HETATM   13  C11 UNL     1       3.541  60.798  22.089  1.00  0.00     0.059 C 
BRANCH  13  14
HETATM   14  C12 UNL     1       4.773  59.947  21.897  1.00  0.00     0.056 C 
BRANCH  14  15
HETATM   15  C13 UNL     1       4.434  58.569  21.478  1.00  0.00    -0.049 A 
HETATM   16  C14 UNL     1       4.016  58.397  20.177  1.00  0.00     0.008 A 
HETATM   17  C15 UNL     1       3.680  57.126  19.764  1.00  0.00     0.001 A 
HETATM   18  C16 UNL     1       3.747  56.029  20.601  1.00  0.00     0.000 A 
HETATM   19  C17 UNL     1       4.162  56.186  21.904  1.00  0.00     0.001 A 
HETATM   20  C18 UNL     1       4.500  57.483  22.305  1.00  0.00     0.008 A 
ENDBRANCH  14  15
BRANCH  14  21
HETATM   21  C19 UNL     1       5.822  60.553  21.082  1.00  0.00    -0.049 A 
HETATM   22  C20 UNL     1       5.913  61.908  20.851  1.00  0.00     0.008 A 
HETATM   23  C21 UNL     1       6.923  62.455  20.075  1.00  0.00     0.001 A 
HETATM   24  C22 UNL     1       7.864  61.620  19.515  1.00  0.00     0.000 A 
HETATM   25  C23 UNL     1       7.808  60.238  19.724  1.00  0.00     0.001 A 
HETATM   26  C24 UNL     1       6.787  59.741  20.503  1.00  0.00     0.008 A 
ENDBRANCH  14  21
ENDBRANCH  13  14
ENDBRANCH  12  13
ENDBRANCH   9  12
BRANCH   1  27
HETATM   27  N1  UNL     1       6.222  59.205  26.592  1.00  0.00    -0.074 N 
HETATM   28  C1  UNL     1       6.795  58.096  27.325  1.00  0.00     0.267 C 
ATOM     29  H12 UNL     1       6.934  59.724  26.078  1.00  0.00     0.277 HD
ATOM     30  H11 UNL     1       5.663  58.885  25.802  1.00  0.00     0.277 HD
ENDBRANCH   1  27
BRANCH   6  31
HETATM   31  C7  UNL     1       2.936  60.709  28.736  1.00  0.00     0.197 C 
BRANCH  31  32
HETATM   32  O2  UNL     1       1.992  59.696  28.591  1.00  0.00    -0.398 OA
ATOM     33  H2  UNL     1       2.387  58.859  28.374  1.00  0.00     0.209 HD
ENDBRANCH  31  32
ENDBRANCH   6  31
TORSDOF 8
ENDMDL
