MODEL 1
REMARK VINA RESULT: -7.627202864      0.000      0.000
REMARK  10 active torsions:
REMARK  status: ('A' for Active; 'I' for Inactive)
REMARK    1  A    between atoms: N1_2  and  C3_4 
REMARK    2  A    between atoms: C3_4  and  N2_6 
REMARK    3  A    between atoms: N2_6  and  C4_8 
REMARK    4  A    between atoms: C4_8  and  C5_9 
REMARK    5  A    between atoms: C4_8  and  C19_31 
REMARK    6  A    between atoms: C5_9  and  N3_10 
REMARK    7  A    between atoms: N3_10  and  C6_13 
REMARK    8  A    between atoms: C8_15  and  N4_16 
REMARK    9  A    between atoms: N4_16  and  C9_19 
REMARK   10  A    between atoms: C9_19  and  C10_20 
ROOT
HETATM    1  C10 UNL     1      16.027  -6.971  -7.461  1.00  0.00    -0.012 A 
HETATM    2  C11 UNL     1      16.373  -6.837  -6.128  1.00  0.00     0.010 A 
HETATM    3  C12 UNL     1      17.044  -5.703  -5.764  1.00  0.00     0.001 A 
HETATM    4  C13 UNL     1      17.351  -4.745  -6.705  1.00  0.00     0.002 A 
HETATM    5  C14 UNL     1      16.996  -4.894  -8.041  1.00  0.00     0.023 A 
HETATM    6  C15 UNL     1      16.325  -6.025  -8.413  1.00  0.00     0.052 A 
HETATM    7  C16 UNL     1      15.943  -6.204  -9.781  1.00  0.00     0.100 C 
HETATM    8  N5  UNL     1      15.655  -6.355 -10.880  1.00  0.00    -0.191 NA
ENDROOT
BRANCH   1   9
HETATM    9  C9  UNL     1      15.297  -8.200  -7.943  1.00  0.00     0.272 C 
BRANCH   9  10
HETATM   10  N4  UNL     1      16.304  -9.165  -8.345  1.00  0.00    -0.067 N 
ATOM     11  H42 UNL     1      17.242  -8.764  -8.315  1.00  0.00     0.277 HD
ATOM     12  H41 UNL     1      16.252  -9.367  -9.344  1.00  0.00     0.277 HD
BRANCH  10  13
HETATM   13  C8  UNL     1      16.216 -10.390  -7.543  1.00  0.00     0.192 C 
HETATM   14  C7  UNL     1      15.077 -10.235  -6.612  1.00  0.00     0.094 C 
HETATM   15  C6  UNL     1      14.462 -11.486  -6.090  1.00  0.00     0.322 C 
HETATM   16  O1  UNL     1      14.447 -12.535  -6.955  1.00  0.00    -0.359 OA
HETATM   17  C18 UNL     1      15.549 -12.781  -7.712  1.00  0.00     0.172 C 
HETATM   18  C17 UNL     1      16.024 -11.549  -8.463  1.00  0.00     0.059 C 
BRANCH  15  19
HETATM   19  N3  UNL     1      15.096 -11.827  -4.807  1.00  0.00    -0.047 N 
ATOM     20  H32 UNL     1      15.895 -12.446  -4.945  1.00  0.00     0.280 HD
ATOM     21  H31 UNL     1      14.502 -12.448  -4.257  1.00  0.00     0.280 HD
BRANCH  19  22
HETATM   22  C5  UNL     1      15.460 -10.690  -4.069  1.00  0.00     0.265 C 
BRANCH  22  23
HETATM   23  C4  UNL     1      15.120 -10.470  -2.662  1.00  0.00     0.143 C 
BRANCH  23  24
HETATM   24  N2  UNL     1      14.478 -11.437  -1.874  1.00  0.00    -0.357 N 
ATOM     25  H2  UNL     1      13.459 -11.389  -1.904  1.00  0.00     0.162 HD
BRANCH  24  26
HETATM   26  C3  UNL     1      14.974 -12.452  -1.058  1.00  0.00     0.169 C 
HETATM   27  S1  UNL     1      15.965 -13.609  -1.595  1.00  0.00    -0.041 SA
BRANCH  26  28
HETATM   28  N1  UNL     1      14.616 -12.479   0.362  1.00  0.00    -0.367 N 
HETATM   29  C1  UNL     1      15.280 -13.428   1.212  1.00  0.00     0.151 C 
HETATM   30  C2  UNL     1      13.625 -11.581   0.910  1.00  0.00     0.151 C 
ENDBRANCH  26  28
ENDBRANCH  24  26
ENDBRANCH  23  24
BRANCH  23  31
HETATM   31  C19 UNL     1      14.309  -9.184  -2.626  1.00  0.00    -0.034 A 
HETATM   32  C20 UNL     1      14.484  -8.209  -3.589  1.00  0.00     0.009 A 
HETATM   33  C21 UNL     1      13.742  -7.050  -3.559  1.00  0.00     0.001 A 
HETATM   34  C22 UNL     1      12.808  -6.831  -2.572  1.00  0.00     0.000 A 
HETATM   35  C23 UNL     1      12.632  -7.796  -1.614  1.00  0.00     0.001 A 
HETATM   36  C24 UNL     1      13.377  -8.956  -1.648  1.00  0.00     0.009 A 
ENDBRANCH  23  31
ENDBRANCH  22  23
ENDBRANCH  19  22
ENDBRANCH  15  19
ENDBRANCH  10  13
ENDBRANCH   9  10
ENDBRANCH   1   9
TORSDOF 10
ENDMDL
MODEL 2
REMARK VINA RESULT: -7.524851664      2.714      4.225
REMARK  10 active torsions:
REMARK  status: ('A' for Active; 'I' for Inactive)
REMARK    1  A    between atoms: N1_2  and  C3_4 
REMARK    2  A    between atoms: C3_4  and  N2_6 
REMARK    3  A    between atoms: N2_6  and  C4_8 
REMARK    4  A    between atoms: C4_8  and  C5_9 
REMARK    5  A    between atoms: C4_8  and  C19_31 
REMARK    6  A    between atoms: C5_9  and  N3_10 
REMARK    7  A    between atoms: N3_10  and  C6_13 
REMARK    8  A    between atoms: C8_15  and  N4_16 
REMARK    9  A    between atoms: N4_16  and  C9_19 
REMARK   10  A    between atoms: C9_19  and  C10_20 
ROOT
HETATM    1  C10 UNL     1      12.526 -10.446 -10.175  1.00  0.00    -0.012 A 
HETATM    2  C11 UNL     1      12.384  -9.230 -10.821  1.00  0.00     0.010 A 
HETATM    3  C12 UNL     1      11.936  -9.253 -12.112  1.00  0.00     0.001 A 
HETATM    4  C13 UNL     1      11.643 -10.451 -12.725  1.00  0.00     0.002 A 
HETATM    5  C14 UNL     1      11.790 -11.665 -12.062  1.00  0.00     0.023 A 
HETATM    6  C15 UNL     1      12.238 -11.650 -10.771  1.00  0.00     0.052 A 
HETATM    7  C16 UNL     1      12.395 -12.885 -10.062  1.00  0.00     0.100 C 
HETATM    8  N5  UNL     1      12.540 -13.874  -9.503  1.00  0.00    -0.191 NA
ENDROOT
BRANCH   1   9
HETATM    9  C9  UNL     1      13.028 -10.504  -8.754  1.00  0.00     0.272 C 
BRANCH   9  10
HETATM   10  N4  UNL     1      14.287  -9.783  -8.715  1.00  0.00    -0.067 N 
ATOM     11  H42 UNL     1      14.167  -8.838  -8.350  1.00  0.00     0.277 HD
ATOM     12  H41 UNL     1      14.614  -9.549  -9.653  1.00  0.00     0.277 HD
BRANCH  10  13
HETATM   13  C8  UNL     1      15.302 -10.527  -7.961  1.00  0.00     0.192 C 
HETATM   14  C7  UNL     1      14.813 -10.668  -6.573  1.00  0.00     0.094 C 
HETATM   15  C6  UNL     1      15.373 -11.796  -5.777  1.00  0.00     0.322 C 
HETATM   16  O1  UNL     1      15.650 -12.926  -6.480  1.00  0.00    -0.359 OA
HETATM   17  C18 UNL     1      16.240 -12.816  -7.699  1.00  0.00     0.172 C 
HETATM   18  C17 UNL     1      15.505 -11.853  -8.614  1.00  0.00     0.059 C 
BRANCH  15  19
HETATM   19  N3  UNL     1      16.534 -11.310  -5.016  1.00  0.00    -0.047 N 
ATOM     20  H32 UNL     1      17.334 -11.152  -5.628  1.00  0.00     0.280 HD
ATOM     21  H31 UNL     1      16.922 -12.046  -4.426  1.00  0.00     0.280 HD
BRANCH  19  22
HETATM   22  C5  UNL     1      16.240 -10.162  -4.264  1.00  0.00     0.265 C 
BRANCH  22  23
HETATM   23  C4  UNL     1      15.511 -10.167  -2.994  1.00  0.00     0.143 C 
BRANCH  23  24
HETATM   24  N2  UNL     1      14.796 -11.282  -2.530  1.00  0.00    -0.357 N 
ATOM     25  H2  UNL     1      13.828 -11.318  -2.851  1.00  0.00     0.162 HD
BRANCH  24  26
HETATM   26  C3  UNL     1      15.165 -12.349  -1.713  1.00  0.00     0.169 C 
HETATM   27  S1  UNL     1      16.077 -13.579  -2.229  1.00  0.00    -0.041 SA
BRANCH  26  28
HETATM   28  N1  UNL     1      14.740 -12.367  -0.312  1.00  0.00    -0.367 N 
HETATM   29  C1  UNL     1      15.435 -13.236   0.598  1.00  0.00     0.151 C 
HETATM   30  C2  UNL     1      13.653 -11.541   0.161  1.00  0.00     0.151 C 
ENDBRANCH  26  28
ENDBRANCH  24  26
ENDBRANCH  23  24
BRANCH  23  31
HETATM   31  C19 UNL     1      14.576  -8.967  -3.047  1.00  0.00    -0.034 A 
HETATM   32  C20 UNL     1      14.749  -7.976  -3.993  1.00  0.00     0.009 A 
HETATM   33  C21 UNL     1      13.896  -6.897  -4.044  1.00  0.00     0.001 A 
HETATM   34  C22 UNL     1      12.851  -6.776  -3.157  1.00  0.00     0.000 A 
HETATM   35  C23 UNL     1      12.677  -7.757  -2.216  1.00  0.00     0.001 A 
HETATM   36  C24 UNL     1      13.532  -8.837  -2.168  1.00  0.00     0.009 A 
ENDBRANCH  23  31
ENDBRANCH  22  23
ENDBRANCH  19  22
ENDBRANCH  15  19
ENDBRANCH  10  13
ENDBRANCH   9  10
ENDBRANCH   1   9
TORSDOF 10
ENDMDL
MODEL 3
REMARK VINA RESULT: -7.479258020      2.987      5.551
REMARK  10 active torsions:
REMARK  status: ('A' for Active; 'I' for Inactive)
REMARK    1  A    between atoms: N1_2  and  C3_4 
REMARK    2  A    between atoms: C3_4  and  N2_6 
REMARK    3  A    between atoms: N2_6  and  C4_8 
REMARK    4  A    between atoms: C4_8  and  C5_9 
REMARK    5  A    between atoms: C4_8  and  C19_31 
REMARK    6  A    between atoms: C5_9  and  N3_10 
REMARK    7  A    between atoms: N3_10  and  C6_13 
REMARK    8  A    between atoms: C8_15  and  N4_16 
REMARK    9  A    between atoms: N4_16  and  C9_19 
REMARK   10  A    between atoms: C9_19  and  C10_20 
ROOT
HETATM    1  C10 UNL     1      14.359 -11.313  -8.329  1.00  0.00    -0.012 A 
HETATM    2  C11 UNL     1      14.620  -9.965  -8.149  1.00  0.00     0.010 A 
HETATM    3  C12 UNL     1      13.774  -9.075  -8.749  1.00  0.00     0.001 A 
HETATM    4  C13 UNL     1      12.709  -9.525  -9.498  1.00  0.00     0.002 A 
HETATM    5  C14 UNL     1      12.458 -10.882  -9.668  1.00  0.00     0.023 A 
HETATM    6  C15 UNL     1      13.300 -11.779  -9.072  1.00  0.00     0.052 A 
HETATM    7  C16 UNL     1      13.065 -13.183  -9.228  1.00  0.00     0.100 C 
HETATM    8  N5  UNL     1      12.888 -14.306  -9.369  1.00  0.00    -0.191 NA
ENDROOT
BRANCH   1   9
HETATM    9  C9  UNL     1      15.254 -12.356  -7.710  1.00  0.00     0.272 C 
BRANCH   9  10
HETATM   10  N4  UNL     1      15.013 -12.333  -6.279  1.00  0.00    -0.067 N 
ATOM     11  H42 UNL     1      14.729 -13.250  -5.932  1.00  0.00     0.277 HD
ATOM     12  H41 UNL     1      14.167 -11.811  -6.051  1.00  0.00     0.277 HD
BRANCH  10  13
HETATM   13  C8  UNL     1      16.177 -11.817  -5.551  1.00  0.00     0.192 C 
HETATM   14  C7  UNL     1      15.738 -10.627  -4.791  1.00  0.00     0.094 C 
HETATM   15  C6  UNL     1      16.552 -10.254  -3.601  1.00  0.00     0.322 C 
HETATM   16  O1  UNL     1      17.090 -11.294  -2.912  1.00  0.00    -0.359 OA
HETATM   17  C18 UNL     1      17.635 -12.331  -3.601  1.00  0.00     0.172 C 
HETATM   18  C17 UNL     1      16.690 -12.891  -4.650  1.00  0.00     0.059 C 
BRANCH  15  19
HETATM   19  N3  UNL     1      17.565  -9.268  -4.009  1.00  0.00    -0.047 N 
ATOM     20  H32 UNL     1      18.385  -9.726  -4.404  1.00  0.00     0.280 HD
ATOM     21  H31 UNL     1      17.998  -8.829  -3.196  1.00  0.00     0.280 HD
BRANCH  19  22
HETATM   22  C5  UNL     1      17.050  -8.304  -4.889  1.00  0.00     0.265 C 
BRANCH  22  23
HETATM   23  C4  UNL     1      16.789  -6.908  -4.532  1.00  0.00     0.143 C 
BRANCH  23  24
HETATM   24  N2  UNL     1      15.725  -6.522  -3.702  1.00  0.00    -0.357 N 
ATOM     25  H2  UNL     1      15.224  -5.694  -4.025  1.00  0.00     0.162 HD
BRANCH  24  26
HETATM   26  C3  UNL     1      15.227  -7.061  -2.517  1.00  0.00     0.169 C 
HETATM   27  S1  UNL     1      16.090  -7.138  -1.153  1.00  0.00    -0.041 SA
BRANCH  26  28
HETATM   28  N1  UNL     1      13.852  -7.564  -2.473  1.00  0.00    -0.367 N 
HETATM   29  C1  UNL     1      13.614  -8.837  -1.852  1.00  0.00     0.151 C 
HETATM   30  C2  UNL     1      12.752  -6.812  -3.033  1.00  0.00     0.151 C 
ENDBRANCH  26  28
ENDBRANCH  24  26
ENDBRANCH  23  24
BRANCH  23  31
HETATM   31  C19 UNL     1      16.687  -6.154  -5.849  1.00  0.00    -0.034 A 
HETATM   32  C20 UNL     1      15.822  -6.573  -6.841  1.00  0.00     0.009 A 
HETATM   33  C21 UNL     1      15.727  -5.882  -8.028  1.00  0.00     0.001 A 
HETATM   34  C22 UNL     1      16.487  -4.759  -8.259  1.00  0.00     0.000 A 
HETATM   35  C23 UNL     1      17.347  -4.340  -7.277  1.00  0.00     0.001 A 
HETATM   36  C24 UNL     1      17.440  -5.034  -6.089  1.00  0.00     0.009 A 
ENDBRANCH  23  31
ENDBRANCH  22  23
ENDBRANCH  19  22
ENDBRANCH  15  19
ENDBRANCH  10  13
ENDBRANCH   9  10
ENDBRANCH   1   9
TORSDOF 10
ENDMDL
MODEL 4
REMARK VINA RESULT: -7.328041782      2.206      3.282
REMARK  10 active torsions:
REMARK  status: ('A' for Active; 'I' for Inactive)
REMARK    1  A    between atoms: N1_2  and  C3_4 
REMARK    2  A    between atoms: C3_4  and  N2_6 
REMARK    3  A    between atoms: N2_6  and  C4_8 
REMARK    4  A    between atoms: C4_8  and  C5_9 
REMARK    5  A    between atoms: C4_8  and  C19_31 
REMARK    6  A    between atoms: C5_9  and  N3_10 
REMARK    7  A    between atoms: N3_10  and  C6_13 
REMARK    8  A    between atoms: C8_15  and  N4_16 
REMARK    9  A    between atoms: N4_16  and  C9_19 
REMARK   10  A    between atoms: C9_19  and  C10_20 
ROOT
HETATM    1  C10 UNL     1      15.957  -6.642  -7.267  1.00  0.00    -0.012 A 
HETATM    2  C11 UNL     1      15.737  -5.857  -8.386  1.00  0.00     0.010 A 
HETATM    3  C12 UNL     1      16.343  -4.633  -8.425  1.00  0.00     0.001 A 
HETATM    4  C13 UNL     1      17.139  -4.218  -7.380  1.00  0.00     0.002 A 
HETATM    5  C14 UNL     1      17.352  -5.018  -6.263  1.00  0.00     0.023 A 
HETATM    6  C15 UNL     1      16.748  -6.244  -6.216  1.00  0.00     0.052 A 
HETATM    7  C16 UNL     1      16.952  -7.090  -5.079  1.00  0.00     0.100 C 
HETATM    8  N5  UNL     1      17.100  -7.759  -4.161  1.00  0.00    -0.191 NA
ENDROOT
BRANCH   1   9
HETATM    9  C9  UNL     1      15.313  -7.999  -7.145  1.00  0.00     0.272 C 
BRANCH   9  10
HETATM   10  N4  UNL     1      15.858  -8.829  -8.203  1.00  0.00    -0.067 N 
ATOM     11  H42 UNL     1      16.806  -8.544  -8.453  1.00  0.00     0.277 HD
ATOM     12  H41 UNL     1      15.399  -8.647  -9.096  1.00  0.00     0.277 HD
BRANCH  10  13
HETATM   13  C8  UNL     1      15.800 -10.251  -7.847  1.00  0.00     0.192 C 
HETATM   14  C7  UNL     1      15.417 -10.340  -6.422  1.00  0.00     0.094 C 
HETATM   15  C6  UNL     1      14.787 -11.613  -5.975  1.00  0.00     0.322 C 
HETATM   16  O1  UNL     1      13.994 -12.226  -6.893  1.00  0.00    -0.359 OA
HETATM   17  C18 UNL     1      14.407 -12.285  -8.187  1.00  0.00     0.172 C 
HETATM   18  C17 UNL     1      14.802 -10.923  -8.731  1.00  0.00     0.059 C 
BRANCH  15  19
HETATM   19  N3  UNL     1      15.835 -12.505  -5.454  1.00  0.00    -0.047 N 
ATOM     20  H32 UNL     1      16.540 -12.697  -6.166  1.00  0.00     0.280 HD
ATOM     21  H31 UNL     1      15.478 -13.451  -5.317  1.00  0.00     0.280 HD
BRANCH  19  22
HETATM   22  C5  UNL     1      16.424 -12.011  -4.280  1.00  0.00     0.265 C 
BRANCH  22  23
HETATM   23  C4  UNL     1      16.205 -12.569  -2.944  1.00  0.00     0.143 C 
BRANCH  23  24
HETATM   24  N2  UNL     1      15.799 -13.895  -2.730  1.00  0.00    -0.357 N 
ATOM     25  H2  UNL     1      14.863 -14.106  -3.078  1.00  0.00     0.162 HD
BRANCH  24  26
HETATM   26  C3  UNL     1      16.439 -14.978  -2.130  1.00  0.00     0.169 C 
HETATM   27  S1  UNL     1      16.677 -15.087  -0.535  1.00  0.00    -0.041 SA
BRANCH  26  28
HETATM   28  N1  UNL     1      16.903 -16.093  -2.958  1.00  0.00    -0.367 N 
HETATM   29  C1  UNL     1      18.278 -16.104  -3.374  1.00  0.00     0.151 C 
HETATM   30  C2  UNL     1      16.016 -17.164  -3.353  1.00  0.00     0.151 C 
ENDBRANCH  26  28
ENDBRANCH  24  26
ENDBRANCH  23  24
BRANCH  23  31
HETATM   31  C19 UNL     1      15.219 -11.634  -2.260  1.00  0.00    -0.034 A 
HETATM   32  C20 UNL     1      14.368 -12.098  -1.276  1.00  0.00     0.009 A 
HETATM   33  C21 UNL     1      13.483 -11.248  -0.653  1.00  0.00     0.001 A 
HETATM   34  C22 UNL     1      13.422  -9.915  -0.991  1.00  0.00     0.000 A 
HETATM   35  C23 UNL     1      14.264  -9.450  -1.968  1.00  0.00     0.001 A 
HETATM   36  C24 UNL     1      15.150 -10.305  -2.590  1.00  0.00     0.009 A 
ENDBRANCH  23  31
ENDBRANCH  22  23
ENDBRANCH  19  22
ENDBRANCH  15  19
ENDBRANCH  10  13
ENDBRANCH   9  10
ENDBRANCH   1   9
TORSDOF 10
ENDMDL
MODEL 5
REMARK VINA RESULT: -7.308332361      3.370      6.025
REMARK  10 active torsions:
REMARK  status: ('A' for Active; 'I' for Inactive)
REMARK    1  A    between atoms: N1_2  and  C3_4 
REMARK    2  A    between atoms: C3_4  and  N2_6 
REMARK    3  A    between atoms: N2_6  and  C4_8 
REMARK    4  A    between atoms: C4_8  and  C5_9 
REMARK    5  A    between atoms: C4_8  and  C19_31 
REMARK    6  A    between atoms: C5_9  and  N3_10 
REMARK    7  A    between atoms: N3_10  and  C6_13 
REMARK    8  A    between atoms: C8_15  and  N4_16 
REMARK    9  A    between atoms: N4_16  and  C9_19 
REMARK   10  A    between atoms: C9_19  and  C10_20 
ROOT
HETATM    1  C10 UNL     1      14.016 -11.137  -8.312  1.00  0.00    -0.012 A 
HETATM    2  C11 UNL     1      13.380 -12.281  -8.760  1.00  0.00     0.010 A 
HETATM    3  C12 UNL     1      12.396 -12.128  -9.697  1.00  0.00     0.001 A 
HETATM    4  C13 UNL     1      12.069 -10.873 -10.162  1.00  0.00     0.002 A 
HETATM    5  C14 UNL     1      12.718  -9.733  -9.703  1.00  0.00     0.023 A 
HETATM    6  C15 UNL     1      13.703  -9.877  -8.766  1.00  0.00     0.052 A 
HETATM    7  C16 UNL     1      14.391  -8.720  -8.277  1.00  0.00     0.100 C 
HETATM    8  N5  UNL     1      14.926  -7.792  -7.871  1.00  0.00    -0.191 NA
ENDROOT
BRANCH   1   9
HETATM    9  C9  UNL     1      15.102 -11.222  -7.270  1.00  0.00     0.272 C 
BRANCH   9  10
HETATM   10  N4  UNL     1      14.554 -11.948  -6.139  1.00  0.00    -0.067 N 
ATOM     11  H42 UNL     1      14.608 -12.957  -6.278  1.00  0.00     0.277 HD
ATOM     12  H41 UNL     1      13.539 -11.851  -6.088  1.00  0.00     0.277 HD
BRANCH  10  13
HETATM   13  C8  UNL     1      15.197 -11.541  -4.884  1.00  0.00     0.192 C 
HETATM   14  C7  UNL     1      16.518 -12.203  -4.825  1.00  0.00     0.094 C 
HETATM   15  C6  UNL     1      17.549 -11.564  -3.960  1.00  0.00     0.322 C 
HETATM   16  O1  UNL     1      17.507 -10.207  -3.906  1.00  0.00    -0.359 OA
HETATM   17  C18 UNL     1      16.300  -9.588  -3.808  1.00  0.00     0.172 C 
HETATM   18  C17 UNL     1      15.321 -10.055  -4.872  1.00  0.00     0.059 C 
BRANCH  15  19
HETATM   19  N3  UNL     1      17.498 -12.181  -2.625  1.00  0.00    -0.047 N 
ATOM     20  H32 UNL     1      16.699 -11.837  -2.093  1.00  0.00     0.280 HD
ATOM     21  H31 UNL     1      18.252 -11.835  -2.032  1.00  0.00     0.280 HD
BRANCH  19  22
HETATM   22  C5  UNL     1      17.501 -13.583  -2.682  1.00  0.00     0.265 C 
BRANCH  22  23
HETATM   23  C4  UNL     1      16.354 -14.430  -2.348  1.00  0.00     0.143 C 
BRANCH  23  24
HETATM   24  N2  UNL     1      15.797 -14.483  -1.061  1.00  0.00    -0.357 N 
ATOM     25  H2  UNL     1      15.337 -15.367  -0.843  1.00  0.00     0.162 HD
BRANCH  24  26
HETATM   26  C3  UNL     1      15.755 -13.550  -0.026  1.00  0.00     0.169 C 
HETATM   27  S1  UNL     1      16.898 -13.445   1.112  1.00  0.00    -0.041 SA
BRANCH  26  28
HETATM   28  N1  UNL     1      14.649 -12.594   0.042  1.00  0.00    -0.367 N 
HETATM   29  C1  UNL     1      14.059 -12.327   1.325  1.00  0.00     0.151 C 
HETATM   30  C2  UNL     1      14.151 -11.926  -1.139  1.00  0.00     0.151 C 
ENDBRANCH  26  28
ENDBRANCH  24  26
ENDBRANCH  23  24
BRANCH  23  31
HETATM   31  C19 UNL     1      16.737 -15.837  -2.779  1.00  0.00    -0.034 A 
HETATM   32  C20 UNL     1      15.789 -16.839  -2.851  1.00  0.00     0.009 A 
HETATM   33  C21 UNL     1      16.137 -18.110  -3.250  1.00  0.00     0.001 A 
HETATM   34  C22 UNL     1      17.435 -18.416  -3.589  1.00  0.00     0.000 A 
HETATM   35  C23 UNL     1      18.380 -17.425  -3.518  1.00  0.00     0.001 A 
HETATM   36  C24 UNL     1      18.027 -16.153  -3.118  1.00  0.00     0.009 A 
ENDBRANCH  23  31
ENDBRANCH  22  23
ENDBRANCH  19  22
ENDBRANCH  15  19
ENDBRANCH  10  13
ENDBRANCH   9  10
ENDBRANCH   1   9
TORSDOF 10
ENDMDL
