MODEL 1
REMARK VINA RESULT: -6.666082227      0.000      0.000
REMARK  8 active torsions:
REMARK  status: ('A' for Active; 'I' for Inactive)
REMARK    1  A    between atoms: C7_7  and  C9_9 
REMARK    2  A    between atoms: C9_9  and  N1_10 
REMARK    3  A    between atoms: N1_10  and  C10_11 
REMARK    4  A    between atoms: N1_10  and  C16_19 
REMARK    5  A    between atoms: C10_11  and  C11_12 
REMARK    6  A    between atoms: C10_11  and  C12_15 
REMARK    7  A    between atoms: C11_12  and  O1_13 
REMARK    8  A    between atoms: C16_19  and  O2_20 
ROOT
HETATM    1  N1  UNL     1     -10.393   7.430  -3.372  1.00  0.00    -0.330 N 
ENDROOT
BRANCH   1   2
HETATM    2  C9  UNL     1     -10.195   7.895  -2.012  1.00  0.00     0.076 C 
BRANCH   2   3
HETATM    3  C7  UNL     1     -10.642   7.265  -0.795  1.00  0.00    -0.011 C 
HETATM    4  C6  UNL     1     -11.771   6.358  -0.657  1.00  0.00     0.019 C 
HETATM    5  C4  UNL     1     -12.117   6.050   0.783  1.00  0.00    -0.017 C 
HETATM    6  C3  UNL     1     -10.976   5.612   1.605  1.00  0.00     0.008 C 
HETATM    7  C5  UNL     1     -13.115   4.871   0.712  1.00  0.00     0.010 C 
HETATM    8  C2  UNL     1      -9.641   6.196   1.298  1.00  0.00    -0.017 C 
HETATM    9  C1  UNL     1      -9.192   7.179   2.393  1.00  0.00     0.010 C 
HETATM   10  C23 UNL     1      -9.396   6.709  -0.058  1.00  0.00     0.019 C 
HETATM   11  C8  UNL     1     -11.011   8.472   0.145  1.00  0.00     0.021 C 
ENDBRANCH   2   3
ENDBRANCH   1   2
BRANCH   1  12
HETATM   12  C10 UNL     1     -11.342   8.109  -4.098  1.00  0.00     0.022 C 
BRANCH  12  13
HETATM   13  C11 UNL     1     -12.365   7.284  -4.895  1.00  0.00     0.217 C 
BRANCH  13  14
HETATM   14  O1  UNL     1     -11.988   6.919  -6.155  1.00  0.00    -0.395 OA
ATOM     15  H1  UNL     1     -12.549   7.220  -6.861  1.00  0.00     0.209 HD
ENDBRANCH  13  14
ENDBRANCH  12  13
BRANCH  12  16
HETATM   16  C12 UNL     1     -11.899   9.440  -3.860  1.00  0.00    -0.010 C 
HETATM   17  C13 UNL     1     -12.433  10.168  -5.102  1.00  0.00     0.021 C 
HETATM   18  C14 UNL     1     -13.129   9.539  -2.972  1.00  0.00     0.021 C 
HETATM   19  C15 UNL     1     -10.961  10.479  -3.276  1.00  0.00     0.021 C 
ENDBRANCH  12  16
ENDBRANCH   1  12
BRANCH   1  20
HETATM   20  C16 UNL     1      -9.147   6.957  -3.863  1.00  0.00     0.167 C 
HETATM   21  C17 UNL     1      -8.355   7.956  -4.703  1.00  0.00     0.333 C 
HETATM   22  N2  UNL     1      -7.074   7.399  -5.098  1.00  0.00     0.093 N 
HETATM   23  C18 UNL     1      -6.166   7.509  -3.966  1.00  0.00     0.273 C 
HETATM   24  C22 UNL     1      -7.103   6.023  -5.479  1.00  0.00     0.273 C 
HETATM   25  C19 UNL     1      -6.827   6.817  -2.823  1.00  0.00     0.040 C 
HETATM   26  C20 UNL     1      -8.155   6.137  -3.225  1.00  0.00     0.047 C 
HETATM   27  C21 UNL     1      -7.519   5.182  -4.311  1.00  0.00     0.040 C 
BRANCH  20  28
HETATM   28  O2  UNL     1      -9.594   6.087  -4.949  1.00  0.00    -0.368 OA
ATOM     29  H2  UNL     1      -8.947   6.288  -5.615  1.00  0.00     0.212 HD
ENDBRANCH  20  28
ENDBRANCH   1  20
TORSDOF 8
ENDMDL
MODEL 2
REMARK VINA RESULT: -6.541685029      1.530      1.910
REMARK  8 active torsions:
REMARK  status: ('A' for Active; 'I' for Inactive)
REMARK    1  A    between atoms: C7_7  and  C9_9 
REMARK    2  A    between atoms: C9_9  and  N1_10 
REMARK    3  A    between atoms: N1_10  and  C10_11 
REMARK    4  A    between atoms: N1_10  and  C16_19 
REMARK    5  A    between atoms: C10_11  and  C11_12 
REMARK    6  A    between atoms: C10_11  and  C12_15 
REMARK    7  A    between atoms: C11_12  and  O1_13 
REMARK    8  A    between atoms: C16_19  and  O2_20 
ROOT
HETATM    1  N1  UNL     1      -8.870   7.023  -4.257  1.00  0.00    -0.330 N 
ENDROOT
BRANCH   1   2
HETATM    2  C9  UNL     1      -8.715   7.736  -3.003  1.00  0.00     0.076 C 
BRANCH   2   3
HETATM    3  C7  UNL     1      -9.392   7.477  -1.757  1.00  0.00    -0.011 C 
HETATM    4  C6  UNL     1     -10.755   6.998  -1.598  1.00  0.00     0.019 C 
HETATM    5  C4  UNL     1     -11.243   7.045  -0.167  1.00  0.00    -0.017 C 
HETATM    6  C3  UNL     1     -10.338   6.412   0.807  1.00  0.00     0.008 C 
HETATM    7  C5  UNL     1     -12.561   6.237  -0.166  1.00  0.00     0.010 C 
HETATM    8  C2  UNL     1      -8.875   6.498   0.545  1.00  0.00    -0.017 C 
HETATM    9  C1  UNL     1      -8.182   7.454   1.531  1.00  0.00     0.010 C 
HETATM   10  C23 UNL     1      -8.421   6.687  -0.840  1.00  0.00     0.019 C 
HETATM   11  C8  UNL     1      -9.395   8.872  -1.027  1.00  0.00     0.021 C 
ENDBRANCH   2   3
ENDBRANCH   1   2
BRANCH   1  12
HETATM   12  C10 UNL     1      -9.799   7.545  -5.125  1.00  0.00     0.022 C 
BRANCH  12  13
HETATM   13  C11 UNL     1     -10.928   6.621  -5.609  1.00  0.00     0.217 C 
BRANCH  13  14
HETATM   14  O1  UNL     1     -10.536   5.505  -6.290  1.00  0.00    -0.395 OA
ATOM     15  H1  UNL     1     -10.092   5.656  -7.116  1.00  0.00     0.209 HD
ENDBRANCH  13  14
ENDBRANCH  12  13
BRANCH  12  16
HETATM   16  C12 UNL     1     -10.232   8.933  -5.277  1.00  0.00    -0.010 C 
HETATM   17  C13 UNL     1     -10.880   9.281  -6.626  1.00  0.00     0.021 C 
HETATM   18  C14 UNL     1     -11.324   9.436  -4.346  1.00  0.00     0.021 C 
HETATM   19  C15 UNL     1      -9.160  10.000  -5.168  1.00  0.00     0.021 C 
ENDBRANCH  12  16
ENDBRANCH   1  12
BRANCH   1  20
HETATM   20  C16 UNL     1      -7.607   6.480  -4.614  1.00  0.00     0.167 C 
HETATM   21  C17 UNL     1      -7.189   6.699  -6.066  1.00  0.00     0.333 C 
HETATM   22  N2  UNL     1      -5.861   6.165  -6.307  1.00  0.00     0.093 N 
HETATM   23  C18 UNL     1      -4.891   7.124  -5.801  1.00  0.00     0.273 C 
HETATM   24  C22 UNL     1      -5.584   4.916  -5.675  1.00  0.00     0.273 C 
HETATM   25  C19 UNL     1      -5.225   7.349  -4.366  1.00  0.00     0.040 C 
HETATM   26  C20 UNL     1      -6.376   6.443  -3.874  1.00  0.00     0.047 C 
HETATM   27  C21 UNL     1      -5.644   5.078  -4.186  1.00  0.00     0.040 C 
BRANCH  20  28
HETATM   28  O2  UNL     1      -7.937   5.060  -4.708  1.00  0.00    -0.368 OA
ATOM     29  H2  UNL     1      -8.557   4.975  -3.994  1.00  0.00     0.212 HD
ENDBRANCH  20  28
ENDBRANCH   1  20
TORSDOF 8
ENDMDL
MODEL 3
REMARK VINA RESULT: -6.430850319      1.656      4.015
REMARK  8 active torsions:
REMARK  status: ('A' for Active; 'I' for Inactive)
REMARK    1  A    between atoms: C7_7  and  C9_9 
REMARK    2  A    between atoms: C9_9  and  N1_10 
REMARK    3  A    between atoms: N1_10  and  C10_11 
REMARK    4  A    between atoms: N1_10  and  C16_19 
REMARK    5  A    between atoms: C10_11  and  C11_12 
REMARK    6  A    between atoms: C10_11  and  C12_15 
REMARK    7  A    between atoms: C11_12  and  O1_13 
REMARK    8  A    between atoms: C16_19  and  O2_20 
ROOT
HETATM    1  N1  UNL     1      -9.653   8.039  -2.930  1.00  0.00    -0.330 N 
ENDROOT
BRANCH   1   2
HETATM    2  C9  UNL     1     -10.889   7.612  -2.303  1.00  0.00     0.076 C 
BRANCH   2   3
HETATM    3  C7  UNL     1     -11.060   7.060  -0.983  1.00  0.00    -0.011 C 
HETATM    4  C6  UNL     1     -12.072   6.100  -0.573  1.00  0.00     0.019 C 
HETATM    5  C4  UNL     1     -12.128   5.893   0.925  1.00  0.00    -0.017 C 
HETATM    6  C3  UNL     1     -10.828   5.597   1.549  1.00  0.00     0.008 C 
HETATM    7  C5  UNL     1     -13.030   4.653   1.124  1.00  0.00     0.010 C 
HETATM    8  C2  UNL     1      -9.619   6.234   0.958  1.00  0.00    -0.017 C 
HETATM    9  C1  UNL     1      -9.055   7.331   1.877  1.00  0.00     0.010 C 
HETATM   10  C23 UNL     1      -9.663   6.646  -0.453  1.00  0.00     0.019 C 
HETATM   11  C8  UNL     1     -11.343   8.316  -0.078  1.00  0.00     0.021 C 
ENDBRANCH   2   3
ENDBRANCH   1   2
BRANCH   1  12
HETATM   12  C10 UNL     1      -9.081   7.132  -3.791  1.00  0.00     0.022 C 
BRANCH  12  13
HETATM   13  C11 UNL     1      -9.642   7.046  -5.220  1.00  0.00     0.217 C 
BRANCH  13  14
HETATM   14  O1  UNL     1     -10.221   5.859  -5.564  1.00  0.00    -0.395 OA
ATOM     15  H1  UNL     1     -10.005   5.525  -6.427  1.00  0.00     0.209 HD
ENDBRANCH  13  14
ENDBRANCH  12  13
BRANCH  12  16
HETATM   16  C12 UNL     1      -7.719   6.601  -3.789  1.00  0.00    -0.010 C 
HETATM   17  C13 UNL     1      -6.781   7.186  -2.723  1.00  0.00     0.021 C 
HETATM   18  C14 UNL     1      -7.541   5.122  -3.485  1.00  0.00     0.021 C 
HETATM   19  C15 UNL     1      -6.907   6.799  -5.054  1.00  0.00     0.021 C 
ENDBRANCH  12  16
ENDBRANCH   1  12
BRANCH   1  20
HETATM   20  C16 UNL     1      -9.717   9.445  -3.121  1.00  0.00     0.167 C 
HETATM   21  C17 UNL     1      -8.865   9.988  -4.265  1.00  0.00     0.333 C 
HETATM   22  N2  UNL     1      -9.053  11.420  -4.415  1.00  0.00     0.093 N 
HETATM   23  C18 UNL     1     -10.299  11.638  -5.133  1.00  0.00     0.273 C 
HETATM   24  C22 UNL     1      -9.141  12.151  -3.192  1.00  0.00     0.273 C 
HETATM   25  C19 UNL     1     -11.365  10.942  -4.357  1.00  0.00     0.040 C 
HETATM   26  C20 UNL     1     -10.840  10.337  -3.036  1.00  0.00     0.047 C 
HETATM   27  C21 UNL     1     -10.347  11.707  -2.421  1.00  0.00     0.040 C 
BRANCH  20  28
HETATM   28  O2  UNL     1      -8.888   9.909  -2.010  1.00  0.00    -0.368 OA
ATOM     29  H2  UNL     1      -8.104  10.178  -2.475  1.00  0.00     0.212 HD
ENDBRANCH  20  28
ENDBRANCH   1  20
TORSDOF 8
ENDMDL
MODEL 4
REMARK VINA RESULT: -6.391645167      2.070      4.898
REMARK  8 active torsions:
REMARK  status: ('A' for Active; 'I' for Inactive)
REMARK    1  A    between atoms: C7_7  and  C9_9 
REMARK    2  A    between atoms: C9_9  and  N1_10 
REMARK    3  A    between atoms: N1_10  and  C10_11 
REMARK    4  A    between atoms: N1_10  and  C16_19 
REMARK    5  A    between atoms: C10_11  and  C11_12 
REMARK    6  A    between atoms: C10_11  and  C12_15 
REMARK    7  A    between atoms: C11_12  and  O1_13 
REMARK    8  A    between atoms: C16_19  and  O2_20 
ROOT
HETATM    1  N1  UNL     1     -10.915   8.619  -4.540  1.00  0.00    -0.330 N 
ENDROOT
BRANCH   1   2
HETATM    2  C9  UNL     1     -11.342   7.631  -3.568  1.00  0.00     0.076 C 
BRANCH   2   3
HETATM    3  C7  UNL     1     -11.259   7.719  -2.132  1.00  0.00    -0.011 C 
HETATM    4  C6  UNL     1     -12.368   7.629  -1.196  1.00  0.00     0.019 C 
HETATM    5  C4  UNL     1     -11.984   7.986   0.223  1.00  0.00    -0.017 C 
HETATM    6  C3  UNL     1     -10.798   7.276   0.732  1.00  0.00     0.008 C 
HETATM    7  C5  UNL     1     -13.190   7.548   1.087  1.00  0.00     0.010 C 
HETATM    8  C2  UNL     1      -9.720   6.951  -0.243  1.00  0.00    -0.017 C 
HETATM    9  C1  UNL     1      -8.472   7.820  -0.011  1.00  0.00     0.010 C 
HETATM   10  C23 UNL     1     -10.073   6.835  -1.665  1.00  0.00     0.019 C 
HETATM   11  C8  UNL     1     -10.662   9.152  -1.871  1.00  0.00     0.021 C 
ENDBRANCH   2   3
ENDBRANCH   1   2
BRANCH   1  12
HETATM   12  C10 UNL     1      -9.786   8.298  -5.255  1.00  0.00     0.022 C 
BRANCH  12  13
HETATM   13  C11 UNL     1      -8.520   9.134  -5.011  1.00  0.00     0.217 C 
BRANCH  13  14
HETATM   14  O1  UNL     1      -8.632  10.473  -5.251  1.00  0.00    -0.395 OA
ATOM     15  H1  UNL     1      -8.904  10.717  -6.129  1.00  0.00     0.209 HD
ENDBRANCH  13  14
ENDBRANCH  12  13
BRANCH  12  16
HETATM   16  C12 UNL     1      -9.394   7.007  -5.817  1.00  0.00    -0.010 C 
HETATM   17  C13 UNL     1      -8.427   7.069  -7.009  1.00  0.00     0.021 C 
HETATM   18  C14 UNL     1      -8.615   6.058  -4.920  1.00  0.00     0.021 C 
HETATM   19  C15 UNL     1     -10.505   6.136  -6.368  1.00  0.00     0.021 C 
ENDBRANCH  12  16
ENDBRANCH   1  12
BRANCH   1  20
HETATM   20  C16 UNL     1     -12.074   9.262  -5.054  1.00  0.00     0.167 C 
HETATM   21  C17 UNL     1     -13.139   8.329  -5.626  1.00  0.00     0.333 C 
HETATM   22  N2  UNL     1     -14.302   9.080  -6.061  1.00  0.00     0.093 N 
HETATM   23  C18 UNL     1     -15.099   9.398  -4.886  1.00  0.00     0.273 C 
HETATM   24  C22 UNL     1     -14.018  10.313  -6.721  1.00  0.00     0.273 C 
HETATM   25  C19 UNL     1     -14.199  10.125  -3.946  1.00  0.00     0.040 C 
HETATM   26  C20 UNL     1     -12.801  10.393  -4.549  1.00  0.00     0.047 C 
HETATM   27  C21 UNL     1     -13.320  11.244  -5.775  1.00  0.00     0.040 C 
BRANCH  20  28
HETATM   28  O2  UNL     1     -11.558   9.784  -6.318  1.00  0.00    -0.368 OA
ATOM     29  H2  UNL     1     -10.751  10.191  -6.025  1.00  0.00     0.212 HD
ENDBRANCH  20  28
ENDBRANCH   1  20
TORSDOF 8
ENDMDL
MODEL 5
REMARK VINA RESULT: -6.381588696      2.130      5.510
REMARK  8 active torsions:
REMARK  status: ('A' for Active; 'I' for Inactive)
REMARK    1  A    between atoms: C7_7  and  C9_9 
REMARK    2  A    between atoms: C9_9  and  N1_10 
REMARK    3  A    between atoms: N1_10  and  C10_11 
REMARK    4  A    between atoms: N1_10  and  C16_19 
REMARK    5  A    between atoms: C10_11  and  C11_12 
REMARK    6  A    between atoms: C10_11  and  C12_15 
REMARK    7  A    between atoms: C11_12  and  O1_13 
REMARK    8  A    between atoms: C16_19  and  O2_20 
ROOT
HETATM    1  N1  UNL     1     -11.239   8.502  -2.313  1.00  0.00    -0.330 N 
ENDROOT
BRANCH   1   2
HETATM    2  C9  UNL     1     -10.555   7.458  -3.051  1.00  0.00     0.076 C 
BRANCH   2   3
HETATM    3  C7  UNL     1      -9.166   7.420  -3.435  1.00  0.00    -0.011 C 
HETATM    4  C6  UNL     1      -8.377   8.535  -3.934  1.00  0.00     0.019 C 
HETATM    5  C4  UNL     1      -7.021   8.120  -4.460  1.00  0.00    -0.017 C 
HETATM    6  C3  UNL     1      -6.237   7.284  -3.536  1.00  0.00     0.008 C 
HETATM    7  C5  UNL     1      -6.246   9.443  -4.658  1.00  0.00     0.010 C 
HETATM    8  C2  UNL     1      -6.984   6.342  -2.657  1.00  0.00    -0.017 C 
HETATM    9  C1  UNL     1      -6.775   4.881  -3.092  1.00  0.00     0.010 C 
HETATM   10  C23 UNL     1      -8.388   6.643  -2.340  1.00  0.00     0.019 C 
HETATM   11  C8  UNL     1      -9.122   6.372  -4.608  1.00  0.00     0.021 C 
ENDBRANCH   2   3
ENDBRANCH   1   2
BRANCH   1  12
HETATM   12  C10 UNL     1     -11.768   9.517  -3.074  1.00  0.00     0.022 C 
BRANCH  12  13
HETATM   13  C11 UNL     1     -11.166  10.923  -2.915  1.00  0.00     0.217 C 
BRANCH  13  14
HETATM   14  O1  UNL     1     -10.189  11.051  -1.970  1.00  0.00    -0.395 OA
ATOM     15  H1  UNL     1      -9.609  11.798  -2.069  1.00  0.00     0.209 HD
ENDBRANCH  13  14
ENDBRANCH  12  13
BRANCH  12  16
HETATM   16  C12 UNL     1     -12.432   9.437  -4.373  1.00  0.00    -0.010 C 
HETATM   17  C13 UNL     1     -11.663  10.054  -5.551  1.00  0.00     0.021 C 
HETATM   18  C14 UNL     1     -12.688   8.052  -4.948  1.00  0.00     0.021 C 
HETATM   19  C15 UNL     1     -13.779  10.121  -4.496  1.00  0.00     0.021 C 
ENDBRANCH  12  16
ENDBRANCH   1  12
BRANCH   1  20
HETATM   20  C16 UNL     1     -11.846   7.911  -1.172  1.00  0.00     0.167 C 
HETATM   21  C17 UNL     1     -11.967   6.390  -1.212  1.00  0.00     0.333 C 
HETATM   22  N2  UNL     1     -12.538   5.885   0.023  1.00  0.00     0.093 N 
HETATM   23  C18 UNL     1     -11.485   5.855   1.027  1.00  0.00     0.273 C 
HETATM   24  C22 UNL     1     -13.607   6.664   0.561  1.00  0.00     0.273 C 
HETATM   25  C19 UNL     1     -10.936   7.238   1.109  1.00  0.00     0.040 C 
HETATM   26  C20 UNL     1     -11.708   8.239   0.220  1.00  0.00     0.047 C 
HETATM   27  C21 UNL     1     -13.106   8.028   0.926  1.00  0.00     0.040 C 
BRANCH  20  28
HETATM   28  O2  UNL     1     -13.251   8.235  -1.413  1.00  0.00    -0.368 OA
ATOM     29  H2  UNL     1     -13.277   8.215  -2.362  1.00  0.00     0.212 HD
ENDBRANCH  20  28
ENDBRANCH   1  20
TORSDOF 8
ENDMDL
