MODEL 1
REMARK VINA RESULT: -7.674020888      0.000      0.000
REMARK  6 active torsions:
REMARK  status: ('A' for Active; 'I' for Inactive)
REMARK    1  A    between atoms: O1_2  and  C2_3 
REMARK    2  A    between atoms: C2_3  and  C3_4 
REMARK    3  A    between atoms: C3_4  and  N1_5 
REMARK    4  A    between atoms: C8_10  and  C9_11 
REMARK    5  A    between atoms: C9_11  and  N2_12 
REMARK       I    between atoms: N2_12  and  C10_14 
REMARK       I    between atoms: C10_14  and  N3_16 
REMARK    6  A    between atoms: N3_16  and  C11_18 
ROOT
HETATM    1  N2  UNL     1       9.385   4.926  -1.537  1.00  0.00    -0.341 N 
ATOM      2  H2  UNL     1       9.307   4.391  -2.402  1.00  0.00     0.164 HD
HETATM    3  C10 UNL     1       8.494   5.998  -1.285  1.00  0.00     0.316 C 
HETATM    4  O2  UNL     1       8.645   6.616  -0.208  1.00  0.00    -0.247 OA
HETATM    5  N3  UNL     1       7.480   6.336  -2.232  1.00  0.00    -0.334 N 
ATOM      6  H3  UNL     1       7.435   5.773  -3.082  1.00  0.00     0.165 HD
ENDROOT
BRANCH   1   7
HETATM    7  C9  UNL     1      10.402   4.589  -0.572  1.00  0.00     0.149 C 
BRANCH   7   8
HETATM    8  C8  UNL     1      11.768   4.856  -1.224  1.00  0.00     0.101 C 
HETATM    9  N1  UNL     1      12.685   3.797  -1.039  1.00  0.00    -0.385 N 
HETATM   10  C4  UNL     1      14.057   4.096  -1.157  1.00  0.00     0.058 C 
HETATM   11  C5  UNL     1      14.414   5.151  -0.130  1.00  0.00     0.044 C 
HETATM   12  C6  UNL     1      13.651   6.379  -0.487  1.00  0.00     0.007 C 
HETATM   13  C7  UNL     1      12.204   6.198  -0.743  1.00  0.00     0.027 C 
BRANCH   9  14
HETATM   14  C3  UNL     1      12.317   2.534  -1.574  1.00  0.00     0.148 C 
BRANCH  14  15
HETATM   15  C2  UNL     1      13.476   1.946  -2.349  1.00  0.00     0.186 C 
BRANCH  15  16
HETATM   16  O1  UNL     1      13.156   1.626  -3.658  1.00  0.00    -0.394 OA
HETATM   17  C1  UNL     1      14.258   1.468  -4.476  1.00  0.00     0.201 C 
ENDBRANCH  15  16
ENDBRANCH  14  15
ENDBRANCH   9  14
ENDBRANCH   7   8
ENDBRANCH   1   7
BRANCH   5  18
HETATM   18  C11 UNL     1       6.532   7.379  -2.100  1.00  0.00     0.035 C 
HETATM   19  C12 UNL     1       6.991   8.559  -2.934  1.00  0.00     0.035 C 
HETATM   20  C13 UNL     1       5.987   9.668  -3.008  1.00  0.00    -0.012 C 
HETATM   21  C14 UNL     1       5.784  10.181  -1.597  1.00  0.00     0.009 C 
HETATM   22  C18 UNL     1       4.723   9.082  -3.595  1.00  0.00     0.009 C 
HETATM   23  C15 UNL     1       5.339   9.032  -0.754  1.00  0.00    -0.012 C 
HETATM   24  C16 UNL     1       3.988   8.552  -1.261  1.00  0.00     0.009 C 
HETATM   25  C20 UNL     1       6.336   7.892  -0.702  1.00  0.00     0.035 C 
HETATM   26  C17 UNL     1       4.192   8.037  -2.660  1.00  0.00    -0.012 C 
HETATM   27  C19 UNL     1       5.175   6.874  -2.572  1.00  0.00     0.035 C 
ENDBRANCH   5  18
TORSDOF 6
ENDMDL
MODEL 2
REMARK VINA RESULT: -7.628179750      1.230      1.471
REMARK  6 active torsions:
REMARK  status: ('A' for Active; 'I' for Inactive)
REMARK    1  A    between atoms: O1_2  and  C2_3 
REMARK    2  A    between atoms: C2_3  and  C3_4 
REMARK    3  A    between atoms: C3_4  and  N1_5 
REMARK    4  A    between atoms: C8_10  and  C9_11 
REMARK    5  A    between atoms: C9_11  and  N2_12 
REMARK       I    between atoms: N2_12  and  C10_14 
REMARK       I    between atoms: C10_14  and  N3_16 
REMARK    6  A    between atoms: N3_16  and  C11_18 
ROOT
HETATM    1  N2  UNL     1       9.517   5.429  -2.128  1.00  0.00    -0.341 N 
ATOM      2  H2  UNL     1       9.979   5.462  -3.037  1.00  0.00     0.164 HD
HETATM    3  C10 UNL     1       8.296   6.120  -1.930  1.00  0.00     0.316 C 
HETATM    4  O2  UNL     1       7.783   6.042  -0.792  1.00  0.00    -0.247 OA
HETATM    5  N3  UNL     1       7.701   6.861  -2.996  1.00  0.00    -0.334 N 
ATOM      6  H3  UNL     1       8.195   6.865  -3.888  1.00  0.00     0.165 HD
ENDROOT
BRANCH   1   7
HETATM    7  C9  UNL     1      10.107   4.679  -1.048  1.00  0.00     0.149 C 
BRANCH   7   8
HETATM    8  C8  UNL     1      11.437   5.356  -0.683  1.00  0.00     0.101 C 
HETATM    9  N1  UNL     1      12.445   4.436  -0.321  1.00  0.00    -0.385 N 
HETATM   10  C4  UNL     1      13.513   4.914   0.466  1.00  0.00     0.058 C 
HETATM   11  C5  UNL     1      12.952   5.462   1.762  1.00  0.00     0.044 C 
HETATM   12  C6  UNL     1      12.095   6.626   1.407  1.00  0.00     0.007 C 
HETATM   13  C7  UNL     1      11.107   6.404   0.326  1.00  0.00     0.027 C 
BRANCH   9  14
HETATM   14  C3  UNL     1      12.829   3.490  -1.309  1.00  0.00     0.148 C 
BRANCH  14  15
HETATM   15  C2  UNL     1      14.334   3.333  -1.312  1.00  0.00     0.186 C 
BRANCH  15  16
HETATM   16  O1  UNL     1      14.810   2.634  -2.409  1.00  0.00    -0.394 OA
HETATM   17  C1  UNL     1      13.895   1.747  -2.942  1.00  0.00     0.201 C 
ENDBRANCH  15  16
ENDBRANCH  14  15
ENDBRANCH   9  14
ENDBRANCH   7   8
ENDBRANCH   1   7
BRANCH   5  18
HETATM   18  C11 UNL     1       6.490   7.591  -2.927  1.00  0.00     0.035 C 
HETATM   19  C12 UNL     1       6.236   8.236  -4.275  1.00  0.00     0.035 C 
HETATM   20  C13 UNL     1       4.898   8.902  -4.379  1.00  0.00    -0.012 C 
HETATM   21  C14 UNL     1       4.870  10.012  -3.349  1.00  0.00     0.009 C 
HETATM   22  C18 UNL     1       3.855   7.841  -4.111  1.00  0.00     0.009 C 
HETATM   23  C15 UNL     1       5.128   9.400  -2.012  1.00  0.00    -0.012 C 
HETATM   24  C16 UNL     1       3.985   8.450  -1.685  1.00  0.00     0.009 C 
HETATM   25  C20 UNL     1       6.465   8.697  -1.910  1.00  0.00     0.035 C 
HETATM   26  C17 UNL     1       4.018   7.344  -2.705  1.00  0.00    -0.012 C 
HETATM   27  C19 UNL     1       5.361   6.637  -2.559  1.00  0.00     0.035 C 
ENDBRANCH   5  18
TORSDOF 6
ENDMDL
MODEL 3
REMARK VINA RESULT: -7.535638212      0.173      1.480
REMARK  6 active torsions:
REMARK  status: ('A' for Active; 'I' for Inactive)
REMARK    1  A    between atoms: O1_2  and  C2_3 
REMARK    2  A    between atoms: C2_3  and  C3_4 
REMARK    3  A    between atoms: C3_4  and  N1_5 
REMARK    4  A    between atoms: C8_10  and  C9_11 
REMARK    5  A    between atoms: C9_11  and  N2_12 
REMARK       I    between atoms: N2_12  and  C10_14 
REMARK       I    between atoms: C10_14  and  N3_16 
REMARK    6  A    between atoms: N3_16  and  C11_18 
ROOT
HETATM    1  N2  UNL     1       9.349   4.970  -1.441  1.00  0.00    -0.341 N 
ATOM      2  H2  UNL     1       9.289   4.372  -2.266  1.00  0.00     0.164 HD
HETATM    3  C10 UNL     1       8.430   6.035  -1.270  1.00  0.00     0.316 C 
HETATM    4  O2  UNL     1       8.560   6.731  -0.240  1.00  0.00    -0.247 OA
HETATM    5  N3  UNL     1       7.414   6.278  -2.243  1.00  0.00    -0.334 N 
ATOM      6  H3  UNL     1       7.387   5.656  -3.051  1.00  0.00     0.165 HD
ENDROOT
BRANCH   1   7
HETATM    7  C9  UNL     1      10.369   4.728  -0.451  1.00  0.00     0.149 C 
BRANCH   7   8
HETATM    8  C8  UNL     1      11.732   4.973  -1.117  1.00  0.00     0.101 C 
HETATM    9  N1  UNL     1      12.625   3.889  -0.963  1.00  0.00    -0.385 N 
HETATM   10  C4  UNL     1      14.002   4.157  -1.096  1.00  0.00     0.058 C 
HETATM   11  C5  UNL     1      14.399   5.184  -0.056  1.00  0.00     0.044 C 
HETATM   12  C6  UNL     1      13.662   6.437  -0.381  1.00  0.00     0.007 C 
HETATM   13  C7  UNL     1      12.207   6.296  -0.619  1.00  0.00     0.027 C 
BRANCH   9  14
HETATM   14  C3  UNL     1      12.218   2.646  -1.516  1.00  0.00     0.148 C 
BRANCH  14  15
HETATM   15  C2  UNL     1      13.367   2.020  -2.276  1.00  0.00     0.186 C 
BRANCH  15  16
HETATM   16  O1  UNL     1      13.078   1.783  -3.609  1.00  0.00    -0.394 OA
HETATM   17  C1  UNL     1      14.190   1.482  -4.373  1.00  0.00     0.201 C 
ENDBRANCH  15  16
ENDBRANCH  14  15
ENDBRANCH   9  14
ENDBRANCH   7   8
ENDBRANCH   1   7
BRANCH   5  18
HETATM   18  C11 UNL     1       6.439   7.305  -2.189  1.00  0.00     0.035 C 
HETATM   19  C12 UNL     1       6.291   7.756  -0.750  1.00  0.00     0.035 C 
HETATM   20  C13 UNL     1       5.407   8.955  -0.585  1.00  0.00    -0.012 C 
HETATM   21  C14 UNL     1       4.027   8.560  -1.066  1.00  0.00     0.009 C 
HETATM   22  C18 UNL     1       6.011  10.065  -1.414  1.00  0.00     0.009 C 
HETATM   23  C15 UNL     1       4.150   8.103  -2.481  1.00  0.00    -0.012 C 
HETATM   24  C16 UNL     1       4.608   9.277  -3.333  1.00  0.00     0.009 C 
HETATM   25  C20 UNL     1       5.068   6.911  -2.659  1.00  0.00     0.035 C 
HETATM   26  C17 UNL     1       5.982   9.663  -2.859  1.00  0.00    -0.012 C 
HETATM   27  C19 UNL     1       6.890   8.457  -3.077  1.00  0.00     0.035 C 
ENDBRANCH   5  18
TORSDOF 6
ENDMDL
MODEL 4
REMARK VINA RESULT: -7.522043409      1.226      1.743
REMARK  6 active torsions:
REMARK  status: ('A' for Active; 'I' for Inactive)
REMARK    1  A    between atoms: O1_2  and  C2_3 
REMARK    2  A    between atoms: C2_3  and  C3_4 
REMARK    3  A    between atoms: C3_4  and  N1_5 
REMARK    4  A    between atoms: C8_10  and  C9_11 
REMARK    5  A    between atoms: C9_11  and  N2_12 
REMARK       I    between atoms: N2_12  and  C10_14 
REMARK       I    between atoms: C10_14  and  N3_16 
REMARK    6  A    between atoms: N3_16  and  C11_18 
ROOT
HETATM    1  N2  UNL     1       9.469   5.609  -2.229  1.00  0.00    -0.341 N 
ATOM      2  H2  UNL     1       9.986   5.740  -3.100  1.00  0.00     0.164 HD
HETATM    3  C10 UNL     1       8.213   6.240  -2.050  1.00  0.00     0.316 C 
HETATM    4  O2  UNL     1       7.634   6.042  -0.960  1.00  0.00    -0.247 OA
HETATM    5  N3  UNL     1       7.659   7.057  -3.082  1.00  0.00    -0.334 N 
ATOM      6  H3  UNL     1       8.206   7.159  -3.936  1.00  0.00     0.165 HD
ENDROOT
BRANCH   1   7
HETATM    7  C9  UNL     1      10.019   4.782  -1.184  1.00  0.00     0.149 C 
BRANCH   7   8
HETATM    8  C8  UNL     1      11.384   5.369  -0.795  1.00  0.00     0.101 C 
HETATM    9  N1  UNL     1      12.329   4.382  -0.438  1.00  0.00    -0.385 N 
HETATM   10  C4  UNL     1      13.416   4.781   0.366  1.00  0.00     0.058 C 
HETATM   11  C5  UNL     1      12.877   5.341   1.666  1.00  0.00     0.044 C 
HETATM   12  C6  UNL     1      12.097   6.562   1.322  1.00  0.00     0.007 C 
HETATM   13  C7  UNL     1      11.109   6.420   0.228  1.00  0.00     0.027 C 
BRANCH   9  14
HETATM   14  C3  UNL     1      12.664   3.431  -1.439  1.00  0.00     0.148 C 
BRANCH  14  15
HETATM   15  C2  UNL     1      14.126   3.057  -1.324  1.00  0.00     0.186 C 
BRANCH  15  16
HETATM   16  O1  UNL     1      14.687   2.658  -2.525  1.00  0.00    -0.394 OA
HETATM   17  C1  UNL     1      14.080   1.547  -3.079  1.00  0.00     0.201 C 
ENDBRANCH  15  16
ENDBRANCH  14  15
ENDBRANCH   9  14
ENDBRANCH   7   8
ENDBRANCH   1   7
BRANCH   5  18
HETATM   18  C11 UNL     1       6.419   7.739  -3.027  1.00  0.00     0.035 C 
HETATM   19  C12 UNL     1       6.502   8.808  -1.955  1.00  0.00     0.035 C 
HETATM   20  C13 UNL     1       5.306   9.709  -1.913  1.00  0.00    -0.012 C 
HETATM   21  C14 UNL     1       4.108   8.845  -1.580  1.00  0.00     0.009 C 
HETATM   22  C18 UNL     1       5.190  10.353  -3.276  1.00  0.00     0.009 C 
HETATM   23  C15 UNL     1       4.012   7.778  -2.619  1.00  0.00    -0.012 C 
HETATM   24  C16 UNL     1       3.737   8.433  -3.964  1.00  0.00     0.009 C 
HETATM   25  C20 UNL     1       5.232   6.883  -2.689  1.00  0.00     0.035 C 
HETATM   26  C17 UNL     1       4.931   9.286  -4.297  1.00  0.00    -0.012 C 
HETATM   27  C19 UNL     1       6.137   8.356  -4.390  1.00  0.00     0.035 C 
ENDBRANCH   5  18
TORSDOF 6
ENDMDL
MODEL 5
REMARK VINA RESULT: -7.423825950      1.265      2.151
REMARK  6 active torsions:
REMARK  status: ('A' for Active; 'I' for Inactive)
REMARK    1  A    between atoms: O1_2  and  C2_3 
REMARK    2  A    between atoms: C2_3  and  C3_4 
REMARK    3  A    between atoms: C3_4  and  N1_5 
REMARK    4  A    between atoms: C8_10  and  C9_11 
REMARK    5  A    between atoms: C9_11  and  N2_12 
REMARK       I    between atoms: N2_12  and  C10_14 
REMARK       I    between atoms: C10_14  and  N3_16 
REMARK    6  A    between atoms: N3_16  and  C11_18 
ROOT
HETATM    1  N2  UNL     1       9.389   5.633  -2.205  1.00  0.00    -0.341 N 
ATOM      2  H2  UNL     1       9.911   5.745  -3.075  1.00  0.00     0.164 HD
HETATM    3  C10 UNL     1       8.136   6.274  -2.043  1.00  0.00     0.316 C 
HETATM    4  O2  UNL     1       7.550   6.100  -0.952  1.00  0.00    -0.247 OA
HETATM    5  N3  UNL     1       7.591   7.076  -3.092  1.00  0.00    -0.334 N 
ATOM      6  H3  UNL     1       8.143   7.159  -3.946  1.00  0.00     0.165 HD
ENDROOT
BRANCH   1   7
HETATM    7  C9  UNL     1       9.929   4.822  -1.142  1.00  0.00     0.149 C 
BRANCH   7   8
HETATM    8  C8  UNL     1      11.287   5.421  -0.743  1.00  0.00     0.101 C 
HETATM    9  N1  UNL     1      12.245   4.440  -0.404  1.00  0.00    -0.385 N 
HETATM   10  C4  UNL     1      13.327   4.839   0.407  1.00  0.00     0.058 C 
HETATM   11  C5  UNL     1      12.782   5.370   1.716  1.00  0.00     0.044 C 
HETATM   12  C6  UNL     1      11.986   6.587   1.392  1.00  0.00     0.007 C 
HETATM   13  C7  UNL     1      10.999   6.450   0.296  1.00  0.00     0.027 C 
BRANCH   9  14
HETATM   14  C3  UNL     1      12.592   3.510  -1.420  1.00  0.00     0.148 C 
BRANCH  14  15
HETATM   15  C2  UNL     1      14.049   3.123  -1.288  1.00  0.00     0.186 C 
BRANCH  15  16
HETATM   16  O1  UNL     1      14.633   2.765  -2.491  1.00  0.00    -0.394 OA
HETATM   17  C1  UNL     1      14.129   1.595  -3.026  1.00  0.00     0.201 C 
ENDBRANCH  15  16
ENDBRANCH  14  15
ENDBRANCH   9  14
ENDBRANCH   7   8
ENDBRANCH   1   7
BRANCH   5  18
HETATM   18  C11 UNL     1       6.355   7.766  -3.055  1.00  0.00     0.035 C 
HETATM   19  C12 UNL     1       5.264   6.784  -2.676  1.00  0.00     0.035 C 
HETATM   20  C13 UNL     1       3.932   7.428  -2.442  1.00  0.00    -0.012 C 
HETATM   21  C14 UNL     1       3.511   8.069  -3.748  1.00  0.00     0.009 C 
HETATM   22  C18 UNL     1       4.120   8.442  -1.337  1.00  0.00     0.009 C 
HETATM   23  C15 UNL     1       4.577   9.035  -4.147  1.00  0.00    -0.012 C 
HETATM   24  C16 UNL     1       4.647  10.138  -3.102  1.00  0.00     0.009 C 
HETATM   25  C20 UNL     1       5.934   8.395  -4.353  1.00  0.00     0.035 C 
HETATM   26  C17 UNL     1       5.071   9.502  -1.807  1.00  0.00    -0.012 C 
HETATM   27  C19 UNL     1       6.451   8.893  -2.036  1.00  0.00     0.035 C 
ENDBRANCH   5  18
TORSDOF 6
ENDMDL
