MODEL 1
REMARK VINA RESULT: -7.911440226      0.000      0.000
REMARK  8 active torsions:
REMARK  status: ('A' for Active; 'I' for Inactive)
REMARK    1  A    between atoms: C2_2  and  C3_3 
REMARK    2  A    between atoms: C12_12  and  O1_13 
REMARK    3  A    between atoms: C14_16  and  C15_17 
REMARK    4  A    between atoms: C15_17  and  O2_19 
REMARK    5  A    between atoms: O2_19  and  C17_20 
REMARK    6  A    between atoms: C17_20  and  C18_21 
REMARK    7  A    between atoms: C18_21  and  C19_22 
REMARK    8  A    between atoms: C19_22  and  C20_23 
ROOT
HETATM    1  C3  UNL     1     -10.171  -8.580 -21.725  1.00  0.00     0.013 C 
HETATM    2  C4  UNL     1     -10.804  -7.656 -20.681  1.00  0.00     0.019 C 
HETATM    3  C5  UNL     1      -9.902  -8.271 -19.658  1.00  0.00    -0.035 C 
HETATM    4  C6  UNL     1      -8.703  -7.376 -19.351  1.00  0.00     0.016 C 
HETATM    5  C7  UNL     1      -9.490  -9.350 -20.617  1.00  0.00     0.002 C 
HETATM    6  C8  UNL     1     -10.301 -10.552 -20.111  1.00  0.00     0.012 C 
HETATM    7  C9  UNL     1     -10.128 -10.379 -18.631  1.00  0.00    -0.001 C 
HETATM    8  C10 UNL     1     -10.532  -8.906 -18.474  1.00  0.00     0.001 C 
HETATM    9  C11 UNL     1     -12.035  -8.806 -18.424  1.00  0.00     0.038 C 
HETATM   10  C12 UNL     1     -12.439  -9.370 -17.055  1.00  0.00     0.123 C 
HETATM   11  C13 UNL     1     -11.498 -10.441 -16.602  1.00  0.00     0.029 C 
HETATM   12  C14 UNL     1     -12.079 -11.502 -15.753  1.00  0.00     0.021 C 
HETATM   13  C22 UNL     1     -11.128 -12.691 -15.936  1.00  0.00     0.008 C 
HETATM   14  C23 UNL     1     -10.131 -12.272 -16.992  1.00  0.00     0.010 C 
HETATM   15  C24 UNL     1     -10.964 -11.263 -17.783  1.00  0.00    -0.034 C 
HETATM   16  C25 UNL     1     -12.027 -12.024 -18.488  1.00  0.00     0.016 C 
ENDROOT
BRANCH  12  17
HETATM   17  C15 UNL     1     -12.111 -11.224 -14.276  1.00  0.00     0.121 C 
HETATM   18  C16 UNL     1     -13.561 -11.186 -13.867  1.00  0.00     0.040 C 
BRANCH  17  19
HETATM   19  O2  UNL     1     -11.382 -10.145 -13.929  1.00  0.00    -0.386 OA
BRANCH  19  20
HETATM   20  C17 UNL     1     -12.024  -9.114 -13.318  1.00  0.00     0.168 C 
BRANCH  20  21
HETATM   21  C18 UNL     1     -11.534  -7.742 -13.736  1.00  0.00     0.026 C 
BRANCH  21  22
HETATM   22  C19 UNL     1     -10.023  -7.712 -13.846  1.00  0.00     0.002 C 
BRANCH  22  23
HETATM   23  C20 UNL     1      -9.655  -7.376 -15.275  1.00  0.00    -0.004 C 
HETATM   24  C21 UNL     1      -8.371  -8.076 -15.672  1.00  0.00     0.005 C 
ENDBRANCH  22  23
ENDBRANCH  21  22
ENDBRANCH  20  21
ENDBRANCH  19  20
ENDBRANCH  17  19
ENDBRANCH  12  17
BRANCH  10  25
HETATM   25  O1  UNL     1     -13.773  -9.714 -17.005  1.00  0.00    -0.395 OA
ATOM     26  H1  UNL     1     -14.342  -8.954 -17.025  1.00  0.00     0.210 HD
ENDBRANCH  10  25
BRANCH   1  27
HETATM   27  C2  UNL     1      -9.149  -7.884 -22.549  1.00  0.00    -0.032 C 
HETATM   28  C1  UNL     1      -9.427  -7.578 -23.794  1.00  0.00     0.007 C 
ENDBRANCH   1  27
TORSDOF 8
ENDMDL
MODEL 2
REMARK VINA RESULT: -7.882958829      1.893      3.593
REMARK  8 active torsions:
REMARK  status: ('A' for Active; 'I' for Inactive)
REMARK    1  A    between atoms: C2_2  and  C3_3 
REMARK    2  A    between atoms: C12_12  and  O1_13 
REMARK    3  A    between atoms: C14_16  and  C15_17 
REMARK    4  A    between atoms: C15_17  and  O2_19 
REMARK    5  A    between atoms: O2_19  and  C17_20 
REMARK    6  A    between atoms: C17_20  and  C18_21 
REMARK    7  A    between atoms: C18_21  and  C19_22 
REMARK    8  A    between atoms: C19_22  and  C20_23 
ROOT
HETATM    1  C3  UNL     1      -9.314  -8.437 -22.010  1.00  0.00     0.013 C 
HETATM    2  C4  UNL     1     -10.454  -9.176 -21.304  1.00  0.00     0.019 C 
HETATM    3  C5  UNL     1     -10.694  -7.940 -20.497  1.00  0.00    -0.035 C 
HETATM    4  C6  UNL     1     -11.882  -7.140 -21.028  1.00  0.00     0.016 C 
HETATM    5  C7  UNL     1      -9.416  -7.326 -20.990  1.00  0.00     0.002 C 
HETATM    6  C8  UNL     1      -8.487  -7.510 -19.781  1.00  0.00     0.012 C 
HETATM    7  C9  UNL     1      -9.432  -7.154 -18.670  1.00  0.00    -0.001 C 
HETATM    8  C10 UNL     1     -10.624  -8.055 -19.019  1.00  0.00     0.001 C 
HETATM    9  C11 UNL     1     -10.363  -9.447 -18.503  1.00  0.00     0.038 C 
HETATM   10  C12 UNL     1     -10.502  -9.351 -16.976  1.00  0.00     0.123 C 
HETATM   11  C13 UNL     1     -10.084  -8.007 -16.469  1.00  0.00     0.029 C 
HETATM   12  C14 UNL     1      -9.504  -7.975 -15.111  1.00  0.00     0.021 C 
HETATM   13  C22 UNL     1      -8.665  -6.692 -15.091  1.00  0.00     0.008 C 
HETATM   14  C23 UNL     1      -8.713  -6.138 -16.497  1.00  0.00     0.010 C 
HETATM   15  C24 UNL     1      -8.933  -7.421 -17.299  1.00  0.00    -0.034 C 
HETATM   16  C25 UNL     1      -7.685  -8.220 -17.205  1.00  0.00     0.016 C 
ENDROOT
BRANCH  12  17
HETATM   17  C15 UNL     1     -10.482  -7.846 -13.977  1.00  0.00     0.121 C 
HETATM   18  C16 UNL     1      -9.687  -7.481 -12.750  1.00  0.00     0.040 C 
BRANCH  17  19
HETATM   19  O2  UNL     1     -11.284  -8.921 -13.850  1.00  0.00    -0.386 OA
BRANCH  19  20
HETATM   20  C17 UNL     1     -12.628  -8.717 -13.871  1.00  0.00     0.168 C 
BRANCH  20  21
HETATM   21  C18 UNL     1     -13.039  -7.329 -14.320  1.00  0.00     0.026 C 
BRANCH  21  22
HETATM   22  C19 UNL     1     -13.522  -7.340 -15.757  1.00  0.00     0.002 C 
BRANCH  22  23
HETATM   23  C20 UNL     1     -12.813  -6.231 -16.505  1.00  0.00    -0.004 C 
HETATM   24  C21 UNL     1     -13.471  -5.994 -17.850  1.00  0.00     0.005 C 
ENDBRANCH  22  23
ENDBRANCH  21  22
ENDBRANCH  20  21
ENDBRANCH  19  20
ENDBRANCH  17  19
ENDBRANCH  12  17
BRANCH  10  25
HETATM   25  O1  UNL     1      -9.917 -10.419 -16.331  1.00  0.00    -0.395 OA
ATOM     26  H1  UNL     1      -8.971 -10.417 -16.416  1.00  0.00     0.210 HD
ENDBRANCH  10  25
BRANCH   1  27
HETATM   27  C2  UNL     1      -9.715  -7.925 -23.345  1.00  0.00    -0.032 C 
HETATM   28  C1  UNL     1      -8.790  -7.515 -24.181  1.00  0.00     0.007 C 
ENDBRANCH   1  27
TORSDOF 8
ENDMDL
MODEL 3
REMARK VINA RESULT: -7.872541084      1.581      2.256
REMARK  8 active torsions:
REMARK  status: ('A' for Active; 'I' for Inactive)
REMARK    1  A    between atoms: C2_2  and  C3_3 
REMARK    2  A    between atoms: C12_12  and  O1_13 
REMARK    3  A    between atoms: C14_16  and  C15_17 
REMARK    4  A    between atoms: C15_17  and  O2_19 
REMARK    5  A    between atoms: O2_19  and  C17_20 
REMARK    6  A    between atoms: C17_20  and  C18_21 
REMARK    7  A    between atoms: C18_21  and  C19_22 
REMARK    8  A    between atoms: C19_22  and  C20_23 
ROOT
HETATM    1  C3  UNL     1     -11.053  -8.344 -21.694  1.00  0.00     0.013 C 
HETATM    2  C4  UNL     1     -11.011  -7.012 -20.939  1.00  0.00     0.019 C 
HETATM    3  C5  UNL     1     -10.287  -7.714 -19.835  1.00  0.00    -0.035 C 
HETATM    4  C6  UNL     1      -8.784  -7.445 -19.882  1.00  0.00     0.016 C 
HETATM    5  C7  UNL     1     -10.575  -9.054 -20.448  1.00  0.00     0.002 C 
HETATM    6  C8  UNL     1     -11.714  -9.573 -19.557  1.00  0.00     0.012 C 
HETATM    7  C9  UNL     1     -11.202  -9.154 -18.210  1.00  0.00    -0.001 C 
HETATM    8  C10 UNL     1     -10.889  -7.675 -18.479  1.00  0.00     0.001 C 
HETATM    9  C11 UNL     1     -12.160  -6.871 -18.373  1.00  0.00     0.038 C 
HETATM   10  C12 UNL     1     -12.498  -6.833 -16.875  1.00  0.00     0.123 C 
HETATM   11  C13 UNL     1     -12.047  -8.078 -16.178  1.00  0.00     0.029 C 
HETATM   12  C14 UNL     1     -12.855  -8.503 -15.017  1.00  0.00     0.021 C 
HETATM   13  C22 UNL     1     -12.569 -10.005 -14.891  1.00  0.00     0.008 C 
HETATM   14  C23 UNL     1     -11.712 -10.370 -16.081  1.00  0.00     0.010 C 
HETATM   15  C24 UNL     1     -12.159  -9.310 -17.088  1.00  0.00    -0.034 C 
HETATM   16  C25 UNL     1     -13.560  -9.624 -17.467  1.00  0.00     0.016 C 
ENDROOT
BRANCH  12  17
HETATM   17  C15 UNL     1     -12.480  -7.899 -13.693  1.00  0.00     0.121 C 
HETATM   18  C16 UNL     1     -13.680  -7.130 -13.204  1.00  0.00     0.040 C 
BRANCH  17  19
HETATM   19  O2  UNL     1     -11.326  -7.206 -13.740  1.00  0.00    -0.386 OA
BRANCH  19  20
HETATM   20  C17 UNL     1     -10.233  -7.749 -13.141  1.00  0.00     0.168 C 
BRANCH  20  21
HETATM   21  C18 UNL     1      -8.923  -7.438 -13.838  1.00  0.00     0.026 C 
BRANCH  21  22
HETATM   22  C19 UNL     1      -9.098  -6.330 -14.858  1.00  0.00     0.002 C 
BRANCH  22  23
HETATM   23  C20 UNL     1      -8.468  -6.778 -16.160  1.00  0.00    -0.004 C 
HETATM   24  C21 UNL     1      -8.209  -8.270 -16.140  1.00  0.00     0.005 C 
ENDBRANCH  22  23
ENDBRANCH  21  22
ENDBRANCH  20  21
ENDBRANCH  19  20
ENDBRANCH  17  19
ENDBRANCH  12  17
BRANCH  10  25
HETATM   25  O1  UNL     1     -13.812  -6.487 -16.645  1.00  0.00    -0.395 OA
ATOM     26  H1  UNL     1     -13.907  -5.919 -15.889  1.00  0.00     0.210 HD
ENDBRANCH  10  25
BRANCH   1  27
HETATM   27  C2  UNL     1     -10.010  -8.430 -22.747  1.00  0.00    -0.032 C 
HETATM   28  C1  UNL     1      -9.882  -7.446 -23.606  1.00  0.00     0.007 C 
ENDBRANCH   1  27
TORSDOF 8
ENDMDL
MODEL 4
REMARK VINA RESULT: -7.791985749      1.927      3.856
REMARK  8 active torsions:
REMARK  status: ('A' for Active; 'I' for Inactive)
REMARK    1  A    between atoms: C2_2  and  C3_3 
REMARK    2  A    between atoms: C12_12  and  O1_13 
REMARK    3  A    between atoms: C14_16  and  C15_17 
REMARK    4  A    between atoms: C15_17  and  O2_19 
REMARK    5  A    between atoms: O2_19  and  C17_20 
REMARK    6  A    between atoms: C17_20  and  C18_21 
REMARK    7  A    between atoms: C18_21  and  C19_22 
REMARK    8  A    between atoms: C19_22  and  C20_23 
ROOT
HETATM    1  C3  UNL     1     -10.087  -7.108 -22.193  1.00  0.00     0.013 C 
HETATM    2  C4  UNL     1      -9.186  -7.467 -21.008  1.00  0.00     0.019 C 
HETATM    3  C5  UNL     1     -10.266  -8.382 -20.524  1.00  0.00    -0.035 C 
HETATM    4  C6  UNL     1      -9.966  -9.840 -20.866  1.00  0.00     0.016 C 
HETATM    5  C7  UNL     1     -11.238  -7.823 -21.522  1.00  0.00     0.002 C 
HETATM    6  C8  UNL     1     -12.105  -6.909 -20.644  1.00  0.00     0.012 C 
HETATM    7  C9  UNL     1     -12.269  -7.786 -19.438  1.00  0.00    -0.001 C 
HETATM    8  C10 UNL     1     -10.805  -8.154 -19.160  1.00  0.00     0.001 C 
HETATM    9  C11 UNL     1     -10.146  -7.033 -18.397  1.00  0.00     0.038 C 
HETATM   10  C12 UNL     1     -10.739  -7.097 -16.982  1.00  0.00     0.123 C 
HETATM   11  C13 UNL     1     -12.150  -7.595 -16.999  1.00  0.00     0.029 C 
HETATM   12  C14 UNL     1     -13.037  -7.076 -15.936  1.00  0.00     0.021 C 
HETATM   13  C22 UNL     1     -14.449  -7.245 -16.510  1.00  0.00     0.008 C 
HETATM   14  C23 UNL     1     -14.269  -7.730 -17.931  1.00  0.00     0.010 C 
HETATM   15  C24 UNL     1     -12.898  -7.139 -18.260  1.00  0.00    -0.034 C 
HETATM   16  C25 UNL     1     -13.059  -5.665 -18.337  1.00  0.00     0.016 C 
ENDROOT
BRANCH  12  17
HETATM   17  C15 UNL     1     -13.026  -7.833 -14.638  1.00  0.00     0.121 C 
HETATM   18  C16 UNL     1     -13.296  -6.834 -13.544  1.00  0.00     0.040 C 
BRANCH  17  19
HETATM   19  O2  UNL     1     -11.920  -8.585 -14.477  1.00  0.00    -0.386 OA
BRANCH  19  20
HETATM   20  C17 UNL     1     -12.081  -9.883 -14.105  1.00  0.00     0.168 C 
BRANCH  20  21
HETATM   21  C18 UNL     1     -12.849 -10.725 -15.104  1.00  0.00     0.026 C 
BRANCH  21  22
HETATM   22  C19 UNL     1     -12.014 -11.006 -16.337  1.00  0.00     0.002 C 
BRANCH  22  23
HETATM   23  C20 UNL     1     -12.937 -11.063 -17.536  1.00  0.00    -0.004 C 
HETATM   24  C21 UNL     1     -12.237 -11.705 -18.716  1.00  0.00     0.005 C 
ENDBRANCH  22  23
ENDBRANCH  21  22
ENDBRANCH  20  21
ENDBRANCH  19  20
ENDBRANCH  17  19
ENDBRANCH  12  17
BRANCH  10  25
HETATM   25  O1  UNL     1     -10.550  -5.924 -16.283  1.00  0.00    -0.395 OA
ATOM     26  H1  UNL     1     -10.675  -6.038 -15.349  1.00  0.00     0.210 HD
ENDBRANCH  10  25
BRANCH   1  27
HETATM   27  C2  UNL     1      -9.706  -7.833 -23.432  1.00  0.00    -0.032 C 
HETATM   28  C1  UNL     1      -8.604  -7.495 -24.061  1.00  0.00     0.007 C 
ENDBRANCH   1  27
TORSDOF 8
ENDMDL
MODEL 5
REMARK VINA RESULT: -7.788616293      1.913      3.728
REMARK  8 active torsions:
REMARK  status: ('A' for Active; 'I' for Inactive)
REMARK    1  A    between atoms: C2_2  and  C3_3 
REMARK    2  A    between atoms: C12_12  and  O1_13 
REMARK    3  A    between atoms: C14_16  and  C15_17 
REMARK    4  A    between atoms: C15_17  and  O2_19 
REMARK    5  A    between atoms: O2_19  and  C17_20 
REMARK    6  A    between atoms: C17_20  and  C18_21 
REMARK    7  A    between atoms: C18_21  and  C19_22 
REMARK    8  A    between atoms: C19_22  and  C20_23 
ROOT
HETATM    1  C3  UNL     1      -9.216  -8.527 -21.971  1.00  0.00     0.013 C 
HETATM    2  C4  UNL     1     -10.480  -9.139 -21.362  1.00  0.00     0.019 C 
HETATM    3  C5  UNL     1     -10.674  -7.866 -20.601  1.00  0.00    -0.035 C 
HETATM    4  C6  UNL     1     -11.727  -6.972 -21.253  1.00  0.00     0.016 C 
HETATM    5  C7  UNL     1      -9.304  -7.386 -20.982  1.00  0.00     0.002 C 
HETATM    6  C8  UNL     1      -8.511  -7.627 -19.689  1.00  0.00     0.012 C 
HETATM    7  C9  UNL     1      -9.515  -7.156 -18.677  1.00  0.00    -0.001 C 
HETATM    8  C10 UNL     1     -10.751  -7.950 -19.121  1.00  0.00     0.001 C 
HETATM    9  C11 UNL     1     -10.672  -9.348 -18.561  1.00  0.00     0.038 C 
HETATM   10  C12 UNL     1     -10.941  -9.202 -17.056  1.00  0.00     0.123 C 
HETATM   11  C13 UNL     1     -10.445  -7.891 -16.533  1.00  0.00     0.029 C 
HETATM   12  C14 UNL     1      -9.991  -7.880 -15.127  1.00  0.00     0.021 C 
HETATM   13  C22 UNL     1      -9.039  -6.680 -15.050  1.00  0.00     0.008 C 
HETATM   14  C23 UNL     1      -8.905  -6.159 -16.462  1.00  0.00     0.010 C 
HETATM   15  C24 UNL     1      -9.172  -7.435 -17.262  1.00  0.00    -0.034 C 
HETATM   16  C25 UNL     1      -8.019  -8.345 -17.039  1.00  0.00     0.016 C 
ENDROOT
BRANCH  12  17
HETATM   17  C15 UNL     1     -11.052  -7.631 -14.092  1.00  0.00     0.121 C 
HETATM   18  C16 UNL     1     -11.502  -8.979 -13.591  1.00  0.00     0.040 C 
BRANCH  17  19
HETATM   19  O2  UNL     1     -12.032  -6.818 -14.530  1.00  0.00    -0.386 OA
BRANCH  19  20
HETATM   20  C17 UNL     1     -13.287  -7.332 -14.630  1.00  0.00     0.168 C 
BRANCH  20  21
HETATM   21  C18 UNL     1     -13.915  -7.174 -16.001  1.00  0.00     0.026 C 
BRANCH  21  22
HETATM   22  C19 UNL     1     -13.195  -6.115 -16.813  1.00  0.00     0.002 C 
BRANCH  22  23
HETATM   23  C20 UNL     1     -13.732  -6.152 -18.227  1.00  0.00    -0.004 C 
HETATM   24  C21 UNL     1     -14.290  -4.799 -18.619  1.00  0.00     0.005 C 
ENDBRANCH  22  23
ENDBRANCH  21  22
ENDBRANCH  20  21
ENDBRANCH  19  20
ENDBRANCH  17  19
ENDBRANCH  12  17
BRANCH  10  25
HETATM   25  O1  UNL     1     -10.522 -10.304 -16.342  1.00  0.00    -0.395 OA
ATOM     26  H1  UNL     1     -11.250 -10.825 -16.024  1.00  0.00     0.210 HD
ENDBRANCH  10  25
BRANCH   1  27
HETATM   27  C2  UNL     1      -9.442  -8.013 -23.345  1.00  0.00    -0.032 C 
HETATM   28  C1  UNL     1      -8.461  -7.410 -23.976  1.00  0.00     0.007 C 
ENDBRANCH   1  27
TORSDOF 8
ENDMDL
