MODEL 1
REMARK VINA RESULT: -8.258047804      0.000      0.000
REMARK  7 active torsions:
REMARK  status: ('A' for Active; 'I' for Inactive)
REMARK    1  A    between atoms: C4_4  and  O1_5 
REMARK    2  A    between atoms: C9_11  and  C10_12 
REMARK    3  A    between atoms: C10_12  and  C12_14 
REMARK    4  A    between atoms: C10_12  and  C18_21 
REMARK    5  A    between atoms: C13_15  and  C14_16 
REMARK    6  A    between atoms: C18_21  and  C19_22 
REMARK    7  A    between atoms: C19_22  and  C20_23 
ROOT
HETATM    1  C14 UNL     1     -14.724  -6.361 -18.401  1.00  0.00     0.040 C 
HETATM    2  C15 UNL     1     -16.163  -6.449 -18.517  1.00  0.00     0.099 C 
HETATM    3  N1  UNL     1     -17.322  -6.508 -18.593  1.00  0.00    -0.191 NA
HETATM    4  C16 UNL     1     -14.134  -5.366 -19.040  1.00  0.00    -0.008 C 
HETATM    5  C17 UNL     1     -14.897  -4.381 -19.841  1.00  0.00     0.037 C 
ENDROOT
BRANCH   1   6
HETATM    6  C13 UNL     1     -13.973  -7.324 -17.617  1.00  0.00     0.019 C 
HETATM    7  C12 UNL     1     -12.907  -6.932 -16.953  1.00  0.00    -0.016 C 
BRANCH   7   8
HETATM    8  C10 UNL     1     -12.069  -7.817 -16.127  1.00  0.00    -0.022 C 
HETATM    9  C11 UNL     1     -12.815  -8.041 -14.807  1.00  0.00     0.020 C 
BRANCH   8  10
HETATM   10  C9  UNL     1     -11.827  -9.160 -16.714  1.00  0.00    -0.001 C 
HETATM   11  C8  UNL     1     -10.839 -10.021 -16.019  1.00  0.00     0.015 C 
HETATM   12  C6  UNL     1     -10.990 -11.361 -16.721  1.00  0.00    -0.034 C 
HETATM   13  C5  UNL     1     -10.077 -11.562 -17.853  1.00  0.00     0.041 C 
HETATM   14  C7  UNL     1     -10.665 -12.430 -15.664  1.00  0.00     0.016 C 
HETATM   15  C25 UNL     1     -12.449 -11.457 -17.014  1.00  0.00     0.022 C 
HETATM   16  C4  UNL     1     -10.493 -11.096 -19.188  1.00  0.00     0.122 C 
HETATM   17  C3  UNL     1     -11.954 -11.198 -19.487  1.00  0.00     0.065 C 
HETATM   18  C2  UNL     1     -12.683 -11.897 -18.403  1.00  0.00    -0.082 C 
HETATM   19  C1  UNL     1     -13.514 -12.883 -18.697  1.00  0.00     0.015 C 
HETATM   20  C24 UNL     1     -13.041 -10.057 -16.772  1.00  0.00     0.015 C 
BRANCH  16  21
HETATM   21  O1  UNL     1      -9.830 -11.903 -20.148  1.00  0.00    -0.395 OA
ATOM     22  H1  UNL     1      -9.846 -11.417 -20.964  1.00  0.00     0.210 HD
ENDBRANCH  16  21
ENDBRANCH   8  10
BRANCH   8  23
HETATM   23  C18 UNL     1     -10.768  -7.145 -15.721  1.00  0.00     0.017 C 
BRANCH  23  24
HETATM   24  C19 UNL     1     -10.215  -6.308 -16.854  1.00  0.00     0.028 C 
BRANCH  24  25
HETATM   25  C20 UNL     1      -9.118  -6.996 -17.572  1.00  0.00    -0.025 C 
HETATM   26  C21 UNL     1      -9.209  -7.519 -18.766  1.00  0.00    -0.091 C 
HETATM   27  C22 UNL     1      -8.044  -8.182 -19.381  1.00  0.00     0.042 C 
HETATM   28  C23 UNL     1     -10.483  -7.450 -19.509  1.00  0.00     0.042 C 
ENDBRANCH  24  25
ENDBRANCH  23  24
ENDBRANCH   8  23
ENDBRANCH   7   8
ENDBRANCH   1   6
TORSDOF 7
ENDMDL
MODEL 2
REMARK VINA RESULT: -8.249196782      2.247      3.422
REMARK  7 active torsions:
REMARK  status: ('A' for Active; 'I' for Inactive)
REMARK    1  A    between atoms: C4_4  and  O1_5 
REMARK    2  A    between atoms: C9_11  and  C10_12 
REMARK    3  A    between atoms: C10_12  and  C12_14 
REMARK    4  A    between atoms: C10_12  and  C18_21 
REMARK    5  A    between atoms: C13_15  and  C14_16 
REMARK    6  A    between atoms: C18_21  and  C19_22 
REMARK    7  A    between atoms: C19_22  and  C20_23 
ROOT
HETATM    1  C14 UNL     1     -10.935  -7.585 -21.980  1.00  0.00     0.040 C 
HETATM    2  C15 UNL     1     -11.824  -7.003 -22.961  1.00  0.00     0.099 C 
HETATM    3  N1  UNL     1     -12.535  -6.517 -23.743  1.00  0.00    -0.191 NA
HETATM    4  C16 UNL     1      -9.671  -7.735 -22.335  1.00  0.00    -0.008 C 
HETATM    5  C17 UNL     1      -9.174  -7.332 -23.671  1.00  0.00     0.037 C 
ENDROOT
BRANCH   1   6
HETATM    6  C13 UNL     1     -11.418  -7.981 -20.670  1.00  0.00     0.019 C 
HETATM    7  C12 UNL     1     -11.921  -7.074 -19.860  1.00  0.00    -0.016 C 
BRANCH   7   8
HETATM    8  C10 UNL     1     -12.440  -7.357 -18.512  1.00  0.00    -0.022 C 
HETATM    9  C11 UNL     1     -13.943  -7.064 -18.537  1.00  0.00     0.020 C 
BRANCH   8  10
HETATM   10  C9  UNL     1     -12.288  -8.770 -18.079  1.00  0.00    -0.001 C 
HETATM   11  C8  UNL     1     -12.099  -9.004 -16.626  1.00  0.00     0.015 C 
HETATM   12  C6  UNL     1     -12.199 -10.515 -16.500  1.00  0.00    -0.034 C 
HETATM   13  C5  UNL     1     -10.913 -11.220 -16.581  1.00  0.00     0.041 C 
HETATM   14  C7  UNL     1     -12.791 -10.784 -15.107  1.00  0.00     0.016 C 
HETATM   15  C25 UNL     1     -13.235 -10.898 -17.503  1.00  0.00     0.022 C 
HETATM   16  C4  UNL     1     -10.405 -11.612 -17.907  1.00  0.00     0.122 C 
HETATM   17  C3  UNL     1     -11.440 -12.002 -18.913  1.00  0.00     0.065 C 
HETATM   18  C2  UNL     1     -12.792 -12.052 -18.309  1.00  0.00    -0.082 C 
HETATM   19  C1  UNL     1     -13.561 -13.111 -18.500  1.00  0.00     0.015 C 
HETATM   20  C24 UNL     1     -13.466  -9.662 -18.391  1.00  0.00     0.015 C 
BRANCH  16  21
HETATM   21  O1  UNL     1      -9.572 -12.746 -17.728  1.00  0.00    -0.395 OA
ATOM     22  H1  UNL     1     -10.019 -13.311 -17.109  1.00  0.00     0.210 HD
ENDBRANCH  16  21
ENDBRANCH   8  10
BRANCH   8  23
HETATM   23  C18 UNL     1     -11.880  -6.395 -17.478  1.00  0.00     0.017 C 
BRANCH  23  24
HETATM   24  C19 UNL     1     -10.419  -6.103 -17.745  1.00  0.00     0.028 C 
BRANCH  24  25
HETATM   25  C20 UNL     1      -9.530  -6.755 -16.757  1.00  0.00    -0.025 C 
HETATM   26  C21 UNL     1      -8.724  -7.753 -17.008  1.00  0.00    -0.091 C 
HETATM   27  C22 UNL     1      -7.884  -8.321 -15.938  1.00  0.00     0.042 C 
HETATM   28  C23 UNL     1      -8.651  -8.320 -18.369  1.00  0.00     0.042 C 
ENDBRANCH  24  25
ENDBRANCH  23  24
ENDBRANCH   8  23
ENDBRANCH   7   8
ENDBRANCH   1   6
TORSDOF 7
ENDMDL
MODEL 3
REMARK VINA RESULT: -8.222395121      0.922      1.077
REMARK  7 active torsions:
REMARK  status: ('A' for Active; 'I' for Inactive)
REMARK    1  A    between atoms: C4_4  and  O1_5 
REMARK    2  A    between atoms: C9_11  and  C10_12 
REMARK    3  A    between atoms: C10_12  and  C12_14 
REMARK    4  A    between atoms: C10_12  and  C18_21 
REMARK    5  A    between atoms: C13_15  and  C14_16 
REMARK    6  A    between atoms: C18_21  and  C19_22 
REMARK    7  A    between atoms: C19_22  and  C20_23 
ROOT
HETATM    1  C14 UNL     1     -14.915  -6.013 -18.027  1.00  0.00     0.040 C 
HETATM    2  C15 UNL     1     -16.302  -6.237 -18.365  1.00  0.00     0.099 C 
HETATM    3  N1  UNL     1     -17.425  -6.405 -18.622  1.00  0.00    -0.191 NA
HETATM    4  C16 UNL     1     -14.274  -5.087 -18.720  1.00  0.00    -0.008 C 
HETATM    5  C17 UNL     1     -14.934  -4.310 -19.794  1.00  0.00     0.037 C 
ENDROOT
BRANCH   1   6
HETATM    6  C13 UNL     1     -14.265  -6.773 -16.975  1.00  0.00     0.019 C 
HETATM    7  C12 UNL     1     -12.952  -6.859 -16.952  1.00  0.00    -0.016 C 
BRANCH   7   8
HETATM    8  C10 UNL     1     -12.184  -7.599 -15.937  1.00  0.00    -0.022 C 
HETATM    9  C11 UNL     1     -12.932  -7.450 -14.608  1.00  0.00     0.020 C 
BRANCH   8  10
HETATM   10  C9  UNL     1     -12.066  -9.057 -16.198  1.00  0.00    -0.001 C 
HETATM   11  C8  UNL     1     -11.943  -9.937 -15.010  1.00  0.00     0.015 C 
HETATM   12  C6  UNL     1     -12.064 -11.334 -15.597  1.00  0.00    -0.034 C 
HETATM   13  C5  UNL     1     -10.783 -11.960 -15.950  1.00  0.00     0.041 C 
HETATM   14  C7  UNL     1     -12.719 -12.196 -14.506  1.00  0.00     0.016 C 
HETATM   15  C25 UNL     1     -13.059 -11.182 -16.699  1.00  0.00     0.022 C 
HETATM   16  C4  UNL     1     -10.222 -11.713 -17.290  1.00  0.00     0.122 C 
HETATM   17  C3  UNL     1     -11.216 -11.568 -18.397  1.00  0.00     0.065 C 
HETATM   18  C2  UNL     1     -12.594 -11.850 -17.929  1.00  0.00    -0.082 C 
HETATM   19  C1  UNL     1     -13.365 -12.679 -18.613  1.00  0.00     0.015 C 
HETATM   20  C24 UNL     1     -13.239  -9.671 -16.925  1.00  0.00     0.015 C 
BRANCH  16  21
HETATM   21  O1  UNL     1      -9.410 -12.827 -17.625  1.00  0.00    -0.395 OA
ATOM     22  H1  UNL     1      -9.975 -13.447 -18.070  1.00  0.00     0.210 HD
ENDBRANCH  16  21
ENDBRANCH   8  10
BRANCH   8  23
HETATM   23  C18 UNL     1     -10.825  -6.967 -15.684  1.00  0.00     0.017 C 
BRANCH  23  24
HETATM   24  C19 UNL     1     -10.340  -6.221 -16.908  1.00  0.00     0.028 C 
BRANCH  24  25
HETATM   25  C20 UNL     1      -9.217  -6.918 -17.577  1.00  0.00    -0.025 C 
HETATM   26  C21 UNL     1      -9.291  -7.544 -18.722  1.00  0.00    -0.091 C 
HETATM   27  C22 UNL     1      -8.101  -8.202 -19.290  1.00  0.00     0.042 C 
HETATM   28  C23 UNL     1     -10.572  -7.595 -19.455  1.00  0.00     0.042 C 
ENDBRANCH  24  25
ENDBRANCH  23  24
ENDBRANCH   8  23
ENDBRANCH   7   8
ENDBRANCH   1   6
TORSDOF 7
ENDMDL
MODEL 4
REMARK VINA RESULT: -8.203277731      2.601      3.442
REMARK  7 active torsions:
REMARK  status: ('A' for Active; 'I' for Inactive)
REMARK    1  A    between atoms: C4_4  and  O1_5 
REMARK    2  A    between atoms: C9_11  and  C10_12 
REMARK    3  A    between atoms: C10_12  and  C12_14 
REMARK    4  A    between atoms: C10_12  and  C18_21 
REMARK    5  A    between atoms: C13_15  and  C14_16 
REMARK    6  A    between atoms: C18_21  and  C19_22 
REMARK    7  A    between atoms: C19_22  and  C20_23 
ROOT
HETATM    1  C14 UNL     1     -11.392  -7.548 -21.968  1.00  0.00     0.040 C 
HETATM    2  C15 UNL     1     -10.130  -7.908 -22.574  1.00  0.00     0.099 C 
HETATM    3  N1  UNL     1      -9.122  -8.216 -23.068  1.00  0.00    -0.191 NA
HETATM    4  C16 UNL     1     -12.226  -6.835 -22.706  1.00  0.00    -0.008 C 
HETATM    5  C17 UNL     1     -11.896  -6.419 -24.089  1.00  0.00     0.037 C 
ENDROOT
BRANCH   1   6
HETATM    6  C13 UNL     1     -11.719  -7.954 -20.614  1.00  0.00     0.019 C 
HETATM    7  C12 UNL     1     -12.261  -7.085 -19.788  1.00  0.00    -0.016 C 
BRANCH   7   8
HETATM    8  C10 UNL     1     -12.635  -7.382 -18.395  1.00  0.00    -0.022 C 
HETATM    9  C11 UNL     1     -14.139  -7.118 -18.265  1.00  0.00     0.020 C 
BRANCH   8  10
HETATM   10  C9  UNL     1     -12.413  -8.794 -17.987  1.00  0.00    -0.001 C 
HETATM   11  C8  UNL     1     -12.161  -9.036 -16.545  1.00  0.00     0.015 C 
HETATM   12  C6  UNL     1     -12.199 -10.552 -16.435  1.00  0.00    -0.034 C 
HETATM   13  C5  UNL     1     -10.891 -11.206 -16.574  1.00  0.00     0.041 C 
HETATM   14  C7  UNL     1     -12.726 -10.859 -15.024  1.00  0.00     0.016 C 
HETATM   15  C25 UNL     1     -13.257 -10.962 -17.403  1.00  0.00     0.022 C 
HETATM   16  C4  UNL     1     -10.419 -11.563 -17.923  1.00  0.00     0.122 C 
HETATM   17  C3  UNL     1     -11.477 -11.981 -18.894  1.00  0.00     0.065 C 
HETATM   18  C2  UNL     1     -12.802 -12.089 -18.239  1.00  0.00    -0.082 C 
HETATM   19  C1  UNL     1     -13.537 -13.174 -18.416  1.00  0.00     0.015 C 
HETATM   20  C24 UNL     1     -13.568  -9.726 -18.266  1.00  0.00     0.015 C 
BRANCH  16  21
HETATM   21  O1  UNL     1      -9.538 -12.667 -17.790  1.00  0.00    -0.395 OA
ATOM     22  H1  UNL     1      -9.911 -13.228 -17.121  1.00  0.00     0.210 HD
ENDBRANCH  16  21
ENDBRANCH   8  10
BRANCH   8  23
HETATM   23  C18 UNL     1     -11.991  -6.412 -17.418  1.00  0.00     0.017 C 
BRANCH  23  24
HETATM   24  C19 UNL     1     -10.544  -6.158 -17.784  1.00  0.00     0.028 C 
BRANCH  24  25
HETATM   25  C20 UNL     1      -9.608  -6.779 -16.819  1.00  0.00    -0.025 C 
HETATM   26  C21 UNL     1      -8.787  -7.760 -17.087  1.00  0.00    -0.091 C 
HETATM   27  C22 UNL     1      -7.899  -8.297 -16.040  1.00  0.00     0.042 C 
HETATM   28  C23 UNL     1      -8.744  -8.338 -18.446  1.00  0.00     0.042 C 
ENDBRANCH  24  25
ENDBRANCH  23  24
ENDBRANCH   8  23
ENDBRANCH   7   8
ENDBRANCH   1   6
TORSDOF 7
ENDMDL
MODEL 5
REMARK VINA RESULT: -8.067112581      0.978      1.219
REMARK  7 active torsions:
REMARK  status: ('A' for Active; 'I' for Inactive)
REMARK    1  A    between atoms: C4_4  and  O1_5 
REMARK    2  A    between atoms: C9_11  and  C10_12 
REMARK    3  A    between atoms: C10_12  and  C12_14 
REMARK    4  A    between atoms: C10_12  and  C18_21 
REMARK    5  A    between atoms: C13_15  and  C14_16 
REMARK    6  A    between atoms: C18_21  and  C19_22 
REMARK    7  A    between atoms: C19_22  and  C20_23 
ROOT
HETATM    1  C14 UNL     1     -14.400  -6.355 -18.043  1.00  0.00     0.040 C 
HETATM    2  C15 UNL     1     -13.930  -5.152 -18.694  1.00  0.00     0.099 C 
HETATM    3  N1  UNL     1     -13.551  -4.194 -19.235  1.00  0.00    -0.191 NA
HETATM    4  C16 UNL     1     -15.709  -6.516 -17.961  1.00  0.00    -0.008 C 
HETATM    5  C17 UNL     1     -16.661  -5.521 -18.504  1.00  0.00     0.037 C 
ENDROOT
BRANCH   1   6
HETATM    6  C13 UNL     1     -13.470  -7.333 -17.509  1.00  0.00     0.019 C 
HETATM    7  C12 UNL     1     -12.846  -7.087 -16.377  1.00  0.00    -0.016 C 
BRANCH   7   8
HETATM    8  C10 UNL     1     -11.884  -8.002 -15.741  1.00  0.00    -0.022 C 
HETATM    9  C11 UNL     1     -12.439  -8.347 -14.354  1.00  0.00     0.020 C 
BRANCH   8  10
HETATM   10  C9  UNL     1     -11.695  -9.290 -16.457  1.00  0.00    -0.001 C 
HETATM   11  C8  UNL     1     -10.694 -10.226 -15.887  1.00  0.00     0.015 C 
HETATM   12  C6  UNL     1     -10.901 -11.494 -16.699  1.00  0.00    -0.034 C 
HETATM   13  C5  UNL     1     -10.043 -11.605 -17.885  1.00  0.00     0.041 C 
HETATM   14  C7  UNL     1     -10.552 -12.659 -15.758  1.00  0.00     0.016 C 
HETATM   15  C25 UNL     1     -12.374 -11.540 -16.933  1.00  0.00     0.022 C 
HETATM   16  C4  UNL     1     -10.507 -11.014 -19.152  1.00  0.00     0.122 C 
HETATM   17  C3  UNL     1     -11.982 -11.066 -19.393  1.00  0.00     0.065 C 
HETATM   18  C2  UNL     1     -12.676 -11.849 -18.344  1.00  0.00    -0.082 C 
HETATM   19  C1  UNL     1     -13.538 -12.791 -18.688  1.00  0.00     0.015 C 
HETATM   20  C24 UNL     1     -12.927 -10.159 -16.540  1.00  0.00     0.015 C 
BRANCH  16  21
HETATM   21  O1  UNL     1      -9.902 -11.741 -20.210  1.00  0.00    -0.395 OA
ATOM     22  H1  UNL     1      -8.976 -11.792 -20.005  1.00  0.00     0.210 HD
ENDBRANCH  16  21
ENDBRANCH   8  10
BRANCH   8  23
HETATM   23  C18 UNL     1     -10.555  -7.319 -15.462  1.00  0.00     0.017 C 
BRANCH  23  24
HETATM   24  C19 UNL     1     -10.130  -6.463 -16.636  1.00  0.00     0.028 C 
BRANCH  24  25
HETATM   25  C20 UNL     1      -9.050  -7.098 -17.426  1.00  0.00    -0.025 C 
HETATM   26  C21 UNL     1      -9.164  -7.523 -18.656  1.00  0.00    -0.091 C 
HETATM   27  C22 UNL     1      -8.014  -8.140 -19.342  1.00  0.00     0.042 C 
HETATM   28  C23 UNL     1     -10.451  -7.390 -19.369  1.00  0.00     0.042 C 
ENDBRANCH  24  25
ENDBRANCH  23  24
ENDBRANCH   8  23
ENDBRANCH   7   8
ENDBRANCH   1   6
TORSDOF 7
ENDMDL
