MODEL 1
REMARK VINA RESULT: -6.054992543      0.000      0.000
REMARK  3 active torsions:
REMARK  status: ('A' for Active; 'I' for Inactive)
REMARK    1  A    between atoms: C2_2  and  N1_3 
REMARK    2  A    between atoms: N3_14  and  O2_16 
REMARK    3  A    between atoms: C10_18  and  C11_19 
ROOT
HETATM    1  N1  UNL     1       3.593  56.737  51.127  1.00  0.00    -0.327 N 
HETATM    2  C3  UNL     1       2.468  57.173  50.388  1.00  0.00     0.319 C 
HETATM    3  O1  UNL     1       1.253  56.867  50.519  1.00  0.00    -0.247 OA
HETATM    4  N2  UNL     1       2.933  58.099  49.370  1.00  0.00    -0.326 N 
ATOM      5  H2  UNL     1       2.505  58.349  48.480  1.00  0.00     0.165 HD
HETATM    6  C4  UNL     1       4.182  58.578  49.967  1.00  0.00     0.096 C 
HETATM    7  C5  UNL     1       3.639  59.375  51.195  1.00  0.00     0.040 C 
HETATM    8  C6  UNL     1       3.341  60.794  50.766  1.00  0.00     0.003 C 
HETATM    9  C7  UNL     1       2.908  60.933  49.326  1.00  0.00     0.006 C 
HETATM   10  C8  UNL     1       3.963  60.424  48.360  1.00  0.00     0.057 C 
HETATM   11  C9  UNL     1       4.899  59.580  49.228  1.00  0.00     0.040 C 
HETATM   12  N3  UNL     1       6.050  59.916  49.217  1.00  0.00    -0.275 N 
ATOM     13  H3  UNL     1       6.083  60.667  48.529  1.00  0.00     0.193 HD
HETATM   14  C10 UNL     1       4.777  57.339  50.427  1.00  0.00     0.127 C 
ENDROOT
BRANCH  14  15
HETATM   15  C11 UNL     1       5.197  56.275  49.491  1.00  0.00     0.011 C 
HETATM   16  C12 UNL     1       5.614  56.612  48.124  1.00  0.00     0.007 C 
HETATM   17  C13 UNL     1       6.028  55.301  47.430  1.00  0.00     0.000 C 
HETATM   18  C14 UNL     1       5.477  54.090  48.110  1.00  0.00     0.000 C 
HETATM   19  C15 UNL     1       6.073  53.930  49.492  1.00  0.00     0.000 C 
HETATM   20  C16 UNL     1       6.155  55.315  50.117  1.00  0.00     0.007 C 
ENDBRANCH  14  15
BRANCH  12  21
HETATM   21  O2  UNL     1       7.271  59.814  49.631  1.00  0.00    -0.290 OA
ATOM     22  H2  UNL     1       8.044  60.168  50.055  1.00  0.00     0.244 HD
ENDBRANCH  12  21
BRANCH   1  23
HETATM   23  C2  UNL     1       3.611  55.887  52.266  1.00  0.00     0.123 C 
HETATM   24  C1  UNL     1       3.157  56.640  53.485  1.00  0.00     0.026 C 
ENDBRANCH   1  23
TORSDOF 3
ENDMDL
MODEL 2
REMARK VINA RESULT: -5.767116583      5.023      7.894
REMARK  3 active torsions:
REMARK  status: ('A' for Active; 'I' for Inactive)
REMARK    1  A    between atoms: C2_2  and  N1_3 
REMARK    2  A    between atoms: N3_14  and  O2_16 
REMARK    3  A    between atoms: C10_18  and  C11_19 
ROOT
HETATM    1  N1  UNL     1       6.147  56.377  44.527  1.00  0.00    -0.327 N 
HETATM    2  C3  UNL     1       7.540  56.146  44.614  1.00  0.00     0.319 C 
HETATM    3  O1  UNL     1       8.495  56.964  44.554  1.00  0.00    -0.247 OA
HETATM    4  N2  UNL     1       7.746  54.720  44.798  1.00  0.00    -0.326 N 
ATOM      5  H2  UNL     1       8.562  54.151  44.575  1.00  0.00     0.165 HD
HETATM    6  C4  UNL     1       6.468  54.318  45.388  1.00  0.00     0.096 C 
HETATM    7  C5  UNL     1       6.538  55.042  46.770  1.00  0.00     0.040 C 
HETATM    8  C6  UNL     1       7.239  54.140  47.760  1.00  0.00     0.003 C 
HETATM    9  C7  UNL     1       8.283  53.235  47.151  1.00  0.00     0.006 C 
HETATM   10  C8  UNL     1       7.698  52.313  46.098  1.00  0.00     0.057 C 
HETATM   11  C9  UNL     1       6.342  52.936  45.758  1.00  0.00     0.040 C 
HETATM   12  N3  UNL     1       5.394  52.217  45.914  1.00  0.00    -0.275 N 
ATOM     13  H3  UNL     1       5.803  51.320  46.172  1.00  0.00     0.193 HD
HETATM   14  C10 UNL     1       5.524  55.011  44.534  1.00  0.00     0.127 C 
ENDROOT
BRANCH  14  15
HETATM   15  C11 UNL     1       5.384  54.693  43.098  1.00  0.00     0.011 C 
HETATM   16  C12 UNL     1       5.429  53.298  42.639  1.00  0.00     0.007 C 
HETATM   17  C13 UNL     1       5.212  53.305  41.115  1.00  0.00     0.000 C 
HETATM   18  C14 UNL     1       5.482  54.640  40.500  1.00  0.00     0.000 C 
HETATM   19  C15 UNL     1       4.478  55.667  40.977  1.00  0.00     0.000 C 
HETATM   20  C16 UNL     1       4.248  55.424  42.461  1.00  0.00     0.007 C 
ENDBRANCH  14  15
BRANCH  12  21
HETATM   21  O2  UNL     1       4.120  51.998  45.922  1.00  0.00    -0.290 OA
ATOM     22  H2  UNL     1       3.326  51.690  46.344  1.00  0.00     0.244 HD
ENDBRANCH  12  21
BRANCH   1  23
HETATM   23  C2  UNL     1       5.475  57.625  44.423  1.00  0.00     0.123 C 
HETATM   24  C1  UNL     1       5.431  58.306  45.761  1.00  0.00     0.026 C 
ENDBRANCH   1  23
TORSDOF 3
ENDMDL
MODEL 3
REMARK VINA RESULT: -5.569394202      2.423      4.830
REMARK  3 active torsions:
REMARK  status: ('A' for Active; 'I' for Inactive)
REMARK    1  A    between atoms: C2_2  and  N1_3 
REMARK    2  A    between atoms: N3_14  and  O2_16 
REMARK    3  A    between atoms: C10_18  and  C11_19 
ROOT
HETATM    1  N1  UNL     1       3.613  55.589  50.746  1.00  0.00    -0.327 N 
HETATM    2  C3  UNL     1       2.242  55.289  50.568  1.00  0.00     0.319 C 
HETATM    3  O1  UNL     1       1.697  54.438  49.817  1.00  0.00    -0.247 OA
HETATM    4  N2  UNL     1       1.476  56.164  51.439  1.00  0.00    -0.326 N 
ATOM      5  H2  UNL     1       0.508  56.474  51.354  1.00  0.00     0.165 HD
HETATM    6  C4  UNL     1       2.466  56.484  52.469  1.00  0.00     0.096 C 
HETATM    7  C5  UNL     1       2.646  55.090  53.150  1.00  0.00     0.040 C 
HETATM    8  C6  UNL     1       1.610  54.941  54.241  1.00  0.00     0.003 C 
HETATM    9  C7  UNL     1       0.312  55.664  53.973  1.00  0.00     0.006 C 
HETATM   10  C8  UNL     1       0.514  57.158  53.798  1.00  0.00     0.057 C 
HETATM   11  C9  UNL     1       2.016  57.313  53.552  1.00  0.00     0.040 C 
HETATM   12  N3  UNL     1       2.591  58.030  54.322  1.00  0.00    -0.275 N 
ATOM     13  H3  UNL     1       1.849  58.411  54.908  1.00  0.00     0.193 HD
HETATM   14  C10 UNL     1       3.637  56.777  51.665  1.00  0.00     0.127 C 
ENDROOT
BRANCH  14  15
HETATM   15  C11 UNL     1       3.684  57.925  50.737  1.00  0.00     0.011 C 
HETATM   16  C12 UNL     1       3.182  59.240  51.157  1.00  0.00     0.007 C 
HETATM   17  C13 UNL     1       3.414  60.219  49.992  1.00  0.00     0.000 C 
HETATM   18  C14 UNL     1       3.616  59.521  48.685  1.00  0.00     0.000 C 
HETATM   19  C15 UNL     1       4.899  58.718  48.696  1.00  0.00     0.000 C 
HETATM   20  C16 UNL     1       5.010  58.055  50.061  1.00  0.00     0.007 C 
ENDBRANCH  14  15
BRANCH  12  21
HETATM   21  O2  UNL     1       3.670  58.568  54.790  1.00  0.00    -0.290 OA
ATOM     22  H2  UNL     1       4.216  58.857  55.511  1.00  0.00     0.244 HD
ENDBRANCH  12  21
BRANCH   1  23
HETATM   23  C2  UNL     1       4.732  54.936  50.161  1.00  0.00     0.123 C 
HETATM   24  C1  UNL     1       5.778  54.662  51.203  1.00  0.00     0.026 C 
ENDBRANCH   1  23
TORSDOF 3
ENDMDL
MODEL 4
REMARK VINA RESULT: -5.529105760      5.391      7.910
REMARK  3 active torsions:
REMARK  status: ('A' for Active; 'I' for Inactive)
REMARK    1  A    between atoms: C2_2  and  N1_3 
REMARK    2  A    between atoms: N3_14  and  O2_16 
REMARK    3  A    between atoms: C10_18  and  C11_19 
ROOT
HETATM    1  N1  UNL     1       6.501  52.075  44.150  1.00  0.00    -0.327 N 
HETATM    2  C3  UNL     1       5.477  52.152  45.123  1.00  0.00     0.319 C 
HETATM    3  O1  UNL     1       4.731  51.245  45.576  1.00  0.00    -0.247 OA
HETATM    4  N2  UNL     1       5.387  53.531  45.570  1.00  0.00    -0.326 N 
ATOM      5  H2  UNL     1       4.598  54.026  45.984  1.00  0.00     0.165 HD
HETATM    6  C4  UNL     1       6.734  54.019  45.268  1.00  0.00     0.096 C 
HETATM    7  C5  UNL     1       7.586  53.191  46.281  1.00  0.00     0.040 C 
HETATM    8  C6  UNL     1       7.647  53.938  47.594  1.00  0.00     0.003 C 
HETATM    9  C7  UNL     1       6.425  54.771  47.898  1.00  0.00     0.006 C 
HETATM   10  C8  UNL     1       6.173  55.825  46.836  1.00  0.00     0.057 C 
HETATM   11  C9  UNL     1       7.021  55.376  45.644  1.00  0.00     0.040 C 
HETATM   12  N3  UNL     1       7.825  56.176  45.255  1.00  0.00    -0.275 N 
ATOM     13  H3  UNL     1       7.645  57.005  45.822  1.00  0.00     0.193 HD
HETATM   14  C10 UNL     1       6.939  53.495  43.932  1.00  0.00     0.127 C 
ENDROOT
BRANCH  14  15
HETATM   15  C11 UNL     1       6.120  53.932  42.783  1.00  0.00     0.011 C 
HETATM   16  C12 UNL     1       5.516  55.271  42.769  1.00  0.00     0.007 C 
HETATM   17  C13 UNL     1       4.773  55.430  41.430  1.00  0.00     0.000 C 
HETATM   18  C14 UNL     1       4.478  54.119  40.775  1.00  0.00     0.000 C 
HETATM   19  C15 UNL     1       5.756  53.425  40.358  1.00  0.00     0.000 C 
HETATM   20  C16 UNL     1       6.772  53.631  41.473  1.00  0.00     0.007 C 
ENDBRANCH  14  15
BRANCH  12  21
HETATM   21  O2  UNL     1       8.804  56.527  44.487  1.00  0.00    -0.290 OA
ATOM     22  H2  UNL     1       9.731  56.609  44.296  1.00  0.00     0.244 HD
ENDBRANCH  12  21
BRANCH   1  23
HETATM   23  C2  UNL     1       6.994  50.916  43.492  1.00  0.00     0.123 C 
HETATM   24  C1  UNL     1       8.495  50.946  43.438  1.00  0.00     0.026 C 
ENDBRANCH   1  23
TORSDOF 3
ENDMDL
MODEL 5
REMARK VINA RESULT: -5.500047777      4.712      6.753
REMARK  3 active torsions:
REMARK  status: ('A' for Active; 'I' for Inactive)
REMARK    1  A    between atoms: C2_2  and  N1_3 
REMARK    2  A    between atoms: N3_14  and  O2_16 
REMARK    3  A    between atoms: C10_18  and  C11_19 
ROOT
HETATM    1  N1  UNL     1       5.924  53.424  47.183  1.00  0.00    -0.327 N 
HETATM    2  C3  UNL     1       5.261  52.594  46.248  1.00  0.00     0.319 C 
HETATM    3  O1  UNL     1       4.235  51.878  46.395  1.00  0.00    -0.247 OA
HETATM    4  N2  UNL     1       5.977  52.680  44.987  1.00  0.00    -0.326 N 
ATOM      5  H2  UNL     1       6.013  52.012  44.218  1.00  0.00     0.165 HD
HETATM    6  C4  UNL     1       6.631  53.983  45.116  1.00  0.00     0.096 C 
HETATM    7  C5  UNL     1       5.398  54.940  45.088  1.00  0.00     0.040 C 
HETATM    8  C6  UNL     1       5.077  55.283  43.650  1.00  0.00     0.003 C 
HETATM    9  C7  UNL     1       5.408  54.193  42.659  1.00  0.00     0.006 C 
HETATM   10  C8  UNL     1       6.882  53.832  42.677  1.00  0.00     0.057 C 
HETATM   11  C9  UNL     1       7.404  54.424  43.988  1.00  0.00     0.040 C 
HETATM   12  N3  UNL     1       8.310  55.202  43.875  1.00  0.00    -0.275 N 
ATOM     13  H3  UNL     1       8.532  55.181  42.880  1.00  0.00     0.193 HD
HETATM   14  C10 UNL     1       7.150  53.914  46.468  1.00  0.00     0.127 C 
ENDROOT
BRANCH  14  15
HETATM   15  C11 UNL     1       8.187  52.938  46.861  1.00  0.00     0.011 C 
HETATM   16  C12 UNL     1       9.272  52.592  45.933  1.00  0.00     0.007 C 
HETATM   17  C13 UNL     1      10.198  51.595  46.653  1.00  0.00     0.000 C 
HETATM   18  C14 UNL     1       9.536  50.930  47.816  1.00  0.00     0.000 C 
HETATM   19  C15 UNL     1       9.225  51.932  48.906  1.00  0.00     0.000 C 
HETATM   20  C16 UNL     1       8.725  53.200  48.230  1.00  0.00     0.007 C 
ENDBRANCH  14  15
BRANCH  12  21
HETATM   21  O2  UNL     1       9.150  56.052  44.368  1.00  0.00    -0.290 OA
ATOM     22  H2  UNL     1       9.981  56.269  44.775  1.00  0.00     0.244 HD
ENDBRANCH  12  21
BRANCH   1  23
HETATM   23  C2  UNL     1       5.539  53.712  48.520  1.00  0.00     0.123 C 
HETATM   24  C1  UNL     1       5.650  55.186  48.788  1.00  0.00     0.026 C 
ENDBRANCH   1  23
TORSDOF 3
ENDMDL
