MODEL 1
REMARK VINA RESULT: -7.821588147      0.000      0.000
REMARK  7 active torsions:
REMARK  status: ('A' for Active; 'I' for Inactive)
REMARK    1  A    between atoms: C2_3  and  C3_4 
REMARK    2  A    between atoms: C3_4  and  C4_5 
REMARK    3  A    between atoms: C4_5  and  C5_6 
REMARK    4  A    between atoms: C5_6  and  C6_7 
REMARK    5  A    between atoms: C6_7  and  N2_8 
REMARK       I    between atoms: C7_10  and  N3_11 
REMARK       I    between atoms: C7_10  and  N4_15 
REMARK    6  A    between atoms: N3_11  and  O1_13 
REMARK    7  A    between atoms: C11_23  and  N7_24 
ROOT
HETATM    1  C3  UNL     1     -16.353  20.284 -15.073  1.00  0.00     0.059 C 
ENDROOT
BRANCH   1   2
HETATM    2  C2  UNL     1     -15.136  19.863 -14.345  1.00  0.00     0.049 A 
HETATM    3  N1  UNL     1     -14.842  20.510 -13.089  1.00  0.00    -0.169 N 
HETATM    4  C1  UNL     1     -15.671  21.401 -12.707  1.00  0.00     0.146 C 
HETATM    5  C11 UNL     1     -13.704  20.191 -12.302  1.00  0.00     0.701 A 
HETATM    6  N6  UNL     1     -12.837  19.137 -12.876  1.00  0.00    -0.132 N 
HETATM    7  N5  UNL     1     -13.156  18.549 -14.075  1.00  0.00    -0.296 N 
ATOM      8  H6  UNL     1     -11.997  18.846 -12.377  1.00  0.00     0.205 HD
HETATM    9  C10 UNL     1     -14.319  18.934 -14.793  1.00  0.00     0.133 A 
ATOM     10  H5  UNL     1     -12.547  17.824 -14.456  1.00  0.00     0.186 HD
BRANCH   5  11
HETATM   11  N7  UNL     1     -13.344  20.663 -11.225  1.00  0.00    -0.210 N 
HETATM   12  C12 UNL     1     -12.540  20.461 -10.147  1.00  0.00     0.137 C 
ATOM     13  H7  UNL     1     -13.838  21.545 -11.087  1.00  0.00     0.182 HD
ENDBRANCH   5  11
ENDBRANCH   1   2
BRANCH   1  14
HETATM   14  C4  UNL     1     -17.435  19.235 -15.024  1.00  0.00     0.008 C 
BRANCH  14  15
HETATM   15  C5  UNL     1     -18.671  19.859 -14.415  1.00  0.00     0.020 C 
BRANCH  15  16
HETATM   16  C6  UNL     1     -18.891  19.426 -12.997  1.00  0.00     0.138 C 
BRANCH  16  17
HETATM   17  N2  UNL     1     -19.982  18.485 -12.862  1.00  0.00    -0.225 N 
HETATM   18  C7  UNL     1     -20.729  18.423 -11.813  1.00  0.00     0.695 C 
HETATM   19  N3  UNL     1     -21.764  17.441 -11.830  1.00  0.00    -0.099 N 
HETATM   20  N4  UNL     1     -20.570  19.258 -10.686  1.00  0.00    -0.225 N 
ATOM     21  H3  UNL     1     -22.751  17.686 -11.750  1.00  0.00     0.213 HD
HETATM   22  C8  UNL     1     -19.922  18.732  -9.498  1.00  0.00     0.168 C 
HETATM   23  C9  UNL     1     -21.022  20.625 -10.646  1.00  0.00     0.168 C 
ATOM     24  H2  UNL     1     -20.168  17.842 -13.632  1.00  0.00     0.177 HD
BRANCH  19  25
HETATM   25  O1  UNL     1     -21.336  16.144 -11.960  1.00  0.00    -0.276 OA
ATOM     26  H1  UNL     1     -21.681  15.538 -11.315  1.00  0.00     0.245 HD
ENDBRANCH  19  25
ENDBRANCH  16  17
ENDBRANCH  15  16
ENDBRANCH  14  15
ENDBRANCH   1  14
TORSDOF 7
ENDMDL
MODEL 2
REMARK VINA RESULT: -7.483537693      1.239      1.269
REMARK  7 active torsions:
REMARK  status: ('A' for Active; 'I' for Inactive)
REMARK    1  A    between atoms: C2_3  and  C3_4 
REMARK    2  A    between atoms: C3_4  and  C4_5 
REMARK    3  A    between atoms: C4_5  and  C5_6 
REMARK    4  A    between atoms: C5_6  and  C6_7 
REMARK    5  A    between atoms: C6_7  and  N2_8 
REMARK       I    between atoms: C7_10  and  N3_11 
REMARK       I    between atoms: C7_10  and  N4_15 
REMARK    6  A    between atoms: N3_11  and  O1_13 
REMARK    7  A    between atoms: C11_23  and  N7_24 
ROOT
HETATM    1  C3  UNL     1     -16.508  20.286 -14.895  1.00  0.00     0.059 C 
ENDROOT
BRANCH   1   2
HETATM    2  C2  UNL     1     -15.246  19.874 -14.243  1.00  0.00     0.049 A 
HETATM    3  N1  UNL     1     -14.865  20.545 -13.023  1.00  0.00    -0.169 N 
HETATM    4  C1  UNL     1     -15.663  21.448 -12.605  1.00  0.00     0.146 C 
HETATM    5  C11 UNL     1     -13.677  20.237 -12.309  1.00  0.00     0.701 A 
HETATM    6  N6  UNL     1     -12.855  19.167 -12.919  1.00  0.00    -0.132 N 
HETATM    7  N5  UNL     1     -13.257  18.556 -14.081  1.00  0.00    -0.296 N 
ATOM      8  H6  UNL     1     -11.984  18.882 -12.472  1.00  0.00     0.205 HD
HETATM    9  C10 UNL     1     -14.465  18.932 -14.726  1.00  0.00     0.133 A 
ATOM     10  H5  UNL     1     -12.678  17.821 -14.487  1.00  0.00     0.186 HD
BRANCH   5  11
HETATM   11  N7  UNL     1     -13.243  20.728 -11.269  1.00  0.00    -0.210 N 
HETATM   12  C12 UNL     1     -12.543  20.464 -10.133  1.00  0.00     0.137 C 
ATOM     13  H7  UNL     1     -13.510  21.713 -11.252  1.00  0.00     0.182 HD
ENDBRANCH   5  11
ENDBRANCH   1   2
BRANCH   1  14
HETATM   14  C4  UNL     1     -17.580  19.232 -14.775  1.00  0.00     0.008 C 
BRANCH  14  15
HETATM   15  C5  UNL     1     -18.835  19.893 -14.248  1.00  0.00     0.020 C 
BRANCH  15  16
HETATM   16  C6  UNL     1     -18.899  19.889 -12.751  1.00  0.00     0.138 C 
BRANCH  16  17
HETATM   17  N2  UNL     1     -18.729  18.567 -12.188  1.00  0.00    -0.225 N 
HETATM   18  C7  UNL     1     -19.423  18.134 -11.190  1.00  0.00     0.695 C 
HETATM   19  N3  UNL     1     -19.139  16.809 -10.748  1.00  0.00    -0.099 N 
HETATM   20  N4  UNL     1     -20.419  18.895 -10.539  1.00  0.00    -0.225 N 
ATOM     21  H3  UNL     1     -19.842  16.069 -10.749  1.00  0.00     0.213 HD
HETATM   22  C8  UNL     1     -20.116  19.517  -9.262  1.00  0.00     0.168 C 
HETATM   23  C9  UNL     1     -21.740  19.092 -11.077  1.00  0.00     0.168 C 
ATOM     24  H2  UNL     1     -18.029  17.949 -12.598  1.00  0.00     0.177 HD
BRANCH  19  25
HETATM   25  O1  UNL     1     -17.852  16.600 -10.320  1.00  0.00    -0.276 OA
ATOM     26  H1  UNL     1     -17.746  16.524  -9.379  1.00  0.00     0.245 HD
ENDBRANCH  19  25
ENDBRANCH  16  17
ENDBRANCH  15  16
ENDBRANCH  14  15
ENDBRANCH   1  14
TORSDOF 7
ENDMDL
MODEL 3
REMARK VINA RESULT: -7.433796865      2.813      6.426
REMARK  7 active torsions:
REMARK  status: ('A' for Active; 'I' for Inactive)
REMARK    1  A    between atoms: C2_3  and  C3_4 
REMARK    2  A    between atoms: C3_4  and  C4_5 
REMARK    3  A    between atoms: C4_5  and  C5_6 
REMARK    4  A    between atoms: C5_6  and  C6_7 
REMARK    5  A    between atoms: C6_7  and  N2_8 
REMARK       I    between atoms: C7_10  and  N3_11 
REMARK       I    between atoms: C7_10  and  N4_15 
REMARK    6  A    between atoms: N3_11  and  O1_13 
REMARK    7  A    between atoms: C11_23  and  N7_24 
ROOT
HETATM    1  C3  UNL     1     -14.518  20.404 -14.437  1.00  0.00     0.059 C 
ENDROOT
BRANCH   1   2
HETATM    2  C2  UNL     1     -15.974  20.165 -14.547  1.00  0.00     0.049 A 
HETATM    3  N1  UNL     1     -16.827  20.702 -13.514  1.00  0.00    -0.169 N 
HETATM    4  C1  UNL     1     -16.244  21.349 -12.582  1.00  0.00     0.146 C 
HETATM    5  C11 UNL     1     -18.237  20.536 -13.513  1.00  0.00     0.701 A 
HETATM    6  N6  UNL     1     -18.765  19.763 -14.660  1.00  0.00    -0.132 N 
HETATM    7  N5  UNL     1     -17.916  19.271 -15.619  1.00  0.00    -0.296 N 
ATOM      8  H6  UNL     1     -19.768  19.595 -14.738  1.00  0.00     0.205 HD
HETATM    9  C10 UNL     1     -16.515  19.488 -15.537  1.00  0.00     0.133 A 
ATOM     10  H5  UNL     1     -18.297  18.740 -16.403  1.00  0.00     0.186 HD
BRANCH   5  11
HETATM   11  N7  UNL     1     -19.069  20.939 -12.701  1.00  0.00    -0.210 N 
HETATM   12  C12 UNL     1     -19.927  20.554 -11.719  1.00  0.00     0.137 C 
ATOM     13  H7  UNL     1     -19.143  21.952 -12.805  1.00  0.00     0.182 HD
ENDBRANCH   5  11
ENDBRANCH   1   2
BRANCH   1  14
HETATM   14  C4  UNL     1     -13.733  19.118 -14.388  1.00  0.00     0.008 C 
BRANCH  14  15
HETATM   15  C5  UNL     1     -13.903  18.512 -13.012  1.00  0.00     0.020 C 
BRANCH  15  16
HETATM   16  C6  UNL     1     -13.009  19.148 -11.992  1.00  0.00     0.138 C 
BRANCH  16  17
HETATM   17  N2  UNL     1     -13.487  18.965 -10.638  1.00  0.00    -0.225 N 
HETATM   18  C7  UNL     1     -12.714  19.024  -9.607  1.00  0.00     0.695 C 
HETATM   19  N3  UNL     1     -13.333  18.823  -8.338  1.00  0.00    -0.099 N 
HETATM   20  N4  UNL     1     -11.325  19.271  -9.681  1.00  0.00    -0.225 N 
ATOM     21  H3  UNL     1     -13.321  19.532  -7.605  1.00  0.00     0.213 HD
HETATM   22  C8  UNL     1     -10.398  18.161  -9.542  1.00  0.00     0.168 C 
HETATM   23  C9  UNL     1     -10.766  20.581  -9.889  1.00  0.00     0.168 C 
ATOM     24  H2  UNL     1     -14.479  18.782 -10.492  1.00  0.00     0.177 HD
BRANCH  19  25
HETATM   25  O1  UNL     1     -13.945  17.606  -8.175  1.00  0.00    -0.276 OA
ATOM     26  H1  UNL     1     -13.691  17.127  -7.394  1.00  0.00     0.245 HD
ENDBRANCH  19  25
ENDBRANCH  16  17
ENDBRANCH  15  16
ENDBRANCH  14  15
ENDBRANCH   1  14
TORSDOF 7
ENDMDL
MODEL 4
REMARK VINA RESULT: -7.359199507      1.571      1.980
REMARK  7 active torsions:
REMARK  status: ('A' for Active; 'I' for Inactive)
REMARK    1  A    between atoms: C2_3  and  C3_4 
REMARK    2  A    between atoms: C3_4  and  C4_5 
REMARK    3  A    between atoms: C4_5  and  C5_6 
REMARK    4  A    between atoms: C5_6  and  C6_7 
REMARK    5  A    between atoms: C6_7  and  N2_8 
REMARK       I    between atoms: C7_10  and  N3_11 
REMARK       I    between atoms: C7_10  and  N4_15 
REMARK    6  A    between atoms: N3_11  and  O1_13 
REMARK    7  A    between atoms: C11_23  and  N7_24 
ROOT
HETATM    1  C3  UNL     1     -15.971  20.395 -15.150  1.00  0.00     0.059 C 
ENDROOT
BRANCH   1   2
HETATM    2  C2  UNL     1     -14.816  19.924 -14.355  1.00  0.00     0.049 A 
HETATM    3  N1  UNL     1     -14.587  20.534 -13.068  1.00  0.00    -0.169 N 
HETATM    4  C1  UNL     1     -15.414  21.440 -12.719  1.00  0.00     0.146 C 
HETATM    5  C11 UNL     1     -13.512  20.165 -12.217  1.00  0.00     0.701 A 
HETATM    6  N6  UNL     1     -12.638  19.100 -12.760  1.00  0.00    -0.132 N 
HETATM    7  N5  UNL     1     -12.894  18.547 -13.990  1.00  0.00    -0.296 N 
ATOM      8  H6  UNL     1     -11.840  18.773 -12.215  1.00  0.00     0.205 HD
HETATM    9  C10 UNL     1     -13.997  18.981 -14.772  1.00  0.00     0.133 A 
ATOM     10  H5  UNL     1     -12.282  17.814 -14.349  1.00  0.00     0.186 HD
BRANCH   5  11
HETATM   11  N7  UNL     1     -13.209  20.602 -11.108  1.00  0.00    -0.210 N 
HETATM   12  C12 UNL     1     -12.498  20.344  -9.978  1.00  0.00     0.137 C 
ATOM     13  H7  UNL     1     -13.668  21.506 -10.991  1.00  0.00     0.182 HD
ENDBRANCH   5  11
ENDBRANCH   1   2
BRANCH   1  14
HETATM   14  C4  UNL     1     -16.969  19.296 -15.409  1.00  0.00     0.008 C 
BRANCH  14  15
HETATM   15  C5  UNL     1     -18.260  19.652 -14.704  1.00  0.00     0.020 C 
BRANCH  15  16
HETATM   16  C6  UNL     1     -18.255  19.245 -13.262  1.00  0.00     0.138 C 
BRANCH  16  17
HETATM   17  N2  UNL     1     -18.906  20.214 -12.406  1.00  0.00    -0.225 N 
HETATM   18  C7  UNL     1     -19.718  19.881 -11.461  1.00  0.00     0.695 C 
HETATM   19  N3  UNL     1     -20.280  20.951 -10.703  1.00  0.00    -0.099 N 
HETATM   20  N4  UNL     1     -20.064  18.546 -11.157  1.00  0.00    -0.225 N 
ATOM     21  H3  UNL     1     -20.139  21.040  -9.697  1.00  0.00     0.213 HD
HETATM   22  C8  UNL     1     -21.345  18.026 -11.602  1.00  0.00     0.168 C 
HETATM   23  C9  UNL     1     -19.205  17.656 -10.420  1.00  0.00     0.168 C 
ATOM     24  H2  UNL     1     -18.712  21.204 -12.556  1.00  0.00     0.177 HD
BRANCH  19  25
HETATM   25  O1  UNL     1     -21.024  21.849 -11.425  1.00  0.00    -0.276 OA
ATOM     26  H1  UNL     1     -21.479  22.505 -10.909  1.00  0.00     0.245 HD
ENDBRANCH  19  25
ENDBRANCH  16  17
ENDBRANCH  15  16
ENDBRANCH  14  15
ENDBRANCH   1  14
TORSDOF 7
ENDMDL
MODEL 5
REMARK VINA RESULT: -7.315596739      1.747      2.800
REMARK  7 active torsions:
REMARK  status: ('A' for Active; 'I' for Inactive)
REMARK    1  A    between atoms: C2_3  and  C3_4 
REMARK    2  A    between atoms: C3_4  and  C4_5 
REMARK    3  A    between atoms: C4_5  and  C5_6 
REMARK    4  A    between atoms: C5_6  and  C6_7 
REMARK    5  A    between atoms: C6_7  and  N2_8 
REMARK       I    between atoms: C7_10  and  N3_11 
REMARK       I    between atoms: C7_10  and  N4_15 
REMARK    6  A    between atoms: N3_11  and  O1_13 
REMARK    7  A    between atoms: C11_23  and  N7_24 
ROOT
HETATM    1  C3  UNL     1     -18.156  20.984 -13.738  1.00  0.00     0.059 C 
ENDROOT
BRANCH   1   2
HETATM    2  C2  UNL     1     -16.690  20.835 -13.608  1.00  0.00     0.049 A 
HETATM    3  N1  UNL     1     -16.000  20.049 -14.603  1.00  0.00    -0.169 N 
HETATM    4  C1  UNL     1     -16.724  19.545 -15.524  1.00  0.00     0.146 C 
HETATM    5  C11 UNL     1     -14.596  19.835 -14.582  1.00  0.00     0.701 A 
HETATM    6  N6  UNL     1     -13.894  20.484 -13.452  1.00  0.00    -0.132 N 
HETATM    7  N5  UNL     1     -14.591  21.222 -12.528  1.00  0.00    -0.296 N 
ATOM      8  H6  UNL     1     -12.883  20.382 -13.359  1.00  0.00     0.205 HD
HETATM    9  C10 UNL     1     -15.999  21.382 -12.631  1.00  0.00     0.133 A 
ATOM     10  H5  UNL     1     -14.091  21.663 -11.756  1.00  0.00     0.186 HD
BRANCH   5  11
HETATM   11  N7  UNL     1     -13.894  19.194 -15.361  1.00  0.00    -0.210 N 
HETATM   12  C12 UNL     1     -12.835  18.345 -15.447  1.00  0.00     0.137 C 
ATOM     13  H7  UNL     1     -14.239  19.363 -16.306  1.00  0.00     0.182 HD
ENDBRANCH   5  11
ENDBRANCH   1   2
BRANCH   1  14
HETATM   14  C4  UNL     1     -18.887  20.505 -12.510  1.00  0.00     0.008 C 
BRANCH  14  15
HETATM   15  C5  UNL     1     -18.809  18.994 -12.473  1.00  0.00     0.020 C 
BRANCH  15  16
HETATM   16  C6  UNL     1     -19.625  18.406 -11.362  1.00  0.00     0.138 C 
BRANCH  16  17
HETATM   17  N2  UNL     1     -21.039  18.368 -11.667  1.00  0.00    -0.225 N 
HETATM   18  C7  UNL     1     -21.939  18.868 -10.890  1.00  0.00     0.695 C 
HETATM   19  N3  UNL     1     -23.291  18.752 -11.328  1.00  0.00    -0.099 N 
HETATM   20  N4  UNL     1     -21.650  19.504  -9.663  1.00  0.00    -0.225 N 
ATOM     21  H3  UNL     1     -23.883  19.565 -11.499  1.00  0.00     0.213 HD
HETATM   22  C8  UNL     1     -21.861  18.780  -8.421  1.00  0.00     0.168 C 
HETATM   23  C9  UNL     1     -21.149  20.851  -9.570  1.00  0.00     0.168 C 
ATOM     24  H2  UNL     1     -21.338  17.926 -12.537  1.00  0.00     0.177 HD
BRANCH  19  25
HETATM   25  O1  UNL     1     -23.739  17.467 -11.504  1.00  0.00    -0.276 OA
ATOM     26  H1  UNL     1     -24.605  17.389 -11.888  1.00  0.00     0.245 HD
ENDBRANCH  19  25
ENDBRANCH  16  17
ENDBRANCH  15  16
ENDBRANCH  14  15
ENDBRANCH   1  14
TORSDOF 7
ENDMDL
