MODEL 1
REMARK VINA RESULT: -8.847677961      0.000      0.000
REMARK  7 active torsions:
REMARK  status: ('A' for Active; 'I' for Inactive)
REMARK    1  A    between atoms: C2_2  and  C3_3 
REMARK    2  A    between atoms: C5_7  and  C6_8 
REMARK    3  A    between atoms: C6_8  and  C7_9 
REMARK    4  A    between atoms: C7_9  and  N2_10 
REMARK    5  A    between atoms: C8_13  and  N4_14 
REMARK    6  A    between atoms: C9_19  and  C10_20 
REMARK    7  A    between atoms: N7_23  and  N8_25 
ROOT
HETATM    1  C10 UNL     1     -20.990  17.853 -11.252  1.00  0.00     0.176 C 
HETATM    2  C11 UNL     1     -20.252  16.652 -11.040  1.00  0.00     0.123 C 
HETATM    3  N6  UNL     1     -19.670  15.642 -10.872  1.00  0.00    -0.190 NA
HETATM    4  N7  UNL     1     -22.147  17.718 -11.860  1.00  0.00    -0.274 N 
ATOM      5  H7  UNL     1     -22.734  18.532 -12.042  1.00  0.00     0.189 HD
ENDROOT
BRANCH   1   6
HETATM    6  C9  UNL     1     -20.567  19.193 -10.844  1.00  0.00     0.177 A 
HETATM    7  N2  UNL     1     -19.662  20.002 -11.388  1.00  0.00    -0.259 N 
HETATM    8  N3  UNL     1     -19.631  21.114 -10.653  1.00  0.00    -0.129 N 
HETATM    9  C8  UNL     1     -20.514  20.998  -9.655  1.00  0.00     0.692 A 
ATOM     10  H3  UNL     1     -19.031  21.922 -10.824  1.00  0.00     0.206 HD
HETATM   11  N5  UNL     1     -21.116  19.802  -9.751  1.00  0.00    -0.171 N 
ATOM     12  H5  UNL     1     -21.836  19.425  -9.135  1.00  0.00     0.186 HD
BRANCH   7  13
HETATM   13  C7  UNL     1     -18.838  19.801 -12.533  1.00  0.00     0.159 C 
BRANCH  13  14
HETATM   14  C6  UNL     1     -17.956  20.987 -12.866  1.00  0.00     0.098 C 
BRANCH  14  15
HETATM   15  C5  UNL     1     -16.807  20.562 -13.722  1.00  0.00     0.082 A 
HETATM   16  N1  UNL     1     -16.884  20.389 -15.052  1.00  0.00    -0.354 N 
HETATM   17  C4  UNL     1     -15.652  20.004 -15.472  1.00  0.00     0.114 A 
ATOM     18  H1  UNL     1     -17.710  20.523 -15.635  1.00  0.00     0.166 HD
HETATM   19  C3  UNL     1     -14.801  19.939 -14.383  1.00  0.00     0.025 A 
HETATM   20  N10 UNL     1     -15.553  20.290 -13.326  1.00  0.00    -0.348 N 
ATOM     21  H10 UNL     1     -15.220  20.342 -12.363  1.00  0.00     0.167 HD
BRANCH  19  22
HETATM   22  C2  UNL     1     -13.365  19.561 -14.378  1.00  0.00     0.054 C 
HETATM   23  C1  UNL     1     -13.254  18.106 -14.757  1.00  0.00     0.011 C 
ENDBRANCH  19  22
ENDBRANCH  14  15
ENDBRANCH  13  14
ENDBRANCH   7  13
BRANCH   9  24
HETATM   24  N4  UNL     1     -20.764  21.892  -8.728  1.00  0.00    -0.233 N 
ATOM     25  H42 UNL     1     -20.275  22.781  -8.628  1.00  0.00     0.174 HD
ATOM     26  H41 UNL     1     -21.469  21.822  -7.994  1.00  0.00     0.174 HD
ENDBRANCH   9  24
ENDBRANCH   1   6
BRANCH   4  27
HETATM   27  N8  UNL     1     -22.556  16.457 -12.249  1.00  0.00    -0.248 N 
HETATM   28  N9  UNL     1     -23.779  16.238 -12.549  1.00  0.00    -0.331 N 
ATOM     29  H92 UNL     1     -24.444  17.009 -12.496  1.00  0.00     0.178 HD
ATOM     30  H91 UNL     1     -24.081  15.307 -12.836  1.00  0.00     0.178 HD
ATOM     31  H8  UNL     1     -21.878  15.697 -12.296  1.00  0.00     0.207 HD
ENDBRANCH   4  27
TORSDOF 7
ENDMDL
MODEL 2
REMARK VINA RESULT: -8.842557013      1.270      1.706
REMARK  7 active torsions:
REMARK  status: ('A' for Active; 'I' for Inactive)
REMARK    1  A    between atoms: C2_2  and  C3_3 
REMARK    2  A    between atoms: C5_7  and  C6_8 
REMARK    3  A    between atoms: C6_8  and  C7_9 
REMARK    4  A    between atoms: C7_9  and  N2_10 
REMARK    5  A    between atoms: C8_13  and  N4_14 
REMARK    6  A    between atoms: C9_19  and  C10_20 
REMARK    7  A    between atoms: N7_23  and  N8_25 
ROOT
HETATM    1  C10 UNL     1     -21.332  17.854 -10.838  1.00  0.00     0.176 C 
HETATM    2  C11 UNL     1     -20.399  16.778 -10.870  1.00  0.00     0.123 C 
HETATM    3  N6  UNL     1     -19.652  15.869 -10.911  1.00  0.00    -0.190 NA
HETATM    4  N7  UNL     1     -22.411  17.704 -11.574  1.00  0.00    -0.274 N 
ATOM      5  H7  UNL     1     -23.127  18.430 -11.597  1.00  0.00     0.189 HD
ENDROOT
BRANCH   1   6
HETATM    6  C9  UNL     1     -21.185  19.084 -10.057  1.00  0.00     0.177 A 
HETATM    7  N2  UNL     1     -20.315  20.080 -10.197  1.00  0.00    -0.259 N 
HETATM    8  N3  UNL     1     -20.578  20.973  -9.241  1.00  0.00    -0.129 N 
HETATM    9  C8  UNL     1     -21.609  20.533  -8.510  1.00  0.00     0.692 A 
ATOM     10  H3  UNL     1     -20.076  21.849  -9.092  1.00  0.00     0.206 HD
HETATM   11  N5  UNL     1     -22.009  19.349  -9.001  1.00  0.00    -0.171 N 
ATOM     12  H5  UNL     1     -22.773  18.768  -8.656  1.00  0.00     0.186 HD
BRANCH   7  13
HETATM   13  C7  UNL     1     -19.271  20.246 -11.151  1.00  0.00     0.159 C 
BRANCH  13  14
HETATM   14  C6  UNL     1     -19.760  20.631 -12.532  1.00  0.00     0.098 C 
BRANCH  14  15
HETATM   15  C5  UNL     1     -18.775  20.208 -13.574  1.00  0.00     0.082 A 
HETATM   16  N1  UNL     1     -19.007  19.247 -14.483  1.00  0.00    -0.354 N 
HETATM   17  C4  UNL     1     -17.890  19.149 -15.248  1.00  0.00     0.114 A 
ATOM     18  H1  UNL     1     -19.860  18.697 -14.580  1.00  0.00     0.166 HD
HETATM   19  C3  UNL     1     -16.954  20.065 -14.804  1.00  0.00     0.025 A 
HETATM   20  N10 UNL     1     -17.540  20.696 -13.772  1.00  0.00    -0.348 N 
ATOM     21  H10 UNL     1     -17.109  21.438 -13.220  1.00  0.00     0.167 HD
BRANCH  19  22
HETATM   22  C2  UNL     1     -15.592  20.303 -15.347  1.00  0.00     0.054 C 
HETATM   23  C1  UNL     1     -14.689  20.704 -14.207  1.00  0.00     0.011 C 
ENDBRANCH  19  22
ENDBRANCH  14  15
ENDBRANCH  13  14
ENDBRANCH   7  13
BRANCH   9  24
HETATM   24  N4  UNL     1     -22.151  21.142  -7.483  1.00  0.00    -0.233 N 
ATOM     25  H42 UNL     1     -22.270  22.151  -7.399  1.00  0.00     0.174 HD
ATOM     26  H41 UNL     1     -22.521  20.698  -6.643  1.00  0.00     0.174 HD
ENDBRANCH   9  24
ENDBRANCH   1   6
BRANCH   4  27
HETATM   27  N8  UNL     1     -22.560  16.548 -12.314  1.00  0.00    -0.248 N 
HETATM   28  N9  UNL     1     -23.726  16.123 -12.622  1.00  0.00    -0.331 N 
ATOM     29  H92 UNL     1     -24.540  16.653 -12.311  1.00  0.00     0.178 HD
ATOM     30  H91 UNL     1     -23.836  15.269 -13.168  1.00  0.00     0.178 HD
ATOM     31  H8  UNL     1     -21.735  16.030 -12.616  1.00  0.00     0.207 HD
ENDBRANCH   4  27
TORSDOF 7
ENDMDL
MODEL 3
REMARK VINA RESULT: -8.806953000      1.617      3.893
REMARK  7 active torsions:
REMARK  status: ('A' for Active; 'I' for Inactive)
REMARK    1  A    between atoms: C2_2  and  C3_3 
REMARK    2  A    between atoms: C5_7  and  C6_8 
REMARK    3  A    between atoms: C6_8  and  C7_9 
REMARK    4  A    between atoms: C7_9  and  N2_10 
REMARK    5  A    between atoms: C8_13  and  N4_14 
REMARK    6  A    between atoms: C9_19  and  C10_20 
REMARK    7  A    between atoms: N7_23  and  N8_25 
ROOT
HETATM    1  C10 UNL     1     -21.693  19.749  -9.430  1.00  0.00     0.176 C 
HETATM    2  C11 UNL     1     -20.822  20.875  -9.345  1.00  0.00     0.123 C 
HETATM    3  N6  UNL     1     -20.124  21.817  -9.250  1.00  0.00    -0.190 NA
HETATM    4  N7  UNL     1     -22.538  19.597  -8.434  1.00  0.00    -0.274 N 
ATOM      5  H7  UNL     1     -23.195  18.818  -8.428  1.00  0.00     0.189 HD
ENDROOT
BRANCH   1   6
HETATM    6  C9  UNL     1     -21.719  18.777 -10.523  1.00  0.00     0.177 A 
HETATM    7  N2  UNL     1     -20.775  18.465 -11.407  1.00  0.00    -0.259 N 
HETATM    8  N3  UNL     1     -21.277  17.523 -12.207  1.00  0.00    -0.129 N 
HETATM    9  C8  UNL     1     -22.529  17.249 -11.822  1.00  0.00     0.692 A 
ATOM     10  H3  UNL     1     -20.786  17.083 -12.986  1.00  0.00     0.206 HD
HETATM   11  N5  UNL     1     -22.832  18.022 -10.767  1.00  0.00    -0.171 N 
ATOM     12  H5  UNL     1     -23.712  18.041 -10.252  1.00  0.00     0.186 HD
BRANCH   7  13
HETATM   13  C7  UNL     1     -19.457  18.985 -11.548  1.00  0.00     0.159 C 
BRANCH  13  14
HETATM   14  C6  UNL     1     -19.374  20.207 -12.439  1.00  0.00     0.098 C 
BRANCH  14  15
HETATM   15  C5  UNL     1     -18.478  19.943 -13.606  1.00  0.00     0.082 A 
HETATM   16  N1  UNL     1     -18.782  19.112 -14.616  1.00  0.00    -0.354 N 
HETATM   17  C4  UNL     1     -17.732  19.135 -15.477  1.00  0.00     0.114 A 
ATOM     18  H1  UNL     1     -19.639  18.568 -14.718  1.00  0.00     0.166 HD
HETATM   19  C3  UNL     1     -16.764  19.995 -14.990  1.00  0.00     0.025 A 
HETATM   20  N10 UNL     1     -17.264  20.471 -13.836  1.00  0.00    -0.348 N 
ATOM     21  H10 UNL     1     -16.791  21.137 -13.225  1.00  0.00     0.167 HD
BRANCH  19  22
HETATM   22  C2  UNL     1     -15.453  20.324 -15.604  1.00  0.00     0.054 C 
HETATM   23  C1  UNL     1     -14.373  19.609 -14.832  1.00  0.00     0.011 C 
ENDBRANCH  19  22
ENDBRANCH  14  15
ENDBRANCH  13  14
ENDBRANCH   7  13
BRANCH   9  24
HETATM   24  N4  UNL     1     -23.340  16.377 -12.370  1.00  0.00    -0.233 N 
ATOM     25  H42 UNL     1     -24.251  16.599 -12.771  1.00  0.00     0.174 HD
ATOM     26  H41 UNL     1     -23.174  15.375 -12.469  1.00  0.00     0.174 HD
ENDBRANCH   9  24
ENDBRANCH   1   6
BRANCH   4  27
HETATM   27  N8  UNL     1     -22.521  20.509  -7.398  1.00  0.00    -0.248 N 
HETATM   28  N9  UNL     1     -23.616  20.936  -6.894  1.00  0.00    -0.331 N 
ATOM     29  H92 UNL     1     -24.498  20.592  -7.272  1.00  0.00     0.178 HD
ATOM     30  H91 UNL     1     -23.603  21.610  -6.129  1.00  0.00     0.178 HD
ATOM     31  H8  UNL     1     -21.630  20.844  -7.032  1.00  0.00     0.207 HD
ENDBRANCH   4  27
TORSDOF 7
ENDMDL
MODEL 4
REMARK VINA RESULT: -8.336776943      2.407      6.195
REMARK  7 active torsions:
REMARK  status: ('A' for Active; 'I' for Inactive)
REMARK    1  A    between atoms: C2_2  and  C3_3 
REMARK    2  A    between atoms: C5_7  and  C6_8 
REMARK    3  A    between atoms: C6_8  and  C7_9 
REMARK    4  A    between atoms: C7_9  and  N2_10 
REMARK    5  A    between atoms: C8_13  and  N4_14 
REMARK    6  A    between atoms: C9_19  and  C10_20 
REMARK    7  A    between atoms: N7_23  and  N8_25 
ROOT
HETATM    1  C10 UNL     1     -20.480  17.990 -11.824  1.00  0.00     0.176 C 
HETATM    2  C11 UNL     1     -20.203  17.329 -10.591  1.00  0.00     0.123 C 
HETATM    3  N6  UNL     1     -20.005  16.767  -9.577  1.00  0.00    -0.190 NA
HETATM    4  N7  UNL     1     -21.405  17.439 -12.578  1.00  0.00    -0.274 N 
ATOM      5  H7  UNL     1     -21.660  17.858 -13.472  1.00  0.00     0.189 HD
ENDROOT
BRANCH   1   6
HETATM    6  C9  UNL     1     -19.828  19.212 -12.297  1.00  0.00     0.177 A 
HETATM    7  N2  UNL     1     -20.017  20.475 -11.924  1.00  0.00    -0.259 N 
HETATM    8  N3  UNL     1     -19.190  21.230 -12.648  1.00  0.00    -0.129 N 
HETATM    9  C8  UNL     1     -18.489  20.439 -13.469  1.00  0.00     0.692 A 
ATOM     10  H3  UNL     1     -19.105  22.245 -12.587  1.00  0.00     0.206 HD
HETATM   11  N5  UNL     1     -18.869  19.167 -13.269  1.00  0.00    -0.171 N 
ATOM     12  H5  UNL     1     -18.515  18.338 -13.745  1.00  0.00     0.186 HD
BRANCH   7  13
HETATM   13  C7  UNL     1     -20.908  21.010 -10.950  1.00  0.00     0.159 C 
BRANCH  13  14
HETATM   14  C6  UNL     1     -20.318  21.081  -9.556  1.00  0.00     0.098 C 
BRANCH  14  15
HETATM   15  C5  UNL     1     -21.041  20.151  -8.634  1.00  0.00     0.082 A 
HETATM   16  N1  UNL     1     -22.353  19.876  -8.719  1.00  0.00    -0.354 N 
HETATM   17  C4  UNL     1     -22.638  19.001  -7.721  1.00  0.00     0.114 A 
ATOM     18  H1  UNL     1     -23.009  20.253  -9.403  1.00  0.00     0.166 HD
HETATM   19  C3  UNL     1     -21.483  18.731  -7.010  1.00  0.00     0.025 A 
HETATM   20  N10 UNL     1     -20.523  19.460  -7.605  1.00  0.00    -0.348 N 
ATOM     21  H10 UNL     1     -19.545  19.485  -7.318  1.00  0.00     0.167 HD
BRANCH  19  22
HETATM   22  C2  UNL     1     -21.330  17.831  -5.838  1.00  0.00     0.054 C 
HETATM   23  C1  UNL     1     -21.165  18.682  -4.604  1.00  0.00     0.011 C 
ENDBRANCH  19  22
ENDBRANCH  14  15
ENDBRANCH  13  14
ENDBRANCH   7  13
BRANCH   9  24
HETATM   24  N4  UNL     1     -17.578  20.823 -14.331  1.00  0.00    -0.233 N 
ATOM     25  H42 UNL     1     -16.856  20.219 -14.723  1.00  0.00     0.174 HD
ATOM     26  H41 UNL     1     -17.468  21.759 -14.719  1.00  0.00     0.174 HD
ENDBRANCH   9  24
ENDBRANCH   1   6
BRANCH   4  27
HETATM   27  N8  UNL     1     -22.025  16.286 -12.141  1.00  0.00    -0.248 N 
HETATM   28  N9  UNL     1     -23.265  16.087 -12.382  1.00  0.00    -0.331 N 
ATOM     29  H92 UNL     1     -23.784  16.795 -12.901  1.00  0.00     0.178 HD
ATOM     30  H91 UNL     1     -23.723  15.236 -12.059  1.00  0.00     0.178 HD
ATOM     31  H8  UNL     1     -21.491  15.588 -11.622  1.00  0.00     0.207 HD
ENDBRANCH   4  27
TORSDOF 7
ENDMDL
MODEL 5
REMARK VINA RESULT: -8.279326095      1.759      3.789
REMARK  7 active torsions:
REMARK  status: ('A' for Active; 'I' for Inactive)
REMARK    1  A    between atoms: C2_2  and  C3_3 
REMARK    2  A    between atoms: C5_7  and  C6_8 
REMARK    3  A    between atoms: C6_8  and  C7_9 
REMARK    4  A    between atoms: C7_9  and  N2_10 
REMARK    5  A    between atoms: C8_13  and  N4_14 
REMARK    6  A    between atoms: C9_19  and  C10_20 
REMARK    7  A    between atoms: N7_23  and  N8_25 
ROOT
HETATM    1  C10 UNL     1     -21.378  18.951  -9.156  1.00  0.00     0.176 C 
HETATM    2  C11 UNL     1     -20.294  18.751  -8.252  1.00  0.00     0.123 C 
HETATM    3  N6  UNL     1     -19.406  18.617  -7.491  1.00  0.00    -0.190 NA
HETATM    4  N7  UNL     1     -22.233  19.895  -8.831  1.00  0.00    -0.274 N 
ATOM      5  H7  UNL     1     -23.032  20.099  -9.432  1.00  0.00     0.189 HD
ENDROOT
BRANCH   1   6
HETATM    6  C9  UNL     1     -21.599  18.204 -10.395  1.00  0.00     0.177 A 
HETATM    7  N2  UNL     1     -20.758  17.943 -11.392  1.00  0.00    -0.259 N 
HETATM    8  N3  UNL     1     -21.428  17.231 -12.300  1.00  0.00    -0.129 N 
HETATM    9  C8  UNL     1     -22.682  17.050 -11.869  1.00  0.00     0.692 A 
ATOM     10  H3  UNL     1     -21.047  16.883 -13.180  1.00  0.00     0.206 HD
HETATM   11  N5  UNL     1     -22.816  17.650 -10.675  1.00  0.00    -0.171 N 
ATOM     12  H5  UNL     1     -23.655  17.685 -10.096  1.00  0.00     0.186 HD
BRANCH   7  13
HETATM   13  C7  UNL     1     -19.391  18.312 -11.546  1.00  0.00     0.159 C 
BRANCH  13  14
HETATM   14  C6  UNL     1     -19.194  19.701 -12.118  1.00  0.00     0.098 C 
BRANCH  14  15
HETATM   15  C5  UNL     1     -18.425  19.636 -13.399  1.00  0.00     0.082 A 
HETATM   16  N1  UNL     1     -18.863  19.017 -14.508  1.00  0.00    -0.354 N 
HETATM   17  C4  UNL     1     -17.899  19.171 -15.452  1.00  0.00     0.114 A 
ATOM     18  H1  UNL     1     -19.749  18.526 -14.620  1.00  0.00     0.166 HD
HETATM   19  C3  UNL     1     -16.850  19.898 -14.916  1.00  0.00     0.025 A 
HETATM   20  N10 UNL     1     -17.216  20.163 -13.650  1.00  0.00    -0.348 N 
ATOM     21  H10 UNL     1     -16.657  20.689 -12.978  1.00  0.00     0.167 HD
BRANCH  19  22
HETATM   22  C2  UNL     1     -15.589  20.299 -15.590  1.00  0.00     0.054 C 
HETATM   23  C1  UNL     1     -14.433  19.692 -14.836  1.00  0.00     0.011 C 
ENDBRANCH  19  22
ENDBRANCH  14  15
ENDBRANCH  13  14
ENDBRANCH   7  13
BRANCH   9  24
HETATM   24  N4  UNL     1     -23.634  16.399 -12.493  1.00  0.00    -0.233 N 
ATOM     25  H42 UNL     1     -24.151  16.752 -13.297  1.00  0.00     0.174 HD
ATOM     26  H41 UNL     1     -23.981  15.468 -12.263  1.00  0.00     0.174 HD
ENDBRANCH   9  24
ENDBRANCH   1   6
BRANCH   4  27
HETATM   27  N8  UNL     1     -22.033  20.605  -7.664  1.00  0.00    -0.248 N 
HETATM   28  N9  UNL     1     -23.011  21.199  -7.094  1.00  0.00    -0.331 N 
ATOM     29  H92 UNL     1     -23.937  21.139  -7.517  1.00  0.00     0.178 HD
ATOM     30  H91 UNL     1     -22.864  21.724  -6.232  1.00  0.00     0.178 HD
ATOM     31  H8  UNL     1     -21.101  20.656  -7.255  1.00  0.00     0.207 HD
ENDBRANCH   4  27
TORSDOF 7
ENDMDL
