MODEL 1
REMARK VINA RESULT: -8.874396271      0.000      0.000
REMARK  15 active torsions:
REMARK  status: ('A' for Active; 'I' for Inactive)
REMARK    1  A    between atoms: C2_2  and  C3_3 
REMARK    2  A    between atoms: C7_7  and  C8_8 
REMARK    3  A    between atoms: C8_8  and  S1_9 
REMARK    4  A    between atoms: S1_9  and  C9_11 
REMARK    5  A    between atoms: S1_9  and  N1_13 
REMARK       I    between atoms: N2_16  and  C13_17 
REMARK    6  A    between atoms: C13_17  and  C14_19 
REMARK    7  A    between atoms: C14_19  and  N3_20 
REMARK    8  A    between atoms: C14_19  and  C15_24 
REMARK    9  A    between atoms: C15_24  and  C16_25 
REMARK   10  A    between atoms: C16_25  and  C17_26 
REMARK   11  A    between atoms: C17_26  and  C18_27 
REMARK   12  A    between atoms: C18_27  and  N4_28 
REMARK   13  A    between atoms: C20_33  and  C21_34 
REMARK   14  A    between atoms: C21_34  and  C22_35 
REMARK   15  A    between atoms: C28_41  and  C29_42 
ROOT
HETATM    1  N1  UNL     1      17.335  22.396  16.765  1.00  0.00    -0.334 N 
HETATM    2  C11 UNL     1      17.931  21.262  17.358  1.00  0.00     0.152 C 
HETATM    3  C12 UNL     1      18.580  21.788  18.681  1.00  0.00     0.146 C 
HETATM    4  N2  UNL     1      19.200  23.033  18.293  1.00  0.00    -0.347 N 
HETATM    5  C13 UNL     1      19.401  24.182  19.078  1.00  0.00     0.250 C 
HETATM    6  O2  UNL     1      19.955  25.227  18.590  1.00  0.00    -0.271 OA
HETATM    7  C19 UNL     1      19.639  23.078  16.900  1.00  0.00     0.151 C 
HETATM    8  C20 UNL     1      18.325  23.134  16.095  1.00  0.00     0.111 C 
ENDROOT
BRANCH   1   9
HETATM    9  S1  UNL     1      15.525  22.627  16.588  1.00  0.00     0.027 S 
HETATM   10  O1  UNL     1      16.027  24.341  17.741  1.00  0.00    -0.249 OA
BRANCH   9  11
HETATM   11  C8  UNL     1      14.275  22.274  18.056  1.00  0.00     0.157 C 
BRANCH  11  12
HETATM   12  C7  UNL     1      13.886  20.879  18.288  1.00  0.00    -0.026 A 
HETATM   13  C5  UNL     1      14.248  20.417  19.592  1.00  0.00    -0.053 A 
HETATM   14  C4  UNL     1      13.900  19.172  20.016  1.00  0.00     0.014 A 
HETATM   15  C6  UNL     1      15.022  21.287  20.519  1.00  0.00     0.049 C 
HETATM   16  C3  UNL     1      13.187  18.324  19.199  1.00  0.00    -0.057 A 
HETATM   17  C31 UNL     1      12.839  18.768  17.962  1.00  0.00     0.023 A 
HETATM   18  C28 UNL     1      13.172  20.062  17.464  1.00  0.00     0.019 A 
BRANCH  16  19
HETATM   19  C2  UNL     1      12.817  16.971  19.648  1.00  0.00     0.034 C 
HETATM   20  C1  UNL     1      12.314  17.137  21.089  1.00  0.00     0.010 C 
ENDBRANCH  16  19
BRANCH  18  21
HETATM   21  C29 UNL     1      12.569  20.425  16.199  1.00  0.00     0.148 A 
HETATM   22  N5  UNL     1      13.076  20.093  14.993  1.00  0.00    -0.268 N 
HETATM   23  N6  UNL     1      12.196  20.464  14.077  1.00  0.00    -0.225 N 
ATOM     24  H5  UNL     1      13.973  19.641  14.819  1.00  0.00     0.190 HD
HETATM   25  N7  UNL     1      11.144  21.019  14.644  1.00  0.00    -0.223 N 
ATOM     26  H6  UNL     1      12.315  20.337  13.072  1.00  0.00     0.210 HD
HETATM   27  C30 UNL     1       9.955  21.556  13.993  1.00  0.00     0.202 C 
HETATM   28  N8  UNL     1      11.400  20.982  15.943  1.00  0.00    -0.266 N 
ATOM     29  H8  UNL     1      10.770  21.341  16.660  1.00  0.00     0.190 HD
ENDBRANCH  18  21
ENDBRANCH  11  12
ENDBRANCH   9  11
BRANCH   9  30
HETATM   30  C9  UNL     1      14.884  24.087  15.363  1.00  0.00     0.113 C 
HETATM   31  C10 UNL     1      13.531  23.714  14.717  1.00  0.00     0.019 C 
ENDBRANCH   9  30
ENDBRANCH   1   9
BRANCH   8  32
HETATM   32  C21 UNL     1      18.173  24.474  15.546  1.00  0.00     0.032 C 
BRANCH  32  33
HETATM   33  C22 UNL     1      19.104  24.984  14.545  1.00  0.00    -0.013 C 
HETATM   34  C23 UNL     1      18.822  26.468  14.217  1.00  0.00     0.005 C 
HETATM   35  C24 UNL     1      19.544  27.313  15.200  1.00  0.00     0.000 C 
HETATM   36  C25 UNL     1      21.044  27.202  14.998  1.00  0.00     0.000 C 
HETATM   37  C26 UNL     1      21.386  25.849  14.376  1.00  0.00     0.000 C 
HETATM   38  C27 UNL     1      20.520  24.844  15.093  1.00  0.00     0.005 C 
ENDBRANCH  32  33
ENDBRANCH   8  32
BRANCH   5  39
HETATM   39  C14 UNL     1      19.007  24.307  20.503  1.00  0.00     0.275 C 
BRANCH  39  40
HETATM   40  N3  UNL     1      17.647  24.819  20.632  1.00  0.00    -0.067 N 
ATOM     41  H33 UNL     1      17.272  25.117  19.731  1.00  0.00     0.275 HD
ATOM     42  H32 UNL     1      16.983  24.073  20.838  1.00  0.00     0.275 HD
ATOM     43  H31 UNL     1      17.599  25.566  21.324  1.00  0.00     0.275 HD
ENDBRANCH  39  40
BRANCH  39  44
HETATM   44  C15 UNL     1      19.939  25.363  21.120  1.00  0.00     0.042 C 
BRANCH  44  45
HETATM   45  C16 UNL     1      21.332  24.802  21.260  1.00  0.00     0.004 C 
BRANCH  45  46
HETATM   46  C17 UNL     1      22.316  25.921  21.329  1.00  0.00     0.027 C 
BRANCH  46  47
HETATM   47  C18 UNL     1      21.770  27.216  20.823  1.00  0.00     0.229 C 
BRANCH  47  48
HETATM   48  N4  UNL     1      22.214  27.418  19.435  1.00  0.00    -0.079 N 
ATOM     49  H43 UNL     1      22.961  28.109  19.364  1.00  0.00     0.274 HD
ATOM     50  H42 UNL     1      22.728  26.614  19.073  1.00  0.00     0.274 HD
ATOM     51  H41 UNL     1      21.409  27.656  18.857  1.00  0.00     0.274 HD
ENDBRANCH  47  48
ENDBRANCH  46  47
ENDBRANCH  45  46
ENDBRANCH  44  45
ENDBRANCH  39  44
ENDBRANCH   5  39
TORSDOF 15
ENDMDL
MODEL 2
REMARK VINA RESULT: -8.556251009      1.977      9.890
REMARK  15 active torsions:
REMARK  status: ('A' for Active; 'I' for Inactive)
REMARK    1  A    between atoms: C2_2  and  C3_3 
REMARK    2  A    between atoms: C7_7  and  C8_8 
REMARK    3  A    between atoms: C8_8  and  S1_9 
REMARK    4  A    between atoms: S1_9  and  C9_11 
REMARK    5  A    between atoms: S1_9  and  N1_13 
REMARK       I    between atoms: N2_16  and  C13_17 
REMARK    6  A    between atoms: C13_17  and  C14_19 
REMARK    7  A    between atoms: C14_19  and  N3_20 
REMARK    8  A    between atoms: C14_19  and  C15_24 
REMARK    9  A    between atoms: C15_24  and  C16_25 
REMARK   10  A    between atoms: C16_25  and  C17_26 
REMARK   11  A    between atoms: C17_26  and  C18_27 
REMARK   12  A    between atoms: C18_27  and  N4_28 
REMARK   13  A    between atoms: C20_33  and  C21_34 
REMARK   14  A    between atoms: C21_34  and  C22_35 
REMARK   15  A    between atoms: C28_41  and  C29_42 
ROOT
HETATM    1  N1  UNL     1      17.272  22.110  17.333  1.00  0.00    -0.334 N 
HETATM    2  C11 UNL     1      17.742  21.884  16.021  1.00  0.00     0.152 C 
HETATM    3  C12 UNL     1      16.488  22.066  15.103  1.00  0.00     0.146 C 
HETATM    4  N2  UNL     1      15.435  21.381  15.813  1.00  0.00    -0.347 N 
HETATM    5  C13 UNL     1      14.060  21.674  15.817  1.00  0.00     0.250 C 
HETATM    6  O2  UNL     1      13.238  20.984  16.514  1.00  0.00    -0.271 OA
HETATM    7  C19 UNL     1      15.892  20.264  16.637  1.00  0.00     0.151 C 
HETATM    8  C20 UNL     1      16.645  20.943  17.800  1.00  0.00     0.111 C 
ENDROOT
BRANCH   1   9
HETATM    9  S1  UNL     1      17.755  23.550  18.361  1.00  0.00     0.027 S 
HETATM   10  O1  UNL     1      15.659  23.869  18.201  1.00  0.00    -0.249 OA
BRANCH   9  11
HETATM   11  C8  UNL     1      17.868  25.365  17.633  1.00  0.00     0.157 C 
BRANCH  11  12
HETATM   12  C7  UNL     1      19.081  25.717  16.887  1.00  0.00    -0.026 A 
HETATM   13  C5  UNL     1      18.819  25.994  15.509  1.00  0.00    -0.053 A 
HETATM   14  C4  UNL     1      19.811  26.413  14.678  1.00  0.00     0.014 A 
HETATM   15  C6  UNL     1      17.452  25.825  14.946  1.00  0.00     0.049 C 
HETATM   16  C3  UNL     1      21.095  26.584  15.143  1.00  0.00    -0.057 A 
HETATM   17  C31 UNL     1      21.340  26.326  16.455  1.00  0.00     0.023 A 
HETATM   18  C28 UNL     1      20.342  25.889  17.375  1.00  0.00     0.019 A 
BRANCH  16  19
HETATM   19  C2  UNL     1      22.176  27.027  14.245  1.00  0.00     0.034 C 
HETATM   20  C1  UNL     1      22.417  28.504  14.587  1.00  0.00     0.010 C 
ENDBRANCH  16  19
BRANCH  18  21
HETATM   21  C29 UNL     1      20.746  25.835  18.765  1.00  0.00     0.148 A 
HETATM   22  N5  UNL     1      21.317  24.760  19.348  1.00  0.00    -0.268 N 
HETATM   23  N6  UNL     1      21.676  25.118  20.571  1.00  0.00    -0.225 N 
ATOM     24  H5  UNL     1      21.448  23.842  18.925  1.00  0.00     0.190 HD
HETATM   25  N7  UNL     1      21.360  26.376  20.796  1.00  0.00    -0.223 N 
ATOM     26  H6  UNL     1      22.134  24.504  21.245  1.00  0.00     0.210 HD
HETATM   27  C30 UNL     1      21.585  27.153  22.010  1.00  0.00     0.202 C 
HETATM   28  N8  UNL     1      20.792  26.789  19.674  1.00  0.00    -0.266 N 
ATOM     29  H8  UNL     1      20.432  27.733  19.529  1.00  0.00     0.190 HD
ENDBRANCH  18  21
ENDBRANCH  11  12
ENDBRANCH   9  11
BRANCH   9  30
HETATM   30  C9  UNL     1      17.237  23.528  20.304  1.00  0.00     0.113 C 
HETATM   31  C10 UNL     1      18.284  24.267  21.165  1.00  0.00     0.019 C 
ENDBRANCH   9  30
ENDBRANCH   1   9
BRANCH   8  32
HETATM   32  C21 UNL     1      15.840  20.824  19.007  1.00  0.00     0.032 C 
BRANCH  32  33
HETATM   33  C22 UNL     1      15.481  19.516  19.546  1.00  0.00    -0.013 C 
HETATM   34  C23 UNL     1      14.292  19.617  20.528  1.00  0.00     0.005 C 
HETATM   35  C24 UNL     1      13.032  19.550  19.748  1.00  0.00     0.000 C 
HETATM   36  C25 UNL     1      12.853  18.171  19.142  1.00  0.00     0.000 C 
HETATM   37  C26 UNL     1      14.217  17.517  18.925  1.00  0.00     0.000 C 
HETATM   38  C27 UNL     1      15.105  18.607  18.381  1.00  0.00     0.005 C 
ENDBRANCH  32  33
ENDBRANCH   8  32
BRANCH   5  39
HETATM   39  C14 UNL     1      13.432  22.776  15.045  1.00  0.00     0.275 C 
BRANCH  39  40
HETATM   40  N3  UNL     1      13.264  23.968  15.870  1.00  0.00    -0.067 N 
ATOM     41  H33 UNL     1      12.385  24.445  15.665  1.00  0.00     0.275 HD
ATOM     42  H32 UNL     1      13.086  23.728  16.845  1.00  0.00     0.275 HD
ATOM     43  H31 UNL     1      14.062  24.595  15.777  1.00  0.00     0.275 HD
ENDBRANCH  39  40
BRANCH  39  44
HETATM   44  C15 UNL     1      12.022  22.293  14.670  1.00  0.00     0.042 C 
BRANCH  44  45
HETATM   45  C16 UNL     1      12.113  21.096  13.758  1.00  0.00     0.004 C 
BRANCH  45  46
HETATM   46  C17 UNL     1      10.779  20.432  13.671  1.00  0.00     0.027 C 
BRANCH  46  47
HETATM   47  C18 UNL     1      10.513  19.496  14.805  1.00  0.00     0.229 C 
BRANCH  47  48
HETATM   48  N4  UNL     1      11.723  18.703  15.069  1.00  0.00    -0.079 N 
ATOM     49  H43 UNL     1      11.549  17.931  15.713  1.00  0.00     0.274 HD
ATOM     50  H42 UNL     1      12.010  18.152  14.260  1.00  0.00     0.274 HD
ATOM     51  H41 UNL     1      12.463  19.323  15.399  1.00  0.00     0.274 HD
ENDBRANCH  47  48
ENDBRANCH  46  47
ENDBRANCH  45  46
ENDBRANCH  44  45
ENDBRANCH  39  44
ENDBRANCH   5  39
TORSDOF 15
ENDMDL
MODEL 3
REMARK VINA RESULT: -8.443274330      1.607      2.083
REMARK  15 active torsions:
REMARK  status: ('A' for Active; 'I' for Inactive)
REMARK    1  A    between atoms: C2_2  and  C3_3 
REMARK    2  A    between atoms: C7_7  and  C8_8 
REMARK    3  A    between atoms: C8_8  and  S1_9 
REMARK    4  A    between atoms: S1_9  and  C9_11 
REMARK    5  A    between atoms: S1_9  and  N1_13 
REMARK       I    between atoms: N2_16  and  C13_17 
REMARK    6  A    between atoms: C13_17  and  C14_19 
REMARK    7  A    between atoms: C14_19  and  N3_20 
REMARK    8  A    between atoms: C14_19  and  C15_24 
REMARK    9  A    between atoms: C15_24  and  C16_25 
REMARK   10  A    between atoms: C16_25  and  C17_26 
REMARK   11  A    between atoms: C17_26  and  C18_27 
REMARK   12  A    between atoms: C18_27  and  N4_28 
REMARK   13  A    between atoms: C20_33  and  C21_34 
REMARK   14  A    between atoms: C21_34  and  C22_35 
REMARK   15  A    between atoms: C28_41  and  C29_42 
ROOT
HETATM    1  N1  UNL     1      16.167  21.453  16.915  1.00  0.00    -0.334 N 
HETATM    2  C11 UNL     1      16.788  20.352  17.544  1.00  0.00     0.152 C 
HETATM    3  C12 UNL     1      17.494  20.950  18.806  1.00  0.00     0.146 C 
HETATM    4  N2  UNL     1      18.097  22.169  18.323  1.00  0.00    -0.347 N 
HETATM    5  C13 UNL     1      18.332  23.359  19.033  1.00  0.00     0.250 C 
HETATM    6  O2  UNL     1      18.865  24.374  18.464  1.00  0.00    -0.271 OA
HETATM    7  C19 UNL     1      18.476  22.134  16.912  1.00  0.00     0.151 C 
HETATM    8  C20 UNL     1      17.127  22.149  16.163  1.00  0.00     0.111 C 
ENDROOT
BRANCH   1   9
HETATM    9  S1  UNL     1      14.351  21.679  16.804  1.00  0.00     0.027 S 
HETATM   10  O1  UNL     1      14.827  23.082  18.328  1.00  0.00    -0.249 OA
BRANCH   9  11
HETATM   11  C8  UNL     1      13.121  20.960  18.150  1.00  0.00     0.157 C 
BRANCH  11  12
HETATM   12  C7  UNL     1      12.573  19.620  17.913  1.00  0.00    -0.026 A 
HETATM   13  C5  UNL     1      13.171  18.626  18.749  1.00  0.00    -0.053 A 
HETATM   14  C4  UNL     1      12.736  17.337  18.726  1.00  0.00     0.014 A 
HETATM   15  C6  UNL     1      14.292  18.976  19.664  1.00  0.00     0.049 C 
HETATM   16  C3  UNL     1      11.704  16.957  17.897  1.00  0.00    -0.057 A 
HETATM   17  C31 UNL     1      11.134  17.905  17.108  1.00  0.00     0.023 A 
HETATM   18  C28 UNL     1      11.544  19.272  17.091  1.00  0.00     0.019 A 
BRANCH  16  19
HETATM   19  C2  UNL     1      11.236  15.561  17.860  1.00  0.00     0.034 C 
HETATM   20  C1  UNL     1       9.707  15.642  17.752  1.00  0.00     0.010 C 
ENDBRANCH  16  19
BRANCH  18  21
HETATM   21  C29 UNL     1      10.709  20.171  16.323  1.00  0.00     0.148 A 
HETATM   22  N5  UNL     1       9.742  20.949  16.853  1.00  0.00    -0.268 N 
HETATM   23  N6  UNL     1       9.290  21.733  15.887  1.00  0.00    -0.225 N 
ATOM     24  H5  UNL     1       9.419  20.935  17.819  1.00  0.00     0.190 HD
HETATM   25  N7  UNL     1       9.926  21.491  14.759  1.00  0.00    -0.223 N 
ATOM     26  H6  UNL     1       8.552  22.427  16.000  1.00  0.00     0.210 HD
HETATM   27  C30 UNL     1       9.733  22.136  13.466  1.00  0.00     0.202 C 
HETATM   28  N8  UNL     1      10.788  20.530  15.056  1.00  0.00    -0.266 N 
ATOM     29  H8  UNL     1      11.436  20.117  14.385  1.00  0.00     0.190 HD
ENDBRANCH  18  21
ENDBRANCH  11  12
ENDBRANCH   9  11
BRANCH   9  30
HETATM   30  C9  UNL     1      13.669  23.373  15.962  1.00  0.00     0.113 C 
HETATM   31  C10 UNL     1      13.376  23.166  14.459  1.00  0.00     0.019 C 
ENDBRANCH   9  30
ENDBRANCH   1   9
BRANCH   8  32
HETATM   32  C21 UNL     1      16.953  23.457  15.546  1.00  0.00     0.032 C 
BRANCH  32  33
HETATM   33  C22 UNL     1      18.020  24.063  14.757  1.00  0.00    -0.013 C 
HETATM   34  C23 UNL     1      17.842  25.595  14.650  1.00  0.00     0.005 C 
HETATM   35  C24 UNL     1      18.473  26.225  15.835  1.00  0.00     0.000 C 
HETATM   36  C25 UNL     1      19.980  26.057  15.790  1.00  0.00     0.000 C 
HETATM   37  C26 UNL     1      20.339  24.802  14.995  1.00  0.00     0.000 C 
HETATM   38  C27 UNL     1      19.351  23.751  15.432  1.00  0.00     0.005 C 
ENDBRANCH  32  33
ENDBRANCH   8  32
BRANCH   5  39
HETATM   39  C14 UNL     1      18.001  23.565  20.465  1.00  0.00     0.275 C 
BRANCH  39  40
HETATM   40  N3  UNL     1      17.326  24.842  20.672  1.00  0.00    -0.067 N 
ATOM     41  H33 UNL     1      16.312  24.734  20.683  1.00  0.00     0.275 HD
ATOM     42  H32 UNL     1      17.457  25.186  21.623  1.00  0.00     0.275 HD
ATOM     43  H31 UNL     1      17.622  25.531  19.980  1.00  0.00     0.275 HD
ENDBRANCH  39  40
BRANCH  39  44
HETATM   44  C15 UNL     1      19.340  23.644  21.214  1.00  0.00     0.042 C 
BRANCH  44  45
HETATM   45  C16 UNL     1      20.239  22.512  20.784  1.00  0.00     0.004 C 
BRANCH  45  46
HETATM   46  C17 UNL     1      21.640  23.007  20.657  1.00  0.00     0.027 C 
BRANCH  46  47
HETATM   47  C18 UNL     1      21.722  24.452  20.286  1.00  0.00     0.229 C 
BRANCH  47  48
HETATM   48  N4  UNL     1      21.863  24.568  18.826  1.00  0.00    -0.079 N 
ATOM     49  H43 UNL     1      22.836  24.526  18.526  1.00  0.00     0.274 HD
ATOM     50  H42 UNL     1      21.526  23.739  18.337  1.00  0.00     0.274 HD
ATOM     51  H41 UNL     1      21.397  25.420  18.512  1.00  0.00     0.274 HD
ENDBRANCH  47  48
ENDBRANCH  46  47
ENDBRANCH  45  46
ENDBRANCH  44  45
ENDBRANCH  39  44
ENDBRANCH   5  39
TORSDOF 15
ENDMDL
MODEL 4
REMARK VINA RESULT: -8.362287853      1.826      9.935
REMARK  15 active torsions:
REMARK  status: ('A' for Active; 'I' for Inactive)
REMARK    1  A    between atoms: C2_2  and  C3_3 
REMARK    2  A    between atoms: C7_7  and  C8_8 
REMARK    3  A    between atoms: C8_8  and  S1_9 
REMARK    4  A    between atoms: S1_9  and  C9_11 
REMARK    5  A    between atoms: S1_9  and  N1_13 
REMARK       I    between atoms: N2_16  and  C13_17 
REMARK    6  A    between atoms: C13_17  and  C14_19 
REMARK    7  A    between atoms: C14_19  and  N3_20 
REMARK    8  A    between atoms: C14_19  and  C15_24 
REMARK    9  A    between atoms: C15_24  and  C16_25 
REMARK   10  A    between atoms: C16_25  and  C17_26 
REMARK   11  A    between atoms: C17_26  and  C18_27 
REMARK   12  A    between atoms: C18_27  and  N4_28 
REMARK   13  A    between atoms: C20_33  and  C21_34 
REMARK   14  A    between atoms: C21_34  and  C22_35 
REMARK   15  A    between atoms: C28_41  and  C29_42 
ROOT
HETATM    1  N1  UNL     1      17.991  22.780  17.148  1.00  0.00    -0.334 N 
HETATM    2  C11 UNL     1      18.406  22.513  15.825  1.00  0.00     0.152 C 
HETATM    3  C12 UNL     1      17.108  22.634  14.960  1.00  0.00     0.146 C 
HETATM    4  N2  UNL     1      16.103  21.955  15.743  1.00  0.00    -0.347 N 
HETATM    5  C13 UNL     1      14.724  22.221  15.799  1.00  0.00     0.250 C 
HETATM    6  O2  UNL     1      13.950  21.541  16.559  1.00  0.00    -0.271 OA
HETATM    7  C19 UNL     1      16.622  20.881  16.587  1.00  0.00     0.151 C 
HETATM    8  C20 UNL     1      17.412  21.620  17.687  1.00  0.00     0.111 C 
ENDROOT
BRANCH   1   9
HETATM    9  S1  UNL     1      18.488  24.268  18.097  1.00  0.00     0.027 S 
HETATM   10  O1  UNL     1      16.374  24.495  18.093  1.00  0.00    -0.249 OA
BRANCH   9  11
HETATM   11  C8  UNL     1      18.465  26.065  17.316  1.00  0.00     0.157 C 
BRANCH  11  12
HETATM   12  C7  UNL     1      19.704  26.544  16.693  1.00  0.00    -0.026 A 
HETATM   13  C5  UNL     1      19.601  26.646  15.270  1.00  0.00    -0.053 A 
HETATM   14  C4  UNL     1      20.625  27.147  14.528  1.00  0.00     0.014 A 
HETATM   15  C6  UNL     1      18.369  26.201  14.564  1.00  0.00     0.049 C 
HETATM   16  C3  UNL     1      21.789  27.571  15.129  1.00  0.00    -0.057 A 
HETATM   17  C31 UNL     1      21.882  27.478  16.482  1.00  0.00     0.023 A 
HETATM   18  C28 UNL     1      20.841  26.967  17.313  1.00  0.00     0.019 A 
BRANCH  16  19
HETATM   19  C2  UNL     1      22.906  28.103  14.330  1.00  0.00     0.034 C 
HETATM   20  C1  UNL     1      23.888  28.706  15.344  1.00  0.00     0.010 C 
ENDBRANCH  16  19
BRANCH  18  21
HETATM   21  C29 UNL     1      21.047  27.108  18.739  1.00  0.00     0.148 A 
HETATM   22  N5  UNL     1      20.732  28.213  19.447  1.00  0.00    -0.268 N 
HETATM   23  N6  UNL     1      20.923  27.934  20.726  1.00  0.00    -0.225 N 
ATOM     24  H5  UNL     1      20.406  29.101  19.065  1.00  0.00     0.190 HD
HETATM   25  N7  UNL     1      21.348  26.695  20.870  1.00  0.00    -0.223 N 
ATOM     26  H6  UNL     1      20.764  28.586  21.493  1.00  0.00     0.210 HD
HETATM   27  C30 UNL     1      21.672  25.998  22.109  1.00  0.00     0.202 C 
HETATM   28  N8  UNL     1      21.415  26.214  19.637  1.00  0.00    -0.266 N 
ATOM     29  H8  UNL     1      21.715  25.266  19.409  1.00  0.00     0.190 HD
ENDBRANCH  18  21
ENDBRANCH  11  12
ENDBRANCH   9  11
BRANCH   9  30
HETATM   30  C9  UNL     1      18.122  24.281  20.075  1.00  0.00     0.113 C 
HETATM   31  C10 UNL     1      19.202  23.488  20.843  1.00  0.00     0.019 C 
ENDBRANCH   9  30
ENDBRANCH   1   9
BRANCH   8  32
HETATM   32  C21 UNL     1      16.664  21.532  18.934  1.00  0.00     0.032 C 
BRANCH  32  33
HETATM   33  C22 UNL     1      16.190  20.246  19.436  1.00  0.00    -0.013 C 
HETATM   34  C23 UNL     1      15.012  20.425  20.421  1.00  0.00     0.005 C 
HETATM   35  C24 UNL     1      13.753  20.491  19.640  1.00  0.00     0.000 C 
HETATM   36  C25 UNL     1      13.454  19.150  18.997  1.00  0.00     0.000 C 
HETATM   37  C26 UNL     1      14.756  18.384  18.762  1.00  0.00     0.000 C 
HETATM   38  C27 UNL     1      15.738  19.406  18.248  1.00  0.00     0.005 C 
ENDBRANCH  32  33
ENDBRANCH   8  32
BRANCH   5  39
HETATM   39  C14 UNL     1      14.037  23.278  15.016  1.00  0.00     0.275 C 
BRANCH  39  40
HETATM   40  N3  UNL     1      13.119  24.042  15.853  1.00  0.00    -0.067 N 
ATOM     41  H33 UNL     1      12.454  23.434  16.333  1.00  0.00     0.275 HD
ATOM     42  H32 UNL     1      13.591  24.432  16.669  1.00  0.00     0.275 HD
ATOM     43  H31 UNL     1      12.643  24.765  15.314  1.00  0.00     0.275 HD
ENDBRANCH  39  40
BRANCH  39  44
HETATM   44  C15 UNL     1      13.181  22.554  13.965  1.00  0.00     0.042 C 
BRANCH  44  45
HETATM   45  C16 UNL     1      11.846  22.180  14.558  1.00  0.00     0.004 C 
BRANCH  45  46
HETATM   46  C17 UNL     1      11.346  20.929  13.915  1.00  0.00     0.027 C 
BRANCH  46  47
HETATM   47  C18 UNL     1      12.325  19.802  13.986  1.00  0.00     0.229 C 
BRANCH  47  48
HETATM   48  N4  UNL     1      12.366  19.285  15.363  1.00  0.00    -0.079 N 
ATOM     49  H43 UNL     1      13.308  19.297  15.753  1.00  0.00     0.274 HD
ATOM     50  H42 UNL     1      11.927  19.922  16.028  1.00  0.00     0.274 HD
ATOM     51  H41 UNL     1      11.950  18.354  15.383  1.00  0.00     0.274 HD
ENDBRANCH  47  48
ENDBRANCH  46  47
ENDBRANCH  45  46
ENDBRANCH  44  45
ENDBRANCH  39  44
ENDBRANCH   5  39
TORSDOF 15
ENDMDL
MODEL 5
REMARK VINA RESULT: -8.225338649      5.563     10.093
REMARK  15 active torsions:
REMARK  status: ('A' for Active; 'I' for Inactive)
REMARK    1  A    between atoms: C2_2  and  C3_3 
REMARK    2  A    between atoms: C7_7  and  C8_8 
REMARK    3  A    between atoms: C8_8  and  S1_9 
REMARK    4  A    between atoms: S1_9  and  C9_11 
REMARK    5  A    between atoms: S1_9  and  N1_13 
REMARK       I    between atoms: N2_16  and  C13_17 
REMARK    6  A    between atoms: C13_17  and  C14_19 
REMARK    7  A    between atoms: C14_19  and  N3_20 
REMARK    8  A    between atoms: C14_19  and  C15_24 
REMARK    9  A    between atoms: C15_24  and  C16_25 
REMARK   10  A    between atoms: C16_25  and  C17_26 
REMARK   11  A    between atoms: C17_26  and  C18_27 
REMARK   12  A    between atoms: C18_27  and  N4_28 
REMARK   13  A    between atoms: C20_33  and  C21_34 
REMARK   14  A    between atoms: C21_34  and  C22_35 
REMARK   15  A    between atoms: C28_41  and  C29_42 
ROOT
HETATM    1  N1  UNL     1      11.062  18.555  14.887  1.00  0.00    -0.334 N 
HETATM    2  C11 UNL     1      10.408  19.620  15.545  1.00  0.00     0.152 C 
HETATM    3  C12 UNL     1      11.214  19.836  16.869  1.00  0.00     0.146 C 
HETATM    4  N2  UNL     1      11.462  18.497  17.347  1.00  0.00    -0.347 N 
HETATM    5  C13 UNL     1      12.558  18.034  18.095  1.00  0.00     0.250 C 
HETATM    6  O2  UNL     1      12.654  16.805  18.438  1.00  0.00    -0.271 OA
HETATM    7  C19 UNL     1      10.439  17.524  16.970  1.00  0.00     0.151 C 
HETATM    8  C20 UNL     1      10.640  17.342  15.451  1.00  0.00     0.111 C 
ENDROOT
BRANCH   1   9
HETATM    9  S1  UNL     1      11.994  18.739  13.318  1.00  0.00     0.027 S 
HETATM   10  O1  UNL     1      10.512  20.243  13.071  1.00  0.00    -0.249 OA
BRANCH   9  11
HETATM   11  C8  UNL     1      11.303  18.082  11.606  1.00  0.00     0.157 C 
BRANCH  11  12
HETATM   12  C7  UNL     1      10.974  16.655  11.515  1.00  0.00    -0.026 A 
HETATM   13  C5  UNL     1       9.568  16.409  11.589  1.00  0.00    -0.053 A 
HETATM   14  C4  UNL     1       9.068  15.152  11.444  1.00  0.00     0.014 A 
HETATM   15  C6  UNL     1       8.612  17.524  11.830  1.00  0.00     0.049 C 
HETATM   16  C3  UNL     1       9.906  14.082  11.221  1.00  0.00    -0.057 A 
HETATM   17  C31 UNL     1      11.243  14.320  11.146  1.00  0.00     0.023 A 
HETATM   18  C28 UNL     1      11.824  15.615  11.285  1.00  0.00     0.019 A 
BRANCH  16  19
HETATM   19  C2  UNL     1       9.373  12.717  11.076  1.00  0.00     0.034 C 
HETATM   20  C1  UNL     1       9.712  12.000  12.390  1.00  0.00     0.010 C 
ENDBRANCH  16  19
BRANCH  18  21
HETATM   21  C29 UNL     1      13.241  15.703  11.001  1.00  0.00     0.148 A 
HETATM   22  N5  UNL     1      14.181  16.027  11.914  1.00  0.00    -0.268 N 
HETATM   23  N6  UNL     1      15.362  15.871  11.340  1.00  0.00    -0.225 N 
ATOM     24  H5  UNL     1      14.011  16.336  12.871  1.00  0.00     0.190 HD
HETATM   25  N7  UNL     1      15.221  15.460  10.097  1.00  0.00    -0.223 N 
ATOM     26  H6  UNL     1      16.258  16.045  11.797  1.00  0.00     0.210 HD
HETATM   27  C30 UNL     1      16.270  15.167   9.126  1.00  0.00     0.202 C 
HETATM   28  N8  UNL     1      13.913  15.367   9.917  1.00  0.00    -0.266 N 
ATOM     29  H8  UNL     1      13.476  15.070   9.044  1.00  0.00     0.190 HD
ENDBRANCH  18  21
ENDBRANCH  11  12
ENDBRANCH   9  11
BRANCH   9  30
HETATM   30  C9  UNL     1      13.160  20.364  13.108  1.00  0.00     0.113 C 
HETATM   31  C10 UNL     1      13.920  20.674  14.416  1.00  0.00     0.019 C 
ENDBRANCH   9  30
ENDBRANCH   1   9
BRANCH   8  32
HETATM   32  C21 UNL     1      11.231  16.032  15.215  1.00  0.00     0.032 C 
BRANCH  32  33
HETATM   33  C22 UNL     1      10.405  14.896  14.816  1.00  0.00    -0.013 C 
HETATM   34  C23 UNL     1      10.761  13.629  15.626  1.00  0.00     0.005 C 
HETATM   35  C24 UNL     1       9.984  13.645  16.890  1.00  0.00     0.000 C 
HETATM   36  C25 UNL     1       8.504  13.461  16.608  1.00  0.00     0.000 C 
HETATM   37  C26 UNL     1       8.175  13.972  15.205  1.00  0.00     0.000 C 
HETATM   38  C27 UNL     1       8.944  15.260  15.054  1.00  0.00     0.005 C 
ENDBRANCH  32  33
ENDBRANCH   8  32
BRANCH   5  39
HETATM   39  C14 UNL     1      13.685  18.885  18.552  1.00  0.00     0.275 C 
BRANCH  39  40
HETATM   40  N3  UNL     1      14.970  18.243  18.293  1.00  0.00    -0.067 N 
ATOM     41  H33 UNL     1      15.742  18.906  18.362  1.00  0.00     0.275 HD
ATOM     42  H32 UNL     1      15.235  17.615  19.052  1.00  0.00     0.275 HD
ATOM     43  H31 UNL     1      14.967  17.764  17.393  1.00  0.00     0.275 HD
ENDBRANCH  39  40
BRANCH  39  44
HETATM   44  C15 UNL     1      13.549  19.004  20.078  1.00  0.00     0.042 C 
BRANCH  44  45
HETATM   45  C16 UNL     1      14.612  19.925  20.621  1.00  0.00     0.004 C 
BRANCH  45  46
HETATM   46  C17 UNL     1      14.670  21.164  19.791  1.00  0.00     0.027 C 
BRANCH  46  47
HETATM   47  C18 UNL     1      16.063  21.555  19.416  1.00  0.00     0.229 C 
BRANCH  47  48
HETATM   48  N4  UNL     1      16.101  23.001  19.148  1.00  0.00    -0.079 N 
ATOM     49  H43 UNL     1      16.952  23.283  18.659  1.00  0.00     0.274 HD
ATOM     50  H42 UNL     1      15.427  23.281  18.435  1.00  0.00     0.274 HD
ATOM     51  H41 UNL     1      15.972  23.507  20.024  1.00  0.00     0.274 HD
ENDBRANCH  47  48
ENDBRANCH  46  47
ENDBRANCH  45  46
ENDBRANCH  44  45
ENDBRANCH  39  44
ENDBRANCH   5  39
TORSDOF 15
ENDMDL
