MODEL 1
REMARK VINA RESULT: -6.689790511      0.000      0.000
REMARK  9 active torsions:
REMARK  status: ('A' for Active; 'I' for Inactive)
REMARK    1  A    between atoms: C2_2  and  C3_3 
REMARK    2  A    between atoms: C3_3  and  C4_4 
REMARK    3  A    between atoms: C4_4  and  N1_5 
REMARK    4  A    between atoms: C7_9  and  C8_10 
REMARK    5  A    between atoms: C8_10  and  O3_12 
REMARK    6  A    between atoms: C10_14  and  C11_15 
REMARK    7  A    between atoms: C11_15  and  O5_17 
REMARK    8  A    between atoms: N3_22  and  C14_23 
REMARK    9  A    between atoms: C14_23  and  C15_24 
ROOT
HETATM    1  N1  UNL     1       8.078  10.796  45.049  1.00  0.00    -0.290 N 
HETATM    2  C5  UNL     1       9.030  10.589  44.121  1.00  0.00     0.265 A 
HETATM    3  O1  UNL     1       9.535  11.559  43.530  1.00  0.00    -0.267 OA
HETATM    4  C6  UNL     1       9.484   9.330  43.786  1.00  0.00     0.095 A 
HETATM    5  C7  UNL     1      10.418   8.815  42.905  1.00  0.00     0.091 A 
HETATM    6  C10 UNL     1      10.452   7.442  43.000  1.00  0.00     0.127 A 
HETATM    7  N2  UNL     1       9.544   7.113  43.933  1.00  0.00    -0.336 N 
ATOM      8  H2  UNL     1       9.333   6.161  44.231  1.00  0.00     0.168 HD
HETATM    9  C13 UNL     1       8.950   8.226  44.421  1.00  0.00     0.127 A 
HETATM   10  N3  UNL     1       7.993   8.455  45.351  1.00  0.00    -0.309 N 
HETATM   11  C17 UNL     1       7.575   9.703  45.650  1.00  0.00     0.184 A 
HETATM   12  S1  UNL     1       6.410   9.910  46.789  1.00  0.00    -0.040 SA
ENDROOT
BRANCH   1  13
HETATM   13  C4  UNL     1       7.590  12.108  45.412  1.00  0.00     0.135 C 
BRANCH  13  14
HETATM   14  C3  UNL     1       6.472  12.571  44.501  1.00  0.00     0.020 C 
BRANCH  14  15
HETATM   15  C2  UNL     1       5.380  13.128  45.397  1.00  0.00    -0.003 C 
HETATM   16  C1  UNL     1       4.306  13.759  44.541  1.00  0.00     0.005 C 
ENDBRANCH  14  15
ENDBRANCH  13  14
ENDBRANCH   1  13
BRANCH  10  17
HETATM   17  C14 UNL     1       7.422   7.320  46.024  1.00  0.00     0.133 C 
BRANCH  17  18
HETATM   18  C15 UNL     1       6.340   6.686  45.174  1.00  0.00     0.016 C 
HETATM   19  C16 UNL     1       5.049   6.698  46.002  1.00  0.00     0.006 C 
ENDBRANCH  17  18
ENDBRANCH  10  17
BRANCH   5  20
HETATM   20  C8  UNL     1      11.222   9.640  42.030  1.00  0.00     0.296 C 
HETATM   21  O2  UNL     1      10.665  10.106  40.992  1.00  0.00    -0.259 OA
BRANCH  20  22
HETATM   22  O3  UNL     1      12.538   9.957  42.236  1.00  0.00    -0.322 OA
HETATM   23  C9  UNL     1      13.034  11.280  42.070  1.00  0.00     0.213 C 
ENDBRANCH  20  22
ENDBRANCH   5  20
BRANCH   6  24
HETATM   24  C11 UNL     1      11.320   6.548  42.220  1.00  0.00     0.310 C 
HETATM   25  O4  UNL     1      12.514   6.344  42.573  1.00  0.00    -0.258 OA
BRANCH  24  26
HETATM   26  O5  UNL     1      10.872   5.911  41.098  1.00  0.00    -0.321 OA
HETATM   27  C12 UNL     1       9.784   6.433  40.351  1.00  0.00     0.213 C 
ENDBRANCH  24  26
ENDBRANCH   6  24
TORSDOF 9
ENDMDL
MODEL 2
REMARK VINA RESULT: -6.636965129      2.379      4.415
REMARK  9 active torsions:
REMARK  status: ('A' for Active; 'I' for Inactive)
REMARK    1  A    between atoms: C2_2  and  C3_3 
REMARK    2  A    between atoms: C3_3  and  C4_4 
REMARK    3  A    between atoms: C4_4  and  N1_5 
REMARK    4  A    between atoms: C7_9  and  C8_10 
REMARK    5  A    between atoms: C8_10  and  O3_12 
REMARK    6  A    between atoms: C10_14  and  C11_15 
REMARK    7  A    between atoms: C11_15  and  O5_17 
REMARK    8  A    between atoms: N3_22  and  C14_23 
REMARK    9  A    between atoms: C14_23  and  C15_24 
ROOT
HETATM    1  N1  UNL     1       8.751  11.384  44.315  1.00  0.00    -0.290 N 
HETATM    2  C5  UNL     1       8.336  10.182  43.878  1.00  0.00     0.265 A 
HETATM    3  O1  UNL     1       7.189   9.789  44.154  1.00  0.00    -0.267 OA
HETATM    4  C6  UNL     1       9.134   9.346  43.124  1.00  0.00     0.095 A 
HETATM    5  C7  UNL     1       8.993   8.095  42.549  1.00  0.00     0.091 A 
HETATM    6  C10 UNL     1      10.151   7.744  41.891  1.00  0.00     0.127 A 
HETATM    7  N2  UNL     1      10.999   8.771  42.061  1.00  0.00    -0.336 N 
ATOM      8  H2  UNL     1      11.948   8.812  41.690  1.00  0.00     0.168 HD
HETATM    9  C13 UNL     1      10.414   9.745  42.797  1.00  0.00     0.127 A 
HETATM   10  N3  UNL     1      10.813  10.958  43.246  1.00  0.00    -0.309 N 
HETATM   11  C17 UNL     1      10.003  11.748  43.982  1.00  0.00     0.184 A 
HETATM   12  S1  UNL     1      10.550  13.209  44.495  1.00  0.00    -0.040 SA
ENDROOT
BRANCH   1  13
HETATM   13  C4  UNL     1       7.929  12.273  45.106  1.00  0.00     0.135 C 
BRANCH  13  14
HETATM   14  C3  UNL     1       6.616  12.592  44.422  1.00  0.00     0.020 C 
BRANCH  14  15
HETATM   15  C2  UNL     1       5.604  12.861  45.523  1.00  0.00    -0.003 C 
HETATM   16  C1  UNL     1       4.427  13.612  44.944  1.00  0.00     0.005 C 
ENDBRANCH  14  15
ENDBRANCH  13  14
ENDBRANCH   1  13
BRANCH  10  17
HETATM   17  C14 UNL     1      12.143  11.394  42.916  1.00  0.00     0.133 C 
BRANCH  17  18
HETATM   18  C15 UNL     1      12.261  11.668  41.430  1.00  0.00     0.016 C 
HETATM   19  C16 UNL     1      13.197  12.871  41.264  1.00  0.00     0.006 C 
ENDBRANCH  17  18
ENDBRANCH  10  17
BRANCH   5  20
HETATM   20  C8  UNL     1       7.785   7.307  42.649  1.00  0.00     0.296 C 
HETATM   21  O2  UNL     1       6.919   7.446  41.734  1.00  0.00    -0.259 OA
BRANCH  20  22
HETATM   22  O3  UNL     1       7.503   6.422  43.655  1.00  0.00    -0.322 OA
HETATM   23  C9  UNL     1       8.490   5.986  44.581  1.00  0.00     0.213 C 
ENDBRANCH  20  22
ENDBRANCH   5  20
BRANCH   6  24
HETATM   24  C11 UNL     1      10.378   6.489  41.162  1.00  0.00     0.310 C 
HETATM   25  O4  UNL     1      10.074   6.392  39.941  1.00  0.00    -0.258 OA
BRANCH  24  26
HETATM   26  O5  UNL     1      10.921   5.393  41.770  1.00  0.00    -0.321 OA
HETATM   27  C12 UNL     1      12.146   5.486  42.479  1.00  0.00     0.213 C 
ENDBRANCH  24  26
ENDBRANCH   6  24
TORSDOF 9
ENDMDL
MODEL 3
REMARK VINA RESULT: -6.589230056      2.585      4.456
REMARK  9 active torsions:
REMARK  status: ('A' for Active; 'I' for Inactive)
REMARK    1  A    between atoms: C2_2  and  C3_3 
REMARK    2  A    between atoms: C3_3  and  C4_4 
REMARK    3  A    between atoms: C4_4  and  N1_5 
REMARK    4  A    between atoms: C7_9  and  C8_10 
REMARK    5  A    between atoms: C8_10  and  O3_12 
REMARK    6  A    between atoms: C10_14  and  C11_15 
REMARK    7  A    between atoms: C11_15  and  O5_17 
REMARK    8  A    between atoms: N3_22  and  C14_23 
REMARK    9  A    between atoms: C14_23  and  C15_24 
ROOT
HETATM    1  N1  UNL     1       8.629  11.264  44.074  1.00  0.00    -0.290 N 
HETATM    2  C5  UNL     1       8.228  10.073  43.594  1.00  0.00     0.265 A 
HETATM    3  O1  UNL     1       7.053   9.704  43.766  1.00  0.00    -0.267 OA
HETATM    4  C6  UNL     1       9.070   9.225  42.905  1.00  0.00     0.095 A 
HETATM    5  C7  UNL     1       8.953   7.981  42.310  1.00  0.00     0.091 A 
HETATM    6  C10 UNL     1      10.156   7.609  41.752  1.00  0.00     0.127 A 
HETATM    7  N2  UNL     1      11.008   8.616  42.002  1.00  0.00    -0.336 N 
ATOM      8  H2  UNL     1      11.986   8.639  41.715  1.00  0.00     0.168 HD
HETATM    9  C13 UNL     1      10.382   9.598  42.692  1.00  0.00     0.127 A 
HETATM   10  N3  UNL     1      10.766  10.800  43.183  1.00  0.00    -0.309 N 
HETATM   11  C17 UNL     1       9.912  11.602  43.853  1.00  0.00     0.184 A 
HETATM   12  S1  UNL     1      10.444  13.048  44.423  1.00  0.00    -0.040 SA
ENDROOT
BRANCH   1  13
HETATM   13  C4  UNL     1       7.761  12.166  44.798  1.00  0.00     0.135 C 
BRANCH  13  14
HETATM   14  C3  UNL     1       7.393  11.627  46.165  1.00  0.00     0.020 C 
BRANCH  14  15
HETATM   15  C2  UNL     1       6.074  12.274  46.549  1.00  0.00    -0.003 C 
HETATM   16  C1  UNL     1       5.493  12.975  45.342  1.00  0.00     0.005 C 
ENDBRANCH  14  15
ENDBRANCH  13  14
ENDBRANCH   1  13
BRANCH  10  17
HETATM   17  C14 UNL     1      12.129  11.208  42.973  1.00  0.00     0.133 C 
BRANCH  17  18
HETATM   18  C15 UNL     1      12.365  11.543  41.514  1.00  0.00     0.016 C 
HETATM   19  C16 UNL     1      13.180  12.842  41.473  1.00  0.00     0.006 C 
ENDBRANCH  17  18
ENDBRANCH  10  17
BRANCH   5  20
HETATM   20  C8  UNL     1       7.724   7.219  42.299  1.00  0.00     0.296 C 
HETATM   21  O2  UNL     1       7.506   6.447  43.281  1.00  0.00    -0.259 OA
BRANCH  20  22
HETATM   22  O3  UNL     1       6.778   7.265  41.312  1.00  0.00    -0.322 OA
HETATM   23  C9  UNL     1       6.803   8.246  40.282  1.00  0.00     0.213 C 
ENDBRANCH  20  22
ENDBRANCH   5  20
BRANCH   6  24
HETATM   24  C11 UNL     1      10.419   6.354  41.035  1.00  0.00     0.310 C 
HETATM   25  O4  UNL     1      10.055   6.212  39.835  1.00  0.00    -0.258 OA
BRANCH  24  26
HETATM   26  O5  UNL     1      11.059   5.305  41.633  1.00  0.00    -0.321 OA
HETATM   27  C12 UNL     1      12.168   5.523  42.490  1.00  0.00     0.213 C 
ENDBRANCH  24  26
ENDBRANCH   6  24
TORSDOF 9
ENDMDL
MODEL 4
REMARK VINA RESULT: -6.541385222      2.767      3.954
REMARK  9 active torsions:
REMARK  status: ('A' for Active; 'I' for Inactive)
REMARK    1  A    between atoms: C2_2  and  C3_3 
REMARK    2  A    between atoms: C3_3  and  C4_4 
REMARK    3  A    between atoms: C4_4  and  N1_5 
REMARK    4  A    between atoms: C7_9  and  C8_10 
REMARK    5  A    between atoms: C8_10  and  O3_12 
REMARK    6  A    between atoms: C10_14  and  C11_15 
REMARK    7  A    between atoms: C11_15  and  O5_17 
REMARK    8  A    between atoms: N3_22  and  C14_23 
REMARK    9  A    between atoms: C14_23  and  C15_24 
ROOT
HETATM    1  N1  UNL     1       6.803  10.604  43.472  1.00  0.00    -0.290 N 
HETATM    2  C5  UNL     1       7.778   9.751  43.834  1.00  0.00     0.265 A 
HETATM    3  O1  UNL     1       8.345   9.894  44.931  1.00  0.00    -0.267 OA
HETATM    4  C6  UNL     1       8.187   8.703  43.035  1.00  0.00     0.095 A 
HETATM    5  C7  UNL     1       9.128   7.694  43.130  1.00  0.00     0.091 A 
HETATM    6  C10 UNL     1       9.097   6.910  41.998  1.00  0.00     0.127 A 
HETATM    7  N2  UNL     1       8.143   7.434  41.211  1.00  0.00    -0.336 N 
ATOM      8  H2  UNL     1       7.880   7.073  40.294  1.00  0.00     0.168 HD
HETATM    9  C13 UNL     1       7.582   8.510  41.810  1.00  0.00     0.127 A 
HETATM   10  N3  UNL     1       6.603   9.379  41.463  1.00  0.00    -0.309 N 
HETATM   11  C17 UNL     1       6.231  10.393  42.273  1.00  0.00     0.184 A 
HETATM   12  S1  UNL     1       5.037  11.412  41.791  1.00  0.00    -0.040 SA
ENDROOT
BRANCH   1  13
HETATM   13  C4  UNL     1       6.362  11.708  44.296  1.00  0.00     0.135 C 
BRANCH  13  14
HETATM   14  C3  UNL     1       5.211  11.317  45.200  1.00  0.00     0.020 C 
BRANCH  14  15
HETATM   15  C2  UNL     1       4.811  12.567  45.964  1.00  0.00    -0.003 C 
HETATM   16  C1  UNL     1       4.330  13.615  44.986  1.00  0.00     0.005 C 
ENDBRANCH  14  15
ENDBRANCH  13  14
ENDBRANCH   1  13
BRANCH  10  17
HETATM   17  C14 UNL     1       5.959   9.196  40.190  1.00  0.00     0.133 C 
BRANCH  17  18
HETATM   18  C15 UNL     1       6.836   9.717  39.070  1.00  0.00     0.016 C 
HETATM   19  C16 UNL     1       6.751   8.706  37.920  1.00  0.00     0.006 C 
ENDBRANCH  17  18
ENDBRANCH  10  17
BRANCH   5  20
HETATM   20  C8  UNL     1       9.998   7.524  44.273  1.00  0.00     0.296 C 
HETATM   21  O2  UNL     1      11.120   8.112  44.246  1.00  0.00    -0.259 OA
BRANCH  20  22
HETATM   22  O3  UNL     1       9.703   6.779  45.383  1.00  0.00    -0.322 OA
HETATM   23  C9  UNL     1       8.368   6.435  45.733  1.00  0.00     0.213 C 
ENDBRANCH  20  22
ENDBRANCH   5  20
BRANCH   6  24
HETATM   24  C11 UNL     1       9.951   5.743  41.737  1.00  0.00     0.310 C 
HETATM   25  O4  UNL     1       9.470   4.577  41.762  1.00  0.00    -0.258 OA
BRANCH  24  26
HETATM   26  O5  UNL     1      11.282   5.875  41.461  1.00  0.00    -0.321 OA
HETATM   27  C12 UNL     1      12.264   5.492  42.411  1.00  0.00     0.213 C 
ENDBRANCH  24  26
ENDBRANCH   6  24
TORSDOF 9
ENDMDL
MODEL 5
REMARK VINA RESULT: -6.486430035      2.952      3.979
REMARK  9 active torsions:
REMARK  status: ('A' for Active; 'I' for Inactive)
REMARK    1  A    between atoms: C2_2  and  C3_3 
REMARK    2  A    between atoms: C3_3  and  C4_4 
REMARK    3  A    between atoms: C4_4  and  N1_5 
REMARK    4  A    between atoms: C7_9  and  C8_10 
REMARK    5  A    between atoms: C8_10  and  O3_12 
REMARK    6  A    between atoms: C10_14  and  C11_15 
REMARK    7  A    between atoms: C11_15  and  O5_17 
REMARK    8  A    between atoms: N3_22  and  C14_23 
REMARK    9  A    between atoms: C14_23  and  C15_24 
ROOT
HETATM    1  N1  UNL     1       6.754  11.018  45.004  1.00  0.00    -0.290 N 
HETATM    2  C5  UNL     1       7.449   9.880  45.189  1.00  0.00     0.265 A 
HETATM    3  O1  UNL     1       8.045   9.691  46.263  1.00  0.00    -0.267 OA
HETATM    4  C6  UNL     1       7.533   8.894  44.227  1.00  0.00     0.095 A 
HETATM    5  C7  UNL     1       8.148   7.659  44.127  1.00  0.00     0.091 A 
HETATM    6  C10 UNL     1       7.882   7.096  42.899  1.00  0.00     0.127 A 
HETATM    7  N2  UNL     1       7.109   7.979  42.247  1.00  0.00    -0.336 N 
ATOM      8  H2  UNL     1       6.744   7.851  41.303  1.00  0.00     0.168 HD
HETATM    9  C13 UNL     1       6.884   9.066  43.021  1.00  0.00     0.127 A 
HETATM   10  N3  UNL     1       6.191  10.217  42.855  1.00  0.00    -0.309 N 
HETATM   11  C17 UNL     1       6.133  11.159  43.820  1.00  0.00     0.184 A 
HETATM   12  S1  UNL     1       5.274  12.533  43.552  1.00  0.00    -0.040 SA
ENDROOT
BRANCH   1  13
HETATM   13  C4  UNL     1       6.655  12.062  46.000  1.00  0.00     0.135 C 
BRANCH  13  14
HETATM   14  C3  UNL     1       5.694  11.697  47.112  1.00  0.00     0.020 C 
BRANCH  14  15
HETATM   15  C2  UNL     1       4.588  12.738  47.093  1.00  0.00    -0.003 C 
HETATM   16  C1  UNL     1       4.032  12.900  48.490  1.00  0.00     0.005 C 
ENDBRANCH  14  15
ENDBRANCH  13  14
ENDBRANCH   1  13
BRANCH  10  17
HETATM   17  C14 UNL     1       5.508  10.417  41.605  1.00  0.00     0.133 C 
BRANCH  17  18
HETATM   18  C15 UNL     1       6.502  10.673  40.490  1.00  0.00     0.016 C 
HETATM   19  C16 UNL     1       5.970   9.964  39.239  1.00  0.00     0.006 C 
ENDBRANCH  17  18
ENDBRANCH  10  17
BRANCH   5  20
HETATM   20  C8  UNL     1       8.945   7.081  45.187  1.00  0.00     0.296 C 
HETATM   21  O2  UNL     1       8.337   6.421  46.082  1.00  0.00    -0.259 OA
BRANCH  20  22
HETATM   22  O3  UNL     1      10.305   7.190  45.299  1.00  0.00    -0.322 OA
HETATM   23  C9  UNL     1      11.192   6.232  44.733  1.00  0.00     0.213 C 
ENDBRANCH  20  22
ENDBRANCH   5  20
BRANCH   6  24
HETATM   24  C11 UNL     1       8.365   5.790  42.429  1.00  0.00     0.310 C 
HETATM   25  O4  UNL     1       8.007   4.727  43.009  1.00  0.00    -0.258 OA
BRANCH  24  26
HETATM   26  O5  UNL     1       9.208   5.678  41.361  1.00  0.00    -0.321 OA
HETATM   27  C12 UNL     1      10.269   6.601  41.171  1.00  0.00     0.213 C 
ENDBRANCH  24  26
ENDBRANCH   6  24
TORSDOF 9
ENDMDL
