MODEL 1
REMARK VINA RESULT: -6.168823562      0.000      0.000
REMARK  10 active torsions:
REMARK  status: ('A' for Active; 'I' for Inactive)
REMARK    1  A    between atoms: O1_2  and  C2_3 
REMARK    2  A    between atoms: C8_11  and  C9_12 
REMARK    3  A    between atoms: C8_11  and  O6_19 
REMARK    4  A    between atoms: C10_13  and  C11_14 
REMARK    5  A    between atoms: C11_14  and  C12_16 
REMARK    6  A    between atoms: C12_16  and  O5_17 
REMARK    7  A    between atoms: O6_19  and  C13_20 
REMARK    8  A    between atoms: C13_20  and  C14_21 
REMARK    9  A    between atoms: C15_22  and  C16_23 
REMARK   10  A    between atoms: C17_26  and  C18_27 
ROOT
HETATM    1  C2  UNL     1     -17.910   8.040  -3.645  1.00  0.00     0.205 C 
HETATM    2  O2  UNL     1     -18.703   7.670  -2.502  1.00  0.00    -0.316 OA
HETATM    3  C3  UNL     1     -19.693   8.608  -2.387  1.00  0.00     0.161 C 
HETATM    4  C4  UNL     1     -19.957   8.889  -0.941  1.00  0.00     0.078 C 
HETATM    5  C5  UNL     1     -20.937   8.069  -3.083  1.00  0.00     0.078 C 
HETATM    6  O3  UNL     1     -19.239   9.755  -3.080  1.00  0.00    -0.345 OA
HETATM    7  C6  UNL     1     -18.748   9.136  -4.224  1.00  0.00     0.192 C 
HETATM    8  C7  UNL     1     -17.738  10.053  -4.859  1.00  0.00     0.090 C 
HETATM    9  C8  UNL     1     -16.433   9.866  -4.068  1.00  0.00     0.139 C 
HETATM   10  C17 UNL     1     -16.797   8.881  -3.044  1.00  0.00     0.131 C 
ENDROOT
BRANCH   9  11
HETATM   11  C9  UNL     1     -16.148  11.150  -3.339  1.00  0.00    -0.059 C 
HETATM   12  C10 UNL     1     -15.912  12.168  -2.742  1.00  0.00    -0.024 C 
BRANCH  12  13
HETATM   13  C11 UNL     1     -15.613  13.371  -2.019  1.00  0.00     0.225 C 
HETATM   14  O4  UNL     1     -15.886  14.517  -2.455  1.00  0.00    -0.281 OA
BRANCH  13  15
HETATM   15  C12 UNL     1     -14.955  13.230  -0.708  1.00  0.00     0.257 C 
BRANCH  15  16
HETATM   16  O5  UNL     1     -13.941  12.303  -0.805  1.00  0.00    -0.393 OA
ATOM     17  H5  UNL     1     -13.269  12.504  -0.164  1.00  0.00     0.210 HD
ENDBRANCH  15  16
ENDBRANCH  13  15
ENDBRANCH  12  13
ENDBRANCH   9  11
BRANCH   9  18
HETATM   18  O6  UNL     1     -15.350   9.635  -4.859  1.00  0.00    -0.363 OA
BRANCH  18  19
HETATM   19  C13 UNL     1     -15.679   9.321  -6.146  1.00  0.00     0.197 C 
BRANCH  19  20
HETATM   20  C14 UNL     1     -14.979  10.188  -7.132  1.00  0.00     0.004 C 
HETATM   21  C15 UNL     1     -15.154  11.498  -7.127  1.00  0.00     0.069 C 
BRANCH  21  22
HETATM   22  C16 UNL     1     -14.486  12.361  -8.076  1.00  0.00     0.254 C 
HETATM   23  N1  UNL     1     -13.490  11.836  -8.927  1.00  0.00    -0.058 NA
HETATM   24  O7  UNL     1     -14.750  13.585  -8.187  1.00  0.00    -0.272 OA
ENDBRANCH  21  22
ENDBRANCH  19  20
ENDBRANCH  18  19
ENDBRANCH   9  18
BRANCH  10  25
HETATM   25  C18 UNL     1     -15.792   8.184  -2.280  1.00  0.00    -0.045 A 
HETATM   26  C19 UNL     1     -15.755   8.389  -0.885  1.00  0.00     0.009 A 
HETATM   27  C20 UNL     1     -14.826   7.776  -0.084  1.00  0.00     0.019 A 
HETATM   28  C21 UNL     1     -13.881   6.925  -0.620  1.00  0.00     0.011 A 
HETATM   29 BR1  UNL     1     -12.586   6.070   0.490  1.00  0.00    -0.051 Br
HETATM   30  C22 UNL     1     -13.874   6.691  -1.976  1.00  0.00     0.019 A 
HETATM   31  C23 UNL     1     -14.835   7.332  -2.764  1.00  0.00     0.009 A 
ENDBRANCH  10  25
BRANCH   1  32
HETATM   32  O1  UNL     1     -17.676   6.971  -4.325  1.00  0.00    -0.357 OA
HETATM   33  C1  UNL     1     -17.897   5.702  -4.153  1.00  0.00     0.205 C 
ENDBRANCH   1  32
TORSDOF 10
ENDMDL
MODEL 2
REMARK VINA RESULT: -6.055783026      0.730      1.141
REMARK  10 active torsions:
REMARK  status: ('A' for Active; 'I' for Inactive)
REMARK    1  A    between atoms: O1_2  and  C2_3 
REMARK    2  A    between atoms: C8_11  and  C9_12 
REMARK    3  A    between atoms: C8_11  and  O6_19 
REMARK    4  A    between atoms: C10_13  and  C11_14 
REMARK    5  A    between atoms: C11_14  and  C12_16 
REMARK    6  A    between atoms: C12_16  and  O5_17 
REMARK    7  A    between atoms: O6_19  and  C13_20 
REMARK    8  A    between atoms: C13_20  and  C14_21 
REMARK    9  A    between atoms: C15_22  and  C16_23 
REMARK   10  A    between atoms: C17_26  and  C18_27 
ROOT
HETATM    1  C2  UNL     1     -17.879   8.354  -3.927  1.00  0.00     0.205 C 
HETATM    2  O2  UNL     1     -18.713   7.885  -2.850  1.00  0.00    -0.316 OA
HETATM    3  C3  UNL     1     -19.747   8.774  -2.736  1.00  0.00     0.161 C 
HETATM    4  C4  UNL     1     -20.097   8.959  -1.293  1.00  0.00     0.078 C 
HETATM    5  C5  UNL     1     -20.929   8.226  -3.526  1.00  0.00     0.078 C 
HETATM    6  O3  UNL     1     -19.310   9.977  -3.338  1.00  0.00    -0.345 OA
HETATM    7  C6  UNL     1     -18.734   9.447  -4.487  1.00  0.00     0.192 C 
HETATM    8  C7  UNL     1     -17.735  10.440  -5.014  1.00  0.00     0.090 C 
HETATM    9  C8  UNL     1     -16.465  10.261  -4.167  1.00  0.00     0.139 C 
HETATM   10  C17 UNL     1     -16.837   9.204  -3.220  1.00  0.00     0.131 C 
ENDROOT
BRANCH   9  11
HETATM   11  C9  UNL     1     -16.274  11.511  -3.352  1.00  0.00    -0.059 C 
HETATM   12  C10 UNL     1     -16.137  12.516  -2.706  1.00  0.00    -0.024 C 
BRANCH  12  13
HETATM   13  C11 UNL     1     -15.998  13.718  -1.933  1.00  0.00     0.225 C 
HETATM   14  O4  UNL     1     -15.343  13.772  -0.863  1.00  0.00    -0.281 OA
BRANCH  13  15
HETATM   15  C12 UNL     1     -16.664  14.932  -2.440  1.00  0.00     0.257 C 
BRANCH  15  16
HETATM   16  O5  UNL     1     -15.712  15.878  -2.751  1.00  0.00    -0.393 OA
ATOM     17  H5  UNL     1     -15.663  16.516  -2.049  1.00  0.00     0.210 HD
ENDBRANCH  15  16
ENDBRANCH  13  15
ENDBRANCH  12  13
ENDBRANCH   9  11
BRANCH   9  18
HETATM   18  O6  UNL     1     -15.334  10.122  -4.910  1.00  0.00    -0.363 OA
BRANCH  18  19
HETATM   19  C13 UNL     1     -15.568  10.132  -6.256  1.00  0.00     0.197 C 
BRANCH  19  20
HETATM   20  C14 UNL     1     -15.093  11.386  -6.899  1.00  0.00     0.004 C 
HETATM   21  C15 UNL     1     -14.674  11.387  -8.152  1.00  0.00     0.069 C 
BRANCH  21  22
HETATM   22  C16 UNL     1     -14.208  12.593  -8.801  1.00  0.00     0.254 C 
HETATM   23  N1  UNL     1     -13.375  12.505  -9.938  1.00  0.00    -0.058 NA
HETATM   24  O7  UNL     1     -14.511  13.744  -8.398  1.00  0.00    -0.272 OA
ENDBRANCH  21  22
ENDBRANCH  19  20
ENDBRANCH  18  19
ENDBRANCH   9  18
BRANCH  10  25
HETATM   25  C18 UNL     1     -15.842   8.505  -2.444  1.00  0.00    -0.045 A 
HETATM   26  C19 UNL     1     -15.906   8.601  -1.039  1.00  0.00     0.009 A 
HETATM   27  C20 UNL     1     -14.994   7.980  -0.225  1.00  0.00     0.019 A 
HETATM   28  C21 UNL     1     -13.968   7.227  -0.757  1.00  0.00     0.011 A 
HETATM   29 BR1  UNL     1     -12.697   6.359   0.371  1.00  0.00    -0.051 Br
HETATM   30  C22 UNL     1     -13.861   7.100  -2.123  1.00  0.00     0.019 A 
HETATM   31  C23 UNL     1     -14.807   7.748  -2.925  1.00  0.00     0.009 A 
ENDBRANCH  10  25
BRANCH   1  32
HETATM   32  O1  UNL     1     -17.564   7.337  -4.652  1.00  0.00    -0.357 OA
HETATM   33  C1  UNL     1     -17.577   6.048  -4.489  1.00  0.00     0.205 C 
ENDBRANCH   1  32
TORSDOF 10
ENDMDL
MODEL 3
REMARK VINA RESULT: -6.021094824      3.202      5.766
REMARK  10 active torsions:
REMARK  status: ('A' for Active; 'I' for Inactive)
REMARK    1  A    between atoms: O1_2  and  C2_3 
REMARK    2  A    between atoms: C8_11  and  C9_12 
REMARK    3  A    between atoms: C8_11  and  O6_19 
REMARK    4  A    between atoms: C10_13  and  C11_14 
REMARK    5  A    between atoms: C11_14  and  C12_16 
REMARK    6  A    between atoms: C12_16  and  O5_17 
REMARK    7  A    between atoms: O6_19  and  C13_20 
REMARK    8  A    between atoms: C13_20  and  C14_21 
REMARK    9  A    between atoms: C15_22  and  C16_23 
REMARK   10  A    between atoms: C17_26  and  C18_27 
ROOT
HETATM    1  C2  UNL     1     -18.382  11.506  -2.825  1.00  0.00     0.205 C 
HETATM    2  O2  UNL     1     -19.307  10.760  -3.638  1.00  0.00    -0.316 OA
HETATM    3  C3  UNL     1     -19.752   9.716  -2.874  1.00  0.00     0.161 C 
HETATM    4  C4  UNL     1     -19.921   8.501  -3.729  1.00  0.00     0.078 C 
HETATM    5  C5  UNL     1     -21.071  10.130  -2.233  1.00  0.00     0.078 C 
HETATM    6  O3  UNL     1     -18.788   9.525  -1.857  1.00  0.00    -0.345 OA
HETATM    7  C6  UNL     1     -18.588  10.852  -1.495  1.00  0.00     0.192 C 
HETATM    8  C7  UNL     1     -17.240  10.963  -0.835  1.00  0.00     0.090 C 
HETATM    9  C8  UNL     1     -16.209  11.008  -1.974  1.00  0.00     0.139 C 
HETATM   10  C17 UNL     1     -17.034  10.902  -3.182  1.00  0.00     0.131 C 
ENDROOT
BRANCH   9  11
HETATM   11  C9  UNL     1     -15.394   9.746  -1.907  1.00  0.00    -0.059 C 
HETATM   12  C10 UNL     1     -14.756   8.726  -1.857  1.00  0.00    -0.024 C 
BRANCH  12  13
HETATM   13  C11 UNL     1     -14.011   7.500  -1.812  1.00  0.00     0.225 C 
HETATM   14  O4  UNL     1     -13.822   6.776  -2.821  1.00  0.00    -0.281 OA
BRANCH  13  15
HETATM   15  C12 UNL     1     -13.454   7.092  -0.510  1.00  0.00     0.257 C 
BRANCH  15  16
HETATM   16  O5  UNL     1     -14.322   7.460   0.493  1.00  0.00    -0.393 OA
ATOM     17  H5  UNL     1     -14.389   6.754   1.126  1.00  0.00     0.210 HD
ENDBRANCH  15  16
ENDBRANCH  13  15
ENDBRANCH  12  13
ENDBRANCH   9  11
BRANCH   9  18
HETATM   18  O6  UNL     1     -15.322  12.034  -1.860  1.00  0.00    -0.363 OA
BRANCH  18  19
HETATM   19  C13 UNL     1     -15.436  12.717  -0.683  1.00  0.00     0.197 C 
BRANCH  19  20
HETATM   20  C14 UNL     1     -16.109  14.031  -0.859  1.00  0.00     0.004 C 
HETATM   21  C15 UNL     1     -16.041  14.678  -2.010  1.00  0.00     0.069 C 
BRANCH  21  22
HETATM   22  C16 UNL     1     -16.687  15.958  -2.205  1.00  0.00     0.254 C 
HETATM   23  N1  UNL     1     -17.197  16.302  -3.476  1.00  0.00    -0.058 NA
HETATM   24  O7  UNL     1     -16.823  16.801  -1.283  1.00  0.00    -0.272 OA
ENDBRANCH  21  22
ENDBRANCH  19  20
ENDBRANCH  18  19
ENDBRANCH   9  18
BRANCH  10  25
HETATM   25  C18 UNL     1     -16.503  11.217  -4.486  1.00  0.00    -0.045 A 
HETATM   26  C19 UNL     1     -16.216  10.151  -5.363  1.00  0.00     0.009 A 
HETATM   27  C20 UNL     1     -15.697  10.358  -6.615  1.00  0.00     0.019 A 
HETATM   28  C21 UNL     1     -15.435  11.634  -7.070  1.00  0.00     0.011 A 
HETATM   29 BR1  UNL     1     -14.714  11.928  -8.812  1.00  0.00    -0.051 Br
HETATM   30  C22 UNL     1     -15.698  12.710  -6.253  1.00  0.00     0.019 A 
HETATM   31  C23 UNL     1     -16.226  12.464  -4.981  1.00  0.00     0.009 A 
ENDBRANCH  10  25
BRANCH   1  32
HETATM   32  O1  UNL     1     -18.640  12.758  -2.982  1.00  0.00    -0.357 OA
HETATM   33  C1  UNL     1     -19.521  13.586  -2.505  1.00  0.00     0.205 C 
ENDBRANCH   1  32
TORSDOF 10
ENDMDL
MODEL 4
REMARK VINA RESULT: -5.831762051      2.961      5.966
REMARK  10 active torsions:
REMARK  status: ('A' for Active; 'I' for Inactive)
REMARK    1  A    between atoms: O1_2  and  C2_3 
REMARK    2  A    between atoms: C8_11  and  C9_12 
REMARK    3  A    between atoms: C8_11  and  O6_19 
REMARK    4  A    between atoms: C10_13  and  C11_14 
REMARK    5  A    between atoms: C11_14  and  C12_16 
REMARK    6  A    between atoms: C12_16  and  O5_17 
REMARK    7  A    between atoms: O6_19  and  C13_20 
REMARK    8  A    between atoms: C13_20  and  C14_21 
REMARK    9  A    between atoms: C15_22  and  C16_23 
REMARK   10  A    between atoms: C17_26  and  C18_27 
ROOT
HETATM    1  C2  UNL     1     -15.736   8.647  -2.599  1.00  0.00     0.205 C 
HETATM    2  O2  UNL     1     -15.998   7.846  -1.431  1.00  0.00    -0.316 OA
HETATM    3  C3  UNL     1     -15.097   6.816  -1.448  1.00  0.00     0.161 C 
HETATM    4  C4  UNL     1     -15.750   5.567  -0.946  1.00  0.00     0.078 C 
HETATM    5  C5  UNL     1     -13.912   7.211  -0.577  1.00  0.00     0.078 C 
HETATM    6  O3  UNL     1     -14.660   6.688  -2.788  1.00  0.00    -0.345 OA
HETATM    7  C6  UNL     1     -14.459   8.033  -3.078  1.00  0.00     0.192 C 
HETATM    8  C7  UNL     1     -14.523   8.208  -4.571  1.00  0.00     0.090 C 
HETATM    9  C8  UNL     1     -16.016   8.244  -4.934  1.00  0.00     0.139 C 
HETATM   10  C17 UNL     1     -16.682   8.072  -3.639  1.00  0.00     0.131 C 
ENDROOT
BRANCH   9  11
HETATM   11  C9  UNL     1     -16.326   7.010  -5.736  1.00  0.00    -0.059 C 
HETATM   12  C10 UNL     1     -16.586   6.032  -6.387  1.00  0.00    -0.024 C 
BRANCH  12  13
HETATM   13  C11 UNL     1     -16.905   4.879  -7.181  1.00  0.00     0.225 C 
HETATM   14  O4  UNL     1     -17.861   4.109  -6.915  1.00  0.00    -0.281 OA
BRANCH  13  15
HETATM   15  C12 UNL     1     -16.057   4.608  -8.356  1.00  0.00     0.257 C 
BRANCH  15  16
HETATM   16  O5  UNL     1     -16.078   5.700  -9.194  1.00  0.00    -0.393 OA
ATOM     17  H5  UNL     1     -16.844   5.652  -9.754  1.00  0.00     0.210 HD
ENDBRANCH  15  16
ENDBRANCH  13  15
ENDBRANCH  12  13
ENDBRANCH   9  11
BRANCH   9  18
HETATM   18  O6  UNL     1     -16.355   9.300  -5.723  1.00  0.00    -0.363 OA
BRANCH  18  19
HETATM   19  C13 UNL     1     -15.567   9.418  -6.832  1.00  0.00     0.197 C 
BRANCH  19  20
HETATM   20  C14 UNL     1     -15.324  10.839  -7.199  1.00  0.00     0.004 C 
HETATM   21  C15 UNL     1     -14.603  11.150  -8.262  1.00  0.00     0.069 C 
BRANCH  21  22
HETATM   22  C16 UNL     1     -14.352  12.524  -8.640  1.00  0.00     0.254 C 
HETATM   23  N1  UNL     1     -15.064  13.569  -8.012  1.00  0.00    -0.058 NA
HETATM   24  O7  UNL     1     -13.511  12.846  -9.517  1.00  0.00    -0.272 OA
ENDBRANCH  21  22
ENDBRANCH  19  20
ENDBRANCH  18  19
ENDBRANCH   9  18
BRANCH  10  25
HETATM   25  C18 UNL     1     -18.086   8.358  -3.472  1.00  0.00    -0.045 A 
HETATM   26  C19 UNL     1     -18.938   7.305  -3.079  1.00  0.00     0.009 A 
HETATM   27  C20 UNL     1     -20.287   7.484  -2.909  1.00  0.00     0.019 A 
HETATM   28  C21 UNL     1     -20.868   8.718  -3.118  1.00  0.00     0.011 A 
HETATM   29 BR1  UNL     1     -22.744   8.974  -2.882  1.00  0.00    -0.051 Br
HETATM   30  C22 UNL     1     -20.081   9.780  -3.502  1.00  0.00     0.019 A 
HETATM   31  C23 UNL     1     -18.709   9.562  -3.667  1.00  0.00     0.009 A 
ENDBRANCH  10  25
BRANCH   1  32
HETATM   32  O1  UNL     1     -15.770   9.884  -2.243  1.00  0.00    -0.357 OA
HETATM   33  C1  UNL     1     -14.925  10.716  -1.713  1.00  0.00     0.205 C 
ENDBRANCH   1  32
TORSDOF 10
ENDMDL
MODEL 5
REMARK VINA RESULT: -5.796439383      3.617      6.401
REMARK  10 active torsions:
REMARK  status: ('A' for Active; 'I' for Inactive)
REMARK    1  A    between atoms: O1_2  and  C2_3 
REMARK    2  A    between atoms: C8_11  and  C9_12 
REMARK    3  A    between atoms: C8_11  and  O6_19 
REMARK    4  A    between atoms: C10_13  and  C11_14 
REMARK    5  A    between atoms: C11_14  and  C12_16 
REMARK    6  A    between atoms: C12_16  and  O5_17 
REMARK    7  A    between atoms: O6_19  and  C13_20 
REMARK    8  A    between atoms: C13_20  and  C14_21 
REMARK    9  A    between atoms: C15_22  and  C16_23 
REMARK   10  A    between atoms: C17_26  and  C18_27 
ROOT
HETATM    1  C2  UNL     1     -18.406  11.591  -2.907  1.00  0.00     0.205 C 
HETATM    2  O2  UNL     1     -19.321  10.841  -3.728  1.00  0.00    -0.316 OA
HETATM    3  C3  UNL     1     -19.809   9.826  -2.949  1.00  0.00     0.161 C 
HETATM    4  C4  UNL     1     -19.975   8.591  -3.777  1.00  0.00     0.078 C 
HETATM    5  C5  UNL     1     -21.138  10.281  -2.359  1.00  0.00     0.078 C 
HETATM    6  O3  UNL     1     -18.878   9.644  -1.899  1.00  0.00    -0.345 OA
HETATM    7  C6  UNL     1     -18.664  10.977  -1.567  1.00  0.00     0.192 C 
HETATM    8  C7  UNL     1     -17.334  11.081  -0.870  1.00  0.00     0.090 C 
HETATM    9  C8  UNL     1     -16.269  11.076  -1.978  1.00  0.00     0.139 C 
HETATM   10  C17 UNL     1     -17.061  10.953  -3.207  1.00  0.00     0.131 C 
ENDROOT
BRANCH   9  11
HETATM   11  C9  UNL     1     -15.480   9.802  -1.854  1.00  0.00    -0.059 C 
HETATM   12  C10 UNL     1     -14.861   8.774  -1.765  1.00  0.00    -0.024 C 
BRANCH  12  13
HETATM   13  C11 UNL     1     -14.130   7.541  -1.681  1.00  0.00     0.225 C 
HETATM   14  O4  UNL     1     -13.916   6.803  -2.675  1.00  0.00    -0.281 OA
BRANCH  13  15
HETATM   15  C12 UNL     1     -13.618   7.144  -0.357  1.00  0.00     0.257 C 
BRANCH  15  16
HETATM   16  O5  UNL     1     -14.511   7.539   0.614  1.00  0.00    -0.393 OA
ATOM     17  H5  UNL     1     -14.191   8.329   1.033  1.00  0.00     0.210 HD
ENDBRANCH  15  16
ENDBRANCH  13  15
ENDBRANCH  12  13
ENDBRANCH   9  11
BRANCH   9  18
HETATM   18  O6  UNL     1     -15.366  12.088  -1.865  1.00  0.00    -0.363 OA
BRANCH  18  19
HETATM   19  C13 UNL     1     -15.765  13.073  -1.007  1.00  0.00     0.197 C 
BRANCH  19  20
HETATM   20  C14 UNL     1     -14.922  13.127   0.217  1.00  0.00     0.004 C 
HETATM   21  C15 UNL     1     -15.277  13.869   1.251  1.00  0.00     0.069 C 
BRANCH  21  22
HETATM   22  C16 UNL     1     -14.475  13.939   2.453  1.00  0.00     0.254 C 
HETATM   23  N1  UNL     1     -13.728  12.815   2.867  1.00  0.00    -0.058 NA
HETATM   24  O7  UNL     1     -14.403  14.972   3.165  1.00  0.00    -0.272 OA
ENDBRANCH  21  22
ENDBRANCH  19  20
ENDBRANCH  18  19
ENDBRANCH   9  18
BRANCH  10  25
HETATM   25  C18 UNL     1     -16.485  11.223  -4.502  1.00  0.00    -0.045 A 
HETATM   26  C19 UNL     1     -16.142  10.127  -5.320  1.00  0.00     0.009 A 
HETATM   27  C20 UNL     1     -15.580  10.290  -6.559  1.00  0.00     0.019 A 
HETATM   28  C21 UNL     1     -15.325  11.551  -7.059  1.00  0.00     0.011 A 
HETATM   29 BR1  UNL     1     -14.543  11.786  -8.784  1.00  0.00    -0.051 Br
HETATM   30  C22 UNL     1     -15.641  12.656  -6.302  1.00  0.00     0.019 A 
HETATM   31  C23 UNL     1     -16.214  12.453  -5.041  1.00  0.00     0.009 A 
ENDBRANCH  10  25
BRANCH   1  32
HETATM   32  O1  UNL     1     -18.636  12.843  -3.104  1.00  0.00    -0.357 OA
HETATM   33  C1  UNL     1     -19.346  13.756  -2.512  1.00  0.00     0.205 C 
ENDBRANCH   1  32
TORSDOF 10
ENDMDL
