MODEL 1
REMARK VINA RESULT: -5.784375354      0.000      0.000
REMARK  7 active torsions:
REMARK  status: ('A' for Active; 'I' for Inactive)
REMARK    1  A    between atoms: C3_3  and  N1_4 
REMARK       I    between atoms: N1_4  and  C4_6 
REMARK       I    between atoms: C4_6  and  N2_8 
REMARK    2  A    between atoms: C5_9  and  C6_10 
REMARK    3  A    between atoms: N3_15  and  C9_16 
REMARK    4  A    between atoms: C9_16  and  C10_17 
REMARK    5  A    between atoms: C9_16  and  C14_21 
REMARK    6  A    between atoms: C10_17  and  C11_18 
REMARK    7  A    between atoms: C11_18  and  C12_19 
REMARK       I    between atoms: C14_21  and  N4_23 
ROOT
HETATM    1  C1  UNL     1     -28.693  14.261 -12.031  1.00  0.00     0.014 C 
HETATM    2  C2  UNL     1     -29.625  14.003 -12.742  1.00  0.00    -0.098 C 
HETATM    3  C3  UNL     1     -30.754  13.708 -13.601  1.00  0.00     0.218 C 
ENDROOT
BRANCH   3   4
HETATM    4  N1  UNL     1     -30.336  13.120 -14.880  1.00  0.00    -0.331 N 
HETATM    5  C4  UNL     1     -31.042  12.052 -15.445  1.00  0.00     0.339 C 
HETATM    6  O1  UNL     1     -32.053  11.649 -14.767  1.00  0.00    -0.245 OA
HETATM    7  N2  UNL     1     -30.744  11.402 -16.664  1.00  0.00    -0.219 N 
HETATM    8  C5  UNL     1     -31.476  10.279 -17.292  1.00  0.00     0.230 C 
HETATM    9  N3  UNL     1     -29.823  11.440 -17.711  1.00  0.00    -0.238 N 
HETATM   10  C8  UNL     1     -30.353  10.210 -18.194  1.00  0.00     0.268 C 
HETATM   11  O2  UNL     1     -29.986   9.382 -19.066  1.00  0.00    -0.269 OA
ATOM     12  H1  UNL     1     -29.520  13.495 -15.364  1.00  0.00     0.165 HD
BRANCH   8  13
HETATM   13  C6  UNL     1     -32.765  10.660 -17.869  1.00  0.00     0.017 C 
HETATM   14  C7  UNL     1     -32.836  11.516 -18.870  1.00  0.00     0.054 C 
HETATM   15 BR1  UNL     1     -34.479  12.057 -19.669  1.00  0.00    -0.064 Br
ENDBRANCH   8  13
BRANCH   9  16
HETATM   16  C9  UNL     1     -28.785  12.308 -18.181  1.00  0.00     0.203 C 
BRANCH  16  17
HETATM   17  C10 UNL     1     -29.211  13.704 -18.508  1.00  0.00     0.037 C 
BRANCH  17  18
HETATM   18  C11 UNL     1     -30.198  13.667 -19.655  1.00  0.00     0.002 C 
BRANCH  18  19
HETATM   19  C12 UNL     1     -31.348  14.620 -19.444  1.00  0.00    -0.004 C 
HETATM   20  C13 UNL     1     -32.183  14.792 -20.694  1.00  0.00     0.005 C 
ENDBRANCH  18  19
ENDBRANCH  17  18
ENDBRANCH  16  17
BRANCH  16  21
HETATM   21  C14 UNL     1     -27.583  12.332 -17.277  1.00  0.00     0.242 C 
HETATM   22  O3  UNL     1     -27.768  12.734 -16.106  1.00  0.00    -0.271 OA
HETATM   23  N4  UNL     1     -26.292  11.941 -17.661  1.00  0.00    -0.364 N 
HETATM   24  C15 UNL     1     -25.203  11.998 -16.733  1.00  0.00     0.149 C 
ATOM     25  H4  UNL     1     -26.127  11.613 -18.612  1.00  0.00     0.161 HD
ENDBRANCH  16  21
ENDBRANCH   9  16
ENDBRANCH   3   4
TORSDOF 7
ENDMDL
MODEL 2
REMARK VINA RESULT: -5.760983890      3.224      5.589
REMARK  7 active torsions:
REMARK  status: ('A' for Active; 'I' for Inactive)
REMARK    1  A    between atoms: C3_3  and  N1_4 
REMARK       I    between atoms: N1_4  and  C4_6 
REMARK       I    between atoms: C4_6  and  N2_8 
REMARK    2  A    between atoms: C5_9  and  C6_10 
REMARK    3  A    between atoms: N3_15  and  C9_16 
REMARK    4  A    between atoms: C9_16  and  C10_17 
REMARK    5  A    between atoms: C9_16  and  C14_21 
REMARK    6  A    between atoms: C10_17  and  C11_18 
REMARK    7  A    between atoms: C11_18  and  C12_19 
REMARK       I    between atoms: C14_21  and  N4_23 
ROOT
HETATM    1  C1  UNL     1     -26.312  13.533 -22.178  1.00  0.00     0.014 C 
HETATM    2  C2  UNL     1     -26.822  13.825 -21.132  1.00  0.00    -0.098 C 
HETATM    3  C3  UNL     1     -27.436  14.194 -19.872  1.00  0.00     0.218 C 
ENDROOT
BRANCH   3   4
HETATM    4  N1  UNL     1     -28.826  13.730 -19.778  1.00  0.00    -0.331 N 
HETATM    5  C4  UNL     1     -29.204  12.779 -18.823  1.00  0.00     0.339 C 
HETATM    6  O1  UNL     1     -28.258  12.366 -18.063  1.00  0.00    -0.245 OA
HETATM    7  N2  UNL     1     -30.502  12.255 -18.632  1.00  0.00    -0.219 N 
HETATM    8  C5  UNL     1     -30.935  11.259 -17.625  1.00  0.00     0.230 C 
HETATM    9  N3  UNL     1     -31.795  12.354 -19.148  1.00  0.00    -0.238 N 
HETATM   10  C8  UNL     1     -32.170  11.223 -18.370  1.00  0.00     0.268 C 
HETATM   11  O2  UNL     1     -33.183  10.479 -18.341  1.00  0.00    -0.269 OA
ATOM     12  H1  UNL     1     -29.526  14.106 -20.418  1.00  0.00     0.165 HD
BRANCH   8  13
HETATM   13  C6  UNL     1     -31.001  11.783 -16.262  1.00  0.00     0.017 C 
HETATM   14  C7  UNL     1     -31.461  11.044 -15.270  1.00  0.00     0.054 C 
HETATM   15 BR1  UNL     1     -31.575  11.661 -13.471  1.00  0.00    -0.064 Br
ENDBRANCH   8  13
BRANCH   9  16
HETATM   16  C9  UNL     1     -32.515  13.203 -20.049  1.00  0.00     0.203 C 
BRANCH  16  17
HETATM   17  C10 UNL     1     -33.967  12.883 -20.216  1.00  0.00     0.037 C 
BRANCH  17  18
HETATM   18  C11 UNL     1     -34.753  13.539 -19.101  1.00  0.00     0.002 C 
BRANCH  18  19
HETATM   19  C12 UNL     1     -35.896  14.370 -19.626  1.00  0.00    -0.004 C 
HETATM   20  C13 UNL     1     -35.812  15.810 -19.169  1.00  0.00     0.005 C 
ENDBRANCH  18  19
ENDBRANCH  17  18
ENDBRANCH  16  17
BRANCH  16  21
HETATM   21  C14 UNL     1     -32.339  14.666 -19.748  1.00  0.00     0.242 C 
HETATM   22  O3  UNL     1     -32.180  14.978 -18.545  1.00  0.00    -0.271 OA
HETATM   23  N4  UNL     1     -32.345  15.684 -20.713  1.00  0.00    -0.364 N 
HETATM   24  C15 UNL     1     -32.171  17.053 -20.335  1.00  0.00     0.149 C 
ATOM     25  H4  UNL     1     -32.474  15.444 -21.696  1.00  0.00     0.161 HD
ENDBRANCH  16  21
ENDBRANCH   9  16
ENDBRANCH   3   4
TORSDOF 7
ENDMDL
MODEL 3
REMARK VINA RESULT: -5.706028062      2.960      4.697
REMARK  7 active torsions:
REMARK  status: ('A' for Active; 'I' for Inactive)
REMARK    1  A    between atoms: C3_3  and  N1_4 
REMARK       I    between atoms: N1_4  and  C4_6 
REMARK       I    between atoms: C4_6  and  N2_8 
REMARK    2  A    between atoms: C5_9  and  C6_10 
REMARK    3  A    between atoms: N3_15  and  C9_16 
REMARK    4  A    between atoms: C9_16  and  C10_17 
REMARK    5  A    between atoms: C9_16  and  C14_21 
REMARK    6  A    between atoms: C10_17  and  C11_18 
REMARK    7  A    between atoms: C11_18  and  C12_19 
REMARK       I    between atoms: C14_21  and  N4_23 
ROOT
HETATM    1  C1  UNL     1     -32.225  13.161 -12.273  1.00  0.00     0.014 C 
HETATM    2  C2  UNL     1     -31.864  12.360 -13.090  1.00  0.00    -0.098 C 
HETATM    3  C3  UNL     1     -31.438  11.381 -14.071  1.00  0.00     0.218 C 
ENDROOT
BRANCH   3   4
HETATM    4  N1  UNL     1     -31.772  11.790 -15.441  1.00  0.00    -0.331 N 
HETATM    5  C4  UNL     1     -30.958  12.687 -16.142  1.00  0.00     0.339 C 
HETATM    6  O1  UNL     1     -29.928  13.103 -15.500  1.00  0.00    -0.245 OA
HETATM    7  N2  UNL     1     -31.168  13.155 -17.458  1.00  0.00    -0.219 N 
HETATM    8  C5  UNL     1     -30.321  14.093 -18.230  1.00  0.00     0.230 C 
HETATM    9  N3  UNL     1     -32.066  13.030 -18.519  1.00  0.00    -0.238 N 
HETATM   10  C8  UNL     1     -31.413  14.115 -19.171  1.00  0.00     0.268 C 
HETATM   11  O2  UNL     1     -31.683  14.820 -20.176  1.00  0.00    -0.269 OA
ATOM     12  H1  UNL     1     -32.608  11.415 -15.888  1.00  0.00     0.165 HD
BRANCH   8  13
HETATM   13  C6  UNL     1     -29.061  13.512 -18.692  1.00  0.00     0.017 C 
HETATM   14  C7  UNL     1     -28.196  14.227 -19.386  1.00  0.00     0.054 C 
HETATM   15 BR1  UNL     1     -26.538  13.536 -20.020  1.00  0.00    -0.064 Br
ENDBRANCH   8  13
BRANCH   9  16
HETATM   16  C9  UNL     1     -33.169  12.193 -18.882  1.00  0.00     0.203 C 
BRANCH  16  17
HETATM   17  C10 UNL     1     -34.107  12.766 -19.897  1.00  0.00     0.037 C 
BRANCH  17  18
HETATM   18  C11 UNL     1     -35.171  13.577 -19.190  1.00  0.00     0.002 C 
BRANCH  18  19
HETATM   19  C12 UNL     1     -35.275  14.977 -19.740  1.00  0.00    -0.004 C 
HETATM   20  C13 UNL     1     -34.726  16.010 -18.781  1.00  0.00     0.005 C 
ENDBRANCH  18  19
ENDBRANCH  17  18
ENDBRANCH  16  17
BRANCH  16  21
HETATM   21  C14 UNL     1     -32.749  10.808 -19.289  1.00  0.00     0.242 C 
HETATM   22  O3  UNL     1     -33.666   9.994 -19.542  1.00  0.00    -0.271 OA
HETATM   23  N4  UNL     1     -31.418  10.379 -19.397  1.00  0.00    -0.364 N 
HETATM   24  C15 UNL     1     -31.109   9.038 -19.790  1.00  0.00     0.149 C 
ATOM     25  H4  UNL     1     -30.661  11.031 -19.192  1.00  0.00     0.161 HD
ENDBRANCH  16  21
ENDBRANCH   9  16
ENDBRANCH   3   4
TORSDOF 7
ENDMDL
MODEL 4
REMARK VINA RESULT: -5.675299335      6.429      9.955
REMARK  7 active torsions:
REMARK  status: ('A' for Active; 'I' for Inactive)
REMARK    1  A    between atoms: C3_3  and  N1_4 
REMARK       I    between atoms: N1_4  and  C4_6 
REMARK       I    between atoms: C4_6  and  N2_8 
REMARK    2  A    between atoms: C5_9  and  C6_10 
REMARK    3  A    between atoms: N3_15  and  C9_16 
REMARK    4  A    between atoms: C9_16  and  C10_17 
REMARK    5  A    between atoms: C9_16  and  C14_21 
REMARK    6  A    between atoms: C10_17  and  C11_18 
REMARK    7  A    between atoms: C11_18  and  C12_19 
REMARK       I    between atoms: C14_21  and  N4_23 
ROOT
HETATM    1  C1  UNL     1     -37.250  17.262 -26.299  1.00  0.00     0.014 C 
HETATM    2  C2  UNL     1     -36.244  17.575 -25.722  1.00  0.00    -0.098 C 
HETATM    3  C3  UNL     1     -35.036  17.969 -25.026  1.00  0.00     0.218 C 
ENDROOT
BRANCH   3   4
HETATM    4  N1  UNL     1     -34.898  17.289 -23.732  1.00  0.00    -0.331 N 
HETATM    5  C4  UNL     1     -33.918  17.682 -22.814  1.00  0.00     0.339 C 
HETATM    6  O1  UNL     1     -33.177  18.658 -23.194  1.00  0.00    -0.245 OA
HETATM    7  N2  UNL     1     -33.684  17.113 -21.542  1.00  0.00    -0.219 N 
HETATM    8  C5  UNL     1     -32.665  17.513 -20.546  1.00  0.00     0.230 C 
HETATM    9  N3  UNL     1     -34.164  16.104 -20.706  1.00  0.00    -0.238 N 
HETATM   10  C8  UNL     1     -33.038  16.302 -19.857  1.00  0.00     0.268 C 
HETATM   11  O2  UNL     1     -32.554  15.669 -18.884  1.00  0.00    -0.269 OA
ATOM     12  H1  UNL     1     -35.525  16.519 -23.498  1.00  0.00     0.165 HD
BRANCH   8  13
HETATM   13  C6  UNL     1     -32.959  18.775 -19.870  1.00  0.00     0.017 C 
HETATM   14  C7  UNL     1     -32.027  19.696 -19.711  1.00  0.00     0.054 C 
HETATM   15 BR1  UNL     1     -32.338  21.362 -18.841  1.00  0.00    -0.064 Br
ENDBRANCH   8  13
BRANCH   9  16
HETATM   16  C9  UNL     1     -35.292  15.225 -20.643  1.00  0.00     0.203 C 
BRANCH  16  17
HETATM   17  C10 UNL     1     -35.550  14.600 -19.309  1.00  0.00     0.037 C 
BRANCH  17  18
HETATM   18  C11 UNL     1     -35.384  13.099 -19.421  1.00  0.00     0.002 C 
BRANCH  18  19
HETATM   19  C12 UNL     1     -34.020  12.717 -19.938  1.00  0.00    -0.004 C 
HETATM   20  C13 UNL     1     -33.631  11.311 -19.537  1.00  0.00     0.005 C 
ENDBRANCH  18  19
ENDBRANCH  17  18
ENDBRANCH  16  17
BRANCH  16  21
HETATM   21  C14 UNL     1     -36.554  15.846 -21.176  1.00  0.00     0.242 C 
HETATM   22  O3  UNL     1     -37.074  15.295 -22.173  1.00  0.00    -0.271 OA
HETATM   23  N4  UNL     1     -37.170  16.984 -20.636  1.00  0.00    -0.364 N 
HETATM   24  C15 UNL     1     -38.371  17.509 -21.210  1.00  0.00     0.149 C 
ATOM     25  H4  UNL     1     -36.756  17.444 -19.825  1.00  0.00     0.161 HD
ENDBRANCH  16  21
ENDBRANCH   9  16
ENDBRANCH   3   4
TORSDOF 7
ENDMDL
MODEL 5
REMARK VINA RESULT: -5.670301965      6.847      9.560
REMARK  7 active torsions:
REMARK  status: ('A' for Active; 'I' for Inactive)
REMARK    1  A    between atoms: C3_3  and  N1_4 
REMARK       I    between atoms: N1_4  and  C4_6 
REMARK       I    between atoms: C4_6  and  N2_8 
REMARK    2  A    between atoms: C5_9  and  C6_10 
REMARK    3  A    between atoms: N3_15  and  C9_16 
REMARK    4  A    between atoms: C9_16  and  C10_17 
REMARK    5  A    between atoms: C9_16  and  C14_21 
REMARK    6  A    between atoms: C10_17  and  C11_18 
REMARK    7  A    between atoms: C11_18  and  C12_19 
REMARK       I    between atoms: C14_21  and  N4_23 
ROOT
HETATM    1  C1  UNL     1     -33.300  11.865 -19.931  1.00  0.00     0.014 C 
HETATM    2  C2  UNL     1     -34.233  12.543 -19.596  1.00  0.00    -0.098 C 
HETATM    3  C3  UNL     1     -35.351  13.364 -19.176  1.00  0.00     0.218 C 
ENDROOT
BRANCH   3   4
HETATM    4  N1  UNL     1     -35.532  14.535 -20.042  1.00  0.00    -0.331 N 
HETATM    5  C4  UNL     1     -35.054  15.793 -19.660  1.00  0.00     0.339 C 
HETATM    6  O1  UNL     1     -34.463  15.828 -18.522  1.00  0.00    -0.245 OA
HETATM    7  N2  UNL     1     -35.164  16.992 -20.400  1.00  0.00    -0.219 N 
HETATM    8  C5  UNL     1     -34.661  18.333 -20.028  1.00  0.00     0.230 C 
HETATM    9  N3  UNL     1     -35.677  17.474 -21.605  1.00  0.00    -0.238 N 
HETATM   10  C8  UNL     1     -35.432  18.801 -21.153  1.00  0.00     0.268 C 
HETATM   11  O2  UNL     1     -35.762  19.941 -21.570  1.00  0.00    -0.269 OA
ATOM     12  H1  UNL     1     -36.012  14.430 -20.936  1.00  0.00     0.165 HD
BRANCH   8  13
HETATM   13  C6  UNL     1     -33.208  18.469 -20.121  1.00  0.00     0.017 C 
HETATM   14  C7  UNL     1     -32.615  19.623 -19.880  1.00  0.00     0.054 C 
HETATM   15 BR1  UNL     1     -30.729  19.872 -19.982  1.00  0.00    -0.064 Br
ENDBRANCH   8  13
BRANCH   9  16
HETATM   16  C9  UNL     1     -36.211  16.938 -22.821  1.00  0.00     0.203 C 
BRANCH  16  17
HETATM   17  C10 UNL     1     -37.662  17.210 -23.063  1.00  0.00     0.037 C 
BRANCH  17  18
HETATM   18  C11 UNL     1     -38.474  16.636 -21.922  1.00  0.00     0.002 C 
BRANCH  18  19
HETATM   19  C12 UNL     1     -39.245  17.701 -21.183  1.00  0.00    -0.004 C 
HETATM   20  C13 UNL     1     -39.168  19.044 -21.875  1.00  0.00     0.005 C 
ENDBRANCH  18  19
ENDBRANCH  17  18
ENDBRANCH  16  17
BRANCH  16  21
HETATM   21  C14 UNL     1     -35.405  17.312 -24.034  1.00  0.00     0.242 C 
HETATM   22  O3  UNL     1     -35.783  16.836 -25.129  1.00  0.00    -0.271 OA
HETATM   23  N4  UNL     1     -34.276  18.143 -24.014  1.00  0.00    -0.364 N 
HETATM   24  C15 UNL     1     -33.566  18.445 -25.219  1.00  0.00     0.149 C 
ATOM     25  H4  UNL     1     -33.956  18.537 -23.129  1.00  0.00     0.161 HD
ENDBRANCH  16  21
ENDBRANCH   9  16
ENDBRANCH   3   4
TORSDOF 7
ENDMDL
