MODEL 1
REMARK VINA RESULT: -7.325428160      0.000      0.000
REMARK  4 active torsions:
REMARK  status: ('A' for Active; 'I' for Inactive)
REMARK       I    between atoms: C1_2  and  N1_3 
REMARK    1  A    between atoms: C1_2  and  C7_15 
REMARK    2  A    between atoms: N1_3  and  N2_5 
REMARK    3  A    between atoms: N2_5  and  C2_6 
REMARK    4  A    between atoms: C2_6  and  C3_7 
ROOT
HETATM    1  O1  UNL     1     -45.187  11.098   4.881  1.00  0.00    -0.267 OA
HETATM    2  C1  UNL     1     -45.804  11.395   5.970  1.00  0.00     0.262 C 
HETATM    3  N1  UNL     1     -46.864  10.545   6.302  1.00  0.00    -0.270 N 
ATOM      4  H1  UNL     1     -47.386  10.738   7.156  1.00  0.00     0.185 HD
ENDROOT
BRANCH   3   5
HETATM    5  N2  UNL     1     -47.251   9.443   5.528  1.00  0.00    -0.133 NA
BRANCH   5   6
HETATM    6  C2  UNL     1     -48.057   8.573   6.361  1.00  0.00     0.183 C 
BRANCH   6   7
HETATM    7  C3  UNL     1     -49.070   7.958   5.423  1.00  0.00     0.024 A 
HETATM    8  S1  UNL     1     -50.573   8.566   4.909  1.00  0.00    -0.078 SA
HETATM    9  C4  UNL     1     -51.054   7.291   3.893  1.00  0.00     0.098 A 
HETATM   10 CL1  UNL     1     -52.553   7.159   2.952  1.00  0.00    -0.074 Cl
HETATM   11  C5  UNL     1     -50.013   6.408   3.981  1.00  0.00     0.085 A 
HETATM   12 CL2  UNL     1     -50.089   4.878   3.052  1.00  0.00    -0.080 Cl
HETATM   13  C6  UNL     1     -48.981   6.753   4.776  1.00  0.00     0.072 A 
HETATM   14 CL3  UNL     1     -47.545   5.704   4.998  1.00  0.00    -0.081 Cl
ENDBRANCH   6   7
ENDBRANCH   5   6
ENDBRANCH   3   5
BRANCH   2  15
HETATM   15  C7  UNL     1     -45.361  12.547   6.735  1.00  0.00     0.007 C 
HETATM   16  C8  UNL     1     -44.759  13.560   6.127  1.00  0.00    -0.014 C 
HETATM   17  C9  UNL     1     -44.328  14.704   6.945  1.00  0.00     0.028 C 
HETATM   18  C10 UNL     1     -43.682  14.277   8.242  1.00  0.00     0.004 C 
HETATM   19  C11 UNL     1     -44.420  13.209   8.956  1.00  0.00     0.005 C 
HETATM   20  C12 UNL     1     -45.567  12.614   8.173  1.00  0.00     0.044 C 
ENDBRANCH   2  15
TORSDOF 4
ENDMDL
MODEL 2
REMARK VINA RESULT: -7.305851827      0.571      1.126
REMARK  4 active torsions:
REMARK  status: ('A' for Active; 'I' for Inactive)
REMARK       I    between atoms: C1_2  and  N1_3 
REMARK    1  A    between atoms: C1_2  and  C7_15 
REMARK    2  A    between atoms: N1_3  and  N2_5 
REMARK    3  A    between atoms: N2_5  and  C2_6 
REMARK    4  A    between atoms: C2_6  and  C3_7 
ROOT
HETATM    1  O1  UNL     1     -44.905  10.606   4.918  1.00  0.00    -0.267 OA
HETATM    2  C1  UNL     1     -45.494  11.123   5.939  1.00  0.00     0.262 C 
HETATM    3  N1  UNL     1     -46.732  10.556   6.259  1.00  0.00    -0.270 N 
ATOM      4  H1  UNL     1     -47.240  10.931   7.059  1.00  0.00     0.185 HD
ENDROOT
BRANCH   3   5
HETATM    5  N2  UNL     1     -47.316   9.503   5.543  1.00  0.00    -0.133 NA
BRANCH   5   6
HETATM    6  C2  UNL     1     -48.281   8.854   6.409  1.00  0.00     0.183 C 
BRANCH   6   7
HETATM    7  C3  UNL     1     -49.248   8.167   5.474  1.00  0.00     0.024 A 
HETATM    8  S1  UNL     1     -50.763   8.696   4.908  1.00  0.00    -0.078 SA
HETATM    9  C4  UNL     1     -51.172   7.367   3.930  1.00  0.00     0.098 A 
HETATM   10 CL1  UNL     1     -52.644   7.142   2.965  1.00  0.00    -0.074 Cl
HETATM   11  C5  UNL     1     -50.099   6.529   4.071  1.00  0.00     0.085 A 
HETATM   12 CL2  UNL     1     -50.096   4.965   3.198  1.00  0.00    -0.080 Cl
HETATM   13  C6  UNL     1     -49.099   6.944   4.874  1.00  0.00     0.072 A 
HETATM   14 CL3  UNL     1     -47.628   5.961   5.163  1.00  0.00    -0.081 Cl
ENDBRANCH   6   7
ENDBRANCH   5   6
ENDBRANCH   3   5
BRANCH   2  15
HETATM   15  C7  UNL     1     -44.843  12.212   6.646  1.00  0.00     0.007 C 
HETATM   16  C8  UNL     1     -44.183  11.977   7.770  1.00  0.00    -0.014 C 
HETATM   17  C9  UNL     1     -43.542  13.113   8.450  1.00  0.00     0.028 C 
HETATM   18  C10 UNL     1     -44.424  14.339   8.485  1.00  0.00     0.004 C 
HETATM   19  C11 UNL     1     -45.081  14.641   7.191  1.00  0.00     0.005 C 
HETATM   20  C12 UNL     1     -44.903  13.573   6.137  1.00  0.00     0.044 C 
ENDBRANCH   2  15
TORSDOF 4
ENDMDL
MODEL 3
REMARK VINA RESULT: -7.265503373      3.688      5.130
REMARK  4 active torsions:
REMARK  status: ('A' for Active; 'I' for Inactive)
REMARK       I    between atoms: C1_2  and  N1_3 
REMARK    1  A    between atoms: C1_2  and  C7_15 
REMARK    2  A    between atoms: N1_3  and  N2_5 
REMARK    3  A    between atoms: N2_5  and  C2_6 
REMARK    4  A    between atoms: C2_6  and  C3_7 
ROOT
HETATM    1  O1  UNL     1     -45.591  15.027   8.476  1.00  0.00    -0.267 OA
HETATM    2  C1  UNL     1     -44.558  15.211   7.733  1.00  0.00     0.262 C 
HETATM    3  N1  UNL     1     -44.415  14.300   6.680  1.00  0.00    -0.270 N 
ATOM      4  H1  UNL     1     -43.610  14.403   6.062  1.00  0.00     0.185 HD
ENDROOT
BRANCH   3   5
HETATM    5  N2  UNL     1     -45.313  13.256   6.426  1.00  0.00    -0.133 NA
BRANCH   5   6
HETATM    6  C2  UNL     1     -44.714  12.025   6.902  1.00  0.00     0.183 C 
BRANCH   6   7
HETATM    7  C3  UNL     1     -45.855  11.039   6.985  1.00  0.00     0.024 A 
HETATM    8  S1  UNL     1     -46.337   9.848   5.870  1.00  0.00    -0.078 SA
HETATM    9  C4  UNL     1     -47.663   9.199   6.713  1.00  0.00     0.098 A 
HETATM   10 CL1  UNL     1     -48.731   7.877   6.204  1.00  0.00    -0.074 Cl
HETATM   11  C5  UNL     1     -47.697   9.940   7.863  1.00  0.00     0.085 A 
HETATM   12 CL2  UNL     1     -48.967   9.597   9.080  1.00  0.00    -0.080 Cl
HETATM   13  C6  UNL     1     -46.759  10.896   8.005  1.00  0.00     0.072 A 
HETATM   14 CL3  UNL     1     -46.672  11.950   9.452  1.00  0.00    -0.081 Cl
ENDBRANCH   6   7
ENDBRANCH   5   6
ENDBRANCH   3   5
BRANCH   2  15
HETATM   15  C7  UNL     1     -43.660  16.311   8.040  1.00  0.00     0.007 C 
HETATM   16  C8  UNL     1     -42.901  16.837   7.090  1.00  0.00    -0.014 C 
HETATM   17  C9  UNL     1     -42.007  17.949   7.451  1.00  0.00     0.028 C 
HETATM   18  C10 UNL     1     -41.298  17.717   8.765  1.00  0.00     0.004 C 
HETATM   19  C11 UNL     1     -42.184  17.218   9.843  1.00  0.00     0.005 C 
HETATM   20  C12 UNL     1     -43.577  16.852   9.387  1.00  0.00     0.044 C 
ENDBRANCH   2  15
TORSDOF 4
ENDMDL
MODEL 4
REMARK VINA RESULT: -7.250497484      1.240      1.844
REMARK  4 active torsions:
REMARK  status: ('A' for Active; 'I' for Inactive)
REMARK       I    between atoms: C1_2  and  N1_3 
REMARK    1  A    between atoms: C1_2  and  C7_15 
REMARK    2  A    between atoms: N1_3  and  N2_5 
REMARK    3  A    between atoms: N2_5  and  C2_6 
REMARK    4  A    between atoms: C2_6  and  C3_7 
ROOT
HETATM    1  O1  UNL     1     -45.138  11.132   4.829  1.00  0.00    -0.267 OA
HETATM    2  C1  UNL     1     -45.766  11.357   5.929  1.00  0.00     0.262 C 
HETATM    3  N1  UNL     1     -46.778  10.440   6.232  1.00  0.00    -0.270 N 
ATOM      4  H1  UNL     1     -47.306  10.574   7.093  1.00  0.00     0.185 HD
ENDROOT
BRANCH   3   5
HETATM    5  N2  UNL     1     -47.107   9.345   5.421  1.00  0.00    -0.133 NA
BRANCH   5   6
HETATM    6  C2  UNL     1     -47.758   8.353   6.252  1.00  0.00     0.183 C 
BRANCH   6   7
HETATM    7  C3  UNL     1     -48.591   7.528   5.300  1.00  0.00     0.024 A 
HETATM    8  S1  UNL     1     -48.248   6.019   4.593  1.00  0.00    -0.078 SA
HETATM    9  C4  UNL     1     -49.669   5.809   3.684  1.00  0.00     0.098 A 
HETATM   10 CL1  UNL     1     -50.095   4.442   2.637  1.00  0.00    -0.074 Cl
HETATM   11  C5  UNL     1     -50.389   6.939   3.960  1.00  0.00     0.085 A 
HETATM   12 CL2  UNL     1     -51.997   7.153   3.199  1.00  0.00    -0.080 Cl
HETATM   13  C6  UNL     1     -49.830   7.833   4.798  1.00  0.00     0.072 A 
HETATM   14 CL3  UNL     1     -50.645   9.363   5.256  1.00  0.00    -0.081 Cl
ENDBRANCH   6   7
ENDBRANCH   5   6
ENDBRANCH   3   5
BRANCH   2  15
HETATM   15  C7  UNL     1     -45.383  12.505   6.732  1.00  0.00     0.007 C 
HETATM   16  C8  UNL     1     -44.815  13.558   6.163  1.00  0.00    -0.014 C 
HETATM   17  C9  UNL     1     -44.445  14.696   7.019  1.00  0.00     0.028 C 
HETATM   18  C10 UNL     1     -43.801  14.259   8.314  1.00  0.00     0.004 C 
HETATM   19  C11 UNL     1     -44.505  13.141   8.985  1.00  0.00     0.005 C 
HETATM   20  C12 UNL     1     -45.614  12.521   8.168  1.00  0.00     0.044 C 
ENDBRANCH   2  15
TORSDOF 4
ENDMDL
MODEL 5
REMARK VINA RESULT: -7.205479075      2.691      3.644
REMARK  4 active torsions:
REMARK  status: ('A' for Active; 'I' for Inactive)
REMARK       I    between atoms: C1_2  and  N1_3 
REMARK    1  A    between atoms: C1_2  and  C7_15 
REMARK    2  A    between atoms: N1_3  and  N2_5 
REMARK    3  A    between atoms: N2_5  and  C2_6 
REMARK    4  A    between atoms: C2_6  and  C3_7 
ROOT
HETATM    1  O1  UNL     1     -44.746  13.103   5.786  1.00  0.00    -0.267 OA
HETATM    2  C1  UNL     1     -45.089  13.496   6.962  1.00  0.00     0.262 C 
HETATM    3  N1  UNL     1     -45.877  12.592   7.683  1.00  0.00    -0.270 N 
ATOM      4  H1  UNL     1     -46.176  12.857   8.621  1.00  0.00     0.185 HD
ENDROOT
BRANCH   3   5
HETATM    5  N2  UNL     1     -46.277  11.343   7.191  1.00  0.00    -0.133 NA
BRANCH   5   6
HETATM    6  C2  UNL     1     -47.048  10.682   8.225  1.00  0.00     0.183 C 
BRANCH   6   7
HETATM    7  C3  UNL     1     -47.260   9.274   7.719  1.00  0.00     0.024 A 
HETATM    8  S1  UNL     1     -46.109   8.097   7.288  1.00  0.00    -0.078 SA
HETATM    9  C4  UNL     1     -47.158   6.835   6.843  1.00  0.00     0.098 A 
HETATM   10 CL1  UNL     1     -46.722   5.217   6.259  1.00  0.00    -0.074 Cl
HETATM   11  C5  UNL     1     -48.400   7.372   7.045  1.00  0.00     0.085 A 
HETATM   12 CL2  UNL     1     -49.846   6.373   6.696  1.00  0.00    -0.080 Cl
HETATM   13  C6  UNL     1     -48.454   8.639   7.500  1.00  0.00     0.072 A 
HETATM   14 CL3  UNL     1     -50.004   9.483   7.813  1.00  0.00    -0.081 Cl
ENDBRANCH   6   7
ENDBRANCH   5   6
ENDBRANCH   3   5
BRANCH   2  15
HETATM   15  C7  UNL     1     -44.645  14.800   7.423  1.00  0.00     0.007 C 
HETATM   16  C8  UNL     1     -43.619  15.400   6.836  1.00  0.00    -0.014 C 
HETATM   17  C9  UNL     1     -43.207  16.720   7.339  1.00  0.00     0.028 C 
HETATM   18  C10 UNL     1     -43.193  16.785   8.849  1.00  0.00     0.004 C 
HETATM   19  C11 UNL     1     -44.393  16.192   9.484  1.00  0.00     0.005 C 
HETATM   20  C12 UNL     1     -45.311  15.468   8.529  1.00  0.00     0.044 C 
ENDBRANCH   2  15
TORSDOF 4
ENDMDL
