MODEL 1
REMARK VINA RESULT: -8.687155978      0.000      0.000
REMARK  16 active torsions:
REMARK  status: ('A' for Active; 'I' for Inactive)
REMARK    1  A    between atoms: C2_2  and  C3_3 
REMARK    2  A    between atoms: C3_3  and  N1_4 
REMARK    3  A    between atoms: C4_9  and  N4_10 
REMARK    4  A    between atoms: N4_10  and  C5_12 
REMARK    5  A    between atoms: C7_16  and  C8_17 
REMARK    6  A    between atoms: C8_17  and  O1_18 
REMARK    7  A    between atoms: C8_17  and  O2_20 
REMARK    8  A    between atoms: C12_27  and  O5_28 
REMARK    9  A    between atoms: C13_30  and  N6_31 
REMARK   10  A    between atoms: N6_31  and  N7_33 
REMARK   11  A    between atoms: N7_33  and  C14_35 
REMARK   12  A    between atoms: C15_40  and  N10_41 
REMARK   13  A    between atoms: N12_46  and  O6_47 
REMARK   14  A    between atoms: N13_49  and  O7_50 
REMARK   15  A    between atoms: C16_52  and  C17_53 
REMARK   16  A    between atoms: C17_53  and  O9_55 
ROOT
HETATM    1  C5  UNL     1       0.590  17.997  71.381  1.00  0.00     0.184 C 
HETATM    2  C6  UNL     1      -0.618  18.751  71.378  1.00  0.00     0.099 A 
HETATM    3  N5  UNL     1      -1.497  18.320  72.294  1.00  0.00    -0.348 N 
ATOM      4  H5  UNL     1      -1.252  17.531  72.892  1.00  0.00     0.166 HD
HETATM    5  C7  UNL     1      -2.703  18.916  72.440  1.00  0.00     0.119 A 
HETATM    6  C9  UNL     1      -3.062  19.986  71.647  1.00  0.00     0.250 A 
HETATM    7  O3  UNL     1      -4.193  20.503  71.821  1.00  0.00    -0.282 OA
HETATM    8  C10 UNL     1      -2.160  20.425  70.711  1.00  0.00     0.239 A 
HETATM    9  O4  UNL     1      -2.458  21.390  69.980  1.00  0.00    -0.283 OA
HETATM   10  C11 UNL     1      -0.945  19.781  70.607  1.00  0.00     0.086 A 
HETATM   11  C12 UNL     1      -0.124  20.331  69.624  1.00  0.00     0.132 C 
HETATM   12  C13 UNL     1       1.078  19.862  69.075  1.00  0.00     0.203 C 
HETATM   13  N12 UNL     1       1.767  18.730  69.395  1.00  0.00    -0.114 N 
HETATM   14  N13 UNL     1       1.350  17.838  70.276  1.00  0.00    -0.115 N 
ENDROOT
BRANCH   1  15
HETATM   15  N4  UNL     1       0.908  17.377  72.588  1.00  0.00    -0.320 N 
ATOM     16  H4  UNL     1       0.312  16.606  72.891  1.00  0.00     0.169 HD
BRANCH  15  17
HETATM   17  C4  UNL     1       1.981  17.729  73.418  1.00  0.00     0.158 A 
HETATM   18  N3  UNL     1       2.842  16.987  74.100  1.00  0.00    -0.269 N 
HETATM   19  N2  UNL     1       3.717  17.719  74.692  1.00  0.00    -0.238 N 
ATOM     20  H3  UNL     1       2.814  15.968  74.149  1.00  0.00     0.190 HD
HETATM   21  N1  UNL     1       3.494  19.028  74.442  1.00  0.00    -0.265 N 
ATOM     22  H2  UNL     1       4.475  17.360  75.271  1.00  0.00     0.208 HD
HETATM   23  C16 UNL     1       2.418  19.061  73.649  1.00  0.00     0.173 A 
BRANCH  21  24
HETATM   24  C3  UNL     1       4.357  19.999  75.042  1.00  0.00     0.177 C 
BRANCH  24  25
HETATM   25  C2  UNL     1       3.698  20.959  75.931  1.00  0.00    -0.015 C 
HETATM   26  C1  UNL     1       3.688  22.246  75.673  1.00  0.00     0.008 C 
ENDBRANCH  24  25
ENDBRANCH  21  24
BRANCH  23  27
HETATM   27  C17 UNL     1       1.835  20.271  73.137  1.00  0.00     0.315 C 
HETATM   28  O8  UNL     1       2.225  20.881  72.089  1.00  0.00    -0.257 OA
BRANCH  27  29
HETATM   29  O9  UNL     1       0.772  20.875  73.777  1.00  0.00    -0.321 OA
HETATM   30  C18 UNL     1       0.137  22.048  73.305  1.00  0.00     0.213 C 
ENDBRANCH  27  29
ENDBRANCH  23  27
ENDBRANCH  15  17
ENDBRANCH   1  15
BRANCH  14  31
HETATM   31  O7  UNL     1       1.739  16.546  69.989  1.00  0.00    -0.264 OA
ATOM     32  H7  UNL     1       1.194  16.073  69.370  1.00  0.00     0.247 HD
ENDBRANCH  14  31
BRANCH  13  33
HETATM   33  O6  UNL     1       2.957  18.516  68.755  1.00  0.00    -0.264 OA
ATOM     34  H6  UNL     1       3.187  17.617  68.550  1.00  0.00     0.247 HD
ENDBRANCH  13  33
BRANCH   5  35
HETATM   35  C8  UNL     1      -3.669  18.421  73.465  1.00  0.00     0.309 C 
BRANCH  35  36
HETATM   36  O1  UNL     1      -3.407  19.178  74.628  1.00  0.00    -0.366 OA
ATOM     37  H1  UNL     1      -4.233  19.591  74.854  1.00  0.00     0.213 HD
ENDBRANCH  35  36
BRANCH  35  38
HETATM   38  O2  UNL     1      -3.419  17.104  73.775  1.00  0.00    -0.366 OA
ATOM     39  H2  UNL     1      -4.162  16.717  74.222  1.00  0.00     0.213 HD
ENDBRANCH  35  38
ENDBRANCH   5  35
BRANCH  11  40
HETATM   40  O5  UNL     1      -0.605  21.535  69.133  1.00  0.00    -0.356 OA
ATOM     41  H5  UNL     1      -1.548  21.536  69.019  1.00  0.00     0.218 HD
ENDBRANCH  11  40
BRANCH  12  42
HETATM   42  N6  UNL     1       1.668  20.646  68.057  1.00  0.00    -0.266 N 
ATOM     43  H6  UNL     1       1.496  20.366  67.092  1.00  0.00     0.189 HD
BRANCH  42  44
HETATM   44  N7  UNL     1       2.458  21.762  68.262  1.00  0.00    -0.128 N 
ATOM     45  H7  UNL     1       3.066  21.833  69.079  1.00  0.00     0.205 HD
BRANCH  44  46
HETATM   46  C14 UNL     1       2.403  22.724  67.378  1.00  0.00     0.726 A 
HETATM   47  N8  UNL     1       2.929  23.960  67.454  1.00  0.00    -0.116 N 
HETATM   48  N9  UNL     1       2.656  24.640  66.352  1.00  0.00    -0.117 N 
ATOM     49  H8  UNL     1       3.461  24.320  68.245  1.00  0.00     0.206 HD
HETATM   50  C15 UNL     1       1.941  23.842  65.545  1.00  0.00     0.705 A 
ATOM     51  H9  UNL     1       2.938  25.600  66.153  1.00  0.00     0.206 HD
HETATM   52  N11 UNL     1       1.779  22.660  66.167  1.00  0.00    -0.019 N 
ATOM     53  H11 UNL     1       1.277  21.854  65.796  1.00  0.00     0.203 HD
BRANCH  50  54
HETATM   54  N10 UNL     1       1.473  24.117  64.376  1.00  0.00    -0.233 N 
ATOM     55 2H10 UNL     1       1.778  24.907  63.807  1.00  0.00     0.174 HD
ATOM     56 1H10 UNL     1       0.754  23.612  63.856  1.00  0.00     0.174 HD
ENDBRANCH  50  54
ENDBRANCH  44  46
ENDBRANCH  42  44
ENDBRANCH  12  42
TORSDOF 16
ENDMDL
MODEL 2
REMARK VINA RESULT: -8.604239003      3.952      7.198
REMARK  16 active torsions:
REMARK  status: ('A' for Active; 'I' for Inactive)
REMARK    1  A    between atoms: C2_2  and  C3_3 
REMARK    2  A    between atoms: C3_3  and  N1_4 
REMARK    3  A    between atoms: C4_9  and  N4_10 
REMARK    4  A    between atoms: N4_10  and  C5_12 
REMARK    5  A    between atoms: C7_16  and  C8_17 
REMARK    6  A    between atoms: C8_17  and  O1_18 
REMARK    7  A    between atoms: C8_17  and  O2_20 
REMARK    8  A    between atoms: C12_27  and  O5_28 
REMARK    9  A    between atoms: C13_30  and  N6_31 
REMARK   10  A    between atoms: N6_31  and  N7_33 
REMARK   11  A    between atoms: N7_33  and  C14_35 
REMARK   12  A    between atoms: C15_40  and  N10_41 
REMARK   13  A    between atoms: N12_46  and  O6_47 
REMARK   14  A    between atoms: N13_49  and  O7_50 
REMARK   15  A    between atoms: C16_52  and  C17_53 
REMARK   16  A    between atoms: C17_53  and  O9_55 
ROOT
HETATM    1  C5  UNL     1       0.049  20.892  72.415  1.00  0.00     0.184 C 
HETATM    2  C6  UNL     1       1.088  20.159  73.055  1.00  0.00     0.099 A 
HETATM    3  N5  UNL     1       1.056  18.852  72.756  1.00  0.00    -0.348 N 
ATOM      4  H5  UNL     1       0.333  18.498  72.131  1.00  0.00     0.166 HD
HETATM    5  C7  UNL     1       1.968  17.995  73.271  1.00  0.00     0.119 A 
HETATM    6  C9  UNL     1       2.958  18.445  74.120  1.00  0.00     0.250 A 
HETATM    7  O3  UNL     1       3.780  17.610  74.571  1.00  0.00    -0.282 OA
HETATM    8  C10 UNL     1       2.988  19.783  74.422  1.00  0.00     0.239 A 
HETATM    9  O4  UNL     1       3.873  20.217  75.187  1.00  0.00    -0.283 OA
HETATM   10  C11 UNL     1       2.035  20.611  73.868  1.00  0.00     0.086 A 
HETATM   11  C12 UNL     1       2.185  21.942  74.252  1.00  0.00     0.132 C 
HETATM   12  C13 UNL     1       1.332  23.041  74.079  1.00  0.00     0.203 C 
HETATM   13  N12 UNL     1       0.122  23.079  73.453  1.00  0.00    -0.114 N 
HETATM   14  N13 UNL     1      -0.478  22.018  72.943  1.00  0.00    -0.115 N 
ENDROOT
BRANCH   1  15
HETATM   15  N4  UNL     1      -0.438  20.337  71.233  1.00  0.00    -0.320 N 
ATOM     16  H4  UNL     1      -1.110  19.573  71.315  1.00  0.00     0.169 HD
BRANCH  15  17
HETATM   17  C4  UNL     1      -0.078  20.745  69.941  1.00  0.00     0.158 A 
HETATM   18  N3  UNL     1      -0.302  21.874  69.284  1.00  0.00    -0.269 N 
HETATM   19  N2  UNL     1       0.260  21.857  68.129  1.00  0.00    -0.238 N 
ATOM     20  H3  UNL     1      -0.848  22.656  69.648  1.00  0.00     0.190 HD
HETATM   21  N1  UNL     1       0.910  20.689  67.930  1.00  0.00    -0.265 N 
ATOM     22  H2  UNL     1       0.220  22.620  67.454  1.00  0.00     0.208 HD
HETATM   23  C16 UNL     1       0.715  19.979  69.047  1.00  0.00     0.173 A 
BRANCH  21  24
HETATM   24  C3  UNL     1       1.576  20.477  66.682  1.00  0.00     0.177 C 
BRANCH  24  25
HETATM   25  C2  UNL     1       0.992  21.174  65.533  1.00  0.00    -0.015 C 
HETATM   26  C1  UNL     1       1.712  21.950  64.757  1.00  0.00     0.008 C 
ENDBRANCH  24  25
ENDBRANCH  21  24
BRANCH  23  27
HETATM   27  C17 UNL     1       1.243  18.659  69.260  1.00  0.00     0.315 C 
HETATM   28  O8  UNL     1       2.423  18.404  69.666  1.00  0.00    -0.257 OA
BRANCH  27  29
HETATM   29  O9  UNL     1       0.474  17.538  69.027  1.00  0.00    -0.321 OA
HETATM   30  C18 UNL     1      -0.585  17.125  69.869  1.00  0.00     0.213 C 
ENDBRANCH  27  29
ENDBRANCH  23  27
ENDBRANCH  15  17
ENDBRANCH   1  15
BRANCH  14  31
HETATM   31  O7  UNL     1      -1.856  22.077  72.994  1.00  0.00    -0.264 OA
ATOM     32  H7  UNL     1      -2.268  22.716  72.425  1.00  0.00     0.247 HD
ENDBRANCH  14  31
BRANCH  13  33
HETATM   33  O6  UNL     1      -0.500  24.294  73.360  1.00  0.00    -0.264 OA
ATOM     34  H6  UNL     1      -1.022  24.460  72.583  1.00  0.00     0.247 HD
ENDBRANCH  13  33
BRANCH   5  35
HETATM   35  C8  UNL     1       1.915  16.543  72.929  1.00  0.00     0.309 C 
BRANCH  35  36
HETATM   36  O1  UNL     1       2.219  16.468  71.551  1.00  0.00    -0.366 OA
ATOM     37  H1  UNL     1       2.610  15.612  71.423  1.00  0.00     0.213 HD
ENDBRANCH  35  36
BRANCH  35  38
HETATM   38  O2  UNL     1       0.641  16.050  73.089  1.00  0.00    -0.366 OA
ATOM     39  H2  UNL     1       0.102  16.260  72.336  1.00  0.00     0.213 HD
ENDBRANCH  35  38
ENDBRANCH   5  35
BRANCH  11  40
HETATM   40  O5  UNL     1       3.383  22.181  74.909  1.00  0.00    -0.356 OA
ATOM     41  H5  UNL     1       3.273  22.694  75.701  1.00  0.00     0.218 HD
ENDBRANCH  11  40
BRANCH  12  42
HETATM   42  N6  UNL     1       1.762  24.278  74.613  1.00  0.00    -0.266 N 
ATOM     43  H6  UNL     1       2.637  24.662  74.256  1.00  0.00     0.189 HD
BRANCH  42  44
HETATM   44  N7  UNL     1       1.094  25.009  75.577  1.00  0.00    -0.128 N 
ATOM     45  H7  UNL     1       0.608  24.546  76.345  1.00  0.00     0.205 HD
BRANCH  44  46
HETATM   46  C14 UNL     1       1.105  26.313  75.476  1.00  0.00     0.726 A 
HETATM   47  N8  UNL     1       1.124  27.228  76.461  1.00  0.00    -0.116 N 
HETATM   48  N9  UNL     1       1.130  28.449  75.951  1.00  0.00    -0.117 N 
ATOM     49  H8  UNL     1       1.133  27.012  77.458  1.00  0.00     0.206 HD
HETATM   50  C15 UNL     1       1.113  28.333  74.614  1.00  0.00     0.705 A 
ATOM     51  H9  UNL     1       1.145  29.321  76.479  1.00  0.00     0.206 HD
HETATM   52  N11 UNL     1       1.097  27.023  74.311  1.00  0.00    -0.019 N 
ATOM     53  H11 UNL     1       1.082  26.628  73.370  1.00  0.00     0.203 HD
BRANCH  50  54
HETATM   54  N10 UNL     1       1.111  29.281  73.740  1.00  0.00    -0.233 N 
ATOM     55 2H10 UNL     1       0.319  29.503  73.136  1.00  0.00     0.174 HD
ATOM     56 1H10 UNL     1       1.866  29.931  73.522  1.00  0.00     0.174 HD
ENDBRANCH  50  54
ENDBRANCH  44  46
ENDBRANCH  42  44
ENDBRANCH  12  42
TORSDOF 16
ENDMDL
MODEL 3
REMARK VINA RESULT: -8.543984822      2.921      7.161
REMARK  16 active torsions:
REMARK  status: ('A' for Active; 'I' for Inactive)
REMARK    1  A    between atoms: C2_2  and  C3_3 
REMARK    2  A    between atoms: C3_3  and  N1_4 
REMARK    3  A    between atoms: C4_9  and  N4_10 
REMARK    4  A    between atoms: N4_10  and  C5_12 
REMARK    5  A    between atoms: C7_16  and  C8_17 
REMARK    6  A    between atoms: C8_17  and  O1_18 
REMARK    7  A    between atoms: C8_17  and  O2_20 
REMARK    8  A    between atoms: C12_27  and  O5_28 
REMARK    9  A    between atoms: C13_30  and  N6_31 
REMARK   10  A    between atoms: N6_31  and  N7_33 
REMARK   11  A    between atoms: N7_33  and  C14_35 
REMARK   12  A    between atoms: C15_40  and  N10_41 
REMARK   13  A    between atoms: N12_46  and  O6_47 
REMARK   14  A    between atoms: N13_49  and  O7_50 
REMARK   15  A    between atoms: C16_52  and  C17_53 
REMARK   16  A    between atoms: C17_53  and  O9_55 
ROOT
HETATM    1  C5  UNL     1       1.525  19.991  71.493  1.00  0.00     0.184 C 
HETATM    2  C6  UNL     1       2.095  19.751  72.776  1.00  0.00     0.099 A 
HETATM    3  N5  UNL     1       2.382  20.884  73.432  1.00  0.00    -0.348 N 
ATOM      4  H5  UNL     1       2.184  21.783  72.992  1.00  0.00     0.166 HD
HETATM    5  C7  UNL     1       2.931  20.856  74.669  1.00  0.00     0.119 A 
HETATM    6  C9  UNL     1       3.210  19.656  75.290  1.00  0.00     0.250 A 
HETATM    7  O3  UNL     1       3.719  19.684  76.437  1.00  0.00    -0.282 OA
HETATM    8  C10 UNL     1       2.913  18.498  74.615  1.00  0.00     0.239 A 
HETATM    9  O4  UNL     1       3.155  17.399  75.152  1.00  0.00    -0.283 OA
HETATM   10  C11 UNL     1       2.354  18.587  73.358  1.00  0.00     0.086 A 
HETATM   11  C12 UNL     1       2.099  17.339  72.791  1.00  0.00     0.132 C 
HETATM   12  C13 UNL     1       1.731  16.992  71.484  1.00  0.00     0.203 C 
HETATM   13  N12 UNL     1       1.507  17.818  70.423  1.00  0.00    -0.114 N 
HETATM   14  N13 UNL     1       1.666  19.130  70.462  1.00  0.00    -0.115 N 
ENDROOT
BRANCH   1  15
HETATM   15  N4  UNL     1       0.861  21.207  71.350  1.00  0.00    -0.320 N 
ATOM     16  H4  UNL     1       1.340  22.046  71.680  1.00  0.00     0.169 HD
BRANCH  15  17
HETATM   17  C4  UNL     1      -0.413  21.371  70.787  1.00  0.00     0.158 A 
HETATM   18  N3  UNL     1      -0.819  22.034  69.713  1.00  0.00    -0.269 N 
HETATM   19  N2  UNL     1      -2.078  21.874  69.519  1.00  0.00    -0.238 N 
ATOM     20  H3  UNL     1      -0.211  22.599  69.119  1.00  0.00     0.190 HD
HETATM   21  N1  UNL     1      -2.612  21.076  70.470  1.00  0.00    -0.265 N 
ATOM     22  H2  UNL     1      -2.603  22.291  68.751  1.00  0.00     0.208 HD
HETATM   23  C16 UNL     1      -1.593  20.748  71.272  1.00  0.00     0.173 A 
BRANCH  21  24
HETATM   24  C3  UNL     1      -4.016  20.804  70.431  1.00  0.00     0.177 C 
BRANCH  24  25
HETATM   25  C2  UNL     1      -4.378  19.396  70.249  1.00  0.00    -0.015 C 
HETATM   26  C1  UNL     1      -5.085  18.743  71.141  1.00  0.00     0.008 C 
ENDBRANCH  24  25
ENDBRANCH  21  24
BRANCH  23  27
HETATM   27  C17 UNL     1      -1.721  19.900  72.426  1.00  0.00     0.315 C 
HETATM   28  O8  UNL     1      -1.526  18.641  72.429  1.00  0.00    -0.257 OA
BRANCH  27  29
HETATM   29  O9  UNL     1      -2.080  20.417  73.653  1.00  0.00    -0.321 OA
HETATM   30  C18 UNL     1      -3.412  20.454  74.129  1.00  0.00     0.213 C 
ENDBRANCH  27  29
ENDBRANCH  23  27
ENDBRANCH  15  17
ENDBRANCH   1  15
BRANCH  14  31
HETATM   31  O7  UNL     1       2.066  19.680  69.263  1.00  0.00    -0.264 OA
ATOM     32  H7  UNL     1       1.515  19.493  68.512  1.00  0.00     0.247 HD
ENDBRANCH  14  31
BRANCH  13  33
HETATM   33  O6  UNL     1       1.097  17.241  69.252  1.00  0.00    -0.264 OA
ATOM     34  H6  UNL     1       0.327  17.605  68.831  1.00  0.00     0.247 HD
ENDBRANCH  13  33
BRANCH   5  35
HETATM   35  C8  UNL     1       3.245  22.128  75.383  1.00  0.00     0.309 C 
BRANCH  35  36
HETATM   36  O1  UNL     1       4.634  22.086  75.639  1.00  0.00    -0.366 OA
ATOM     37  H1  UNL     1       5.050  22.330  74.820  1.00  0.00     0.213 HD
ENDBRANCH  35  36
BRANCH  35  38
HETATM   38  O2  UNL     1       2.611  22.172  76.603  1.00  0.00    -0.366 OA
ATOM     39  H2  UNL     1       3.043  22.786  77.186  1.00  0.00     0.213 HD
ENDBRANCH  35  38
ENDBRANCH   5  35
BRANCH  11  40
HETATM   40  O5  UNL     1       2.241  16.298  73.696  1.00  0.00    -0.356 OA
ATOM     41  H5  UNL     1       2.886  16.480  74.368  1.00  0.00     0.218 HD
ENDBRANCH  11  40
BRANCH  12  42
HETATM   42  N6  UNL     1       1.568  15.615  71.207  1.00  0.00    -0.266 N 
ATOM     43  H6  UNL     1       2.237  15.184  70.570  1.00  0.00     0.189 HD
BRANCH  42  44
HETATM   44  N7  UNL     1       0.576  14.805  71.728  1.00  0.00    -0.128 N 
ATOM     45  H7  UNL     1       0.806  13.933  72.205  1.00  0.00     0.205 HD
BRANCH  44  46
HETATM   46  C14 UNL     1      -0.666  15.191  71.591  1.00  0.00     0.726 A 
HETATM   47  N8  UNL     1      -1.513  15.635  72.537  1.00  0.00    -0.116 N 
HETATM   48  N9  UNL     1      -2.686  15.927  71.999  1.00  0.00    -0.117 N 
ATOM     49  H8  UNL     1      -1.284  15.732  73.526  1.00  0.00     0.206 HD
HETATM   50  C15 UNL     1      -2.608  15.671  70.684  1.00  0.00     0.705 A 
ATOM     51  H9  UNL     1      -3.503  16.284  72.494  1.00  0.00     0.206 HD
HETATM   52  N11 UNL     1      -1.369  15.217  70.422  1.00  0.00    -0.019 N 
ATOM     53  H11 UNL     1      -1.016  14.939  69.506  1.00  0.00     0.203 HD
BRANCH  50  54
HETATM   54  N10 UNL     1      -3.530  15.818  69.795  1.00  0.00    -0.233 N 
ATOM     55 2H10 UNL     1      -3.943  16.716  69.539  1.00  0.00     0.174 HD
ATOM     56 1H10 UNL     1      -3.975  15.094  69.231  1.00  0.00     0.174 HD
ENDBRANCH  50  54
ENDBRANCH  44  46
ENDBRANCH  42  44
ENDBRANCH  12  42
TORSDOF 16
ENDMDL
MODEL 4
REMARK VINA RESULT: -8.476140986      2.902      7.341
REMARK  16 active torsions:
REMARK  status: ('A' for Active; 'I' for Inactive)
REMARK    1  A    between atoms: C2_2  and  C3_3 
REMARK    2  A    between atoms: C3_3  and  N1_4 
REMARK    3  A    between atoms: C4_9  and  N4_10 
REMARK    4  A    between atoms: N4_10  and  C5_12 
REMARK    5  A    between atoms: C7_16  and  C8_17 
REMARK    6  A    between atoms: C8_17  and  O1_18 
REMARK    7  A    between atoms: C8_17  and  O2_20 
REMARK    8  A    between atoms: C12_27  and  O5_28 
REMARK    9  A    between atoms: C13_30  and  N6_31 
REMARK   10  A    between atoms: N6_31  and  N7_33 
REMARK   11  A    between atoms: N7_33  and  C14_35 
REMARK   12  A    between atoms: C15_40  and  N10_41 
REMARK   13  A    between atoms: N12_46  and  O6_47 
REMARK   14  A    between atoms: N13_49  and  O7_50 
REMARK   15  A    between atoms: C16_52  and  C17_53 
REMARK   16  A    between atoms: C17_53  and  O9_55 
ROOT
HETATM    1  C5  UNL     1      -0.070  20.223  71.305  1.00  0.00     0.184 C 
HETATM    2  C6  UNL     1       0.294  18.902  71.692  1.00  0.00     0.099 A 
HETATM    3  N5  UNL     1      -0.361  17.962  70.997  1.00  0.00    -0.348 N 
ATOM      4  H5  UNL     1      -1.034  18.244  70.283  1.00  0.00     0.166 HD
HETATM    5  C7  UNL     1      -0.145  16.646  71.225  1.00  0.00     0.119 A 
HETATM    6  C9  UNL     1       0.759  16.235  72.182  1.00  0.00     0.250 A 
HETATM    7  O3  UNL     1       0.923  15.002  72.356  1.00  0.00    -0.282 OA
HETATM    8  C10 UNL     1       1.429  17.200  72.892  1.00  0.00     0.239 A 
HETATM    9  O4  UNL     1       2.252  16.857  73.764  1.00  0.00    -0.283 OA
HETATM   10  C11 UNL     1       1.170  18.526  72.616  1.00  0.00     0.086 A 
HETATM   11  C12 UNL     1       1.921  19.398  73.402  1.00  0.00     0.132 C 
HETATM   12  C13 UNL     1       1.818  20.785  73.575  1.00  0.00     0.203 C 
HETATM   13  N12 UNL     1       0.945  21.647  72.981  1.00  0.00    -0.114 N 
HETATM   14  N13 UNL     1      -0.016  21.271  72.156  1.00  0.00    -0.115 N 
ENDROOT
BRANCH   1  15
HETATM   15  N4  UNL     1      -0.549  20.357  70.004  1.00  0.00    -0.320 N 
ATOM     16  H4  UNL     1      -1.367  19.804  69.745  1.00  0.00     0.169 HD
BRANCH  15  17
HETATM   17  C4  UNL     1       0.004  21.191  69.021  1.00  0.00     0.158 A 
HETATM   18  N3  UNL     1      -0.127  22.491  68.799  1.00  0.00    -0.269 N 
HETATM   19  N2  UNL     1       0.608  22.870  67.817  1.00  0.00    -0.238 N 
ATOM     20  H3  UNL     1      -0.733  23.110  69.338  1.00  0.00     0.190 HD
HETATM   21  N1  UNL     1       1.295  21.825  67.303  1.00  0.00    -0.265 N 
ATOM     22  H2  UNL     1       0.666  23.827  67.472  1.00  0.00     0.208 HD
HETATM   23  C16 UNL     1       0.936  20.767  68.038  1.00  0.00     0.173 A 
BRANCH  21  24
HETATM   24  C3  UNL     1       2.152  22.052  66.179  1.00  0.00     0.177 C 
BRANCH  24  25
HETATM   25  C2  UNL     1       1.467  22.364  64.922  1.00  0.00    -0.015 C 
HETATM   26  C1  UNL     1       1.567  23.544  64.355  1.00  0.00     0.008 C 
ENDBRANCH  24  25
ENDBRANCH  21  24
BRANCH  23  27
HETATM   27  C17 UNL     1       1.440  19.437  67.828  1.00  0.00     0.315 C 
HETATM   28  O8  UNL     1       1.414  18.815  66.717  1.00  0.00    -0.257 OA
BRANCH  27  29
HETATM   29  O9  UNL     1       2.006  18.719  68.861  1.00  0.00    -0.321 OA
HETATM   30  C18 UNL     1       3.124  19.164  69.605  1.00  0.00     0.213 C 
ENDBRANCH  27  29
ENDBRANCH  23  27
ENDBRANCH  15  17
ENDBRANCH   1  15
BRANCH  14  31
HETATM   31  O7  UNL     1      -1.141  22.068  72.208  1.00  0.00    -0.264 OA
ATOM     32  H7  UNL     1      -1.337  22.459  73.051  1.00  0.00     0.247 HD
ENDBRANCH  14  31
BRANCH  13  33
HETATM   33  O6  UNL     1       1.080  22.978  73.269  1.00  0.00    -0.264 OA
ATOM     34  H6  UNL     1       0.340  23.544  73.080  1.00  0.00     0.247 HD
ENDBRANCH  13  33
BRANCH   5  35
HETATM   35  C8  UNL     1      -0.886  15.614  70.441  1.00  0.00     0.309 C 
BRANCH  35  36
HETATM   36  O1  UNL     1      -1.876  16.321  69.724  1.00  0.00    -0.366 OA
ATOM     37  H1  UNL     1      -2.491  16.631  70.378  1.00  0.00     0.213 HD
ENDBRANCH  35  36
BRANCH  35  38
HETATM   38  O2  UNL     1      -1.540  14.741  71.279  1.00  0.00    -0.366 OA
ATOM     39  H2  UNL     1      -1.723  13.921  70.836  1.00  0.00     0.213 HD
ENDBRANCH  35  38
ENDBRANCH   5  35
BRANCH  11  40
HETATM   40  O5  UNL     1       2.922  18.754  74.114  1.00  0.00    -0.356 OA
ATOM     41  H5  UNL     1       3.529  18.285  73.553  1.00  0.00     0.218 HD
ENDBRANCH  11  40
BRANCH  12  42
HETATM   42  N6  UNL     1       2.725  21.389  74.477  1.00  0.00    -0.266 N 
ATOM     43  H6  UNL     1       3.499  21.919  74.076  1.00  0.00     0.189 HD
BRANCH  42  44
HETATM   44  N7  UNL     1       2.648  21.322  75.856  1.00  0.00    -0.128 N 
ATOM     45  H7  UNL     1       2.681  20.425  76.341  1.00  0.00     0.205 HD
BRANCH  44  46
HETATM   46  C14 UNL     1       2.534  22.443  76.519  1.00  0.00     0.726 A 
HETATM   47  N8  UNL     1       1.613  23.412  76.370  1.00  0.00    -0.116 N 
HETATM   48  N9  UNL     1       1.835  24.389  77.233  1.00  0.00    -0.117 N 
ATOM     49  H8  UNL     1       0.853  23.395  75.690  1.00  0.00     0.206 HD
HETATM   50  C15 UNL     1       2.915  24.058  77.956  1.00  0.00     0.705 A 
ATOM     51  H9  UNL     1       1.283  25.242  77.331  1.00  0.00     0.206 HD
HETATM   52  N11 UNL     1       3.354  22.862  77.525  1.00  0.00    -0.019 N 
ATOM     53  H11 UNL     1       4.161  22.356  77.889  1.00  0.00     0.203 HD
BRANCH  50  54
HETATM   54  N10 UNL     1       3.468  24.736  78.904  1.00  0.00    -0.233 N 
ATOM     55 2H10 UNL     1       4.154  25.476  78.755  1.00  0.00     0.174 HD
ATOM     56 1H10 UNL     1       3.316  24.644  79.909  1.00  0.00     0.174 HD
ENDBRANCH  50  54
ENDBRANCH  44  46
ENDBRANCH  42  44
ENDBRANCH  12  42
TORSDOF 16
ENDMDL
MODEL 5
REMARK VINA RESULT: -8.431247500      2.975      7.048
REMARK  16 active torsions:
REMARK  status: ('A' for Active; 'I' for Inactive)
REMARK    1  A    between atoms: C2_2  and  C3_3 
REMARK    2  A    between atoms: C3_3  and  N1_4 
REMARK    3  A    between atoms: C4_9  and  N4_10 
REMARK    4  A    between atoms: N4_10  and  C5_12 
REMARK    5  A    between atoms: C7_16  and  C8_17 
REMARK    6  A    between atoms: C8_17  and  O1_18 
REMARK    7  A    between atoms: C8_17  and  O2_20 
REMARK    8  A    between atoms: C12_27  and  O5_28 
REMARK    9  A    between atoms: C13_30  and  N6_31 
REMARK   10  A    between atoms: N6_31  and  N7_33 
REMARK   11  A    between atoms: N7_33  and  C14_35 
REMARK   12  A    between atoms: C15_40  and  N10_41 
REMARK   13  A    between atoms: N12_46  and  O6_47 
REMARK   14  A    between atoms: N13_49  and  O7_50 
REMARK   15  A    between atoms: C16_52  and  C17_53 
REMARK   16  A    between atoms: C17_53  and  O9_55 
ROOT
HETATM    1  C5  UNL     1       1.697  19.974  71.455  1.00  0.00     0.184 C 
HETATM    2  C6  UNL     1       2.217  19.721  72.756  1.00  0.00     0.099 A 
HETATM    3  N5  UNL     1       2.525  20.847  73.416  1.00  0.00    -0.348 N 
ATOM      4  H5  UNL     1       2.374  21.750  72.966  1.00  0.00     0.166 HD
HETATM    5  C7  UNL     1       3.033  20.806  74.670  1.00  0.00     0.119 A 
HETATM    6  C9  UNL     1       3.247  19.599  75.304  1.00  0.00     0.250 A 
HETATM    7  O3  UNL     1       3.721  19.615  76.467  1.00  0.00    -0.282 OA
HETATM    8  C10 UNL     1       2.930  18.450  74.627  1.00  0.00     0.239 A 
HETATM    9  O4  UNL     1       3.113  17.345  75.176  1.00  0.00    -0.283 OA
HETATM   10  C11 UNL     1       2.414  18.551  73.351  1.00  0.00     0.086 A 
HETATM   11  C12 UNL     1       2.130  17.311  72.782  1.00  0.00     0.132 C 
HETATM   12  C13 UNL     1       1.792  16.971  71.466  1.00  0.00     0.203 C 
HETATM   13  N12 UNL     1       1.631  17.798  70.395  1.00  0.00    -0.114 N 
HETATM   14  N13 UNL     1       1.838  19.103  70.433  1.00  0.00    -0.115 N 
ENDROOT
BRANCH   1  15
HETATM   15  N4  UNL     1       1.083  21.214  71.285  1.00  0.00    -0.320 N 
ATOM     16  H4  UNL     1       1.646  22.046  71.469  1.00  0.00     0.169 HD
BRANCH  15  17
HETATM   17  C4  UNL     1      -0.245  21.409  70.880  1.00  0.00     0.158 A 
HETATM   18  N3  UNL     1      -0.785  21.538  69.676  1.00  0.00    -0.269 N 
HETATM   19  N2  UNL     1      -2.063  21.642  69.751  1.00  0.00    -0.238 N 
ATOM     20  H3  UNL     1      -0.255  21.553  68.804  1.00  0.00     0.190 HD
HETATM   21  N1  UNL     1      -2.473  21.590  71.038  1.00  0.00    -0.265 N 
ATOM     22  H2  UNL     1      -2.683  21.749  68.949  1.00  0.00     0.208 HD
HETATM   23  C16 UNL     1      -1.358  21.444  71.761  1.00  0.00     0.173 A 
BRANCH  21  24
HETATM   24  C3  UNL     1      -3.870  21.717  71.319  1.00  0.00     0.177 C 
BRANCH  24  25
HETATM   25  C2  UNL     1      -4.688  20.550  70.979  1.00  0.00    -0.015 C 
HETATM   26  C1  UNL     1      -4.418  19.356  71.452  1.00  0.00     0.008 C 
ENDBRANCH  24  25
ENDBRANCH  21  24
BRANCH  23  27
HETATM   27  C17 UNL     1      -1.339  21.343  73.195  1.00  0.00     0.315 C 
HETATM   28  O8  UNL     1      -2.232  20.764  73.895  1.00  0.00    -0.257 OA
BRANCH  27  29
HETATM   29  O9  UNL     1      -0.312  21.891  73.934  1.00  0.00    -0.321 OA
HETATM   30  C18 UNL     1      -0.124  23.283  74.103  1.00  0.00     0.213 C 
ENDBRANCH  27  29
ENDBRANCH  23  27
ENDBRANCH  15  17
ENDBRANCH   1  15
BRANCH  14  31
HETATM   31  O7  UNL     1       2.296  19.631  69.244  1.00  0.00    -0.264 OA
ATOM     32  H7  UNL     1       2.053  19.160  68.456  1.00  0.00     0.247 HD
ENDBRANCH  14  31
BRANCH  13  33
HETATM   33  O6  UNL     1       1.238  17.230  69.214  1.00  0.00    -0.264 OA
ATOM     34  H6  UNL     1       0.304  17.137  69.063  1.00  0.00     0.247 HD
ENDBRANCH  13  33
BRANCH   5  35
HETATM   35  C8  UNL     1       3.372  22.069  75.388  1.00  0.00     0.309 C 
BRANCH  35  36
HETATM   36  O1  UNL     1       4.750  21.980  75.683  1.00  0.00    -0.366 OA
ATOM     37  H1  UNL     1       5.104  22.845  75.512  1.00  0.00     0.213 HD
ENDBRANCH  35  36
BRANCH  35  38
HETATM   38  O2  UNL     1       2.705  22.141  76.589  1.00  0.00    -0.366 OA
ATOM     39  H2  UNL     1       2.369  23.018  76.736  1.00  0.00     0.213 HD
ENDBRANCH  35  38
ENDBRANCH   5  35
BRANCH  11  40
HETATM   40  O5  UNL     1       2.205  16.270  73.696  1.00  0.00    -0.356 OA
ATOM     41  H5  UNL     1       2.911  16.380  74.322  1.00  0.00     0.218 HD
ENDBRANCH  11  40
BRANCH  12  42
HETATM   42  N6  UNL     1       1.586  15.599  71.190  1.00  0.00    -0.266 N 
ATOM     43  H6  UNL     1       2.233  15.150  70.542  1.00  0.00     0.189 HD
BRANCH  42  44
HETATM   44  N7  UNL     1       0.580  14.816  71.726  1.00  0.00    -0.128 N 
ATOM     45  H7  UNL     1       0.792  13.929  72.183  1.00  0.00     0.205 HD
BRANCH  44  46
HETATM   46  C14 UNL     1      -0.650  15.247  71.630  1.00  0.00     0.726 A 
HETATM   47  N8  UNL     1      -1.497  15.586  72.619  1.00  0.00    -0.116 N 
HETATM   48  N9  UNL     1      -2.656  15.975  72.114  1.00  0.00    -0.117 N 
ATOM     49  H8  UNL     1      -1.277  15.549  73.614  1.00  0.00     0.206 HD
HETATM   50  C15 UNL     1      -2.570  15.889  70.778  1.00  0.00     0.705 A 
ATOM     51  H9  UNL     1      -3.470  16.286  72.646  1.00  0.00     0.206 HD
HETATM   52  N11 UNL     1      -1.340  15.441  70.469  1.00  0.00    -0.019 N 
ATOM     53  H11 UNL     1      -0.983  15.276  69.528  1.00  0.00     0.203 HD
BRANCH  50  54
HETATM   54  N10 UNL     1      -3.478  16.173  69.909  1.00  0.00    -0.233 N 
ATOM     55 2H10 UNL     1      -4.225  16.852  70.060  1.00  0.00     0.174 HD
ATOM     56 1H10 UNL     1      -3.591  15.782  68.973  1.00  0.00     0.174 HD
ENDBRANCH  50  54
ENDBRANCH  44  46
ENDBRANCH  42  44
ENDBRANCH  12  42
TORSDOF 16
ENDMDL
