MODEL 1
REMARK VINA RESULT: -7.991357405      0.000      0.000
REMARK  16 active torsions:
REMARK  status: ('A' for Active; 'I' for Inactive)
REMARK    1  A    between atoms: N1_1  and  C1_4 
REMARK    2  A    between atoms: C2_7  and  N3_8 
REMARK    3  A    between atoms: C3_13  and  N5_14 
REMARK    4  A    between atoms: N5_14  and  C4_16 
REMARK    5  A    between atoms: C6_18  and  N6_19 
REMARK    6  A    between atoms: C7_23  and  O1_24 
REMARK    7  A    between atoms: O1_24  and  S1_25 
REMARK    8  A    between atoms: S1_25  and  N7_28 
REMARK    9  A    between atoms: N7_28  and  N8_29 
REMARK   10  A    between atoms: N7_28  and  C8_32 
REMARK   11  A    between atoms: N11_37  and  C9_38 
REMARK   12  A    between atoms: C9_38  and  C10_39 
REMARK   13  A    between atoms: C10_39  and  N12_40 
REMARK   14  A    between atoms: C13_49  and  C14_50 
REMARK   15  A    between atoms: C14_50  and  O4_51 
REMARK   16  A    between atoms: N16_53  and  O5_55 
ROOT
HETATM    1  C4  UNL     1       0.203  20.836  69.733  1.00  0.00     0.302 C 
HETATM    2  C5  UNL     1      -0.627  19.658  70.150  1.00  0.00     0.090 C 
HETATM    3  C6  UNL     1      -0.058  19.122  71.447  1.00  0.00     0.219 C 
HETATM    4  C7  UNL     1       0.934  20.061  72.082  1.00  0.00     0.213 C 
HETATM    5  C13 UNL     1       0.541  21.497  72.012  1.00  0.00     0.296 C 
HETATM    6  N17 UNL     1       0.001  21.881  70.726  1.00  0.00    -0.039 N 
ATOM      7 1H17 UNL     1      -0.982  22.145  70.796  1.00  0.00     0.280 HD
ATOM      8 2H17 UNL     1       0.381  22.774  70.412  1.00  0.00     0.280 HD
ENDROOT
BRANCH   4   9
HETATM    9  O1  UNL     1       1.057  19.724  73.451  1.00  0.00    -0.247 OA
BRANCH   9  10
HETATM   10  S1  UNL     1       2.624  19.291  73.768  1.00  0.00     0.396 S 
HETATM   11  O2  UNL     1       3.475  19.575  72.566  1.00  0.00    -0.173 OA
HETATM   12  O3  UNL     1       3.215  20.069  74.927  1.00  0.00    -0.173 OA
BRANCH  10  13
HETATM   13  N7  UNL     1       2.807  17.619  74.142  1.00  0.00     0.014 N 
BRANCH  13  14
HETATM   14  N8  UNL     1       3.601  17.169  75.200  1.00  0.00    -0.312 N 
ATOM     15  H82 UNL     1       4.205  16.358  75.065  1.00  0.00     0.178 HD
ATOM     16  H81 UNL     1       3.604  17.619  76.115  1.00  0.00     0.178 HD
ENDBRANCH  13  14
BRANCH  13  17
HETATM   17  C8  UNL     1       2.117  16.675  73.334  1.00  0.00     0.746 A 
HETATM   18  N9  UNL     1       2.597  15.948  72.300  1.00  0.00    -0.112 N 
HETATM   19  N10 UNL     1       1.637  15.184  71.807  1.00  0.00    -0.211 N 
ATOM     20  H9  UNL     1       3.555  15.983  71.952  1.00  0.00     0.207 HD
HETATM   21  N11 UNL     1       0.530  15.388  72.493  1.00  0.00    -0.203 N 
ATOM     22  H10 UNL     1       1.737  14.540  71.023  1.00  0.00     0.210 HD
HETATM   23  N15 UNL     1       0.829  16.305  73.430  1.00  0.00    -0.110 N 
ATOM     24  H15 UNL     1       0.170  16.669  74.119  1.00  0.00     0.207 HD
BRANCH  21  25
HETATM   25  C9  UNL     1      -0.783  14.804  72.354  1.00  0.00     0.193 C 
BRANCH  25  26
HETATM   26  C10 UNL     1      -1.244  14.922  70.931  1.00  0.00     0.173 C 
BRANCH  26  27
HETATM   27  N12 UNL     1      -2.350  15.832  70.800  1.00  0.00    -0.286 N 
HETATM   28  C11 UNL     1      -3.395  15.964  71.638  1.00  0.00     0.130 A 
HETATM   29  C12 UNL     1      -4.232  16.943  71.156  1.00  0.00     0.127 A 
HETATM   30  N13 UNL     1      -3.663  17.377  70.031  1.00  0.00    -0.296 N 
HETATM   31  N14 UNL     1      -2.544  16.718  69.817  1.00  0.00    -0.241 N 
ATOM     32  H13 UNL     1      -4.038  18.109  69.428  1.00  0.00     0.187 HD
ATOM     33  H14 UNL     1      -1.920  16.862  69.023  1.00  0.00     0.208 HD
ENDBRANCH  26  27
ENDBRANCH  25  26
ENDBRANCH  21  25
ENDBRANCH  13  17
ENDBRANCH  10  13
ENDBRANCH   9  10
ENDBRANCH   4   9
BRANCH   3  34
HETATM   34  N6  UNL     1      -1.113  18.744  72.370  1.00  0.00    -0.072 N 
ATOM     35  H63 UNL     1      -1.983  18.539  71.879  1.00  0.00     0.274 HD
ATOM     36  H62 UNL     1      -0.941  17.824  72.776  1.00  0.00     0.274 HD
ATOM     37  H61 UNL     1      -1.247  19.452  73.091  1.00  0.00     0.274 HD
ENDBRANCH   3  34
BRANCH   5  38
HETATM   38  C14 UNL     1      -0.407  21.869  73.096  1.00  0.00     0.169 C 
HETATM   39  N16 UNL     1       0.035  22.310  74.219  1.00  0.00    -0.249 N 
ATOM     40  H16 UNL     1       1.040  22.404  74.364  1.00  0.00     0.196 HD
BRANCH  38  41
HETATM   41  O4  UNL     1      -1.757  21.743  72.896  1.00  0.00    -0.346 OA
ATOM     42  H4  UNL     1      -2.195  20.929  73.117  1.00  0.00     0.219 HD
ENDBRANCH  38  41
BRANCH  39  43
HETATM   43  O5  UNL     1      -0.827  22.655  75.223  1.00  0.00    -0.288 OA
ATOM     44  H5  UNL     1      -1.328  23.461  75.178  1.00  0.00     0.244 HD
ENDBRANCH  39  43
ENDBRANCH   5  38
BRANCH   1  45
HETATM   45  N5  UNL     1      -0.120  21.344  68.442  1.00  0.00    -0.195 N 
ATOM     46  H5  UNL     1      -1.105  21.361  68.179  1.00  0.00     0.180 HD
BRANCH  45  47
HETATM   47  C3  UNL     1       0.731  21.785  67.576  1.00  0.00     0.709 A 
HETATM   48  N4  UNL     1       1.334  22.976  67.780  1.00  0.00    -0.022 N 
HETATM   49  C2  UNL     1       2.230  23.503  66.926  1.00  0.00     0.705 A 
ATOM     50  H4  UNL     1       1.097  23.501  68.621  1.00  0.00     0.203 HD
HETATM   51  N2  UNL     1       2.540  22.807  65.818  1.00  0.00    -0.022 N 
HETATM   52  C1  UNL     1       1.958  21.617  65.585  1.00  0.00     0.705 A 
ATOM     53  H2  UNL     1       3.216  23.183  65.153  1.00  0.00     0.203 HD
HETATM   54  N18 UNL     1       1.061  21.111  66.459  1.00  0.00    -0.022 N 
ATOM     55  H18 UNL     1       0.628  20.208  66.269  1.00  0.00     0.203 HD
BRANCH  49  56
HETATM   56  N3  UNL     1       2.797  24.661  67.151  1.00  0.00    -0.234 N 
ATOM     57  H32 UNL     1       3.317  25.154  66.425  1.00  0.00     0.174 HD
ATOM     58  H31 UNL     1       2.724  25.094  68.072  1.00  0.00     0.174 HD
ENDBRANCH  49  56
BRANCH  52  59
HETATM   59  N1  UNL     1       2.238  20.937  64.535  1.00  0.00    -0.234 N 
ATOM     60  H12 UNL     1       2.900  21.328  63.865  1.00  0.00     0.174 HD
ATOM     61  H11 UNL     1       1.812  20.025  64.369  1.00  0.00     0.174 HD
ENDBRANCH  52  59
ENDBRANCH  45  47
ENDBRANCH   1  45
TORSDOF 16
ENDMDL
MODEL 2
REMARK VINA RESULT: -7.956018101      2.704      4.184
REMARK  16 active torsions:
REMARK  status: ('A' for Active; 'I' for Inactive)
REMARK    1  A    between atoms: N1_1  and  C1_4 
REMARK    2  A    between atoms: C2_7  and  N3_8 
REMARK    3  A    between atoms: C3_13  and  N5_14 
REMARK    4  A    between atoms: N5_14  and  C4_16 
REMARK    5  A    between atoms: C6_18  and  N6_19 
REMARK    6  A    between atoms: C7_23  and  O1_24 
REMARK    7  A    between atoms: O1_24  and  S1_25 
REMARK    8  A    between atoms: S1_25  and  N7_28 
REMARK    9  A    between atoms: N7_28  and  N8_29 
REMARK   10  A    between atoms: N7_28  and  C8_32 
REMARK   11  A    between atoms: N11_37  and  C9_38 
REMARK   12  A    between atoms: C9_38  and  C10_39 
REMARK   13  A    between atoms: C10_39  and  N12_40 
REMARK   14  A    between atoms: C13_49  and  C14_50 
REMARK   15  A    between atoms: C14_50  and  O4_51 
REMARK   16  A    between atoms: N16_53  and  O5_55 
ROOT
HETATM    1  C4  UNL     1       0.695  21.858  68.354  1.00  0.00     0.302 C 
HETATM    2  C5  UNL     1      -0.567  21.986  69.154  1.00  0.00     0.090 C 
HETATM    3  C6  UNL     1      -0.857  20.642  69.787  1.00  0.00     0.219 C 
HETATM    4  C7  UNL     1       0.307  19.689  69.694  1.00  0.00     0.213 C 
HETATM    5  C13 UNL     1       1.632  20.325  69.940  1.00  0.00     0.296 C 
HETATM    6  N17 UNL     1       1.780  21.610  69.292  1.00  0.00    -0.039 N 
ATOM      7 1H17 UNL     1       1.865  22.365  69.973  1.00  0.00     0.280 HD
ATOM      8 2H17 UNL     1       2.692  21.701  68.844  1.00  0.00     0.280 HD
ENDROOT
BRANCH   4   9
HETATM    9  O1  UNL     1       0.137  18.678  70.669  1.00  0.00    -0.247 OA
BRANCH   9  10
HETATM   10  S1  UNL     1       0.552  17.214  70.016  1.00  0.00     0.396 S 
HETATM   11  O2  UNL     1       0.679  17.348  68.527  1.00  0.00    -0.173 OA
HETATM   12  O3  UNL     1       1.882  16.705  70.534  1.00  0.00    -0.173 OA
BRANCH  10  13
HETATM   13  N7  UNL     1      -0.609  15.977  70.321  1.00  0.00     0.014 N 
BRANCH  13  14
HETATM   14  N8  UNL     1      -0.247  14.691  70.730  1.00  0.00    -0.312 N 
ATOM     15  H82 UNL     1       0.664  14.318  70.465  1.00  0.00     0.178 HD
ATOM     16  H81 UNL     1      -0.862  14.099  71.288  1.00  0.00     0.178 HD
ENDBRANCH  13  14
BRANCH  13  17
HETATM   17  C8  UNL     1      -1.984  16.296  70.147  1.00  0.00     0.746 A 
HETATM   18  N9  UNL     1      -2.569  17.515  70.155  1.00  0.00    -0.112 N 
HETATM   19  N10 UNL     1      -3.870  17.388  69.958  1.00  0.00    -0.211 N 
ATOM     20  H9  UNL     1      -2.080  18.400  70.293  1.00  0.00     0.207 HD
HETATM   21  N11 UNL     1      -4.161  16.109  69.817  1.00  0.00    -0.203 N 
ATOM     22  H10 UNL     1      -4.541  18.155  69.920  1.00  0.00     0.210 HD
HETATM   23  N15 UNL     1      -2.999  15.442  69.934  1.00  0.00    -0.110 N 
ATOM     24  H15 UNL     1      -2.902  14.429  69.869  1.00  0.00     0.207 HD
BRANCH  21  25
HETATM   25  C9  UNL     1      -5.425  15.454  69.583  1.00  0.00     0.193 C 
BRANCH  25  26
HETATM   26  C10 UNL     1      -6.361  16.391  68.878  1.00  0.00     0.173 C 
BRANCH  26  27
HETATM   27  N12 UNL     1      -6.048  16.508  67.479  1.00  0.00    -0.286 N 
HETATM   28  C11 UNL     1      -6.177  15.556  66.536  1.00  0.00     0.130 A 
HETATM   29  C12 UNL     1      -5.770  16.070  65.327  1.00  0.00     0.127 A 
HETATM   30  N13 UNL     1      -5.405  17.327  65.576  1.00  0.00    -0.296 N 
HETATM   31  N14 UNL     1      -5.569  17.591  66.856  1.00  0.00    -0.241 N 
ATOM     32  H13 UNL     1      -5.052  17.984  64.882  1.00  0.00     0.187 HD
ATOM     33  H14 UNL     1      -5.362  18.484  67.303  1.00  0.00     0.208 HD
ENDBRANCH  26  27
ENDBRANCH  25  26
ENDBRANCH  21  25
ENDBRANCH  13  17
ENDBRANCH  10  13
ENDBRANCH   9  10
ENDBRANCH   4   9
BRANCH   3  34
HETATM   34  N6  UNL     1      -1.327  20.790  71.152  1.00  0.00    -0.072 N 
ATOM     35  H63 UNL     1      -0.594  21.150  71.763  1.00  0.00     0.274 HD
ATOM     36  H62 UNL     1      -1.995  21.556  71.236  1.00  0.00     0.274 HD
ATOM     37  H61 UNL     1      -1.715  19.916  71.508  1.00  0.00     0.274 HD
ENDBRANCH   3  34
BRANCH   5  38
HETATM   38  C14 UNL     1       1.931  20.447  71.392  1.00  0.00     0.169 C 
HETATM   39  N16 UNL     1       2.662  19.568  71.979  1.00  0.00    -0.249 N 
ATOM     40  H16 UNL     1       3.036  18.784  71.443  1.00  0.00     0.196 HD
BRANCH  38  41
HETATM   41  O4  UNL     1       1.427  21.502  72.107  1.00  0.00    -0.346 OA
ATOM     42  H4  UNL     1       0.515  21.502  72.373  1.00  0.00     0.219 HD
ENDBRANCH  38  41
BRANCH  39  43
HETATM   43  O5  UNL     1       2.944  19.670  73.313  1.00  0.00    -0.288 OA
ATOM     44  H5  UNL     1       3.816  19.903  73.609  1.00  0.00     0.244 HD
ENDBRANCH  39  43
ENDBRANCH   5  38
BRANCH   1  45
HETATM   45  N5  UNL     1       1.003  23.008  67.571  1.00  0.00    -0.195 N 
ATOM     46  H5  UNL     1       0.720  23.916  67.940  1.00  0.00     0.180 HD
BRANCH  45  47
HETATM   47  C3  UNL     1       1.612  22.997  66.431  1.00  0.00     0.709 A 
HETATM   48  N4  UNL     1       1.868  24.163  65.801  1.00  0.00    -0.022 N 
HETATM   49  C2  UNL     1       2.496  24.235  64.613  1.00  0.00     0.705 A 
ATOM     50  H4  UNL     1       1.571  25.031  66.247  1.00  0.00     0.203 HD
HETATM   51  N2  UNL     1       2.887  23.089  64.028  1.00  0.00    -0.022 N 
HETATM   52  C1  UNL     1       2.647  21.910  64.630  1.00  0.00     0.705 A 
ATOM     53  H2  UNL     1       3.365  23.113  63.127  1.00  0.00     0.203 HD
HETATM   54  N18 UNL     1       2.014  21.867  65.823  1.00  0.00    -0.022 N 
ATOM     55  H18 UNL     1       1.839  20.966  66.267  1.00  0.00     0.203 HD
BRANCH  49  56
HETATM   56  N3  UNL     1       2.730  25.381  64.026  1.00  0.00    -0.234 N 
ATOM     57  H32 UNL     1       1.972  26.007  63.751  1.00  0.00     0.174 HD
ATOM     58  H31 UNL     1       3.689  25.669  63.832  1.00  0.00     0.174 HD
ENDBRANCH  49  56
BRANCH  52  59
HETATM   59  N1  UNL     1       3.010  20.806  64.091  1.00  0.00    -0.234 N 
ATOM     60  H12 UNL     1       2.297  20.215  63.664  1.00  0.00     0.174 HD
ATOM     61  H11 UNL     1       3.990  20.519  64.086  1.00  0.00     0.174 HD
ENDBRANCH  52  59
ENDBRANCH  45  47
ENDBRANCH   1  45
TORSDOF 16
ENDMDL
MODEL 3
REMARK VINA RESULT: -7.930230119      2.728      8.665
REMARK  16 active torsions:
REMARK  status: ('A' for Active; 'I' for Inactive)
REMARK    1  A    between atoms: N1_1  and  C1_4 
REMARK    2  A    between atoms: C2_7  and  N3_8 
REMARK    3  A    between atoms: C3_13  and  N5_14 
REMARK    4  A    between atoms: N5_14  and  C4_16 
REMARK    5  A    between atoms: C6_18  and  N6_19 
REMARK    6  A    between atoms: C7_23  and  O1_24 
REMARK    7  A    between atoms: O1_24  and  S1_25 
REMARK    8  A    between atoms: S1_25  and  N7_28 
REMARK    9  A    between atoms: N7_28  and  N8_29 
REMARK   10  A    between atoms: N7_28  and  C8_32 
REMARK   11  A    between atoms: N11_37  and  C9_38 
REMARK   12  A    between atoms: C9_38  and  C10_39 
REMARK   13  A    between atoms: C10_39  and  N12_40 
REMARK   14  A    between atoms: C13_49  and  C14_50 
REMARK   15  A    between atoms: C14_50  and  O4_51 
REMARK   16  A    between atoms: N16_53  and  O5_55 
ROOT
HETATM    1  C4  UNL     1      -2.203  16.639  71.109  1.00  0.00     0.302 C 
HETATM    2  C5  UNL     1      -1.323  16.054  70.045  1.00  0.00     0.090 C 
HETATM    3  C6  UNL     1      -0.172  17.009  69.814  1.00  0.00     0.219 C 
HETATM    4  C7  UNL     1      -0.070  18.070  70.878  1.00  0.00     0.213 C 
HETATM    5  C13 UNL     1      -0.318  17.569  72.260  1.00  0.00     0.296 C 
HETATM    6  N17 UNL     1      -1.436  16.655  72.346  1.00  0.00    -0.039 N 
ATOM      7 1H17 UNL     1      -1.134  15.717  72.611  1.00  0.00     0.280 HD
ATOM      8 2H17 UNL     1      -2.028  16.862  73.151  1.00  0.00     0.280 HD
ENDROOT
BRANCH   4   9
HETATM    9  O1  UNL     1       1.239  18.606  70.853  1.00  0.00    -0.247 OA
BRANCH   9  10
HETATM   10  S1  UNL     1       1.229  20.034  70.015  1.00  0.00     0.396 S 
HETATM   11  O2  UNL     1      -0.179  20.377  69.627  1.00  0.00    -0.173 OA
HETATM   12  O3  UNL     1       1.760  21.192  70.836  1.00  0.00    -0.173 OA
BRANCH  10  13
HETATM   13  N7  UNL     1       2.161  19.981  68.566  1.00  0.00     0.014 N 
BRANCH  13  14
HETATM   14  N8  UNL     1       2.895  18.855  68.186  1.00  0.00    -0.312 N 
ATOM     15  H82 UNL     1       2.455  17.936  68.213  1.00  0.00     0.178 HD
ATOM     16  H81 UNL     1       3.866  18.911  67.878  1.00  0.00     0.178 HD
ENDBRANCH  13  14
BRANCH  13  17
HETATM   17  C8  UNL     1       2.170  21.137  67.737  1.00  0.00     0.746 A 
HETATM   18  N9  UNL     1       2.585  22.386  68.045  1.00  0.00    -0.112 N 
HETATM   19  N10 UNL     1       2.431  23.179  66.999  1.00  0.00    -0.211 N 
ATOM     20  H9  UNL     1       2.960  22.673  68.949  1.00  0.00     0.207 HD
HETATM   21  N11 UNL     1       1.923  22.482  66.002  1.00  0.00    -0.203 N 
ATOM     22  H10 UNL     1       2.667  24.171  66.968  1.00  0.00     0.210 HD
HETATM   23  N15 UNL     1       1.765  21.228  66.459  1.00  0.00    -0.110 N 
ATOM     24  H15 UNL     1       1.389  20.453  65.912  1.00  0.00     0.207 HD
BRANCH  21  25
HETATM   25  C9  UNL     1       1.573  22.881  64.659  1.00  0.00     0.193 C 
BRANCH  25  26
HETATM   26  C10 UNL     1       2.762  23.498  63.985  1.00  0.00     0.173 C 
BRANCH  26  27
HETATM   27  N12 UNL     1       2.784  24.928  64.143  1.00  0.00    -0.286 N 
HETATM   28  C11 UNL     1       1.831  25.800  63.769  1.00  0.00     0.130 A 
HETATM   29  C12 UNL     1       2.237  27.072  64.098  1.00  0.00     0.127 A 
HETATM   30  N13 UNL     1       3.434  26.930  64.666  1.00  0.00    -0.296 N 
HETATM   31  N14 UNL     1       3.763  25.655  64.695  1.00  0.00    -0.241 N 
ATOM     32  H13 UNL     1       4.008  27.692  65.025  1.00  0.00     0.187 HD
ATOM     33  H14 UNL     1       4.630  25.280  65.079  1.00  0.00     0.208 HD
ENDBRANCH  26  27
ENDBRANCH  25  26
ENDBRANCH  21  25
ENDBRANCH  13  17
ENDBRANCH  10  13
ENDBRANCH   9  10
ENDBRANCH   4   9
BRANCH   3  34
HETATM   34  N6  UNL     1       1.080  16.296  69.640  1.00  0.00    -0.072 N 
ATOM     35  H63 UNL     1       0.923  15.310  69.433  1.00  0.00     0.274 HD
ATOM     36  H62 UNL     1       1.547  16.567  68.774  1.00  0.00     0.274 HD
ATOM     37  H61 UNL     1       1.692  16.416  70.447  1.00  0.00     0.274 HD
ENDBRANCH   3  34
BRANCH   5  38
HETATM   38  C14 UNL     1       0.896  16.948  72.854  1.00  0.00     0.169 C 
HETATM   39  N16 UNL     1       1.674  17.640  73.609  1.00  0.00    -0.249 N 
ATOM     40  H16 UNL     1       1.454  18.618  73.798  1.00  0.00     0.196 HD
BRANCH  38  41
HETATM   41  O4  UNL     1       1.186  15.633  72.598  1.00  0.00    -0.346 OA
ATOM     42  H4  UNL     1       2.038  15.282  72.829  1.00  0.00     0.219 HD
ENDBRANCH  38  41
BRANCH  39  43
HETATM   43  O5  UNL     1       2.792  17.080  74.160  1.00  0.00    -0.288 OA
ATOM     44  H5  UNL     1       2.988  17.193  75.083  1.00  0.00     0.244 HD
ENDBRANCH  39  43
ENDBRANCH   5  38
BRANCH   1  45
HETATM   45  N5  UNL     1      -3.417  15.922  71.316  1.00  0.00    -0.195 N 
ATOM     46  H5  UNL     1      -3.540  15.461  72.218  1.00  0.00     0.180 HD
BRANCH  45  47
HETATM   47  C3  UNL     1      -4.374  15.806  70.457  1.00  0.00     0.709 A 
HETATM   48  N4  UNL     1      -4.585  16.792  69.558  1.00  0.00    -0.022 N 
HETATM   49  C2  UNL     1      -5.561  16.746  68.632  1.00  0.00     0.705 A 
ATOM     50  H4  UNL     1      -3.977  17.609  69.582  1.00  0.00     0.203 HD
HETATM   51  N2  UNL     1      -6.362  15.666  68.602  1.00  0.00    -0.022 N 
HETATM   52  C1  UNL     1      -6.177  14.667  69.483  1.00  0.00     0.705 A 
ATOM     53  H2  UNL     1      -7.110  15.605  67.911  1.00  0.00     0.203 HD
HETATM   54  N18 UNL     1      -5.191  14.738  70.403  1.00  0.00    -0.022 N 
ATOM     55  H18 UNL     1      -5.063  13.973  71.065  1.00  0.00     0.203 HD
BRANCH  49  56
HETATM   56  N3  UNL     1      -5.741  17.718  67.774  1.00  0.00    -0.234 N 
ATOM     57  H32 UNL     1      -6.670  18.086  67.568  1.00  0.00     0.174 HD
ATOM     58  H31 UNL     1      -4.941  18.127  67.291  1.00  0.00     0.174 HD
ENDBRANCH  49  56
BRANCH  52  59
HETATM   59  N1  UNL     1      -6.929  13.628  69.473  1.00  0.00    -0.234 N 
ATOM     60  H12 UNL     1      -6.488  12.709  69.456  1.00  0.00     0.174 HD
ATOM     61  H11 UNL     1      -7.946  13.714  69.484  1.00  0.00     0.174 HD
ENDBRANCH  52  59
ENDBRANCH  45  47
ENDBRANCH   1  45
TORSDOF 16
ENDMDL
MODEL 4
REMARK VINA RESULT: -7.901905867      0.483      1.446
REMARK  16 active torsions:
REMARK  status: ('A' for Active; 'I' for Inactive)
REMARK    1  A    between atoms: N1_1  and  C1_4 
REMARK    2  A    between atoms: C2_7  and  N3_8 
REMARK    3  A    between atoms: C3_13  and  N5_14 
REMARK    4  A    between atoms: N5_14  and  C4_16 
REMARK    5  A    between atoms: C6_18  and  N6_19 
REMARK    6  A    between atoms: C7_23  and  O1_24 
REMARK    7  A    between atoms: O1_24  and  S1_25 
REMARK    8  A    between atoms: S1_25  and  N7_28 
REMARK    9  A    between atoms: N7_28  and  N8_29 
REMARK   10  A    between atoms: N7_28  and  C8_32 
REMARK   11  A    between atoms: N11_37  and  C9_38 
REMARK   12  A    between atoms: C9_38  and  C10_39 
REMARK   13  A    between atoms: C10_39  and  N12_40 
REMARK   14  A    between atoms: C13_49  and  C14_50 
REMARK   15  A    between atoms: C14_50  and  O4_51 
REMARK   16  A    between atoms: N16_53  and  O5_55 
ROOT
HETATM    1  C4  UNL     1       0.235  20.853  69.718  1.00  0.00     0.302 C 
HETATM    2  C5  UNL     1      -0.567  19.645  70.103  1.00  0.00     0.090 C 
HETATM    3  C6  UNL     1      -0.008  19.109  71.403  1.00  0.00     0.219 C 
HETATM    4  C7  UNL     1       0.944  20.067  72.070  1.00  0.00     0.213 C 
HETATM    5  C13 UNL     1       0.510  21.492  72.012  1.00  0.00     0.296 C 
HETATM    6  N17 UNL     1      -0.017  21.878  70.721  1.00  0.00    -0.039 N 
ATOM      7 1H17 UNL     1      -1.008  22.112  70.775  1.00  0.00     0.280 HD
ATOM      8 2H17 UNL     1       0.342  22.786  70.426  1.00  0.00     0.280 HD
ENDROOT
BRANCH   4   9
HETATM    9  O1  UNL     1       1.051  19.715  73.436  1.00  0.00    -0.247 OA
BRANCH   9  10
HETATM   10  S1  UNL     1       2.613  19.276  73.767  1.00  0.00     0.396 S 
HETATM   11  O2  UNL     1       3.476  19.562  72.573  1.00  0.00    -0.173 OA
HETATM   12  O3  UNL     1       3.197  20.047  74.934  1.00  0.00    -0.173 OA
BRANCH  10  13
HETATM   13  N7  UNL     1       2.789  17.602  74.136  1.00  0.00     0.014 N 
BRANCH  13  14
HETATM   14  N8  UNL     1       3.581  17.144  75.192  1.00  0.00    -0.312 N 
ATOM     15  H82 UNL     1       3.206  17.148  76.140  1.00  0.00     0.178 HD
ATOM     16  H81 UNL     1       4.532  16.801  75.056  1.00  0.00     0.178 HD
ENDBRANCH  13  14
BRANCH  13  17
HETATM   17  C8  UNL     1       2.092  16.664  73.325  1.00  0.00     0.746 A 
HETATM   18  N9  UNL     1       2.560  15.954  72.274  1.00  0.00    -0.112 N 
HETATM   19  N10 UNL     1       1.598  15.190  71.786  1.00  0.00    -0.211 N 
ATOM     20  H9  UNL     1       3.512  16.002  71.911  1.00  0.00     0.207 HD
HETATM   21  N11 UNL     1       0.501  15.377  72.492  1.00  0.00    -0.203 N 
ATOM     22  H10 UNL     1       1.690  14.558  70.991  1.00  0.00     0.210 HD
HETATM   23  N15 UNL     1       0.808  16.283  73.437  1.00  0.00    -0.110 N 
ATOM     24  H15 UNL     1       0.158  16.632  74.141  1.00  0.00     0.207 HD
BRANCH  21  25
HETATM   25  C9  UNL     1      -0.810  14.785  72.366  1.00  0.00     0.193 C 
BRANCH  25  26
HETATM   26  C10 UNL     1      -1.278  14.884  70.944  1.00  0.00     0.173 C 
BRANCH  26  27
HETATM   27  N12 UNL     1      -2.369  15.811  70.803  1.00  0.00    -0.286 N 
HETATM   28  C11 UNL     1      -3.419  15.961  71.632  1.00  0.00     0.130 A 
HETATM   29  C12 UNL     1      -4.236  16.953  71.141  1.00  0.00     0.127 A 
HETATM   30  N13 UNL     1      -3.650  17.378  70.022  1.00  0.00    -0.296 N 
HETATM   31  N14 UNL     1      -2.539  16.701  69.818  1.00  0.00    -0.241 N 
ATOM     32  H13 UNL     1      -4.008  18.115  69.416  1.00  0.00     0.187 HD
ATOM     33  H14 UNL     1      -1.906  16.834  69.030  1.00  0.00     0.208 HD
ENDBRANCH  26  27
ENDBRANCH  25  26
ENDBRANCH  21  25
ENDBRANCH  13  17
ENDBRANCH  10  13
ENDBRANCH   9  10
ENDBRANCH   4   9
BRANCH   3  34
HETATM   34  N6  UNL     1      -1.068  18.686  72.301  1.00  0.00    -0.072 N 
ATOM     35  H63 UNL     1      -1.253  19.389  73.017  1.00  0.00     0.274 HD
ATOM     36  H62 UNL     1      -1.975  18.692  71.836  1.00  0.00     0.274 HD
ATOM     37  H61 UNL     1      -0.865  17.776  72.713  1.00  0.00     0.274 HD
ENDBRANCH   3  34
BRANCH   5  38
HETATM   38  C14 UNL     1      -0.469  21.821  73.082  1.00  0.00     0.169 C 
HETATM   39  N16 UNL     1      -1.718  21.935  72.803  1.00  0.00    -0.249 N 
ATOM     40  H16 UNL     1      -2.036  21.799  71.843  1.00  0.00     0.196 HD
BRANCH  38  41
HETATM   41  O4  UNL     1      -0.038  22.001  74.370  1.00  0.00    -0.346 OA
ATOM     42  H4  UNL     1       0.839  22.325  74.536  1.00  0.00     0.219 HD
ENDBRANCH  38  41
BRANCH  39  43
HETATM   43  O5  UNL     1      -2.628  22.237  73.778  1.00  0.00    -0.288 OA
ATOM     44  H5  UNL     1      -2.619  23.085  74.206  1.00  0.00     0.244 HD
ENDBRANCH  39  43
ENDBRANCH   5  38
BRANCH   1  45
HETATM   45  N5  UNL     1      -0.079  21.369  68.427  1.00  0.00    -0.195 N 
ATOM     46  H5  UNL     1      -1.055  21.336  68.135  1.00  0.00     0.180 HD
BRANCH  45  47
HETATM   47  C3  UNL     1       0.771  21.876  67.597  1.00  0.00     0.709 A 
HETATM   48  N4  UNL     1       1.084  21.202  66.469  1.00  0.00    -0.022 N 
HETATM   49  C2  UNL     1       1.959  21.661  65.556  1.00  0.00     0.705 A 
ATOM     50  H4  UNL     1       0.635  20.301  66.302  1.00  0.00     0.203 HD
HETATM   51  N2  UNL     1       2.548  22.849  65.780  1.00  0.00    -0.022 N 
HETATM   52  C1  UNL     1       2.258  23.546  66.893  1.00  0.00     0.705 A 
ATOM     53  H2  UNL     1       3.216  23.222  65.104  1.00  0.00     0.203 HD
HETATM   54  N18 UNL     1       1.376  23.061  67.794  1.00  0.00    -0.022 N 
ATOM     55  H18 UNL     1       1.166  23.600  68.633  1.00  0.00     0.203 HD
BRANCH  49  56
HETATM   56  N3  UNL     1       2.242  20.984  64.473  1.00  0.00    -0.234 N 
ATOM     57  H32 UNL     1       1.886  21.262  63.558  1.00  0.00     0.174 HD
ATOM     58  H31 UNL     1       2.833  20.155  64.529  1.00  0.00     0.174 HD
ENDBRANCH  49  56
BRANCH  52  59
HETATM   59  N1  UNL     1       2.808  24.680  67.126  1.00  0.00    -0.234 N 
ATOM     60  H12 UNL     1       3.561  24.991  66.513  1.00  0.00     0.174 HD
ATOM     61  H11 UNL     1       2.502  25.263  67.906  1.00  0.00     0.174 HD
ENDBRANCH  52  59
ENDBRANCH  45  47
ENDBRANCH   1  45
TORSDOF 16
ENDMDL
MODEL 5
REMARK VINA RESULT: -7.891881827      1.341      1.452
REMARK  16 active torsions:
REMARK  status: ('A' for Active; 'I' for Inactive)
REMARK    1  A    between atoms: N1_1  and  C1_4 
REMARK    2  A    between atoms: C2_7  and  N3_8 
REMARK    3  A    between atoms: C3_13  and  N5_14 
REMARK    4  A    between atoms: N5_14  and  C4_16 
REMARK    5  A    between atoms: C6_18  and  N6_19 
REMARK    6  A    between atoms: C7_23  and  O1_24 
REMARK    7  A    between atoms: O1_24  and  S1_25 
REMARK    8  A    between atoms: S1_25  and  N7_28 
REMARK    9  A    between atoms: N7_28  and  N8_29 
REMARK   10  A    between atoms: N7_28  and  C8_32 
REMARK   11  A    between atoms: N11_37  and  C9_38 
REMARK   12  A    between atoms: C9_38  and  C10_39 
REMARK   13  A    between atoms: C10_39  and  N12_40 
REMARK   14  A    between atoms: C13_49  and  C14_50 
REMARK   15  A    between atoms: C14_50  and  O4_51 
REMARK   16  A    between atoms: N16_53  and  O5_55 
ROOT
HETATM    1  C4  UNL     1       0.260  21.460  69.335  1.00  0.00     0.302 C 
HETATM    2  C5  UNL     1       0.476  20.007  69.035  1.00  0.00     0.090 C 
HETATM    3  C6  UNL     1       0.878  19.319  70.322  1.00  0.00     0.219 C 
HETATM    4  C7  UNL     1       0.658  20.180  71.538  1.00  0.00     0.213 C 
HETATM    5  C13 UNL     1      -0.613  20.957  71.509  1.00  0.00     0.296 C 
HETATM    6  N17 UNL     1      -0.891  21.554  70.221  1.00  0.00    -0.039 N 
ATOM      7 1H17 UNL     1      -1.725  21.152  69.794  1.00  0.00     0.280 HD
ATOM      8 2H17 UNL     1      -1.213  22.517  70.316  1.00  0.00     0.280 HD
ENDROOT
BRANCH   4   9
HETATM    9  O1  UNL     1       0.615  19.343  72.678  1.00  0.00    -0.247 OA
BRANCH   9  10
HETATM   10  S1  UNL     1       2.129  19.244  73.342  1.00  0.00     0.396 S 
HETATM   11  O2  UNL     1       3.140  19.757  72.359  1.00  0.00    -0.173 OA
HETATM   12  O3  UNL     1       2.266  20.079  74.599  1.00  0.00    -0.173 OA
BRANCH  10  13
HETATM   13  N7  UNL     1       2.588  17.636  73.757  1.00  0.00     0.014 N 
BRANCH  13  14
HETATM   14  N8  UNL     1       3.533  17.356  74.748  1.00  0.00    -0.312 N 
ATOM     15  H82 UNL     1       3.415  17.754  75.680  1.00  0.00     0.178 HD
ATOM     16  H81 UNL     1       4.346  16.765  74.580  1.00  0.00     0.178 HD
ENDBRANCH  13  14
BRANCH  13  17
HETATM   17  C8  UNL     1       1.971  16.564  73.055  1.00  0.00     0.746 A 
HETATM   18  N9  UNL     1       2.538  15.697  72.185  1.00  0.00    -0.112 N 
HETATM   19  N10 UNL     1       1.626  14.846  71.746  1.00  0.00    -0.211 N 
ATOM     20  H9  UNL     1       3.520  15.699  71.910  1.00  0.00     0.207 HD
HETATM   21  N11 UNL     1       0.467  15.129  72.307  1.00  0.00    -0.203 N 
ATOM     22  H10 UNL     1       1.793  14.091  71.081  1.00  0.00     0.210 HD
HETATM   23  N15 UNL     1       0.684  16.185  73.111  1.00  0.00    -0.110 N 
ATOM     24  H15 UNL     1      -0.030  16.637  73.683  1.00  0.00     0.207 HD
BRANCH  21  25
HETATM   25  C9  UNL     1      -0.825  14.502  72.162  1.00  0.00     0.193 C 
BRANCH  25  26
HETATM   26  C10 UNL     1      -1.462  14.942  70.876  1.00  0.00     0.173 C 
BRANCH  26  27
HETATM   27  N12 UNL     1      -2.669  15.690  71.106  1.00  0.00    -0.286 N 
HETATM   28  C11 UNL     1      -3.830  15.585  70.433  1.00  0.00     0.130 A 
HETATM   29  C12 UNL     1      -4.734  16.476  70.962  1.00  0.00     0.127 A 
HETATM   30  N13 UNL     1      -4.088  17.098  71.948  1.00  0.00    -0.296 N 
HETATM   31  N14 UNL     1      -2.859  16.633  72.037  1.00  0.00    -0.241 N 
ATOM     32  H13 UNL     1      -4.485  17.824  72.544  1.00  0.00     0.187 HD
ATOM     33  H14 UNL     1      -2.160  16.944  72.711  1.00  0.00     0.208 HD
ENDBRANCH  26  27
ENDBRANCH  25  26
ENDBRANCH  21  25
ENDBRANCH  13  17
ENDBRANCH  10  13
ENDBRANCH   9  10
ENDBRANCH   4   9
BRANCH   3  34
HETATM   34  N6  UNL     1       0.236  18.024  70.453  1.00  0.00    -0.072 N 
ATOM     35  H63 UNL     1      -0.649  18.095  70.955  1.00  0.00     0.274 HD
ATOM     36  H62 UNL     1      -0.117  17.690  69.556  1.00  0.00     0.274 HD
ATOM     37  H61 UNL     1       0.859  17.343  70.886  1.00  0.00     0.274 HD
ENDBRANCH   3  34
BRANCH   5  38
HETATM   38  C14 UNL     1      -1.775  20.143  71.956  1.00  0.00     0.169 C 
HETATM   39  N16 UNL     1      -2.051  20.040  73.207  1.00  0.00    -0.249 N 
ATOM     40  H16 UNL     1      -1.468  20.520  73.893  1.00  0.00     0.196 HD
BRANCH  38  41
HETATM   41  O4  UNL     1      -2.555  19.500  71.030  1.00  0.00    -0.346 OA
ATOM     42  H4  UNL     1      -3.438  19.807  70.860  1.00  0.00     0.219 HD
ENDBRANCH  38  41
BRANCH  39  43
HETATM   43  O5  UNL     1      -3.116  19.294  73.629  1.00  0.00    -0.288 OA
ATOM     44  H5  UNL     1      -3.970  19.691  73.752  1.00  0.00     0.244 HD
ENDBRANCH  39  43
ENDBRANCH   5  38
BRANCH   1  45
HETATM   45  N5  UNL     1       0.032  22.263  68.179  1.00  0.00    -0.195 N 
ATOM     46  H5  UNL     1      -0.883  22.703  68.089  1.00  0.00     0.180 HD
BRANCH  45  47
HETATM   47  C3  UNL     1       0.889  22.478  67.237  1.00  0.00     0.709 A 
HETATM   48  N4  UNL     1       1.516  23.672  67.166  1.00  0.00    -0.022 N 
HETATM   49  C2  UNL     1       2.419  23.974  66.216  1.00  0.00     0.705 A 
ATOM     50  H4  UNL     1       1.294  24.379  67.867  1.00  0.00     0.203 HD
HETATM   51  N2  UNL     1       2.710  23.039  65.293  1.00  0.00    -0.022 N 
HETATM   52  C1  UNL     1       2.103  21.839  65.336  1.00  0.00     0.705 A 
ATOM     53  H2  UNL     1       3.391  23.240  64.561  1.00  0.00     0.203 HD
HETATM   54  N18 UNL     1       1.199  21.563  66.301  1.00  0.00    -0.022 N 
ATOM     55  H18 UNL     1       0.747  20.650  66.320  1.00  0.00     0.203 HD
BRANCH  49  56
HETATM   56  N3  UNL     1       3.010  25.140  66.173  1.00  0.00    -0.234 N 
ATOM     57  H32 UNL     1       3.797  25.366  66.782  1.00  0.00     0.174 HD
ATOM     58  H31 UNL     1       2.686  25.853  65.519  1.00  0.00     0.174 HD
ENDBRANCH  49  56
BRANCH  52  59
HETATM   59  N1  UNL     1       2.364  20.934  64.467  1.00  0.00    -0.234 N 
ATOM     60  H12 UNL     1       2.629  20.006  64.796  1.00  0.00     0.174 HD
ATOM     61  H11 UNL     1       2.310  21.132  63.467  1.00  0.00     0.174 HD
ENDBRANCH  52  59
ENDBRANCH  45  47
ENDBRANCH   1  45
TORSDOF 16
ENDMDL
