MODEL 1
REMARK VINA RESULT: -8.643468820      0.000      0.000
REMARK  5 active torsions:
REMARK  status: ('A' for Active; 'I' for Inactive)
REMARK    1  A    between atoms: C1_4  and  C2_5 
REMARK       I    between atoms: C2_5  and  N2_7 
REMARK    2  A    between atoms: N3_13  and  C8_14 
REMARK    3  A    between atoms: C11_17  and  C12_18 
REMARK    4  A    between atoms: C12_18  and  C13_19 
REMARK    5  A    between atoms: N4_22  and  C16_23 
ROOT
HETATM    1  C8  UNL     1      -8.852  12.715  -2.076  1.00  0.00     0.076 A 
HETATM    2  C9  UNL     1      -9.175  11.391  -2.262  1.00  0.00     0.033 A 
HETATM    3  C10 UNL     1      -8.517  10.339  -1.665  1.00  0.00     0.009 A 
HETATM    4  C11 UNL     1      -7.464  10.565  -0.819  1.00  0.00    -0.055 A 
HETATM    5  C24 UNL     1      -7.110  11.905  -0.609  1.00  0.00     0.051 A 
HETATM    6  C25 UNL     1      -7.771  12.942  -1.210  1.00  0.00     0.143 A 
HETATM    7  F1  UNL     1      -7.343  14.203  -0.943  1.00  0.00    -0.204 F 
ENDROOT
BRANCH   1   8
HETATM    8  N3  UNL     1      -9.521  13.807  -2.662  1.00  0.00    -0.313 N 
HETATM    9  C7  UNL     1      -9.142  14.630  -3.837  1.00  0.00     0.139 C 
HETATM   10  C6  UNL     1      -9.708  15.935  -3.357  1.00  0.00     0.036 C 
HETATM   11  C5  UNL     1      -9.856  17.046  -4.296  1.00  0.00     0.010 C 
HETATM   12  C27 UNL     1     -11.155  15.398  -3.062  1.00  0.00     0.185 C 
HETATM   13  C4  UNL     1     -10.363  18.244  -3.450  1.00  0.00     0.020 C 
HETATM   14  C3  UNL     1     -11.096  17.708  -2.225  1.00  0.00     0.127 C 
HETATM   15  N2  UNL     1     -11.867  16.509  -2.604  1.00  0.00    -0.334 N 
HETATM   16  C2  UNL     1     -13.258  16.580  -2.477  1.00  0.00     0.259 C 
HETATM   17  O1  UNL     1     -13.785  17.658  -1.988  1.00  0.00    -0.267 OA
HETATM   18  C26 UNL     1     -10.764  14.338  -2.136  1.00  0.00     0.247 C 
HETATM   19  O2  UNL     1     -11.319  13.919  -1.101  1.00  0.00    -0.271 OA
BRANCH  16  20
HETATM   20  C1  UNL     1     -14.171  15.529  -2.859  1.00  0.00     0.155 C 
HETATM   21  N1  UNL     1     -14.442  14.463  -2.204  1.00  0.00    -0.404 N 
ATOM     22  H12 UNL     1     -13.949  14.360  -1.317  1.00  0.00     0.155 HD
ATOM     23  H11 UNL     1     -15.087  13.720  -2.474  1.00  0.00     0.155 HD
ENDBRANCH  16  20
ENDBRANCH   1   8
BRANCH   4  24
HETATM   24  C12 UNL     1      -6.724   9.497  -0.122  1.00  0.00     0.043 C 
BRANCH  24  25
HETATM   25  C13 UNL     1      -7.267   9.194   1.222  1.00  0.00    -0.007 C 
HETATM   26  C14 UNL     1      -8.570   9.869   1.563  1.00  0.00     0.024 C 
HETATM   27  C15 UNL     1      -8.843   9.671   3.044  1.00  0.00     0.117 C 
HETATM   28  N4  UNL     1      -8.186   8.536   3.590  1.00  0.00    -0.408 N 
HETATM   29  C22 UNL     1      -6.772   8.486   3.480  1.00  0.00     0.117 C 
HETATM   30  C23 UNL     1      -6.300   9.423   2.356  1.00  0.00     0.024 C 
BRANCH  28  31
HETATM   31  C16 UNL     1      -8.895   7.304   3.511  1.00  0.00     0.079 C 
HETATM   32  C17 UNL     1      -8.504   6.295   4.565  1.00  0.00     0.025 C 
HETATM   33  C18 UNL     1      -9.662   5.367   4.918  1.00  0.00     0.002 C 
HETATM   34  C19 UNL     1     -10.549   5.075   3.747  1.00  0.00     0.000 C 
HETATM   35  C20 UNL     1     -11.121   6.321   3.119  1.00  0.00     0.002 C 
HETATM   36  C21 UNL     1     -10.399   7.545   3.671  1.00  0.00     0.025 C 
ENDBRANCH  28  31
ENDBRANCH  24  25
ENDBRANCH   4  24
TORSDOF 5
ENDMDL
MODEL 2
REMARK VINA RESULT: -8.617775859      6.058     10.161
REMARK  5 active torsions:
REMARK  status: ('A' for Active; 'I' for Inactive)
REMARK    1  A    between atoms: C1_4  and  C2_5 
REMARK       I    between atoms: C2_5  and  N2_7 
REMARK    2  A    between atoms: N3_13  and  C8_14 
REMARK    3  A    between atoms: C11_17  and  C12_18 
REMARK    4  A    between atoms: C12_18  and  C13_19 
REMARK    5  A    between atoms: N4_22  and  C16_23 
ROOT
HETATM    1  C8  UNL     1      -5.056   9.382   4.616  1.00  0.00     0.076 A 
HETATM    2  C9  UNL     1      -5.330   9.270   5.960  1.00  0.00     0.033 A 
HETATM    3  C10 UNL     1      -4.451   9.610   6.963  1.00  0.00     0.009 A 
HETATM    4  C11 UNL     1      -3.206  10.098   6.664  1.00  0.00    -0.055 A 
HETATM    5  C24 UNL     1      -2.897  10.223   5.303  1.00  0.00     0.051 A 
HETATM    6  C25 UNL     1      -3.779   9.881   4.315  1.00  0.00     0.143 A 
HETATM    7  F1  UNL     1      -3.376  10.035   3.026  1.00  0.00    -0.204 F 
ENDROOT
BRANCH   1   8
HETATM    8  N3  UNL     1      -5.945   9.057   3.573  1.00  0.00    -0.313 N 
HETATM    9  C7  UNL     1      -5.790   9.232   2.107  1.00  0.00     0.139 C 
HETATM   10  C6  UNL     1      -7.230   9.512   1.788  1.00  0.00     0.036 C 
HETATM   11  C5  UNL     1      -7.680   9.475   0.397  1.00  0.00     0.010 C 
HETATM   12  C27 UNL     1      -7.814   8.231   2.485  1.00  0.00     0.185 C 
HETATM   13  C4  UNL     1      -9.170   9.907   0.428  1.00  0.00     0.020 C 
HETATM   14  C3  UNL     1      -9.749   9.583   1.801  1.00  0.00     0.127 C 
HETATM   15  N2  UNL     1      -9.193   8.302   2.276  1.00  0.00    -0.334 N 
HETATM   16  C2  UNL     1     -10.096   7.252   2.477  1.00  0.00     0.259 C 
HETATM   17  O1  UNL     1     -11.359   7.472   2.293  1.00  0.00    -0.267 OA
HETATM   18  C26 UNL     1      -7.254   8.481   3.811  1.00  0.00     0.247 C 
HETATM   19  O2  UNL     1      -7.730   8.275   4.945  1.00  0.00    -0.271 OA
BRANCH  16  20
HETATM   20  C1  UNL     1      -9.723   5.916   2.876  1.00  0.00     0.155 C 
HETATM   21  N1  UNL     1      -9.418   5.516   4.054  1.00  0.00    -0.404 N 
ATOM     22  H12 UNL     1      -9.446   6.234   4.777  1.00  0.00     0.155 HD
ATOM     23  H11 UNL     1      -9.154   4.572   4.336  1.00  0.00     0.155 HD
ENDBRANCH  16  20
ENDBRANCH   1   8
BRANCH   4  24
HETATM   24  C12 UNL     1      -2.217  10.507   7.678  1.00  0.00     0.043 C 
BRANCH  24  25
HETATM   25  C13 UNL     1      -0.817  10.391   7.207  1.00  0.00    -0.007 C 
HETATM   26  C14 UNL     1      -0.276   8.988   7.122  1.00  0.00     0.024 C 
HETATM   27  C15 UNL     1       1.224   9.064   6.889  1.00  0.00     0.117 C 
HETATM   28  N4  UNL     1       1.639  10.284   6.291  1.00  0.00    -0.408 N 
HETATM   29  C22 UNL     1       1.326  11.485   6.980  1.00  0.00     0.117 C 
HETATM   30  C23 UNL     1       0.172  11.240   7.965  1.00  0.00     0.024 C 
BRANCH  28  31
HETATM   31  C16 UNL     1       1.629  10.320   4.869  1.00  0.00     0.079 C 
HETATM   32  C17 UNL     1       1.069  11.596   4.286  1.00  0.00     0.025 C 
HETATM   33  C18 UNL     1       1.687  11.918   2.929  1.00  0.00     0.002 C 
HETATM   34  C19 UNL     1       2.014  10.692   2.134  1.00  0.00     0.000 C 
HETATM   35  C20 UNL     1       2.942   9.752   2.862  1.00  0.00     0.002 C 
HETATM   36  C21 UNL     1       3.051  10.176   4.323  1.00  0.00     0.025 C 
ENDBRANCH  28  31
ENDBRANCH  24  25
ENDBRANCH   4  24
TORSDOF 5
ENDMDL
MODEL 3
REMARK VINA RESULT: -8.446919326      3.554      5.043
REMARK  5 active torsions:
REMARK  status: ('A' for Active; 'I' for Inactive)
REMARK    1  A    between atoms: C1_4  and  C2_5 
REMARK       I    between atoms: C2_5  and  N2_7 
REMARK    2  A    between atoms: N3_13  and  C8_14 
REMARK    3  A    between atoms: C11_17  and  C12_18 
REMARK    4  A    between atoms: C12_18  and  C13_19 
REMARK    5  A    between atoms: N4_22  and  C16_23 
ROOT
HETATM    1  C8  UNL     1      -8.307  10.565  -1.567  1.00  0.00     0.076 A 
HETATM    2  C9  UNL     1      -7.372   9.821  -0.886  1.00  0.00     0.033 A 
HETATM    3  C10 UNL     1      -7.426   9.550   0.462  1.00  0.00     0.009 A 
HETATM    4  C11 UNL     1      -8.457  10.027   1.228  1.00  0.00    -0.055 A 
HETATM    5  C24 UNL     1      -9.426  10.791   0.563  1.00  0.00     0.051 A 
HETATM    6  C25 UNL     1      -9.359  11.054  -0.778  1.00  0.00     0.143 A 
HETATM    7  F1  UNL     1     -10.348  11.810  -1.323  1.00  0.00    -0.204 F 
ENDROOT
BRANCH   1   8
HETATM    8  N3  UNL     1      -8.281  10.840  -2.948  1.00  0.00    -0.313 N 
HETATM    9  C7  UNL     1      -8.799  10.038  -4.085  1.00  0.00     0.139 C 
HETATM   10  C6  UNL     1      -7.752  10.420  -5.091  1.00  0.00     0.036 C 
HETATM   11  C5  UNL     1      -7.966  10.115  -6.505  1.00  0.00     0.010 C 
HETATM   12  C27 UNL     1      -7.923  11.974  -4.935  1.00  0.00     0.185 C 
HETATM   13  C4  UNL     1      -6.664  10.548  -7.228  1.00  0.00     0.020 C 
HETATM   14  C3  UNL     1      -5.985  11.641  -6.409  1.00  0.00     0.127 C 
HETATM   15  N2  UNL     1      -7.013  12.531  -5.836  1.00  0.00    -0.334 N 
HETATM   16  C2  UNL     1      -6.996  13.868  -6.246  1.00  0.00     0.259 C 
HETATM   17  O1  UNL     1      -6.060  14.262  -7.050  1.00  0.00    -0.267 OA
HETATM   18  C26 UNL     1      -7.671  12.036  -3.497  1.00  0.00     0.247 C 
HETATM   19  O2  UNL     1      -7.074  12.891  -2.814  1.00  0.00    -0.271 OA
BRANCH  16  20
HETATM   20  C1  UNL     1      -7.961  14.862  -5.839  1.00  0.00     0.155 C 
HETATM   21  N1  UNL     1      -8.018  15.472  -4.714  1.00  0.00    -0.404 N 
ATOM     22  H12 UNL     1      -7.294  15.214  -4.043  1.00  0.00     0.155 HD
ATOM     23  H11 UNL     1      -8.700  16.173  -4.426  1.00  0.00     0.155 HD
ENDBRANCH  16  20
ENDBRANCH   1   8
BRANCH   4  24
HETATM   24  C12 UNL     1      -8.601   9.762   2.672  1.00  0.00     0.043 C 
BRANCH  24  25
HETATM   25  C13 UNL     1      -8.884   8.340   2.977  1.00  0.00    -0.007 C 
HETATM   26  C14 UNL     1      -7.721   7.548   3.516  1.00  0.00     0.024 C 
HETATM   27  C15 UNL     1      -8.101   6.077   3.518  1.00  0.00     0.117 C 
HETATM   28  N4  UNL     1      -9.503   5.857   3.558  1.00  0.00    -0.408 N 
HETATM   29  C22 UNL     1     -10.280   6.422   2.513  1.00  0.00     0.117 C 
HETATM   30  C23 UNL     1      -9.504   7.567   1.842  1.00  0.00     0.024 C 
BRANCH  28  31
HETATM   31  C16 UNL     1     -10.091   5.794   4.853  1.00  0.00     0.079 C 
HETATM   32  C17 UNL     1     -11.375   5.001   4.913  1.00  0.00     0.025 C 
HETATM   33  C18 UNL     1     -11.583   4.361   6.282  1.00  0.00     0.002 C 
HETATM   34  C19 UNL     1     -11.048   5.200   7.401  1.00  0.00     0.000 C 
HETATM   35  C20 UNL     1      -9.581   5.517   7.248  1.00  0.00     0.002 C 
HETATM   36  C21 UNL     1      -9.125   5.139   5.843  1.00  0.00     0.025 C 
ENDBRANCH  28  31
ENDBRANCH  24  25
ENDBRANCH   4  24
TORSDOF 5
ENDMDL
MODEL 4
REMARK VINA RESULT: -8.444899255      5.300      7.137
REMARK  5 active torsions:
REMARK  status: ('A' for Active; 'I' for Inactive)
REMARK    1  A    between atoms: C1_4  and  C2_5 
REMARK       I    between atoms: C2_5  and  N2_7 
REMARK    2  A    between atoms: N3_13  and  C8_14 
REMARK    3  A    between atoms: C11_17  and  C12_18 
REMARK    4  A    between atoms: C12_18  and  C13_19 
REMARK    5  A    between atoms: N4_22  and  C16_23 
ROOT
HETATM    1  C8  UNL     1      -6.964  10.431  -0.060  1.00  0.00     0.076 A 
HETATM    2  C9  UNL     1      -8.178   9.971  -0.514  1.00  0.00     0.033 A 
HETATM    3  C10 UNL     1      -9.241   9.648   0.300  1.00  0.00     0.009 A 
HETATM    4  C11 UNL     1      -9.140   9.773   1.660  1.00  0.00    -0.055 A 
HETATM    5  C24 UNL     1      -7.914  10.240   2.154  1.00  0.00     0.051 A 
HETATM    6  C25 UNL     1      -6.865  10.557   1.334  1.00  0.00     0.143 A 
HETATM    7  F1  UNL     1      -5.718  10.994   1.916  1.00  0.00    -0.204 F 
ENDROOT
BRANCH   1   8
HETATM    8  N3  UNL     1      -5.870  10.784  -0.875  1.00  0.00    -0.313 N 
HETATM    9  C7  UNL     1      -5.353  12.127  -1.237  1.00  0.00     0.139 C 
HETATM   10  C6  UNL     1      -4.886  11.792  -2.624  1.00  0.00     0.036 C 
HETATM   11  C5  UNL     1      -4.013  12.725  -3.335  1.00  0.00     0.010 C 
HETATM   12  C27 UNL     1      -3.995  10.565  -2.214  1.00  0.00     0.185 C 
HETATM   13  C4  UNL     1      -3.818  12.119  -4.750  1.00  0.00     0.020 C 
HETATM   14  C3  UNL     1      -4.015  10.610  -4.672  1.00  0.00     0.127 C 
HETATM   15  N2  UNL     1      -3.438  10.106  -3.411  1.00  0.00    -0.334 N 
HETATM   16  C2  UNL     1      -2.371   9.208  -3.513  1.00  0.00     0.259 C 
HETATM   17  O1  UNL     1      -1.988   8.827  -4.691  1.00  0.00    -0.267 OA
HETATM   18  C26 UNL     1      -5.045   9.799  -1.548  1.00  0.00     0.247 C 
HETATM   19  O2  UNL     1      -5.258   8.571  -1.514  1.00  0.00    -0.271 OA
BRANCH  16  20
HETATM   20  C1  UNL     1      -1.646   8.665  -2.389  1.00  0.00     0.155 C 
HETATM   21  N1  UNL     1      -1.979   7.665  -1.663  1.00  0.00    -0.404 N 
ATOM     22  H12 UNL     1      -2.857   7.213  -1.921  1.00  0.00     0.155 HD
ATOM     23  H11 UNL     1      -1.467   7.281  -0.869  1.00  0.00     0.155 HD
ENDBRANCH  16  20
ENDBRANCH   1   8
BRANCH   4  24
HETATM   24  C12 UNL     1     -10.237   9.472   2.598  1.00  0.00     0.043 C 
BRANCH  24  25
HETATM   25  C13 UNL     1     -10.265   8.054   3.026  1.00  0.00    -0.007 C 
HETATM   26  C14 UNL     1      -8.986   7.287   2.815  1.00  0.00     0.024 C 
HETATM   27  C15 UNL     1      -9.265   5.812   3.048  1.00  0.00     0.117 C 
HETATM   28  N4  UNL     1     -10.390   5.577   3.883  1.00  0.00    -0.408 N 
HETATM   29  C22 UNL     1     -11.636   6.110   3.460  1.00  0.00     0.117 C 
HETATM   30  C23 UNL     1     -11.404   7.250   2.453  1.00  0.00     0.024 C 
BRANCH  28  31
HETATM   31  C16 UNL     1     -10.135   5.534   5.282  1.00  0.00     0.079 C 
HETATM   32  C17 UNL     1     -10.414   4.195   5.922  1.00  0.00     0.025 C 
HETATM   33  C18 UNL     1      -9.523   3.949   7.134  1.00  0.00     0.002 C 
HETATM   34  C19 UNL     1      -9.211   5.204   7.890  1.00  0.00     0.000 C 
HETATM   35  C20 UNL     1      -8.556   6.257   7.031  1.00  0.00     0.002 C 
HETATM   36  C21 UNL     1      -8.665   5.856   5.564  1.00  0.00     0.025 C 
ENDBRANCH  28  31
ENDBRANCH  24  25
ENDBRANCH   4  24
TORSDOF 5
ENDMDL
MODEL 5
REMARK VINA RESULT: -8.442101244      6.554      8.761
REMARK  5 active torsions:
REMARK  status: ('A' for Active; 'I' for Inactive)
REMARK    1  A    between atoms: C1_4  and  C2_5 
REMARK       I    between atoms: C2_5  and  N2_7 
REMARK    2  A    between atoms: N3_13  and  C8_14 
REMARK    3  A    between atoms: C11_17  and  C12_18 
REMARK    4  A    between atoms: C12_18  and  C13_19 
REMARK    5  A    between atoms: N4_22  and  C16_23 
ROOT
HETATM    1  C8  UNL     1      -4.495   9.591   0.506  1.00  0.00     0.076 A 
HETATM    2  C9  UNL     1      -4.397   9.511   1.876  1.00  0.00     0.033 A 
HETATM    3  C10 UNL     1      -5.475   9.512   2.733  1.00  0.00     0.009 A 
HETATM    4  C11 UNL     1      -6.753   9.595   2.246  1.00  0.00    -0.055 A 
HETATM    5  C24 UNL     1      -6.885   9.678   0.853  1.00  0.00     0.051 A 
HETATM    6  C25 UNL     1      -5.805   9.678   0.012  1.00  0.00     0.143 A 
HETATM    7  F1  UNL     1      -6.044   9.770  -1.322  1.00  0.00    -0.204 F 
ENDROOT
BRANCH   1   8
HETATM    8  N3  UNL     1      -3.408   9.575  -0.391  1.00  0.00    -0.313 N 
HETATM    9  C7  UNL     1      -2.496  10.674  -0.795  1.00  0.00     0.139 C 
HETATM   10  C6  UNL     1      -2.272  10.234  -2.213  1.00  0.00     0.036 C 
HETATM   11  C5  UNL     1      -1.190  10.836  -2.991  1.00  0.00     0.010 C 
HETATM   12  C27 UNL     1      -1.819   8.769  -1.869  1.00  0.00     0.185 C 
HETATM   13  C4  UNL     1      -1.315  10.232  -4.415  1.00  0.00     0.020 C 
HETATM   14  C3  UNL     1      -2.002   8.875  -4.318  1.00  0.00     0.127 C 
HETATM   15  N2  UNL     1      -1.538   8.178  -3.103  1.00  0.00    -0.334 N 
HETATM   16  C2  UNL     1      -0.846   6.977  -3.285  1.00  0.00     0.259 C 
HETATM   17  O1  UNL     1      -0.700   6.516  -4.487  1.00  0.00    -0.267 OA
HETATM   18  C26 UNL     1      -3.014   8.386  -1.122  1.00  0.00     0.247 C 
HETATM   19  O2  UNL     1      -3.624   7.300  -1.069  1.00  0.00    -0.271 OA
BRANCH  16  20
HETATM   20  C1  UNL     1      -0.266   6.196  -2.218  1.00  0.00     0.155 C 
HETATM   21  N1  UNL     1       0.583   5.243  -2.329  1.00  0.00    -0.404 N 
ATOM     22  H12 UNL     1       0.869   5.025  -3.283  1.00  0.00     0.155 HD
ATOM     23  H11 UNL     1       0.992   4.691  -1.575  1.00  0.00     0.155 HD
ENDBRANCH  16  20
ENDBRANCH   1   8
BRANCH   4  24
HETATM   24  C12 UNL     1      -7.959   9.577   3.094  1.00  0.00     0.043 C 
BRANCH  24  25
HETATM   25  C13 UNL     1      -8.583   8.237   3.190  1.00  0.00    -0.007 C 
HETATM   26  C14 UNL     1      -7.648   7.110   3.546  1.00  0.00     0.024 C 
HETATM   27  C15 UNL     1      -8.380   5.794   3.341  1.00  0.00     0.117 C 
HETATM   28  N4  UNL     1      -9.793   5.919   3.412  1.00  0.00    -0.408 N 
HETATM   29  C22 UNL     1     -10.414   6.815   2.503  1.00  0.00     0.117 C 
HETATM   30  C23 UNL     1      -9.383   7.829   1.979  1.00  0.00     0.024 C 
BRANCH  28  31
HETATM   31  C16 UNL     1     -10.369   5.794   4.707  1.00  0.00     0.079 C 
HETATM   32  C17 UNL     1     -11.637   4.974   4.745  1.00  0.00     0.025 C 
HETATM   33  C18 UNL     1     -11.822   4.278   6.089  1.00  0.00     0.002 C 
HETATM   34  C19 UNL     1     -11.294   5.083   7.237  1.00  0.00     0.000 C 
HETATM   35  C20 UNL     1      -9.835   5.434   7.086  1.00  0.00     0.002 C 
HETATM   36  C21 UNL     1      -9.383   5.120   5.664  1.00  0.00     0.025 C 
ENDBRANCH  28  31
ENDBRANCH  24  25
ENDBRANCH   4  24
TORSDOF 5
ENDMDL
