MODEL 1
REMARK VINA RESULT: -7.507884285      0.000      0.000
REMARK  5 active torsions:
REMARK  status: ('A' for Active; 'I' for Inactive)
REMARK    1  A    between atoms: C2_3  and  S1_4 
REMARK    2  A    between atoms: S1_4  and  C3_5 
REMARK    3  A    between atoms: N5_10  and  N6_11 
REMARK       I    between atoms: N6_11  and  C4_13 
REMARK    4  A    between atoms: C4_13  and  C5_15 
REMARK    5  A    between atoms: C5_15  and  C6_16 
ROOT
HETATM    1  N1  UNL     1     -13.469  15.378  27.785  1.00  0.00    -0.197 NA
HETATM    2  C1  UNL     1     -14.265  15.520  28.611  1.00  0.00     0.069 C 
HETATM    3  C2  UNL     1     -15.288  15.701  29.645  1.00  0.00     0.206 C 
ENDROOT
BRANCH   3   4
HETATM    4  S1  UNL     1     -16.351  14.246  29.773  1.00  0.00    -0.076 SA
BRANCH   4   5
HETATM    5  C3  UNL     1     -17.908  14.640  30.543  1.00  0.00     0.194 A 
HETATM    6  N2  UNL     1     -18.183  15.758  31.213  1.00  0.00    -0.263 N 
HETATM    7  N3  UNL     1     -19.442  15.638  31.613  1.00  0.00    -0.005 NA
ATOM      8  H2  UNL     1     -17.556  16.544  31.383  1.00  0.00     0.186 HD
HETATM    9  N4  UNL     1     -19.919  14.470  31.193  1.00  0.00     0.017 NA
HETATM   10  N5  UNL     1     -18.969  13.824  30.516  1.00  0.00    -0.155 N 
BRANCH  10  11
HETATM   11  N6  UNL     1     -19.089  12.579  29.927  1.00  0.00    -0.248 N 
HETATM   12  C4  UNL     1     -19.530  12.420  28.583  1.00  0.00     0.238 C 
HETATM   13  O1  UNL     1     -19.792  13.494  27.996  1.00  0.00    -0.272 OA
ATOM     14  H6  UNL     1     -18.855  11.749  30.472  1.00  0.00     0.192 HD
BRANCH  12  15
HETATM   15  C5  UNL     1     -19.635  11.072  28.021  1.00  0.00     0.117 C 
BRANCH  15  16
HETATM   16  C6  UNL     1     -18.411  10.413  27.510  1.00  0.00     0.000 C 
HETATM   17  C7  UNL     1     -17.759   9.584  28.564  1.00  0.00     0.017 C 
HETATM   18  C8  UNL     1     -16.365   9.098  28.135  1.00  0.00    -0.013 C 
HETATM   19  C9  UNL     1     -15.456  10.268  27.903  1.00  0.00     0.009 C 
HETATM   20  C13 UNL     1     -16.594   8.262  26.889  1.00  0.00     0.012 C 
HETATM   21  C10 UNL     1     -16.089  11.062  26.762  1.00  0.00    -0.013 C 
HETATM   22  C11 UNL     1     -16.198  10.221  25.516  1.00  0.00     0.012 C 
HETATM   23  C18 UNL     1     -17.390  11.574  27.248  1.00  0.00     0.017 C 
HETATM   24  C12 UNL     1     -17.186   9.141  25.795  1.00  0.00     0.022 C 
HETATM   25  C14 UNL     1     -18.559   9.662  26.213  1.00  0.00     0.072 C 
HETATM   26  C15 UNL     1     -19.044  10.549  25.098  1.00  0.00     0.041 C 
HETATM   27  O2  UNL     1     -19.380   8.584  26.304  1.00  0.00    -0.379 OA
HETATM   28  C16 UNL     1     -20.289   9.868  24.592  1.00  0.00     0.029 C 
HETATM   29  C17 UNL     1     -20.135   8.480  25.153  1.00  0.00     0.169 C 
ENDBRANCH  15  16
ENDBRANCH  12  15
ENDBRANCH  10  11
ENDBRANCH   4   5
ENDBRANCH   3   4
TORSDOF 5
ENDMDL
MODEL 2
REMARK VINA RESULT: -7.432443554      3.836      5.995
REMARK  5 active torsions:
REMARK  status: ('A' for Active; 'I' for Inactive)
REMARK    1  A    between atoms: C2_3  and  S1_4 
REMARK    2  A    between atoms: S1_4  and  C3_5 
REMARK    3  A    between atoms: N5_10  and  N6_11 
REMARK       I    between atoms: N6_11  and  C4_13 
REMARK    4  A    between atoms: C4_13  and  C5_15 
REMARK    5  A    between atoms: C5_15  and  C6_16 
ROOT
HETATM    1  N1  UNL     1     -21.624   6.738  24.359  1.00  0.00    -0.197 NA
HETATM    2  C1  UNL     1     -22.320   7.588  24.719  1.00  0.00     0.069 C 
HETATM    3  C2  UNL     1     -23.188   8.672  25.188  1.00  0.00     0.206 C 
ENDROOT
BRANCH   3   4
HETATM    4  S1  UNL     1     -22.578  10.281  24.636  1.00  0.00    -0.076 SA
BRANCH   4   5
HETATM    5  C3  UNL     1     -22.996  11.569  25.793  1.00  0.00     0.194 A 
HETATM    6  N2  UNL     1     -24.222  12.028  26.038  1.00  0.00    -0.263 N 
HETATM    7  N3  UNL     1     -24.077  12.973  26.957  1.00  0.00    -0.005 NA
ATOM      8  H2  UNL     1     -25.093  11.716  25.608  1.00  0.00     0.186 HD
HETATM    9  N4  UNL     1     -22.788  13.084  27.263  1.00  0.00     0.017 NA
HETATM   10  N5  UNL     1     -22.087  12.208  26.540  1.00  0.00    -0.155 N 
BRANCH  10  11
HETATM   11  N6  UNL     1     -20.716  12.027  26.581  1.00  0.00    -0.248 N 
HETATM   12  C4  UNL     1     -20.101  11.130  27.499  1.00  0.00     0.238 C 
HETATM   13  O1  UNL     1     -20.903  10.530  28.250  1.00  0.00    -0.272 OA
ATOM     14  H6  UNL     1     -20.129  12.553  25.934  1.00  0.00     0.192 HD
BRANCH  12  15
HETATM   15  C5  UNL     1     -18.644  10.986  27.489  1.00  0.00     0.117 C 
BRANCH  15  16
HETATM   16  C6  UNL     1     -18.054   9.715  27.008  1.00  0.00     0.000 C 
HETATM   17  C7  UNL     1     -18.896   9.092  25.947  1.00  0.00     0.017 C 
HETATM   18  C8  UNL     1     -18.439   7.662  25.615  1.00  0.00    -0.013 C 
HETATM   19  C9  UNL     1     -18.571   6.782  26.822  1.00  0.00     0.009 C 
HETATM   20  C13 UNL     1     -17.008   7.798  25.126  1.00  0.00     0.012 C 
HETATM   21  C10 UNL     1     -17.637   7.380  27.872  1.00  0.00    -0.013 C 
HETATM   22  C11 UNL     1     -16.213   7.396  27.382  1.00  0.00     0.012 C 
HETATM   23  C18 UNL     1     -18.161   8.722  28.216  1.00  0.00     0.017 C 
HETATM   24  C12 UNL     1     -16.145   8.361  26.247  1.00  0.00     0.022 C 
HETATM   25  C14 UNL     1     -16.601   9.770  26.616  1.00  0.00     0.072 C 
HETATM   26  C15 UNL     1     -15.725  10.225  27.752  1.00  0.00     0.041 C 
HETATM   27  O2  UNL     1     -16.363  10.558  25.536  1.00  0.00    -0.379 OA
HETATM   28  C16 UNL     1     -14.988  11.419  27.203  1.00  0.00     0.029 C 
HETATM   29  C17 UNL     1     -15.180  11.248  25.720  1.00  0.00     0.169 C 
ENDBRANCH  15  16
ENDBRANCH  12  15
ENDBRANCH  10  11
ENDBRANCH   4   5
ENDBRANCH   3   4
TORSDOF 5
ENDMDL
MODEL 3
REMARK VINA RESULT: -7.379986675      4.177      6.134
REMARK  5 active torsions:
REMARK  status: ('A' for Active; 'I' for Inactive)
REMARK    1  A    between atoms: C2_3  and  S1_4 
REMARK    2  A    between atoms: S1_4  and  C3_5 
REMARK    3  A    between atoms: N5_10  and  N6_11 
REMARK       I    between atoms: N6_11  and  C4_13 
REMARK    4  A    between atoms: C4_13  and  C5_15 
REMARK    5  A    between atoms: C5_15  and  C6_16 
ROOT
HETATM    1  N1  UNL     1     -21.440  10.504  22.148  1.00  0.00    -0.197 NA
HETATM    2  C1  UNL     1     -22.088   9.724  22.702  1.00  0.00     0.069 C 
HETATM    3  C2  UNL     1     -22.894   8.726  23.413  1.00  0.00     0.206 C 
ENDROOT
BRANCH   3   4
HETATM    4  S1  UNL     1     -22.776   8.946  25.202  1.00  0.00    -0.076 SA
BRANCH   4   5
HETATM    5  C3  UNL     1     -23.241  10.594  25.689  1.00  0.00     0.194 A 
HETATM    6  N2  UNL     1     -24.488  11.049  25.807  1.00  0.00    -0.263 N 
HETATM    7  N3  UNL     1     -24.376  12.314  26.188  1.00  0.00    -0.005 NA
ATOM      8  H2  UNL     1     -25.350  10.530  25.640  1.00  0.00     0.186 HD
HETATM    9  N4  UNL     1     -23.087  12.621  26.297  1.00  0.00     0.017 NA
HETATM   10  N5  UNL     1     -22.352  11.551  25.987  1.00  0.00    -0.155 N 
BRANCH  10  11
HETATM   11  N6  UNL     1     -20.971  11.481  25.985  1.00  0.00    -0.248 N 
HETATM   12  C4  UNL     1     -20.237  11.027  27.118  1.00  0.00     0.238 C 
HETATM   13  O1  UNL     1     -20.947  10.702  28.096  1.00  0.00    -0.272 OA
ATOM     14  H6  UNL     1     -20.463  11.764  25.148  1.00  0.00     0.192 HD
BRANCH  12  15
HETATM   15  C5  UNL     1     -18.776  10.979  27.048  1.00  0.00     0.117 C 
BRANCH  15  16
HETATM   16  C6  UNL     1     -18.119   9.699  26.696  1.00  0.00     0.000 C 
HETATM   17  C7  UNL     1     -18.813   9.025  25.562  1.00  0.00     0.017 C 
HETATM   18  C8  UNL     1     -18.306   7.590  25.346  1.00  0.00    -0.013 C 
HETATM   19  C9  UNL     1     -18.583   6.754  26.560  1.00  0.00     0.009 C 
HETATM   20  C13 UNL     1     -16.826   7.726  25.038  1.00  0.00     0.012 C 
HETATM   21  C10 UNL     1     -17.795   7.403  27.696  1.00  0.00    -0.013 C 
HETATM   22  C11 UNL     1     -16.320   7.420  27.390  1.00  0.00     0.012 C 
HETATM   23  C18 UNL     1     -18.369   8.750  27.918  1.00  0.00     0.017 C 
HETATM   24  C12 UNL     1     -16.117   8.342  26.236  1.00  0.00     0.022 C 
HETATM   25  C14 UNL     1     -16.628   9.758  26.489  1.00  0.00     0.072 C 
HETATM   26  C15 UNL     1     -15.908  10.267  27.708  1.00  0.00     0.041 C 
HETATM   27  O2  UNL     1     -16.261  10.509  25.418  1.00  0.00    -0.379 OA
HETATM   28  C16 UNL     1     -15.117  11.449  27.211  1.00  0.00     0.029 C 
HETATM   29  C17 UNL     1     -15.118  11.220  25.723  1.00  0.00     0.169 C 
ENDBRANCH  15  16
ENDBRANCH  12  15
ENDBRANCH  10  11
ENDBRANCH   4   5
ENDBRANCH   3   4
TORSDOF 5
ENDMDL
MODEL 4
REMARK VINA RESULT: -7.342450717      3.872      5.769
REMARK  5 active torsions:
REMARK  status: ('A' for Active; 'I' for Inactive)
REMARK    1  A    between atoms: C2_3  and  S1_4 
REMARK    2  A    between atoms: S1_4  and  C3_5 
REMARK    3  A    between atoms: N5_10  and  N6_11 
REMARK       I    between atoms: N6_11  and  C4_13 
REMARK    4  A    between atoms: C4_13  and  C5_15 
REMARK    5  A    between atoms: C5_15  and  C6_16 
ROOT
HETATM    1  N1  UNL     1     -23.286   9.045  30.729  1.00  0.00    -0.197 NA
HETATM    2  C1  UNL     1     -23.279  10.190  30.884  1.00  0.00     0.069 C 
HETATM    3  C2  UNL     1     -23.253  11.643  31.077  1.00  0.00     0.206 C 
ENDROOT
BRANCH   3   4
HETATM    4  S1  UNL     1     -23.020  12.505  29.506  1.00  0.00    -0.076 SA
BRANCH   4   5
HETATM    5  C3  UNL     1     -23.437  11.464  28.123  1.00  0.00     0.194 A 
HETATM    6  N2  UNL     1     -24.648  11.337  27.582  1.00  0.00    -0.263 N 
HETATM    7  N3  UNL     1     -24.509  10.471  26.587  1.00  0.00    -0.005 NA
ATOM      8  H2  UNL     1     -25.504  11.809  27.873  1.00  0.00     0.186 HD
HETATM    9  N4  UNL     1     -23.239  10.082  26.527  1.00  0.00     0.017 NA
HETATM   10  N5  UNL     1     -22.544  10.695  27.487  1.00  0.00    -0.155 N 
BRANCH  10  11
HETATM   11  N6  UNL     1     -21.193  10.545  27.740  1.00  0.00    -0.248 N 
HETATM   12  C4  UNL     1     -20.199  11.083  26.875  1.00  0.00     0.238 C 
HETATM   13  O1  UNL     1     -20.655  11.696  25.884  1.00  0.00    -0.272 OA
ATOM     14  H6  UNL     1     -20.900  10.032  28.572  1.00  0.00     0.192 HD
BRANCH  12  15
HETATM   15  C5  UNL     1     -18.786  10.887  27.203  1.00  0.00     0.117 C 
BRANCH  15  16
HETATM   16  C6  UNL     1     -18.123   9.629  26.787  1.00  0.00     0.000 C 
HETATM   17  C7  UNL     1     -18.838   8.990  25.646  1.00  0.00     0.017 C 
HETATM   18  C8  UNL     1     -18.320   7.570  25.364  1.00  0.00    -0.013 C 
HETATM   19  C9  UNL     1     -18.557   6.686  26.553  1.00  0.00     0.009 C 
HETATM   20  C13 UNL     1     -16.849   7.735  25.026  1.00  0.00     0.012 C 
HETATM   21  C10 UNL     1     -17.749   7.303  27.693  1.00  0.00    -0.013 C 
HETATM   22  C11 UNL     1     -16.282   7.348  27.352  1.00  0.00     0.012 C 
HETATM   23  C18 UNL     1     -18.333   8.633  27.979  1.00  0.00     0.017 C 
HETATM   24  C12 UNL     1     -16.118   8.315  26.229  1.00  0.00     0.022 C 
HETATM   25  C14 UNL     1     -16.639   9.715  26.547  1.00  0.00     0.072 C 
HETATM   26  C15 UNL     1     -15.895  10.187  27.767  1.00  0.00     0.041 C 
HETATM   27  O2  UNL     1     -16.307  10.509  25.496  1.00  0.00    -0.379 OA
HETATM   28  C16 UNL     1     -15.130  11.396  27.295  1.00  0.00     0.029 C 
HETATM   29  C17 UNL     1     -15.165  11.223  25.800  1.00  0.00     0.169 C 
ENDBRANCH  15  16
ENDBRANCH  12  15
ENDBRANCH  10  11
ENDBRANCH   4   5
ENDBRANCH   3   4
TORSDOF 5
ENDMDL
MODEL 5
REMARK VINA RESULT: -7.136279095      3.547      5.727
REMARK  5 active torsions:
REMARK  status: ('A' for Active; 'I' for Inactive)
REMARK    1  A    between atoms: C2_3  and  S1_4 
REMARK    2  A    between atoms: S1_4  and  C3_5 
REMARK    3  A    between atoms: N5_10  and  N6_11 
REMARK       I    between atoms: N6_11  and  C4_13 
REMARK    4  A    between atoms: C4_13  and  C5_15 
REMARK    5  A    between atoms: C5_15  and  C6_16 
ROOT
HETATM    1  N1  UNL     1     -24.396   9.323  28.332  1.00  0.00    -0.197 NA
HETATM    2  C1  UNL     1     -24.057   9.338  27.228  1.00  0.00     0.069 C 
HETATM    3  C2  UNL     1     -23.640   9.369  25.823  1.00  0.00     0.206 C 
ENDROOT
BRANCH   3   4
HETATM    4  S1  UNL     1     -22.764  10.902  25.437  1.00  0.00    -0.076 SA
BRANCH   4   5
HETATM    5  C3  UNL     1     -22.982  12.118  26.719  1.00  0.00     0.194 A 
HETATM    6  N2  UNL     1     -24.148  12.607  27.138  1.00  0.00    -0.263 N 
HETATM    7  N3  UNL     1     -23.852  13.477  28.095  1.00  0.00    -0.005 NA
ATOM      8  H2  UNL     1     -25.077  12.363  26.794  1.00  0.00     0.186 HD
HETATM    9  N4  UNL     1     -22.533  13.514  28.252  1.00  0.00     0.017 NA
HETATM   10  N5  UNL     1     -21.963  12.665  27.394  1.00  0.00    -0.155 N 
BRANCH  10  11
HETATM   11  N6  UNL     1     -20.608  12.427  27.260  1.00  0.00    -0.248 N 
HETATM   12  C4  UNL     1     -19.983  11.283  27.832  1.00  0.00     0.238 C 
HETATM   13  O1  UNL     1     -20.761  10.527  28.455  1.00  0.00    -0.272 OA
ATOM     14  H6  UNL     1     -20.038  13.091  26.736  1.00  0.00     0.192 HD
BRANCH  12  15
HETATM   15  C5  UNL     1     -18.542  11.092  27.651  1.00  0.00     0.117 C 
BRANCH  15  16
HETATM   16  C6  UNL     1     -18.056   9.809  27.093  1.00  0.00     0.000 C 
HETATM   17  C7  UNL     1     -18.999   9.266  26.075  1.00  0.00     0.017 C 
HETATM   18  C8  UNL     1     -18.644   7.826  25.669  1.00  0.00    -0.013 C 
HETATM   19  C9  UNL     1     -18.741   6.914  26.855  1.00  0.00     0.009 C 
HETATM   20  C13 UNL     1     -17.245   7.904  25.086  1.00  0.00     0.012 C 
HETATM   21  C10 UNL     1     -17.708   7.427  27.856  1.00  0.00    -0.013 C 
HETATM   22  C11 UNL     1     -16.321   7.386  27.268  1.00  0.00     0.012 C 
HETATM   23  C18 UNL     1     -18.133   8.782  28.275  1.00  0.00     0.017 C 
HETATM   24  C12 UNL     1     -16.278   8.383  26.161  1.00  0.00     0.022 C 
HETATM   25  C14 UNL     1     -16.631   9.802  26.602  1.00  0.00     0.072 C 
HETATM   26  C15 UNL     1     -15.658  10.172  27.688  1.00  0.00     0.041 C 
HETATM   27  O2  UNL     1     -16.425  10.612  25.533  1.00  0.00    -0.379 OA
HETATM   28  C16 UNL     1     -14.896  11.344  27.125  1.00  0.00     0.029 C 
HETATM   29  C17 UNL     1     -15.197  11.233  25.654  1.00  0.00     0.169 C 
ENDBRANCH  15  16
ENDBRANCH  12  15
ENDBRANCH  10  11
ENDBRANCH   4   5
ENDBRANCH   3   4
TORSDOF 5
ENDMDL
