MODEL 1
REMARK VINA RESULT: -7.602401635      0.000      0.000
REMARK  6 active torsions:
REMARK  status: ('A' for Active; 'I' for Inactive)
REMARK    1  A    between atoms: C2_2  and  O1_3 
REMARK    2  A    between atoms: O1_3  and  C3_4 
REMARK    3  A    between atoms: C3_4  and  C4_6 
REMARK    4  A    between atoms: C5_7  and  S1_8 
REMARK    5  A    between atoms: S1_8  and  C6_9 
REMARK    6  A    between atoms: N3_15  and  C8_17 
ROOT
HETATM    1  C6  UNL     1     -18.709  16.763  32.229  1.00  0.00     0.134 A 
HETATM    2  N1  UNL     1     -17.462  17.149  32.243  1.00  0.00    -0.286 N 
ATOM      3  H1  UNL     1     -17.195  17.949  32.816  1.00  0.00     0.188 HD
HETATM    4  N2  UNL     1     -16.571  16.552  31.559  1.00  0.00    -0.279 N 
ATOM      5  H2  UNL     1     -15.599  16.863  31.579  1.00  0.00     0.189 HD
HETATM    6  C7  UNL     1     -16.941  15.506  30.814  1.00  0.00     0.162 A 
HETATM    7  N3  UNL     1     -16.207  14.768  30.053  1.00  0.00    -0.365 N 
ATOM      8  H3  UNL     1     -16.667  14.007  29.554  1.00  0.00     0.162 HD
HETATM    9  S2  UNL     1     -18.614  15.421  31.138  1.00  0.00    -0.026 SA
ENDROOT
BRANCH   1  10
HETATM   10  S1  UNL     1     -20.157  17.422  33.092  1.00  0.00    -0.067 SA
BRANCH  10  11
HETATM   11  C5  UNL     1     -19.830  17.472  34.844  1.00  0.00     0.005 C 
HETATM   12  C4  UNL     1     -19.207  18.469  35.448  1.00  0.00     0.085 C 
HETATM   13  C16 UNL     1     -18.957  18.463  36.923  1.00  0.00     0.302 C 
HETATM   14  O3  UNL     1     -20.116  18.711  37.636  1.00  0.00    -0.354 OA
HETATM   15  O4  UNL     1     -18.609  17.145  37.245  1.00  0.00    -0.349 OA
HETATM   16  C15 UNL     1     -20.755  17.499  37.826  1.00  0.00     0.203 C 
HETATM   17  C14 UNL     1     -19.843  16.499  37.125  1.00  0.00     0.153 C 
HETATM   18  C13 UNL     1     -20.273  16.344  35.693  1.00  0.00     0.081 C 
BRANCH  12  19
HETATM   19  C3  UNL     1     -18.762  19.588  34.640  1.00  0.00     0.295 C 
HETATM   20  O2  UNL     1     -17.702  19.584  33.976  1.00  0.00    -0.259 OA
BRANCH  19  21
HETATM   21  O1  UNL     1     -19.544  20.720  34.595  1.00  0.00    -0.318 OA
BRANCH  21  22
HETATM   22  C2  UNL     1     -19.532  21.762  35.549  1.00  0.00     0.174 C 
HETATM   23  C1  UNL     1     -20.868  21.744  36.258  1.00  0.00     0.034 C 
ENDBRANCH  21  22
ENDBRANCH  19  21
ENDBRANCH  12  19
ENDBRANCH  10  11
ENDBRANCH   1  10
BRANCH   7  24
HETATM   24  C8  UNL     1     -14.812  14.926  29.852  1.00  0.00     0.083 C 
HETATM   25  C9  UNL     1     -14.100  13.651  29.476  1.00  0.00     0.025 C 
HETATM   26  C10 UNL     1     -14.163  13.729  27.954  1.00  0.00     0.002 C 
HETATM   27  C11 UNL     1     -13.748  15.166  27.723  1.00  0.00     0.002 C 
HETATM   28  C12 UNL     1     -14.576  15.905  28.746  1.00  0.00     0.025 C 
ENDBRANCH   7  24
TORSDOF 6
ENDMDL
MODEL 2
REMARK VINA RESULT: -7.225272023      1.035      1.579
REMARK  6 active torsions:
REMARK  status: ('A' for Active; 'I' for Inactive)
REMARK    1  A    between atoms: C2_2  and  O1_3 
REMARK    2  A    between atoms: O1_3  and  C3_4 
REMARK    3  A    between atoms: C3_4  and  C4_6 
REMARK    4  A    between atoms: C5_7  and  S1_8 
REMARK    5  A    between atoms: S1_8  and  C6_9 
REMARK    6  A    between atoms: N3_15  and  C8_17 
ROOT
HETATM    1  C6  UNL     1     -18.912  16.864  31.996  1.00  0.00     0.134 A 
HETATM    2  N1  UNL     1     -17.680  17.296  31.982  1.00  0.00    -0.286 N 
ATOM      3  H1  UNL     1     -17.458  18.180  32.439  1.00  0.00     0.188 HD
HETATM    4  N2  UNL     1     -16.750  16.643  31.411  1.00  0.00    -0.279 N 
ATOM      5  H2  UNL     1     -15.791  16.991  31.408  1.00  0.00     0.189 HD
HETATM    6  C7  UNL     1     -17.062  15.487  30.817  1.00  0.00     0.162 A 
HETATM    7  N3  UNL     1     -16.282  14.676  30.187  1.00  0.00    -0.365 N 
ATOM      8  H3  UNL     1     -16.701  13.834  29.793  1.00  0.00     0.162 HD
HETATM    9  S2  UNL     1     -18.739  15.384  31.112  1.00  0.00    -0.026 SA
ENDROOT
BRANCH   1  10
HETATM   10  S1  UNL     1     -20.406  17.583  32.722  1.00  0.00    -0.067 SA
BRANCH  10  11
HETATM   11  C5  UNL     1     -20.341  17.418  34.496  1.00  0.00     0.005 C 
HETATM   12  C4  UNL     1     -19.675  18.240  35.288  1.00  0.00     0.085 C 
HETATM   13  C16 UNL     1     -19.651  18.058  36.773  1.00  0.00     0.302 C 
HETATM   14  O3  UNL     1     -20.855  18.424  37.348  1.00  0.00    -0.354 OA
HETATM   15  O4  UNL     1     -19.553  16.677  36.985  1.00  0.00    -0.349 OA
HETATM   16  C15 UNL     1     -21.686  17.318  37.312  1.00  0.00     0.203 C 
HETATM   17  C14 UNL     1     -20.837  16.253  36.629  1.00  0.00     0.153 C 
HETATM   18  C13 UNL     1     -21.066  16.303  35.144  1.00  0.00     0.081 C 
BRANCH  12  19
HETATM   19  C3  UNL     1     -18.955  19.342  34.680  1.00  0.00     0.295 C 
HETATM   20  O2  UNL     1     -19.482  20.439  34.391  1.00  0.00    -0.259 OA
BRANCH  19  21
HETATM   21  O1  UNL     1     -17.616  19.181  34.402  1.00  0.00    -0.318 OA
BRANCH  21  22
HETATM   22  C2  UNL     1     -16.693  18.474  35.204  1.00  0.00     0.174 C 
HETATM   23  C1  UNL     1     -16.419  19.315  36.431  1.00  0.00     0.034 C 
ENDBRANCH  21  22
ENDBRANCH  19  21
ENDBRANCH  12  19
ENDBRANCH  10  11
ENDBRANCH   1  10
BRANCH   7  24
HETATM   24  C8  UNL     1     -14.888  14.858  29.997  1.00  0.00     0.083 C 
HETATM   25  C9  UNL     1     -14.158  13.604  29.586  1.00  0.00     0.025 C 
HETATM   26  C10 UNL     1     -14.217  13.726  28.067  1.00  0.00     0.002 C 
HETATM   27  C11 UNL     1     -13.820  15.174  27.880  1.00  0.00     0.002 C 
HETATM   28  C12 UNL     1     -14.661  15.872  28.921  1.00  0.00     0.025 C 
ENDBRANCH   7  24
TORSDOF 6
ENDMDL
MODEL 3
REMARK VINA RESULT: -6.961719430      1.443      2.899
REMARK  6 active torsions:
REMARK  status: ('A' for Active; 'I' for Inactive)
REMARK    1  A    between atoms: C2_2  and  O1_3 
REMARK    2  A    between atoms: O1_3  and  C3_4 
REMARK    3  A    between atoms: C3_4  and  C4_6 
REMARK    4  A    between atoms: C5_7  and  S1_8 
REMARK    5  A    between atoms: S1_8  and  C6_9 
REMARK    6  A    between atoms: N3_15  and  C8_17 
ROOT
HETATM    1  C6  UNL     1     -18.575  16.746  32.259  1.00  0.00     0.134 A 
HETATM    2  N1  UNL     1     -17.327  17.128  32.252  1.00  0.00    -0.286 N 
ATOM      3  H1  UNL     1     -17.044  17.914  32.837  1.00  0.00     0.188 HD
HETATM    4  N2  UNL     1     -16.454  16.545  31.533  1.00  0.00    -0.279 N 
ATOM      5  H2  UNL     1     -15.482  16.853  31.536  1.00  0.00     0.189 HD
HETATM    6  C7  UNL     1     -16.846  15.518  30.772  1.00  0.00     0.162 A 
HETATM    7  N3  UNL     1     -16.133  14.796  29.977  1.00  0.00    -0.365 N 
ATOM      8  H3  UNL     1     -16.608  14.048  29.471  1.00  0.00     0.162 HD
HETATM    9  S2  UNL     1     -18.510  15.430  31.135  1.00  0.00    -0.026 SA
ENDROOT
BRANCH   1  10
HETATM   10  S1  UNL     1     -20.000  17.388  33.172  1.00  0.00    -0.067 SA
BRANCH  10  11
HETATM   11  C5  UNL     1     -19.437  18.180  34.667  1.00  0.00     0.005 C 
HETATM   12  C4  UNL     1     -19.826  17.827  35.879  1.00  0.00     0.085 C 
HETATM   13  C16 UNL     1     -19.323  18.525  37.103  1.00  0.00     0.302 C 
HETATM   14  O3  UNL     1     -18.013  18.177  37.385  1.00  0.00    -0.354 OA
HETATM   15  O4  UNL     1     -19.273  19.885  36.772  1.00  0.00    -0.349 OA
HETATM   16  C15 UNL     1     -17.193  19.028  36.666  1.00  0.00     0.203 C 
HETATM   17  C14 UNL     1     -18.173  19.917  35.909  1.00  0.00     0.153 C 
HETATM   18  C13 UNL     1     -18.477  19.302  34.570  1.00  0.00     0.081 C 
BRANCH  12  19
HETATM   19  C3  UNL     1     -20.766  16.730  36.003  1.00  0.00     0.295 C 
HETATM   20  O2  UNL     1     -20.436  15.570  36.336  1.00  0.00    -0.259 OA
BRANCH  19  21
HETATM   21  O1  UNL     1     -22.097  16.970  35.743  1.00  0.00    -0.318 OA
BRANCH  21  22
HETATM   22  C2  UNL     1     -23.021  16.017  35.261  1.00  0.00     0.174 C 
HETATM   23  C1  UNL     1     -23.692  16.611  34.042  1.00  0.00     0.034 C 
ENDBRANCH  21  22
ENDBRANCH  19  21
ENDBRANCH  12  19
ENDBRANCH  10  11
ENDBRANCH   1  10
BRANCH   7  24
HETATM   24  C8  UNL     1     -14.743  14.955  29.746  1.00  0.00     0.083 C 
HETATM   25  C9  UNL     1     -14.029  13.672  29.401  1.00  0.00     0.025 C 
HETATM   26  C10 UNL     1     -14.119  13.697  27.879  1.00  0.00     0.002 C 
HETATM   27  C11 UNL     1     -13.718  15.128  27.591  1.00  0.00     0.002 C 
HETATM   28  C12 UNL     1     -14.532  15.897  28.603  1.00  0.00     0.025 C 
ENDBRANCH   7  24
TORSDOF 6
ENDMDL
MODEL 4
REMARK VINA RESULT: -6.894357835      2.626      3.958
REMARK  6 active torsions:
REMARK  status: ('A' for Active; 'I' for Inactive)
REMARK    1  A    between atoms: C2_2  and  O1_3 
REMARK    2  A    between atoms: O1_3  and  C3_4 
REMARK    3  A    between atoms: C3_4  and  C4_6 
REMARK    4  A    between atoms: C5_7  and  S1_8 
REMARK    5  A    between atoms: S1_8  and  C6_9 
REMARK    6  A    between atoms: N3_15  and  C8_17 
ROOT
HETATM    1  C6  UNL     1     -19.401  16.416  31.485  1.00  0.00     0.134 A 
HETATM    2  N1  UNL     1     -18.232  16.989  31.586  1.00  0.00    -0.286 N 
ATOM      3  H1  UNL     1     -18.163  17.902  32.036  1.00  0.00     0.188 HD
HETATM    4  N2  UNL     1     -17.177  16.439  31.136  1.00  0.00    -0.279 N 
ATOM      5  H2  UNL     1     -16.270  16.897  31.222  1.00  0.00     0.189 HD
HETATM    6  C7  UNL     1     -17.289  15.243  30.549  1.00  0.00     0.162 A 
HETATM    7  N3  UNL     1     -16.358  14.518  30.030  1.00  0.00    -0.365 N 
ATOM      8  H3  UNL     1     -16.633  13.625  29.621  1.00  0.00     0.162 HD
HETATM    9  S2  UNL     1     -18.965  14.950  30.671  1.00  0.00    -0.026 SA
ENDROOT
BRANCH   1  10
HETATM   10  S1  UNL     1     -21.036  16.968  32.029  1.00  0.00    -0.067 SA
BRANCH  10  11
HETATM   11  C5  UNL     1     -21.080  17.023  33.810  1.00  0.00     0.005 C 
HETATM   12  C4  UNL     1     -21.998  16.417  34.543  1.00  0.00     0.085 C 
HETATM   13  C16 UNL     1     -21.991  16.493  36.037  1.00  0.00     0.302 C 
HETATM   14  O3  UNL     1     -20.990  15.708  36.581  1.00  0.00    -0.354 OA
HETATM   15  O4  UNL     1     -21.628  17.810  36.349  1.00  0.00    -0.349 OA
HETATM   16  C15 UNL     1     -19.838  16.472  36.622  1.00  0.00     0.203 C 
HETATM   17  C14 UNL     1     -20.270  17.805  36.020  1.00  0.00     0.153 C 
HETATM   18  C13 UNL     1     -20.039  17.784  34.535  1.00  0.00     0.081 C 
BRANCH  12  19
HETATM   19  C3  UNL     1     -23.032  15.663  33.859  1.00  0.00     0.295 C 
HETATM   20  O2  UNL     1     -24.034  16.188  33.328  1.00  0.00    -0.259 OA
BRANCH  19  21
HETATM   21  O1  UNL     1     -22.909  14.293  33.786  1.00  0.00    -0.318 OA
BRANCH  21  22
HETATM   22  C2  UNL     1     -23.283  13.495  32.682  1.00  0.00     0.174 C 
HETATM   23  C1  UNL     1     -22.016  13.095  31.960  1.00  0.00     0.034 C 
ENDBRANCH  21  22
ENDBRANCH  19  21
ENDBRANCH  12  19
ENDBRANCH  10  11
ENDBRANCH   1  10
BRANCH   7  24
HETATM   24  C8  UNL     1     -14.982  14.859  29.980  1.00  0.00     0.083 C 
HETATM   25  C9  UNL     1     -14.078  13.704  29.627  1.00  0.00     0.025 C 
HETATM   26  C10 UNL     1     -14.004  13.856  28.111  1.00  0.00     0.002 C 
HETATM   27  C11 UNL     1     -13.757  15.344  27.983  1.00  0.00     0.002 C 
HETATM   28  C12 UNL     1     -14.769  15.918  28.945  1.00  0.00     0.025 C 
ENDBRANCH   7  24
TORSDOF 6
ENDMDL
MODEL 5
REMARK VINA RESULT: -6.884524541      2.678      3.416
REMARK  6 active torsions:
REMARK  status: ('A' for Active; 'I' for Inactive)
REMARK    1  A    between atoms: C2_2  and  O1_3 
REMARK    2  A    between atoms: O1_3  and  C3_4 
REMARK    3  A    between atoms: C3_4  and  C4_6 
REMARK    4  A    between atoms: C5_7  and  S1_8 
REMARK    5  A    between atoms: S1_8  and  C6_9 
REMARK    6  A    between atoms: N3_15  and  C8_17 
ROOT
HETATM    1  C6  UNL     1     -19.412  16.473  31.502  1.00  0.00     0.134 A 
HETATM    2  N1  UNL     1     -18.238  17.040  31.573  1.00  0.00    -0.286 N 
ATOM      3  H1  UNL     1     -18.158  17.969  31.986  1.00  0.00     0.188 HD
HETATM    4  N2  UNL     1     -17.190  16.462  31.141  1.00  0.00    -0.279 N 
ATOM      5  H2  UNL     1     -16.278  16.916  31.203  1.00  0.00     0.189 HD
HETATM    6  C7  UNL     1     -17.316  15.245  30.602  1.00  0.00     0.162 A 
HETATM    7  N3  UNL     1     -16.394  14.491  30.108  1.00  0.00    -0.365 N 
ATOM      8  H3  UNL     1     -16.679  13.586  29.737  1.00  0.00     0.162 HD
HETATM    9  S2  UNL     1     -18.994  14.972  30.745  1.00  0.00    -0.026 SA
ENDROOT
BRANCH   1  10
HETATM   10  S1  UNL     1     -21.040  17.061  32.032  1.00  0.00    -0.067 SA
BRANCH  10  11
HETATM   11  C5  UNL     1     -21.113  17.075  33.813  1.00  0.00     0.005 C 
HETATM   12  C4  UNL     1     -21.993  16.387  34.519  1.00  0.00     0.085 C 
HETATM   13  C16 UNL     1     -22.012  16.433  36.014  1.00  0.00     0.302 C 
HETATM   14  O3  UNL     1     -20.963  15.714  36.558  1.00  0.00    -0.354 OA
HETATM   15  O4  UNL     1     -21.754  17.767  36.357  1.00  0.00    -0.349 OA
HETATM   16  C15 UNL     1     -19.872  16.563  36.632  1.00  0.00     0.203 C 
HETATM   17  C14 UNL     1     -20.394  17.871  36.050  1.00  0.00     0.153 C 
HETATM   18  C13 UNL     1     -20.142  17.898  34.568  1.00  0.00     0.081 C 
BRANCH  12  19
HETATM   19  C3  UNL     1     -22.956  15.572  33.805  1.00  0.00     0.295 C 
HETATM   20  O2  UNL     1     -22.872  14.329  33.705  1.00  0.00    -0.259 OA
BRANCH  19  21
HETATM   21  O1  UNL     1     -24.026  16.194  33.200  1.00  0.00    -0.318 OA
BRANCH  21  22
HETATM   22  C2  UNL     1     -24.909  17.099  33.829  1.00  0.00     0.174 C 
HETATM   23  C1  UNL     1     -24.932  18.363  32.998  1.00  0.00     0.034 C 
ENDBRANCH  21  22
ENDBRANCH  19  21
ENDBRANCH  12  19
ENDBRANCH  10  11
ENDBRANCH   1  10
BRANCH   7  24
HETATM   24  C8  UNL     1     -15.015  14.818  30.038  1.00  0.00     0.083 C 
HETATM   25  C9  UNL     1     -14.134  13.664  29.628  1.00  0.00     0.025 C 
HETATM   26  C10 UNL     1     -14.091  13.863  28.116  1.00  0.00     0.002 C 
HETATM   27  C11 UNL     1     -13.830  15.351  28.029  1.00  0.00     0.002 C 
HETATM   28  C12 UNL     1     -14.812  15.907  29.032  1.00  0.00     0.025 C 
ENDBRANCH   7  24
TORSDOF 6
ENDMDL
