MODEL 1
REMARK VINA RESULT: -7.281929776      0.000      0.000
REMARK  11 active torsions:
REMARK  status: ('A' for Active; 'I' for Inactive)
REMARK    1  A    between atoms: C2_2  and  O1_4 
REMARK    2  A    between atoms: C2_2  and  C4_6 
REMARK    3  A    between atoms: C4_6  and  C5_8 
REMARK    4  A    between atoms: C6_12  and  C7_13 
REMARK    5  A    between atoms: C7_13  and  O5_15 
REMARK    6  A    between atoms: O5_15  and  C8_16 
REMARK    7  A    between atoms: C8_16  and  O6_17 
REMARK    8  A    between atoms: C8_16  and  C9_19 
REMARK    9  A    between atoms: C12_24  and  N2_25 
REMARK   10  A    between atoms: C14_30  and  O11_31 
REMARK   11  A    between atoms: C15_33  and  O12_34 
ROOT
HETATM    1  O5  UNL     1     -15.346 -15.304  14.894  1.00  0.00    -0.282 OA
ENDROOT
BRANCH   1   2
HETATM    2  C7  UNL     1     -14.063 -15.727  14.649  1.00  0.00     0.317 C 
HETATM    3  O4  UNL     1     -13.955 -16.832  14.057  1.00  0.00    -0.257 OA
BRANCH   2   4
HETATM    4  C6  UNL     1     -12.863 -15.000  15.019  1.00  0.00     0.166 A 
HETATM    5  N1  UNL     1     -12.771 -14.209  16.116  1.00  0.00    -0.252 N 
HETATM    6  O3  UNL     1     -11.591 -13.679  16.210  1.00  0.00    -0.231 OA
ATOM      7  H1  UNL     1     -13.530 -14.050  16.779  1.00  0.00     0.195 HD
HETATM    8  C5  UNL     1     -10.859 -14.094  15.191  1.00  0.00     0.183 A 
HETATM    9  C15 UNL     1     -11.640 -14.934  14.417  1.00  0.00     0.140 A 
BRANCH   8  10
HETATM   10  C4  UNL     1      -9.476 -13.718  14.946  1.00  0.00     0.221 C 
HETATM   11  O2  UNL     1      -8.678 -14.529  14.417  1.00  0.00    -0.287 OA
BRANCH  10  12
HETATM   12  C2  UNL     1      -8.983 -12.375  15.317  1.00  0.00     0.117 C 
HETATM   13  C1  UNL     1      -8.444 -12.329  16.727  1.00  0.00     0.054 C 
HETATM   14  C3  UNL     1      -7.941 -11.866  14.346  1.00  0.00     0.054 C 
BRANCH  12  15
HETATM   15  O1  UNL     1     -10.055 -11.487  15.261  1.00  0.00    -0.382 OA
ATOM     16  H1  UNL     1     -10.794 -11.965  14.902  1.00  0.00     0.211 HD
ENDBRANCH  12  15
ENDBRANCH  10  12
ENDBRANCH   8  10
BRANCH   9  17
HETATM   17  O12 UNL     1     -11.254 -15.565  13.279  1.00  0.00    -0.356 OA
ATOM     18  H12 UNL     1     -11.775 -16.176  12.771  1.00  0.00     0.218 HD
ENDBRANCH   9  17
ENDBRANCH   2   4
ENDBRANCH   1   2
BRANCH   1  19
HETATM   19  C8  UNL     1     -16.270 -14.849  13.973  1.00  0.00     0.295 C 
BRANCH  19  20
HETATM   20  O6  UNL     1     -17.568 -15.366  14.189  1.00  0.00    -0.369 OA
ATOM     21  H6  UNL     1     -17.716 -15.639  15.087  1.00  0.00     0.212 HD
ENDBRANCH  19  20
BRANCH  19  22
HETATM   22  C9  UNL     1     -16.412 -13.372  13.870  1.00  0.00     0.151 C 
HETATM   23  S1  UNL     1     -16.725 -12.519  15.450  1.00  0.00    -0.136 SA
HETATM   24  C10 UNL     1     -17.320 -10.844  14.987  1.00  0.00     0.157 C 
HETATM   25  C11 UNL     1     -16.873 -10.641  13.584  1.00  0.00     0.181 C 
HETATM   26  O7  UNL     1     -16.657  -9.506  13.205  1.00  0.00    -0.294 OA
HETATM   27  C12 UNL     1     -16.673 -11.751  12.622  1.00  0.00     0.245 C 
HETATM   28  C13 UNL     1     -15.529 -12.621  12.996  1.00  0.00     0.198 C 
HETATM   29  C14 UNL     1     -17.560 -12.945  12.942  1.00  0.00     0.199 C 
HETATM   30  O10 UNL     1     -14.368 -12.656  12.682  1.00  0.00    -0.292 OA
BRANCH  27  31
HETATM   31  N2  UNL     1     -16.763 -11.391  11.246  1.00  0.00    -0.127 N 
HETATM   32  O8  UNL     1     -15.768 -11.079  10.572  1.00  0.00    -0.535 OA
HETATM   33  O9  UNL     1     -17.986 -11.387  10.625  1.00  0.00    -0.535 OA
ENDBRANCH  27  31
BRANCH  29  34
HETATM   34  O11 UNL     1     -17.592 -13.805  11.863  1.00  0.00    -0.390 OA
ATOM     35  H11 UNL     1     -18.492 -14.070  11.717  1.00  0.00     0.210 HD
ENDBRANCH  29  34
ENDBRANCH  19  22
ENDBRANCH   1  19
TORSDOF 11
ENDMDL
MODEL 2
REMARK VINA RESULT: -6.980882564      5.302      9.564
REMARK  11 active torsions:
REMARK  status: ('A' for Active; 'I' for Inactive)
REMARK    1  A    between atoms: C2_2  and  O1_4 
REMARK    2  A    between atoms: C2_2  and  C4_6 
REMARK    3  A    between atoms: C4_6  and  C5_8 
REMARK    4  A    between atoms: C6_12  and  C7_13 
REMARK    5  A    between atoms: C7_13  and  O5_15 
REMARK    6  A    between atoms: O5_15  and  C8_16 
REMARK    7  A    between atoms: C8_16  and  O6_17 
REMARK    8  A    between atoms: C8_16  and  C9_19 
REMARK    9  A    between atoms: C12_24  and  N2_25 
REMARK   10  A    between atoms: C14_30  and  O11_31 
REMARK   11  A    between atoms: C15_33  and  O12_34 
ROOT
HETATM    1  O5  UNL     1      -9.177 -12.065  18.923  1.00  0.00    -0.282 OA
ENDROOT
BRANCH   1   2
HETATM    2  C7  UNL     1      -8.320 -12.347  17.888  1.00  0.00     0.317 C 
HETATM    3  O4  UNL     1      -7.137 -11.946  18.032  1.00  0.00    -0.257 OA
BRANCH   2   4
HETATM    4  C6  UNL     1      -8.686 -13.058  16.676  1.00  0.00     0.166 A 
HETATM    5  N1  UNL     1      -8.830 -12.460  15.468  1.00  0.00    -0.252 N 
HETATM    6  O3  UNL     1      -9.160 -13.324  14.558  1.00  0.00    -0.231 OA
ATOM      7  H1  UNL     1      -8.697 -11.463  15.298  1.00  0.00     0.195 HD
HETATM    8  C5  UNL     1      -9.247 -14.517  15.120  1.00  0.00     0.183 A 
HETATM    9  C15 UNL     1      -8.951 -14.380  16.465  1.00  0.00     0.140 A 
BRANCH   8  10
HETATM   10  C4  UNL     1      -9.596 -15.745  14.425  1.00  0.00     0.221 C 
HETATM   11  O2  UNL     1      -8.721 -16.611  14.180  1.00  0.00    -0.287 OA
BRANCH  10  12
HETATM   12  C2  UNL     1     -10.986 -15.999  13.993  1.00  0.00     0.117 C 
HETATM   13  C1  UNL     1     -11.098 -17.204  13.090  1.00  0.00     0.054 C 
HETATM   14  C3  UNL     1     -11.928 -16.141  15.167  1.00  0.00     0.054 C 
BRANCH  12  15
HETATM   15  O1  UNL     1     -11.420 -14.897  13.258  1.00  0.00    -0.382 OA
ATOM     16  H1  UNL     1     -12.159 -14.524  13.725  1.00  0.00     0.211 HD
ENDBRANCH  12  15
ENDBRANCH  10  12
ENDBRANCH   8  10
BRANCH   9  17
HETATM   17  O12 UNL     1      -8.932 -15.376  17.387  1.00  0.00    -0.356 OA
ATOM     18  H12 UNL     1      -8.184 -15.646  17.906  1.00  0.00     0.218 HD
ENDBRANCH   9  17
ENDBRANCH   2   4
ENDBRANCH   1   2
BRANCH   1  19
HETATM   19  C8  UNL     1      -8.978 -12.311  20.268  1.00  0.00     0.295 C 
BRANCH  19  20
HETATM   20  O6  UNL     1      -7.662 -12.735  20.565  1.00  0.00    -0.369 OA
ATOM     21  H6  UNL     1      -7.624 -13.622  20.902  1.00  0.00     0.212 HD
ENDBRANCH  19  20
BRANCH  19  22
HETATM   22  C9  UNL     1      -9.278 -11.180  21.186  1.00  0.00     0.151 C 
HETATM   23  S1  UNL     1     -11.050 -10.895  21.501  1.00  0.00    -0.136 SA
HETATM   24  C10 UNL     1     -11.148  -9.216  22.239  1.00  0.00     0.157 C 
HETATM   25  C11 UNL     1      -9.780  -8.927  22.744  1.00  0.00     0.181 C 
HETATM   26  O7  UNL     1      -9.661  -8.177  23.694  1.00  0.00    -0.294 OA
HETATM   27  C12 UNL     1      -8.552  -9.508  22.152  1.00  0.00     0.245 C 
HETATM   28  C13 UNL     1      -8.461 -10.975  22.369  1.00  0.00     0.198 C 
HETATM   29  C14 UNL     1      -8.733  -9.836  20.678  1.00  0.00     0.199 C 
HETATM   30  O10 UNL     1      -7.924 -11.666  23.195  1.00  0.00    -0.292 OA
BRANCH  27  31
HETATM   31  N2  UNL     1      -7.355  -8.767  22.376  1.00  0.00    -0.127 N 
HETATM   32  O8  UNL     1      -6.436  -9.187  23.096  1.00  0.00    -0.535 OA
HETATM   33  O9  UNL     1      -7.195  -7.542  21.779  1.00  0.00    -0.535 OA
ENDBRANCH  27  31
BRANCH  29  34
HETATM   34  O11 UNL     1      -7.502 -10.056  20.094  1.00  0.00    -0.390 OA
ATOM     35  H11 UNL     1      -6.870 -10.231  20.782  1.00  0.00     0.210 HD
ENDBRANCH  29  34
ENDBRANCH  19  22
ENDBRANCH   1  19
TORSDOF 11
ENDMDL
MODEL 3
REMARK VINA RESULT: -6.951504018      2.764      7.655
REMARK  11 active torsions:
REMARK  status: ('A' for Active; 'I' for Inactive)
REMARK    1  A    between atoms: C2_2  and  O1_4 
REMARK    2  A    between atoms: C2_2  and  C4_6 
REMARK    3  A    between atoms: C4_6  and  C5_8 
REMARK    4  A    between atoms: C6_12  and  C7_13 
REMARK    5  A    between atoms: C7_13  and  O5_15 
REMARK    6  A    between atoms: O5_15  and  C8_16 
REMARK    7  A    between atoms: C8_16  and  O6_17 
REMARK    8  A    between atoms: C8_16  and  C9_19 
REMARK    9  A    between atoms: C12_24  and  N2_25 
REMARK   10  A    between atoms: C14_30  and  O11_31 
REMARK   11  A    between atoms: C15_33  and  O12_34 
ROOT
HETATM    1  O5  UNL     1      -9.472 -12.637  14.504  1.00  0.00    -0.282 OA
ENDROOT
BRANCH   1   2
HETATM    2  C7  UNL     1     -10.427 -11.699  14.198  1.00  0.00     0.317 C 
HETATM    3  O4  UNL     1     -10.002 -10.534  13.988  1.00  0.00    -0.257 OA
BRANCH   2   4
HETATM    4  C6  UNL     1     -11.851 -11.962  14.106  1.00  0.00     0.166 A 
HETATM    5  N1  UNL     1     -12.806 -11.032  14.350  1.00  0.00    -0.252 N 
HETATM    6  O3  UNL     1     -13.993 -11.532  14.196  1.00  0.00    -0.231 OA
ATOM      7  H1  UNL     1     -12.616 -10.067  14.619  1.00  0.00     0.195 HD
HETATM    8  C5  UNL     1     -13.875 -12.801  13.847  1.00  0.00     0.183 A 
HETATM    9  C15 UNL     1     -12.527 -13.104  13.782  1.00  0.00     0.140 A 
BRANCH   8  10
HETATM   10  C4  UNL     1     -14.984 -13.702  13.583  1.00  0.00     0.221 C 
HETATM   11  O2  UNL     1     -14.932 -14.903  13.945  1.00  0.00    -0.287 OA
BRANCH  10  12
HETATM   12  C2  UNL     1     -16.195 -13.224  12.884  1.00  0.00     0.117 C 
HETATM   13  C1  UNL     1     -15.897 -12.724  11.491  1.00  0.00     0.054 C 
HETATM   14  C3  UNL     1     -17.277 -14.281  12.836  1.00  0.00     0.054 C 
BRANCH  12  15
HETATM   15  O1  UNL     1     -16.715 -12.148  13.601  1.00  0.00    -0.382 OA
ATOM     16  H1  UNL     1     -17.606 -12.376  13.839  1.00  0.00     0.211 HD
ENDBRANCH  12  15
ENDBRANCH  10  12
ENDBRANCH   8  10
BRANCH   9  17
HETATM   17  O12 UNL     1     -11.990 -14.308  13.457  1.00  0.00    -0.356 OA
ATOM     18  H12 UNL     1     -11.527 -14.893  14.045  1.00  0.00     0.218 HD
ENDBRANCH   9  17
ENDBRANCH   2   4
ENDBRANCH   1   2
BRANCH   1  19
HETATM   19  C8  UNL     1      -8.807 -12.795  15.705  1.00  0.00     0.295 C 
BRANCH  19  20
HETATM   20  O6  UNL     1      -8.963 -11.691  16.575  1.00  0.00    -0.369 OA
ATOM     21  H6  UNL     1      -8.586 -11.838  17.434  1.00  0.00     0.212 HD
ENDBRANCH  19  20
BRANCH  19  22
HETATM   22  C9  UNL     1      -9.162 -14.008  16.489  1.00  0.00     0.151 C 
HETATM   23  S1  UNL     1      -8.281 -14.182  18.075  1.00  0.00    -0.136 SA
HETATM   24  C10 UNL     1      -8.534 -15.931  18.581  1.00  0.00     0.157 C 
HETATM   25  C11 UNL     1      -9.717 -16.396  17.810  1.00  0.00     0.181 C 
HETATM   26  O7  UNL     1     -10.411 -17.272  18.290  1.00  0.00    -0.294 OA
HETATM   27  C12 UNL     1     -10.097 -15.847  16.487  1.00  0.00     0.245 C 
HETATM   28  C13 UNL     1     -10.548 -14.434  16.571  1.00  0.00     0.198 C 
HETATM   29  C14 UNL     1      -8.892 -15.314  15.726  1.00  0.00     0.199 C 
HETATM   30  O10 UNL     1     -11.624 -13.905  16.668  1.00  0.00    -0.292 OA
BRANCH  27  31
HETATM   31  N2  UNL     1     -10.886 -16.709  15.671  1.00  0.00    -0.127 N 
HETATM   32  O8  UNL     1     -12.083 -16.485  15.427  1.00  0.00    -0.535 OA
HETATM   33  O9  UNL     1     -10.318 -17.831  15.123  1.00  0.00    -0.535 OA
ENDBRANCH  27  31
BRANCH  29  34
HETATM   34  O11 UNL     1      -9.224 -15.122  14.401  1.00  0.00    -0.390 OA
ATOM     35  H11 UNL     1      -9.283 -15.972  13.979  1.00  0.00     0.210 HD
ENDBRANCH  29  34
ENDBRANCH  19  22
ENDBRANCH   1  19
TORSDOF 11
ENDMDL
MODEL 4
REMARK VINA RESULT: -6.852905477      4.585      7.849
REMARK  11 active torsions:
REMARK  status: ('A' for Active; 'I' for Inactive)
REMARK    1  A    between atoms: C2_2  and  O1_4 
REMARK    2  A    between atoms: C2_2  and  C4_6 
REMARK    3  A    between atoms: C4_6  and  C5_8 
REMARK    4  A    between atoms: C6_12  and  C7_13 
REMARK    5  A    between atoms: C7_13  and  O5_15 
REMARK    6  A    between atoms: O5_15  and  C8_16 
REMARK    7  A    between atoms: C8_16  and  O6_17 
REMARK    8  A    between atoms: C8_16  and  C9_19 
REMARK    9  A    between atoms: C12_24  and  N2_25 
REMARK   10  A    between atoms: C14_30  and  O11_31 
REMARK   11  A    between atoms: C15_33  and  O12_34 
ROOT
HETATM    1  O5  UNL     1      -8.035 -13.149  17.876  1.00  0.00    -0.282 OA
ENDROOT
BRANCH   1   2
HETATM    2  C7  UNL     1      -7.848 -12.530  19.087  1.00  0.00     0.317 C 
HETATM    3  O4  UNL     1      -6.670 -12.530  19.526  1.00  0.00    -0.257 OA
BRANCH   2   4
HETATM    4  C6  UNL     1      -8.896 -11.897  19.867  1.00  0.00     0.166 A 
HETATM    5  N1  UNL     1     -10.163 -12.372  19.950  1.00  0.00    -0.252 N 
HETATM    6  O3  UNL     1     -10.894 -11.617  20.711  1.00  0.00    -0.231 OA
ATOM      7  H1  UNL     1     -10.497 -13.212  19.478  1.00  0.00     0.195 HD
HETATM    8  C5  UNL     1     -10.149 -10.621  21.158  1.00  0.00     0.183 A 
HETATM    9  C15 UNL     1      -8.876 -10.771  20.639  1.00  0.00     0.140 A 
BRANCH   8  10
HETATM   10  C4  UNL     1     -10.611  -9.562  22.041  1.00  0.00     0.221 C 
HETATM   11  O2  UNL     1      -9.865  -8.592  22.321  1.00  0.00    -0.287 OA
BRANCH  10  12
HETATM   12  C2  UNL     1     -11.967  -9.607  22.627  1.00  0.00     0.117 C 
HETATM   13  C1  UNL     1     -12.091 -10.647  23.714  1.00  0.00     0.054 C 
HETATM   14  C3  UNL     1     -12.403  -8.256  23.150  1.00  0.00     0.054 C 
BRANCH  12  15
HETATM   15  O1  UNL     1     -12.864  -9.959  21.620  1.00  0.00    -0.382 OA
ATOM     16  H1  UNL     1     -13.592  -9.350  21.670  1.00  0.00     0.211 HD
ENDBRANCH  12  15
ENDBRANCH  10  12
ENDBRANCH   8  10
BRANCH   9  17
HETATM   17  O12 UNL     1      -7.817  -9.951  20.861  1.00  0.00    -0.356 OA
ATOM     18  H12 UNL     1      -7.288  -9.525  20.197  1.00  0.00     0.218 HD
ENDBRANCH   9  17
ENDBRANCH   2   4
ENDBRANCH   1   2
BRANCH   1  19
HETATM   19  C8  UNL     1      -8.644 -12.626  16.752  1.00  0.00     0.295 C 
BRANCH  19  20
HETATM   20  O6  UNL     1      -7.726 -12.067  15.833  1.00  0.00    -0.369 OA
ATOM     21  H6  UNL     1      -8.132 -11.464  15.222  1.00  0.00     0.212 HD
ENDBRANCH  19  20
BRANCH  19  22
HETATM   22  C9  UNL     1      -9.500 -13.567  15.980  1.00  0.00     0.151 C 
HETATM   23  S1  UNL     1      -8.721 -15.168  15.590  1.00  0.00    -0.136 SA
HETATM   24  C10 UNL     1      -9.768 -15.907  14.272  1.00  0.00     0.157 C 
HETATM   25  C11 UNL     1     -11.071 -15.198  14.361  1.00  0.00     0.181 C 
HETATM   26  O7  UNL     1     -12.075 -15.789  14.009  1.00  0.00    -0.294 OA
HETATM   27  C12 UNL     1     -11.214 -13.810  14.858  1.00  0.00     0.245 C 
HETATM   28  C13 UNL     1     -10.908 -13.696  16.308  1.00  0.00     0.198 C 
HETATM   29  C14 UNL     1      -9.952 -12.992  14.628  1.00  0.00     0.199 C 
HETATM   30  O10 UNL     1     -11.579 -13.711  17.307  1.00  0.00    -0.292 OA
BRANCH  27  31
HETATM   31  N2  UNL     1     -12.373 -13.114  14.406  1.00  0.00    -0.127 N 
HETATM   32  O8  UNL     1     -13.303 -12.803  15.167  1.00  0.00    -0.535 OA
HETATM   33  O9  UNL     1     -12.480 -12.764  13.085  1.00  0.00    -0.535 OA
ENDBRANCH  27  31
BRANCH  29  34
HETATM   34  O11 UNL     1     -10.227 -11.651  14.794  1.00  0.00    -0.390 OA
ATOM     35  H11 UNL     1     -11.066 -11.463  14.389  1.00  0.00     0.210 HD
ENDBRANCH  29  34
ENDBRANCH  19  22
ENDBRANCH   1  19
TORSDOF 11
ENDMDL
MODEL 5
REMARK VINA RESULT: -6.774114213      5.243      9.514
REMARK  11 active torsions:
REMARK  status: ('A' for Active; 'I' for Inactive)
REMARK    1  A    between atoms: C2_2  and  O1_4 
REMARK    2  A    between atoms: C2_2  and  C4_6 
REMARK    3  A    between atoms: C4_6  and  C5_8 
REMARK    4  A    between atoms: C6_12  and  C7_13 
REMARK    5  A    between atoms: C7_13  and  O5_15 
REMARK    6  A    between atoms: O5_15  and  C8_16 
REMARK    7  A    between atoms: C8_16  and  O6_17 
REMARK    8  A    between atoms: C8_16  and  C9_19 
REMARK    9  A    between atoms: C12_24  and  N2_25 
REMARK   10  A    between atoms: C14_30  and  O11_31 
REMARK   11  A    between atoms: C15_33  and  O12_34 
ROOT
HETATM    1  O5  UNL     1      -9.300 -12.130  18.855  1.00  0.00    -0.282 OA
ENDROOT
BRANCH   1   2
HETATM    2  C7  UNL     1      -8.496 -12.412  17.778  1.00  0.00     0.317 C 
HETATM    3  O4  UNL     1      -7.313 -11.989  17.852  1.00  0.00    -0.257 OA
BRANCH   2   4
HETATM    4  C6  UNL     1      -8.915 -13.143  16.597  1.00  0.00     0.166 A 
HETATM    5  N1  UNL     1      -8.183 -13.218  15.459  1.00  0.00    -0.252 N 
HETATM    6  O3  UNL     1      -8.789 -13.933  14.562  1.00  0.00    -0.231 OA
ATOM      7  H1  UNL     1      -7.276 -12.771  15.325  1.00  0.00     0.195 HD
HETATM    8  C5  UNL     1      -9.936 -14.358  15.064  1.00  0.00     0.183 A 
HETATM    9  C15 UNL     1     -10.044 -13.872  16.355  1.00  0.00     0.140 A 
BRANCH   8  10
HETATM   10  C4  UNL     1     -10.899 -15.189  14.361  1.00  0.00     0.221 C 
HETATM   11  O2  UNL     1     -12.055 -14.763  14.122  1.00  0.00    -0.287 OA
BRANCH  10  12
HETATM   12  C2  UNL     1     -10.538 -16.551  13.917  1.00  0.00     0.117 C 
HETATM   13  C1  UNL     1      -9.989 -17.397  15.040  1.00  0.00     0.054 C 
HETATM   14  C3  UNL     1     -11.700 -17.258  13.255  1.00  0.00     0.054 C 
BRANCH  12  15
HETATM   15  O1  UNL     1      -9.533 -16.443  12.958  1.00  0.00    -0.382 OA
ATOM     16  H1  UNL     1      -8.704 -16.552  13.410  1.00  0.00     0.211 HD
ENDBRANCH  12  15
ENDBRANCH  10  12
ENDBRANCH   8  10
BRANCH   9  17
HETATM   17  O12 UNL     1     -11.078 -14.085  17.207  1.00  0.00    -0.356 OA
ATOM     18  H12 UNL     1     -11.968 -13.770  17.101  1.00  0.00     0.218 HD
ENDBRANCH   9  17
ENDBRANCH   2   4
ENDBRANCH   1   2
BRANCH   1  19
HETATM   19  C8  UNL     1      -9.049 -12.410  20.185  1.00  0.00     0.295 C 
BRANCH  19  20
HETATM   20  O6  UNL     1      -7.712 -12.803  20.426  1.00  0.00    -0.369 OA
ATOM     21  H6  UNL     1      -7.341 -12.403  21.203  1.00  0.00     0.212 HD
ENDBRANCH  19  20
BRANCH  19  22
HETATM   22  C9  UNL     1      -9.351 -11.317  21.147  1.00  0.00     0.151 C 
HETATM   23  S1  UNL     1     -11.122 -11.074  21.500  1.00  0.00    -0.136 SA
HETATM   24  C10 UNL     1     -11.234  -9.422  22.298  1.00  0.00     0.157 C 
HETATM   25  C11 UNL     1      -9.863  -9.129  22.791  1.00  0.00     0.181 C 
HETATM   26  O7  UNL     1      -9.740  -8.410  23.764  1.00  0.00    -0.294 OA
HETATM   27  C12 UNL     1      -8.636  -9.668  22.159  1.00  0.00     0.245 C 
HETATM   28  C13 UNL     1      -8.517 -11.140  22.323  1.00  0.00     0.198 C 
HETATM   29  C14 UNL     1      -8.836  -9.947  20.677  1.00  0.00     0.199 C 
HETATM   30  O10 UNL     1      -7.955 -11.850  23.115  1.00  0.00    -0.292 OA
BRANCH  27  31
HETATM   31  N2  UNL     1      -7.448  -8.915  22.389  1.00  0.00    -0.127 N 
HETATM   32  O8  UNL     1      -6.507  -9.347  23.074  1.00  0.00    -0.535 OA
HETATM   33  O9  UNL     1      -7.321  -7.665  21.838  1.00  0.00    -0.535 OA
ENDBRANCH  27  31
BRANCH  29  34
HETATM   34  O11 UNL     1      -7.613 -10.127  20.066  1.00  0.00    -0.390 OA
ATOM     35  H11 UNL     1      -7.513  -9.465  19.391  1.00  0.00     0.210 HD
ENDBRANCH  29  34
ENDBRANCH  19  22
ENDBRANCH   1  19
TORSDOF 11
ENDMDL
