MODEL 1
REMARK VINA RESULT: -6.031627555      0.000      0.000
REMARK  10 active torsions:
REMARK  status: ('A' for Active; 'I' for Inactive)
REMARK    1  A    between atoms: N1_1  and  O1_4 
REMARK    2  A    between atoms: O1_4  and  N2_5 
REMARK    3  A    between atoms: C2_8  and  O3_9 
REMARK    4  A    between atoms: O3_9  and  S1_10 
REMARK    5  A    between atoms: S1_10  and  N3_11 
REMARK    6  A    between atoms: C3_16  and  O6_17 
REMARK    7  A    between atoms: O6_17  and  S2_18 
REMARK    8  A    between atoms: C5_23  and  N4_24 
REMARK    9  A    between atoms: C7_28  and  O12_29 
REMARK   10  A    between atoms: C8_31  and  O13_32 
ROOT
HETATM    1  N2  UNL     1     -13.960 -12.401  13.677  1.00  0.00    -0.154 N 
HETATM    2  C1  UNL     1     -12.792 -12.016  14.203  1.00  0.00     0.311 A 
HETATM    3  O2  UNL     1     -12.338 -10.860  13.991  1.00  0.00    -0.262 OA
HETATM    4  C2  UNL     1     -12.042 -12.854  14.994  1.00  0.00     0.197 A 
HETATM    5  C3  UNL     1     -12.593 -14.129  15.202  1.00  0.00     0.147 A 
HETATM    6  C4  UNL     1     -13.782 -14.536  14.658  1.00  0.00     0.067 A 
HETATM    7  C5  UNL     1     -14.296 -15.810  14.741  1.00  0.00     0.121 A 
HETATM    8  C6  UNL     1     -15.508 -16.130  14.047  1.00  0.00     0.076 A 
HETATM    9  C7  UNL     1     -16.182 -15.223  13.295  1.00  0.00     0.103 A 
HETATM   10  C8  UNL     1     -15.662 -13.949  13.204  1.00  0.00     0.129 A 
HETATM   11  C9  UNL     1     -14.496 -13.620  13.861  1.00  0.00     0.120 A 
ENDROOT
BRANCH   4  12
HETATM   12  O3  UNL     1     -10.845 -12.486  15.534  1.00  0.00    -0.208 OA
BRANCH  12  13
HETATM   13  S1  UNL     1      -9.315 -12.632  14.893  1.00  0.00     0.360 S 
HETATM   14  O4  UNL     1      -9.227 -11.676  13.710  1.00  0.00    -0.176 OA
HETATM   15  O5  UNL     1      -9.012 -14.004  14.381  1.00  0.00    -0.176 OA
BRANCH  13  16
HETATM   16  N3  UNL     1      -8.060 -12.170  15.980  1.00  0.00    -0.305 N 
ATOM     17  H32 UNL     1      -8.140 -12.295  16.989  1.00  0.00     0.171 HD
ATOM     18  H31 UNL     1      -7.244 -11.766  15.519  1.00  0.00     0.171 HD
ENDBRANCH  13  16
ENDBRANCH  12  13
ENDBRANCH   4  12
BRANCH   5  19
HETATM   19  O6  UNL     1     -11.802 -14.924  16.034  1.00  0.00    -0.210 OA
BRANCH  19  20
HETATM   20  S2  UNL     1     -12.057 -14.681  17.765  1.00  0.00     0.257 S 
HETATM   21  O7  UNL     1     -11.801 -16.012  18.400  1.00  0.00    -0.572 OA
HETATM   22  O8  UNL     1     -13.431 -14.139  18.011  1.00  0.00    -0.572 OA
HETATM   23  O9  UNL     1     -10.962 -13.580  18.371  1.00  0.00    -0.572 OA
ENDBRANCH  19  20
ENDBRANCH   5  19
BRANCH   1  24
HETATM   24  O1  UNL     1     -14.697 -11.511  12.889  1.00  0.00    -0.153 OA
BRANCH  24  25
HETATM   25  N1  UNL     1     -15.297 -10.482  13.584  1.00  0.00    -0.285 N 
ATOM     26  H12 UNL     1     -16.290 -10.500  13.816  1.00  0.00     0.186 HD
ATOM     27  H11 UNL     1     -14.673  -9.715  13.839  1.00  0.00     0.186 HD
ENDBRANCH  24  25
ENDBRANCH   1  24
BRANCH   7  28
HETATM   28  N4  UNL     1     -13.630 -16.902  15.274  1.00  0.00    -0.115 N 
HETATM   29  O10 UNL     1     -13.661 -17.536  16.258  1.00  0.00    -0.532 OA
HETATM   30  O11 UNL     1     -12.693 -17.515  14.329  1.00  0.00    -0.532 OA
ENDBRANCH   7  28
BRANCH  10  31
HETATM   31  O13 UNL     1     -16.323 -12.970  12.433  1.00  0.00    -0.356 OA
ATOM     32  H13 UNL     1     -15.821 -12.362  11.904  1.00  0.00     0.218 HD
ENDBRANCH  10  31
BRANCH   9  33
HETATM   33  O12 UNL     1     -17.356 -15.510  12.619  1.00  0.00    -0.358 OA
ATOM     34  H12 UNL     1     -17.941 -14.845  12.275  1.00  0.00     0.217 HD
ENDBRANCH   9  33
TORSDOF 10
ENDMDL
MODEL 2
REMARK VINA RESULT: -5.975765983      6.198      8.803
REMARK  10 active torsions:
REMARK  status: ('A' for Active; 'I' for Inactive)
REMARK    1  A    between atoms: N1_1  and  O1_4 
REMARK    2  A    between atoms: O1_4  and  N2_5 
REMARK    3  A    between atoms: C2_8  and  O3_9 
REMARK    4  A    between atoms: O3_9  and  S1_10 
REMARK    5  A    between atoms: S1_10  and  N3_11 
REMARK    6  A    between atoms: C3_16  and  O6_17 
REMARK    7  A    between atoms: O6_17  and  S2_18 
REMARK    8  A    between atoms: C5_23  and  N4_24 
REMARK    9  A    between atoms: C7_28  and  O12_29 
REMARK   10  A    between atoms: C8_31  and  O13_32 
ROOT
HETATM    1  N2  UNL     1      -7.837 -10.027  20.598  1.00  0.00    -0.154 N 
HETATM    2  C1  UNL     1      -7.768 -11.119  19.827  1.00  0.00     0.311 A 
HETATM    3  O2  UNL     1      -6.750 -11.348  19.122  1.00  0.00    -0.262 OA
HETATM    4  C2  UNL     1      -8.793 -12.033  19.773  1.00  0.00     0.197 A 
HETATM    5  C3  UNL     1      -9.902 -11.733  20.580  1.00  0.00     0.147 A 
HETATM    6  C4  UNL     1      -9.987 -10.612  21.362  1.00  0.00     0.067 A 
HETATM    7  C5  UNL     1     -11.099 -10.225  22.073  1.00  0.00     0.121 A 
HETATM    8  C6  UNL     1     -11.088  -8.978  22.780  1.00  0.00     0.076 A 
HETATM    9  C7  UNL     1     -10.016  -8.145  22.779  1.00  0.00     0.103 A 
HETATM   10  C8  UNL     1      -8.905  -8.529  22.058  1.00  0.00     0.129 A 
HETATM   11  C9  UNL     1      -8.894  -9.723  21.368  1.00  0.00     0.120 A 
ENDROOT
BRANCH   4  12
HETATM   12  O3  UNL     1      -8.748 -13.149  18.990  1.00  0.00    -0.208 OA
BRANCH  12  13
HETATM   13  S1  UNL     1      -9.049 -13.298  17.359  1.00  0.00     0.360 S 
HETATM   14  O4  UNL     1     -10.556 -13.190  17.164  1.00  0.00    -0.176 OA
HETATM   15  O5  UNL     1      -8.620 -14.614  16.792  1.00  0.00    -0.176 OA
BRANCH  13  16
HETATM   16  N3  UNL     1      -8.349 -12.044  16.406  1.00  0.00    -0.305 N 
ATOM     17  H32 UNL     1      -8.291 -11.080  16.733  1.00  0.00     0.171 HD
ATOM     18  H31 UNL     1      -8.006 -12.360  15.499  1.00  0.00     0.171 HD
ENDBRANCH  13  16
ENDBRANCH  12  13
ENDBRANCH   4  12
BRANCH   5  19
HETATM   19  O6  UNL     1     -10.898 -12.710  20.506  1.00  0.00    -0.210 OA
BRANCH  19  20
HETATM   20  S2  UNL     1     -10.712 -14.055  21.635  1.00  0.00     0.257 S 
HETATM   21  O7  UNL     1     -12.103 -14.492  21.972  1.00  0.00    -0.572 OA
HETATM   22  O8  UNL     1      -9.901 -13.625  22.818  1.00  0.00    -0.572 OA
HETATM   23  O9  UNL     1      -9.915 -15.327  20.908  1.00  0.00    -0.572 OA
ENDBRANCH  19  20
ENDBRANCH   5  19
BRANCH   1  24
HETATM   24  O1  UNL     1      -6.764  -9.131  20.632  1.00  0.00    -0.153 OA
BRANCH  24  25
HETATM   25  N1  UNL     1      -5.620  -9.617  21.229  1.00  0.00    -0.285 N 
ATOM     26  H12 UNL     1      -4.691  -9.322  20.927  1.00  0.00     0.186 HD
ATOM     27  H11 UNL     1      -5.780 -10.285  21.983  1.00  0.00     0.186 HD
ENDBRANCH  24  25
ENDBRANCH   1  24
BRANCH   7  28
HETATM   28  N4  UNL     1     -12.341 -10.836  22.003  1.00  0.00    -0.115 N 
HETATM   29  O10 UNL     1     -13.171 -11.013  21.197  1.00  0.00    -0.532 OA
HETATM   30  O11 UNL     1     -12.695 -11.552  23.232  1.00  0.00    -0.532 OA
ENDBRANCH   7  28
BRANCH  10  31
HETATM   31  O13 UNL     1      -7.765  -7.699  22.023  1.00  0.00    -0.356 OA
ATOM     32  H13 UNL     1      -7.680  -7.035  21.348  1.00  0.00     0.218 HD
ENDBRANCH  10  31
BRANCH   9  33
HETATM   33  O12 UNL     1      -9.982  -6.939  23.457  1.00  0.00    -0.358 OA
ATOM     34  H12 UNL     1      -9.218  -6.376  23.492  1.00  0.00     0.217 HD
ENDBRANCH   9  33
TORSDOF 10
ENDMDL
MODEL 3
REMARK VINA RESULT: -5.957289826      6.679      9.678
REMARK  10 active torsions:
REMARK  status: ('A' for Active; 'I' for Inactive)
REMARK    1  A    between atoms: N1_1  and  O1_4 
REMARK    2  A    between atoms: O1_4  and  N2_5 
REMARK    3  A    between atoms: C2_8  and  O3_9 
REMARK    4  A    between atoms: O3_9  and  S1_10 
REMARK    5  A    between atoms: S1_10  and  N3_11 
REMARK    6  A    between atoms: C3_16  and  O6_17 
REMARK    7  A    between atoms: O6_17  and  S2_18 
REMARK    8  A    between atoms: C5_23  and  N4_24 
REMARK    9  A    between atoms: C7_28  and  O12_29 
REMARK   10  A    between atoms: C8_31  and  O13_32 
ROOT
HETATM    1  N2  UNL     1     -10.586  -9.377  21.940  1.00  0.00    -0.154 N 
HETATM    2  C1  UNL     1     -11.477 -10.326  21.628  1.00  0.00     0.311 A 
HETATM    3  O2  UNL     1     -12.714 -10.105  21.723  1.00  0.00    -0.262 OA
HETATM    4  C2  UNL     1     -11.089 -11.571  21.194  1.00  0.00     0.197 A 
HETATM    5  C3  UNL     1      -9.701 -11.764  21.103  1.00  0.00     0.147 A 
HETATM    6  C4  UNL     1      -8.781 -10.804  21.431  1.00  0.00     0.067 A 
HETATM    7  C5  UNL     1      -7.419 -10.992  21.468  1.00  0.00     0.121 A 
HETATM    8  C6  UNL     1      -6.569  -9.930  21.919  1.00  0.00     0.076 A 
HETATM    9  C7  UNL     1      -7.053  -8.727  22.321  1.00  0.00     0.103 A 
HETATM   10  C8  UNL     1      -8.419  -8.541  22.293  1.00  0.00     0.129 A 
HETATM   11  C9  UNL     1      -9.256  -9.551  21.866  1.00  0.00     0.120 A 
ENDROOT
BRANCH   4  12
HETATM   12  O3  UNL     1     -11.979 -12.555  20.878  1.00  0.00    -0.208 OA
BRANCH  12  13
HETATM   13  S1  UNL     1     -13.059 -13.348  21.866  1.00  0.00     0.360 S 
HETATM   14  O4  UNL     1     -12.380 -13.543  23.216  1.00  0.00    -0.176 OA
HETATM   15  O5  UNL     1     -13.444 -14.703  21.362  1.00  0.00    -0.176 OA
BRANCH  13  16
HETATM   16  N3  UNL     1     -14.501 -12.456  22.177  1.00  0.00    -0.305 N 
ATOM     17  H32 UNL     1     -14.485 -11.523  22.587  1.00  0.00     0.171 HD
ATOM     18  H31 UNL     1     -15.354 -12.949  21.913  1.00  0.00     0.171 HD
ENDBRANCH  13  16
ENDBRANCH  12  13
ENDBRANCH   4  12
BRANCH   5  19
HETATM   19  O6  UNL     1      -9.368 -13.035  20.630  1.00  0.00    -0.210 OA
BRANCH  19  20
HETATM   20  S2  UNL     1      -9.245 -13.171  18.873  1.00  0.00     0.257 S 
HETATM   21  O7  UNL     1      -8.338 -14.335  18.623  1.00  0.00    -0.572 OA
HETATM   22  O8  UNL     1      -8.760 -11.880  18.291  1.00  0.00    -0.572 OA
HETATM   23  O9  UNL     1     -10.735 -13.501  18.204  1.00  0.00    -0.572 OA
ENDBRANCH  19  20
ENDBRANCH   5  19
BRANCH   1  24
HETATM   24  O1  UNL     1     -11.026  -8.120  22.365  1.00  0.00    -0.153 OA
BRANCH  24  25
HETATM   25  N1  UNL     1     -11.811  -8.134  23.499  1.00  0.00    -0.285 N 
ATOM     26  H12 UNL     1     -12.560  -8.815  23.624  1.00  0.00     0.186 HD
ATOM     27  H11 UNL     1     -11.583  -7.416  24.187  1.00  0.00     0.186 HD
ENDBRANCH  24  25
ENDBRANCH   1  24
BRANCH   7  28
HETATM   28  N4  UNL     1      -6.780 -12.212  21.308  1.00  0.00    -0.115 N 
HETATM   29  O10 UNL     1      -6.151 -12.754  20.483  1.00  0.00    -0.532 OA
HETATM   30  O11 UNL     1      -6.795 -13.028  22.525  1.00  0.00    -0.532 OA
ENDBRANCH   7  28
BRANCH  10  31
HETATM   31  O13 UNL     1      -8.973  -7.310  22.702  1.00  0.00    -0.356 OA
ATOM     32  H13 UNL     1      -9.597  -7.284  23.419  1.00  0.00     0.218 HD
ENDBRANCH  10  31
BRANCH   9  33
HETATM   33  O12 UNL     1      -6.252  -7.685  22.756  1.00  0.00    -0.358 OA
ATOM     34  H12 UNL     1      -6.584  -6.824  22.982  1.00  0.00     0.217 HD
ENDBRANCH   9  33
TORSDOF 10
ENDMDL
MODEL 4
REMARK VINA RESULT: -5.918144056      2.371      4.430
REMARK  10 active torsions:
REMARK  status: ('A' for Active; 'I' for Inactive)
REMARK    1  A    between atoms: N1_1  and  O1_4 
REMARK    2  A    between atoms: O1_4  and  N2_5 
REMARK    3  A    between atoms: C2_8  and  O3_9 
REMARK    4  A    between atoms: O3_9  and  S1_10 
REMARK    5  A    between atoms: S1_10  and  N3_11 
REMARK    6  A    between atoms: C3_16  and  O6_17 
REMARK    7  A    between atoms: O6_17  and  S2_18 
REMARK    8  A    between atoms: C5_23  and  N4_24 
REMARK    9  A    between atoms: C7_28  and  O12_29 
REMARK   10  A    between atoms: C8_31  and  O13_32 
ROOT
HETATM    1  N2  UNL     1     -11.067 -16.638  13.851  1.00  0.00    -0.154 N 
HETATM    2  C1  UNL     1     -10.391 -15.577  14.308  1.00  0.00     0.311 A 
HETATM    3  O2  UNL     1      -9.134 -15.535  14.240  1.00  0.00    -0.262 OA
HETATM    4  C2  UNL     1     -11.031 -14.495  14.864  1.00  0.00     0.197 A 
HETATM    5  C3  UNL     1     -12.431 -14.591  14.913  1.00  0.00     0.147 A 
HETATM    6  C4  UNL     1     -13.131 -15.678  14.460  1.00  0.00     0.067 A 
HETATM    7  C5  UNL     1     -14.488 -15.860  14.597  1.00  0.00     0.121 A 
HETATM    8  C6  UNL     1     -15.085 -17.087  14.160  1.00  0.00     0.076 A 
HETATM    9  C7  UNL     1     -14.363 -18.098  13.611  1.00  0.00     0.103 A 
HETATM   10  C8  UNL     1     -13.001 -17.919  13.483  1.00  0.00     0.129 A 
HETATM   11  C9  UNL     1     -12.405 -16.748  13.899  1.00  0.00     0.120 A 
ENDROOT
BRANCH   4  12
HETATM   12  O3  UNL     1     -10.363 -13.407  15.343  1.00  0.00    -0.208 OA
BRANCH  12  13
HETATM   13  S1  UNL     1      -9.543 -13.228  16.781  1.00  0.00     0.360 S 
HETATM   14  O4  UNL     1     -10.577 -13.261  17.900  1.00  0.00    -0.176 OA
HETATM   15  O5  UNL     1      -8.809 -11.930  16.891  1.00  0.00    -0.176 OA
BRANCH  13  16
HETATM   16  N3  UNL     1      -8.435 -14.507  17.112  1.00  0.00    -0.305 N 
ATOM     17  H32 UNL     1      -8.191 -14.782  18.063  1.00  0.00     0.171 HD
ATOM     18  H31 UNL     1      -8.057 -14.950  16.275  1.00  0.00     0.171 HD
ENDBRANCH  13  16
ENDBRANCH  12  13
ENDBRANCH   4  12
BRANCH   5  19
HETATM   19  O6  UNL     1     -13.026 -13.453  15.461  1.00  0.00    -0.210 OA
BRANCH  19  20
HETATM   20  S2  UNL     1     -13.320 -12.138  14.319  1.00  0.00     0.257 S 
HETATM   21  O7  UNL     1     -14.646 -11.560  14.704  1.00  0.00    -0.572 OA
HETATM   22  O8  UNL     1     -13.261 -12.655  12.915  1.00  0.00    -0.572 OA
HETATM   23  O9  UNL     1     -12.156 -10.955  14.474  1.00  0.00    -0.572 OA
ENDBRANCH  19  20
ENDBRANCH   5  19
BRANCH   1  24
HETATM   24  O1  UNL     1     -10.376 -17.711  13.280  1.00  0.00    -0.153 OA
BRANCH  24  25
HETATM   25  N1  UNL     1      -9.609 -17.389  12.181  1.00  0.00    -0.285 N 
ATOM     26  H12 UNL     1      -9.640 -16.460  11.761  1.00  0.00     0.186 HD
ATOM     27  H11 UNL     1      -9.021 -18.145  11.830  1.00  0.00     0.186 HD
ENDBRANCH  24  25
ENDBRANCH   1  24
BRANCH   7  28
HETATM   28  N4  UNL     1     -15.331 -15.037  15.327  1.00  0.00    -0.115 N 
HETATM   29  O10 UNL     1     -16.148 -14.229  15.109  1.00  0.00    -0.532 OA
HETATM   30  O11 UNL     1     -15.275 -15.299  16.768  1.00  0.00    -0.532 OA
ENDBRANCH   7  28
BRANCH  10  31
HETATM   31  O13 UNL     1     -12.205 -18.939  12.921  1.00  0.00    -0.356 OA
ATOM     32  H13 UNL     1     -11.416 -18.717  12.441  1.00  0.00     0.218 HD
ENDBRANCH  10  31
BRANCH   9  33
HETATM   33  O12 UNL     1     -14.919 -19.289  13.179  1.00  0.00    -0.358 OA
ATOM     34  H12 UNL     1     -15.052 -19.506  12.264  1.00  0.00     0.217 HD
ENDBRANCH   9  33
TORSDOF 10
ENDMDL
MODEL 5
REMARK VINA RESULT: -5.863275841      7.277     10.154
REMARK  10 active torsions:
REMARK  status: ('A' for Active; 'I' for Inactive)
REMARK    1  A    between atoms: N1_1  and  O1_4 
REMARK    2  A    between atoms: O1_4  and  N2_5 
REMARK    3  A    between atoms: C2_8  and  O3_9 
REMARK    4  A    between atoms: O3_9  and  S1_10 
REMARK    5  A    between atoms: S1_10  and  N3_11 
REMARK    6  A    between atoms: C3_16  and  O6_17 
REMARK    7  A    between atoms: O6_17  and  S2_18 
REMARK    8  A    between atoms: C5_23  and  N4_24 
REMARK    9  A    between atoms: C7_28  and  O12_29 
REMARK   10  A    between atoms: C8_31  and  O13_32 
ROOT
HETATM    1  N2  UNL     1      -8.792  -8.929  21.995  1.00  0.00    -0.154 N 
HETATM    2  C1  UNL     1      -9.982  -9.414  21.622  1.00  0.00     0.311 A 
HETATM    3  O2  UNL     1     -11.008  -8.682  21.628  1.00  0.00    -0.262 OA
HETATM    4  C2  UNL     1     -10.139 -10.718  21.215  1.00  0.00     0.197 A 
HETATM    5  C3  UNL     1      -8.965 -11.489  21.223  1.00  0.00     0.147 A 
HETATM    6  C4  UNL     1      -7.745 -11.006  21.616  1.00  0.00     0.067 A 
HETATM    7  C5  UNL     1      -6.601 -11.757  21.749  1.00  0.00     0.121 A 
HETATM    8  C6  UNL     1      -5.409 -11.147  22.259  1.00  0.00     0.076 A 
HETATM    9  C7  UNL     1      -5.355  -9.841  22.627  1.00  0.00     0.103 A 
HETATM   10  C8  UNL     1      -6.504  -9.090  22.502  1.00  0.00     0.129 A 
HETATM   11  C9  UNL     1      -7.663  -9.657  22.016  1.00  0.00     0.120 A 
ENDROOT
BRANCH   4  12
HETATM   12  O3  UNL     1     -11.342 -11.236  20.837  1.00  0.00    -0.208 OA
BRANCH  12  13
HETATM   13  S1  UNL     1     -12.658 -11.627  21.779  1.00  0.00     0.360 S 
HETATM   14  O4  UNL     1     -12.447 -13.049  22.284  1.00  0.00    -0.176 OA
HETATM   15  O5  UNL     1     -13.953 -11.608  21.031  1.00  0.00    -0.176 OA
BRANCH  13  16
HETATM   16  N3  UNL     1     -12.827 -10.639  23.182  1.00  0.00    -0.305 N 
ATOM     17  H32 UNL     1     -12.417  -9.708  23.243  1.00  0.00     0.171 HD
ATOM     18  H31 UNL     1     -13.368 -11.074  23.928  1.00  0.00     0.171 HD
ENDBRANCH  13  16
ENDBRANCH  12  13
ENDBRANCH   4  12
BRANCH   5  19
HETATM   19  O6  UNL     1      -9.180 -12.794  20.775  1.00  0.00    -0.210 OA
BRANCH  19  20
HETATM   20  S2  UNL     1      -9.163 -12.994  19.020  1.00  0.00     0.257 S 
HETATM   21  O7  UNL     1      -8.572 -11.731  18.476  1.00  0.00    -0.572 OA
HETATM   22  O8  UNL     1     -10.545 -13.288  18.523  1.00  0.00    -0.572 OA
HETATM   23  O9  UNL     1      -8.185 -14.272  18.583  1.00  0.00    -0.572 OA
ENDBRANCH  19  20
ENDBRANCH   5  19
BRANCH   1  24
HETATM   24  O1  UNL     1      -8.677  -7.592  22.389  1.00  0.00    -0.153 OA
BRANCH  24  25
HETATM   25  N1  UNL     1      -9.614  -7.177  23.312  1.00  0.00    -0.285 N 
ATOM     26  H12 UNL     1     -10.010  -7.818  23.998  1.00  0.00     0.186 HD
ATOM     27  H11 UNL     1      -9.871  -6.191  23.249  1.00  0.00     0.186 HD
ENDBRANCH  24  25
ENDBRANCH   1  24
BRANCH   7  28
HETATM   28  N4  UNL     1      -6.538 -13.137  21.634  1.00  0.00    -0.115 N 
HETATM   29  O10 UNL     1      -6.148 -13.921  20.857  1.00  0.00    -0.532 OA
HETATM   30  O11 UNL     1      -6.984 -13.831  22.845  1.00  0.00    -0.532 OA
ENDBRANCH   7  28
BRANCH  10  31
HETATM   31  O13 UNL     1      -6.502  -7.729  22.871  1.00  0.00    -0.356 OA
ATOM     32  H13 UNL     1      -6.557  -7.484  23.788  1.00  0.00     0.218 HD
ENDBRANCH  10  31
BRANCH   9  33
HETATM   33  O12 UNL     1      -4.213  -9.230  23.117  1.00  0.00    -0.358 OA
ATOM     34  H12 UNL     1      -3.680  -8.628  22.612  1.00  0.00     0.217 HD
ENDBRANCH   9  33
TORSDOF 10
ENDMDL
