MODEL 1
REMARK VINA RESULT: -6.450916762      0.000      0.000
REMARK  12 active torsions:
REMARK  status: ('A' for Active; 'I' for Inactive)
REMARK    1  A    between atoms: O1_2  and  C2_3 
REMARK    2  A    between atoms: C5_8  and  O4_9 
REMARK    3  A    between atoms: C7_11  and  O5_12 
REMARK    4  A    between atoms: C8_14  and  O6_15 
REMARK    5  A    between atoms: C9_17  and  O7_18 
REMARK    6  A    between atoms: O7_18  and  C10_19 
REMARK    7  A    between atoms: C11_21  and  O9_23 
REMARK    8  A    between atoms: N1_26  and  O10_28 
REMARK    9  A    between atoms: C14_30  and  N2_31 
REMARK   10  A    between atoms: N2_31  and  N3_33 
REMARK   11  A    between atoms: N3_33  and  N4_34 
REMARK   12  A    between atoms: C15_37  and  O11_38 
ROOT
HETATM    1  C2  UNL     1      -9.281 -10.696  23.053  1.00  0.00     0.199 C 
HETATM    2  C3  UNL     1      -7.993 -11.436  22.800  1.00  0.00     0.208 C 
HETATM    3  O2  UNL     1      -8.249 -12.361  21.781  1.00  0.00    -0.348 OA
HETATM    4  C4  UNL     1      -8.479 -11.703  20.576  1.00  0.00     0.224 C 
HETATM    5  O3  UNL     1      -9.084 -10.469  20.737  1.00  0.00    -0.317 OA
HETATM    6  C5  UNL     1     -10.029 -10.592  21.756  1.00  0.00     0.293 C 
HETATM    7  C7  UNL     1      -7.134 -11.575  19.850  1.00  0.00     0.214 C 
HETATM    8  C8  UNL     1      -7.073 -12.945  19.170  1.00  0.00     0.184 C 
HETATM    9  C9  UNL     1      -8.441 -13.011  18.541  1.00  0.00     0.190 C 
HETATM   10  C15 UNL     1      -9.338 -12.541  19.652  1.00  0.00     0.215 C 
ENDROOT
BRANCH   9  11
HETATM   11  O7  UNL     1      -8.761 -14.287  18.095  1.00  0.00    -0.348 OA
BRANCH  11  12
HETATM   12  C10 UNL     1      -8.908 -14.225  16.700  1.00  0.00     0.295 C 
HETATM   13  O8  UNL     1      -9.936 -15.051  16.265  1.00  0.00    -0.317 OA
HETATM   14  C11 UNL     1     -10.195 -14.596  14.974  1.00  0.00     0.205 C 
HETATM   15  C12 UNL     1     -11.509 -15.167  14.508  1.00  0.00     0.086 C 
HETATM   16  C13 UNL     1     -10.248 -13.125  15.161  1.00  0.00     0.101 C 
HETATM   17  N1  UNL     1     -10.965 -12.285  14.496  1.00  0.00    -0.270 N 
HETATM   18  C14 UNL     1      -9.309 -12.817  16.270  1.00  0.00     0.222 C 
ATOM     19  H1  UNL     1     -11.566 -12.651  13.758  1.00  0.00     0.193 HD
BRANCH  14  20
HETATM   20  O9  UNL     1      -9.143 -14.952  14.141  1.00  0.00    -0.361 OA
ATOM     21  H9  UNL     1      -9.482 -15.166  13.280  1.00  0.00     0.213 HD
ENDBRANCH  14  20
BRANCH  17  22
HETATM   22  O10 UNL     1     -10.974 -10.950  14.713  1.00  0.00    -0.290 OA
ATOM     23  H10 UNL     1     -11.518 -10.333  14.237  1.00  0.00     0.244 HD
ENDBRANCH  17  22
BRANCH  18  24
HETATM   24  N2  UNL     1      -8.141 -12.183  15.688  1.00  0.00    -0.237 N 
ATOM     25  H2  UNL     1      -7.315 -12.076  16.277  1.00  0.00     0.198 HD
BRANCH  24  26
HETATM   26  N3  UNL     1      -8.078 -11.771  14.546  1.00  0.00    -0.248 NA
BRANCH  26  27
HETATM   27  N4  UNL     1      -7.898 -11.026  13.570  1.00  0.00    -0.261 N 
ATOM     28  H42 UNL     1      -8.838 -10.632  13.571  1.00  0.00     0.193 HD
ATOM     29  H41 UNL     1      -7.457 -10.549  12.783  1.00  0.00     0.193 HD
ENDBRANCH  26  27
ENDBRANCH  24  26
ENDBRANCH  18  24
ENDBRANCH  11  12
ENDBRANCH   9  11
BRANCH   8  30
HETATM   30  O6  UNL     1      -6.943 -13.874  20.217  1.00  0.00    -0.390 OA
ATOM     31  H6  UNL     1      -6.249 -14.463  19.944  1.00  0.00     0.210 HD
ENDBRANCH   8  30
BRANCH  10  32
HETATM   32  O11 UNL     1      -9.959 -13.595  20.316  1.00  0.00    -0.387 OA
ATOM     33  H11 UNL     1     -10.022 -14.375  19.777  1.00  0.00     0.210 HD
ENDBRANCH  10  32
BRANCH   7  34
HETATM   34  O5  UNL     1      -7.209 -10.569  18.889  1.00  0.00    -0.387 OA
ATOM     35  H5  UNL     1      -7.960 -10.717  18.325  1.00  0.00     0.210 HD
ENDBRANCH   7  34
BRANCH   6  36
HETATM   36  O4  UNL     1     -10.935  -9.531  21.747  1.00  0.00    -0.363 OA
HETATM   37  C6  UNL     1     -10.209  -8.360  21.940  1.00  0.00     0.204 C 
ENDBRANCH   6  36
BRANCH   1  38
HETATM   38  O1  UNL     1     -10.021 -11.222  24.083  1.00  0.00    -0.384 OA
HETATM   39  C1  UNL     1      -9.762 -10.645  25.312  1.00  0.00     0.202 C 
ENDBRANCH   1  38
TORSDOF 12
ENDMDL
MODEL 2
REMARK VINA RESULT: -6.404312702      4.666      7.844
REMARK  12 active torsions:
REMARK  status: ('A' for Active; 'I' for Inactive)
REMARK    1  A    between atoms: O1_2  and  C2_3 
REMARK    2  A    between atoms: C5_8  and  O4_9 
REMARK    3  A    between atoms: C7_11  and  O5_12 
REMARK    4  A    between atoms: C8_14  and  O6_15 
REMARK    5  A    between atoms: C9_17  and  O7_18 
REMARK    6  A    between atoms: O7_18  and  C10_19 
REMARK    7  A    between atoms: C11_21  and  O9_23 
REMARK    8  A    between atoms: N1_26  and  O10_28 
REMARK    9  A    between atoms: C14_30  and  N2_31 
REMARK   10  A    between atoms: N2_31  and  N3_33 
REMARK   11  A    between atoms: N3_33  and  N4_34 
REMARK   12  A    between atoms: C15_37  and  O11_38 
ROOT
HETATM    1  C2  UNL     1      -9.578 -11.882  14.834  1.00  0.00     0.199 C 
HETATM    2  C3  UNL     1     -10.949 -11.477  14.354  1.00  0.00     0.208 C 
HETATM    3  O2  UNL     1     -11.594 -12.646  13.933  1.00  0.00    -0.348 OA
HETATM    4  C4  UNL     1     -11.867 -13.468  15.022  1.00  0.00     0.224 C 
HETATM    5  O3  UNL     1     -10.925 -13.367  16.030  1.00  0.00    -0.317 OA
HETATM    6  C5  UNL     1      -9.672 -13.257  15.427  1.00  0.00     0.293 C 
HETATM    7  C7  UNL     1     -13.271 -13.115  15.532  1.00  0.00     0.214 C 
HETATM    8  C8  UNL     1     -14.115 -13.972  14.585  1.00  0.00     0.184 C 
HETATM    9  C9  UNL     1     -13.415 -15.301  14.703  1.00  0.00     0.190 C 
HETATM   10  C15 UNL     1     -11.964 -14.919  14.601  1.00  0.00     0.215 C 
ENDROOT
BRANCH   9  11
HETATM   11  O7  UNL     1     -13.806 -16.198  13.718  1.00  0.00    -0.348 OA
BRANCH  11  12
HETATM   12  C10 UNL     1     -13.643 -17.493  14.235  1.00  0.00     0.295 C 
HETATM   13  O8  UNL     1     -14.806 -17.939  14.852  1.00  0.00    -0.317 OA
HETATM   14  C11 UNL     1     -14.611 -19.315  14.957  1.00  0.00     0.205 C 
HETATM   15  C12 UNL     1     -15.926 -19.970  15.290  1.00  0.00     0.086 C 
HETATM   16  C13 UNL     1     -14.124 -19.670  13.601  1.00  0.00     0.101 C 
HETATM   17  N1  UNL     1     -14.315 -20.782  12.977  1.00  0.00    -0.270 N 
HETATM   18  C14 UNL     1     -13.374 -18.486  13.109  1.00  0.00     0.222 C 
ATOM     19  H1  UNL     1     -14.855 -21.507  13.450  1.00  0.00     0.193 HD
BRANCH  14  20
HETATM   20  O9  UNL     1     -13.639 -19.570  15.915  1.00  0.00    -0.361 OA
ATOM     21  H9  UNL     1     -12.920 -20.043  15.514  1.00  0.00     0.213 HD
ENDBRANCH  14  20
BRANCH  17  22
HETATM   22  O10 UNL     1     -13.847 -21.051  11.737  1.00  0.00    -0.290 OA
ATOM     23  H10 UNL     1     -13.227 -21.742  11.536  1.00  0.00     0.244 HD
ENDBRANCH  17  22
BRANCH  18  24
HETATM   24  N2  UNL     1     -11.963 -18.821  13.142  1.00  0.00    -0.237 N 
ATOM     25  H2  UNL     1     -11.710 -19.794  13.313  1.00  0.00     0.198 HD
BRANCH  24  26
HETATM   26  N3  UNL     1     -11.062 -18.022  12.979  1.00  0.00    -0.248 NA
BRANCH  26  27
HETATM   27  N4  UNL     1     -10.077 -17.436  12.502  1.00  0.00    -0.261 N 
ATOM     28  H42 UNL     1      -9.952 -18.076  11.718  1.00  0.00     0.193 HD
ATOM     29  H41 UNL     1      -9.322 -16.763  12.363  1.00  0.00     0.193 HD
ENDBRANCH  26  27
ENDBRANCH  24  26
ENDBRANCH  18  24
ENDBRANCH  11  12
ENDBRANCH   9  11
BRANCH   8  30
HETATM   30  O6  UNL     1     -13.933 -13.406  13.311  1.00  0.00    -0.390 OA
ATOM     31  H6  UNL     1     -14.504 -13.901  12.734  1.00  0.00     0.210 HD
ENDBRANCH   8  30
BRANCH  10  32
HETATM   32  O11 UNL     1     -11.446 -15.137  13.327  1.00  0.00    -0.387 OA
ATOM     33  H11 UNL     1     -10.520 -15.349  13.345  1.00  0.00     0.210 HD
ENDBRANCH  10  32
BRANCH   7  34
HETATM   34  O5  UNL     1     -13.424 -13.561  16.843  1.00  0.00    -0.387 OA
ATOM     35  H5  UNL     1     -14.321 -13.840  16.986  1.00  0.00     0.210 HD
ENDBRANCH   7  34
BRANCH   6  36
HETATM   36  O4  UNL     1      -8.642 -13.517  16.333  1.00  0.00    -0.363 OA
HETATM   37  C6  UNL     1      -8.631 -12.482  17.262  1.00  0.00     0.204 C 
ENDBRANCH   6  36
BRANCH   1  38
HETATM   38  O1  UNL     1      -8.604 -11.754  13.874  1.00  0.00    -0.384 OA
HETATM   39  C1  UNL     1      -8.568 -10.510  13.273  1.00  0.00     0.202 C 
ENDBRANCH   1  38
TORSDOF 12
ENDMDL
MODEL 3
REMARK VINA RESULT: -6.353203307      0.982      1.020
REMARK  12 active torsions:
REMARK  status: ('A' for Active; 'I' for Inactive)
REMARK    1  A    between atoms: O1_2  and  C2_3 
REMARK    2  A    between atoms: C5_8  and  O4_9 
REMARK    3  A    between atoms: C7_11  and  O5_12 
REMARK    4  A    between atoms: C8_14  and  O6_15 
REMARK    5  A    between atoms: C9_17  and  O7_18 
REMARK    6  A    between atoms: O7_18  and  C10_19 
REMARK    7  A    between atoms: C11_21  and  O9_23 
REMARK    8  A    between atoms: N1_26  and  O10_28 
REMARK    9  A    between atoms: C14_30  and  N2_31 
REMARK   10  A    between atoms: N2_31  and  N3_33 
REMARK   11  A    between atoms: N3_33  and  N4_34 
REMARK   12  A    between atoms: C15_37  and  O11_38 
ROOT
HETATM    1  C2  UNL     1      -7.612 -10.008  22.940  1.00  0.00     0.199 C 
HETATM    2  C3  UNL     1      -6.694 -11.135  22.542  1.00  0.00     0.208 C 
HETATM    3  O2  UNL     1      -7.401 -11.933  21.634  1.00  0.00    -0.348 OA
HETATM    4  C4  UNL     1      -7.600 -11.247  20.439  1.00  0.00     0.224 C 
HETATM    5  O3  UNL     1      -7.736  -9.881  20.612  1.00  0.00    -0.317 OA
HETATM    6  C5  UNL     1      -8.489  -9.675  21.768  1.00  0.00     0.293 C 
HETATM    7  C7  UNL     1      -6.424 -11.577  19.511  1.00  0.00     0.214 C 
HETATM    8  C8  UNL     1      -6.925 -12.897  18.917  1.00  0.00     0.184 C 
HETATM    9  C9  UNL     1      -8.324 -12.514  18.509  1.00  0.00     0.190 C 
HETATM   10  C15 UNL     1      -8.823 -11.763  19.711  1.00  0.00     0.215 C 
ENDROOT
BRANCH   9  11
HETATM   11  O7  UNL     1      -9.109 -13.616  18.198  1.00  0.00    -0.348 OA
BRANCH  11  12
HETATM   12  C10 UNL     1      -9.161 -13.719  16.799  1.00  0.00     0.295 C 
HETATM   13  O8  UNL     1     -10.056 -14.704  16.400  1.00  0.00    -0.317 OA
HETATM   14  C11 UNL     1     -10.270 -14.421  15.052  1.00  0.00     0.205 C 
HETATM   15  C12 UNL     1     -11.475 -15.191  14.577  1.00  0.00     0.086 C 
HETATM   16  C13 UNL     1     -10.500 -12.956  15.069  1.00  0.00     0.101 C 
HETATM   17  N1  UNL     1     -11.257 -12.282  14.271  1.00  0.00    -0.270 N 
HETATM   18  C14 UNL     1      -9.684 -12.423  16.189  1.00  0.00     0.222 C 
ATOM     19  H1  UNL     1     -11.758 -12.793  13.544  1.00  0.00     0.193 HD
BRANCH  14  20
HETATM   20  O9  UNL     1      -9.127 -14.735  14.329  1.00  0.00    -0.361 OA
ATOM     21  H9  UNL     1      -9.204 -14.382  13.451  1.00  0.00     0.213 HD
ENDBRANCH  14  20
BRANCH  17  22
HETATM   22  O10 UNL     1     -11.431 -10.942  14.334  1.00  0.00    -0.290 OA
ATOM     23  H10 UNL     1     -10.910 -10.359  14.873  1.00  0.00     0.244 HD
ENDBRANCH  17  22
BRANCH  18  24
HETATM   24  N2  UNL     1      -8.556 -11.719  15.610  1.00  0.00    -0.237 N 
ATOM     25  H2  UNL     1      -7.749 -11.542  16.208  1.00  0.00     0.198 HD
BRANCH  24  26
HETATM   26  N3  UNL     1      -8.505 -11.327  14.460  1.00  0.00    -0.248 NA
BRANCH  26  27
HETATM   27  N4  UNL     1      -8.397 -10.584  13.472  1.00  0.00    -0.261 N 
ATOM     28  H42 UNL     1      -8.121  -9.757  13.999  1.00  0.00     0.193 HD
ATOM     29  H41 UNL     1      -8.397 -10.245  12.509  1.00  0.00     0.193 HD
ENDBRANCH  26  27
ENDBRANCH  24  26
ENDBRANCH  18  24
ENDBRANCH  11  12
ENDBRANCH   9  11
BRANCH   8  30
HETATM   30  O6  UNL     1      -6.933 -13.807  19.989  1.00  0.00    -0.390 OA
ATOM     31  H6  UNL     1      -6.469 -13.368  20.693  1.00  0.00     0.210 HD
ENDBRANCH   8  30
BRANCH  10  32
HETATM   32  O11 UNL     1      -9.635 -12.546  20.528  1.00  0.00    -0.387 OA
ATOM     33  H11 UNL     1      -9.157 -13.257  20.937  1.00  0.00     0.210 HD
ENDBRANCH  10  32
BRANCH   7  34
HETATM   34  O5  UNL     1      -6.326 -10.613  18.510  1.00  0.00    -0.387 OA
ATOM     35  H5  UNL     1      -5.656 -10.863  17.884  1.00  0.00     0.210 HD
ENDBRANCH   7  34
BRANCH   6  36
HETATM   36  O4  UNL     1      -8.989  -8.374  21.830  1.00  0.00    -0.363 OA
HETATM   37  C6  UNL     1     -10.378  -8.460  21.841  1.00  0.00     0.204 C 
ENDBRANCH   6  36
BRANCH   1  38
HETATM   38  O1  UNL     1      -8.303 -10.250  24.102  1.00  0.00    -0.384 OA
HETATM   39  C1  UNL     1      -9.301 -11.199  23.974  1.00  0.00     0.202 C 
ENDBRANCH   1  38
TORSDOF 12
ENDMDL
MODEL 4
REMARK VINA RESULT: -6.332463340      1.326      1.553
REMARK  12 active torsions:
REMARK  status: ('A' for Active; 'I' for Inactive)
REMARK    1  A    between atoms: O1_2  and  C2_3 
REMARK    2  A    between atoms: C5_8  and  O4_9 
REMARK    3  A    between atoms: C7_11  and  O5_12 
REMARK    4  A    between atoms: C8_14  and  O6_15 
REMARK    5  A    between atoms: C9_17  and  O7_18 
REMARK    6  A    between atoms: O7_18  and  C10_19 
REMARK    7  A    between atoms: C11_21  and  O9_23 
REMARK    8  A    between atoms: N1_26  and  O10_28 
REMARK    9  A    between atoms: C14_30  and  N2_31 
REMARK   10  A    between atoms: N2_31  and  N3_33 
REMARK   11  A    between atoms: N3_33  and  N4_34 
REMARK   12  A    between atoms: C15_37  and  O11_38 
ROOT
HETATM    1  C2  UNL     1      -9.828 -11.901  22.452  1.00  0.00     0.199 C 
HETATM    2  C3  UNL     1      -8.608 -12.648  21.978  1.00  0.00     0.208 C 
HETATM    3  O2  UNL     1      -9.014 -13.450  20.905  1.00  0.00    -0.348 OA
HETATM    4  C4  UNL     1      -9.349 -12.661  19.809  1.00  0.00     0.224 C 
HETATM    5  O3  UNL     1      -9.881 -11.434  20.164  1.00  0.00    -0.317 OA
HETATM    6  C5  UNL     1     -10.711 -11.637  21.267  1.00  0.00     0.293 C 
HETATM    7  C7  UNL     1      -8.088 -12.495  18.950  1.00  0.00     0.214 C 
HETATM    8  C8  UNL     1      -8.161 -13.786  18.130  1.00  0.00     0.184 C 
HETATM    9  C9  UNL     1      -9.592 -13.744  17.658  1.00  0.00     0.190 C 
HETATM   10  C15 UNL     1     -10.339 -13.369  18.908  1.00  0.00     0.215 C 
ENDROOT
BRANCH   9  11
HETATM   11  O7  UNL     1     -10.011 -14.955  17.123  1.00  0.00    -0.348 OA
BRANCH  11  12
HETATM   12  C10 UNL     1     -10.402 -14.719  15.796  1.00  0.00     0.295 C 
HETATM   13  O8  UNL     1     -11.722 -15.098  15.585  1.00  0.00    -0.317 OA
HETATM   14  C11 UNL     1     -12.055 -14.465  14.389  1.00  0.00     0.205 C 
HETATM   15  C12 UNL     1     -13.551 -14.504  14.214  1.00  0.00     0.086 C 
HETATM   16  C13 UNL     1     -11.542 -13.090  14.604  1.00  0.00     0.101 C 
HETATM   17  N1  UNL     1     -12.031 -11.997  14.124  1.00  0.00    -0.270 N 
HETATM   18  C14 UNL     1     -10.353 -13.226  15.484  1.00  0.00     0.222 C 
ATOM     19  H1  UNL     1     -12.857 -12.066  13.530  1.00  0.00     0.193 HD
BRANCH  14  20
HETATM   20  O9  UNL     1     -11.387 -15.085  13.340  1.00  0.00    -0.361 OA
ATOM     21  H9  UNL     1     -12.021 -15.386  12.699  1.00  0.00     0.213 HD
ENDBRANCH  14  20
BRANCH  17  22
HETATM   22  O10 UNL     1     -11.520 -10.766  14.356  1.00  0.00    -0.290 OA
ATOM     23  H10 UNL     1     -12.043  -9.994  14.536  1.00  0.00     0.244 HD
ENDBRANCH  17  22
BRANCH  18  24
HETATM   24  N2  UNL     1      -9.178 -12.983  14.669  1.00  0.00    -0.237 N 
ATOM     25  H2  UNL     1      -8.677 -13.794  14.305  1.00  0.00     0.198 HD
BRANCH  24  26
HETATM   26  N3  UNL     1      -8.750 -11.881  14.389  1.00  0.00    -0.248 NA
BRANCH  26  27
HETATM   27  N4  UNL     1      -8.521 -10.825  13.778  1.00  0.00    -0.261 N 
ATOM     28  H42 UNL     1      -9.225 -10.975  13.055  1.00  0.00     0.193 HD
ATOM     29  H41 UNL     1      -8.117  -9.926  13.512  1.00  0.00     0.193 HD
ENDBRANCH  26  27
ENDBRANCH  24  26
ENDBRANCH  18  24
ENDBRANCH  11  12
ENDBRANCH   9  11
BRANCH   8  30
HETATM   30  O6  UNL     1      -7.954 -14.825  19.054  1.00  0.00    -0.390 OA
ATOM     31  H6  UNL     1      -7.577 -14.407  19.820  1.00  0.00     0.210 HD
ENDBRANCH   8  30
BRANCH  10  32
HETATM   32  O11 UNL     1     -10.926 -14.469  19.527  1.00  0.00    -0.387 OA
ATOM     33  H11 UNL     1     -10.910 -15.244  18.977  1.00  0.00     0.210 HD
ENDBRANCH  10  32
BRANCH   7  34
HETATM   34  O5  UNL     1      -8.228 -11.390  18.113  1.00  0.00    -0.387 OA
ATOM     35  H5  UNL     1      -7.642 -11.473  17.369  1.00  0.00     0.210 HD
ENDBRANCH   7  34
BRANCH   6  36
HETATM   36  O4  UNL     1     -11.567 -10.554  21.471  1.00  0.00    -0.363 OA
HETATM   37  C6  UNL     1     -10.784  -9.466  21.842  1.00  0.00     0.204 C 
ENDBRANCH   6  36
BRANCH   1  38
HETATM   38  O1  UNL     1     -10.470 -12.513  23.500  1.00  0.00    -0.384 OA
HETATM   39  C1  UNL     1     -10.349 -11.840  24.702  1.00  0.00     0.202 C 
ENDBRANCH   1  38
TORSDOF 12
ENDMDL
MODEL 5
REMARK VINA RESULT: -6.258834538      5.210      8.287
REMARK  12 active torsions:
REMARK  status: ('A' for Active; 'I' for Inactive)
REMARK    1  A    between atoms: O1_2  and  C2_3 
REMARK    2  A    between atoms: C5_8  and  O4_9 
REMARK    3  A    between atoms: C7_11  and  O5_12 
REMARK    4  A    between atoms: C8_14  and  O6_15 
REMARK    5  A    between atoms: C9_17  and  O7_18 
REMARK    6  A    between atoms: O7_18  and  C10_19 
REMARK    7  A    between atoms: C11_21  and  O9_23 
REMARK    8  A    between atoms: N1_26  and  O10_28 
REMARK    9  A    between atoms: C14_30  and  N2_31 
REMARK   10  A    between atoms: N2_31  and  N3_33 
REMARK   11  A    between atoms: N3_33  and  N4_34 
REMARK   12  A    between atoms: C15_37  and  O11_38 
ROOT
HETATM    1  C2  UNL     1      -9.491 -11.971  14.913  1.00  0.00     0.199 C 
HETATM    2  C3  UNL     1     -10.860 -11.571  14.426  1.00  0.00     0.208 C 
HETATM    3  O2  UNL     1     -11.482 -12.736  13.963  1.00  0.00    -0.348 OA
HETATM    4  C4  UNL     1     -11.760 -13.592  15.025  1.00  0.00     0.224 C 
HETATM    5  O3  UNL     1     -10.833 -13.507  16.048  1.00  0.00    -0.317 OA
HETATM    6  C5  UNL     1      -9.573 -13.363  15.467  1.00  0.00     0.293 C 
HETATM    7  C7  UNL     1     -13.175 -13.272  15.524  1.00  0.00     0.214 C 
HETATM    8  C8  UNL     1     -13.994 -14.113  14.542  1.00  0.00     0.184 C 
HETATM    9  C9  UNL     1     -13.277 -15.436  14.632  1.00  0.00     0.190 C 
HETATM   10  C15 UNL     1     -11.831 -15.032  14.561  1.00  0.00     0.215 C 
ENDROOT
BRANCH   9  11
HETATM   11  O7  UNL     1     -13.643 -16.310  13.617  1.00  0.00    -0.348 OA
BRANCH  11  12
HETATM   12  C10 UNL     1     -14.006 -17.526  14.215  1.00  0.00     0.295 C 
HETATM   13  O8  UNL     1     -15.230 -17.422  14.865  1.00  0.00    -0.317 OA
HETATM   14  C11 UNL     1     -15.611 -18.748  15.057  1.00  0.00     0.205 C 
HETATM   15  C12 UNL     1     -17.068 -18.788  15.439  1.00  0.00     0.086 C 
HETATM   16  C13 UNL     1     -15.353 -19.348  13.725  1.00  0.00     0.101 C 
HETATM   17  N1  UNL     1     -16.001 -20.318  13.174  1.00  0.00    -0.270 N 
HETATM   18  C14 UNL     1     -14.201 -18.605  13.154  1.00  0.00     0.222 C 
ATOM     19  H1  UNL     1     -16.775 -20.730  13.696  1.00  0.00     0.193 HD
BRANCH  14  20
HETATM   20  O9  UNL     1     -14.798 -19.324  16.025  1.00  0.00    -0.361 OA
ATOM     21  H9  UNL     1     -14.753 -20.262  15.879  1.00  0.00     0.213 HD
ENDBRANCH  14  20
BRANCH  17  22
HETATM   22  O10 UNL     1     -15.722 -20.825  11.952  1.00  0.00    -0.290 OA
ATOM     23  H10 UNL     1     -15.902 -20.378  11.133  1.00  0.00     0.244 HD
ENDBRANCH  17  22
BRANCH  18  24
HETATM   24  N2  UNL     1     -13.049 -19.485  13.201  1.00  0.00    -0.237 N 
ATOM     25  H2  UNL     1     -12.179 -19.108  13.576  1.00  0.00     0.198 HD
BRANCH  24  26
HETATM   26  N3  UNL     1     -13.049 -20.641  12.824  1.00  0.00    -0.248 NA
BRANCH  26  27
HETATM   27  N4  UNL     1     -12.897 -21.872  12.798  1.00  0.00    -0.261 N 
ATOM     28  H42 UNL     1     -12.230 -21.906  13.568  1.00  0.00     0.193 HD
ATOM     29  H41 UNL     1     -12.984 -22.855  12.535  1.00  0.00     0.193 HD
ENDBRANCH  26  27
ENDBRANCH  24  26
ENDBRANCH  18  24
ENDBRANCH  11  12
ENDBRANCH   9  11
BRANCH   8  30
HETATM   30  O6  UNL     1     -13.803 -13.510  13.287  1.00  0.00    -0.390 OA
ATOM     31  H6  UNL     1     -12.960 -13.826  12.983  1.00  0.00     0.210 HD
ENDBRANCH   8  30
BRANCH  10  32
HETATM   32  O11 UNL     1     -11.292 -15.207  13.289  1.00  0.00    -0.387 OA
ATOM     33  H11 UNL     1     -11.811 -14.783  12.616  1.00  0.00     0.210 HD
ENDBRANCH  10  32
BRANCH   7  34
HETATM   34  O5  UNL     1     -13.340 -13.758  16.819  1.00  0.00    -0.387 OA
ATOM     35  H5  UNL     1     -14.205 -13.532  17.141  1.00  0.00     0.210 HD
ENDBRANCH   7  34
BRANCH   6  36
HETATM   36  O4  UNL     1      -8.553 -13.635  16.379  1.00  0.00    -0.363 OA
HETATM   37  C6  UNL     1      -8.595 -12.650  17.360  1.00  0.00     0.204 C 
ENDBRANCH   6  36
BRANCH   1  38
HETATM   38  O1  UNL     1      -8.505 -11.803  13.972  1.00  0.00    -0.384 OA
HETATM   39  C1  UNL     1      -8.544 -10.578  13.331  1.00  0.00     0.202 C 
ENDBRANCH   1  38
TORSDOF 12
ENDMDL
