MODEL 1
REMARK VINA RESULT: -6.747391679      0.000      0.000
REMARK  3 active torsions:
REMARK  status: ('A' for Active; 'I' for Inactive)
REMARK    1  A    between atoms: O1_1  and  C1_3 
REMARK    2  A    between atoms: N1_6  and  C4_7 
REMARK    3  A    between atoms: C4_7  and  C5_8 
ROOT
HETATM    1  C5  UNL     1      -3.848   2.218  12.995  1.00  0.00     0.053 C 
HETATM    2  C6  UNL     1      -3.380   3.605  13.259  1.00  0.00     0.061 C 
HETATM    3  N2  UNL     1      -3.501   4.102  14.564  1.00  0.00    -0.401 N 
ATOM      4  H2  UNL     1      -3.352   5.091  14.766  1.00  0.00     0.158 HD
HETATM    5  C7  UNL     1      -3.839   3.181  15.601  1.00  0.00     0.128 C 
HETATM    6  C8  UNL     1      -4.966   2.258  15.260  1.00  0.00    -0.024 C 
HETATM    7  C9  UNL     1      -6.277   2.934  15.607  1.00  0.00     0.011 C 
HETATM    8  C10 UNL     1      -6.819   2.241  16.834  1.00  0.00     0.001 C 
HETATM    9  C11 UNL     1      -5.542   1.677  17.445  1.00  0.00     0.001 C 
HETATM   10  C12 UNL     1      -4.892   1.077  16.212  1.00  0.00     0.011 C 
HETATM   11  C13 UNL     1      -4.987   1.760  13.860  1.00  0.00     0.022 C 
ENDROOT
BRANCH   1  12
HETATM   12  C4  UNL     1      -4.338   2.127  11.566  1.00  0.00     0.282 C 
BRANCH  12  13
HETATM   13  N1  UNL     1      -3.477   1.370  10.709  1.00  0.00     0.089 N 
HETATM   14  C3  UNL     1      -2.262   0.961  11.345  1.00  0.00     0.275 C 
HETATM   15  C2  UNL     1      -1.981  -0.515  11.189  1.00  0.00     0.062 C 
HETATM   16  C1  UNL     1      -3.057  -1.371  11.798  1.00  0.00     0.121 C 
HETATM   17  C15 UNL     1      -4.380  -0.817  11.352  1.00  0.00     0.062 C 
HETATM   18  C14 UNL     1      -4.252   0.206  10.248  1.00  0.00     0.275 C 
BRANCH  16  19
HETATM   19  O1  UNL     1      -2.847  -2.688  11.373  1.00  0.00    -0.395 OA
ATOM     20  H1  UNL     1      -3.314  -2.806  10.554  1.00  0.00     0.210 HD
ENDBRANCH  16  19
ENDBRANCH  12  13
ENDBRANCH   1  12
TORSDOF 3
ENDMDL
MODEL 2
REMARK VINA RESULT: -6.585881372      2.655      5.991
REMARK  3 active torsions:
REMARK  status: ('A' for Active; 'I' for Inactive)
REMARK    1  A    between atoms: O1_1  and  C1_3 
REMARK    2  A    between atoms: N1_6  and  C4_7 
REMARK    3  A    between atoms: C4_7  and  C5_8 
ROOT
HETATM    1  C5  UNL     1      -3.345   2.025  12.878  1.00  0.00     0.053 C 
HETATM    2  C6  UNL     1      -3.597   0.856  11.994  1.00  0.00     0.061 C 
HETATM    3  N2  UNL     1      -2.722   0.645  10.919  1.00  0.00    -0.401 N 
ATOM      4  H2  UNL     1      -2.939  -0.036  10.190  1.00  0.00     0.158 HD
HETATM    5  C7  UNL     1      -1.520   1.413  10.875  1.00  0.00     0.128 C 
HETATM    6  C8  UNL     1      -1.713   2.873  11.146  1.00  0.00    -0.024 C 
HETATM    7  C9  UNL     1      -2.058   3.573   9.848  1.00  0.00     0.011 C 
HETATM    8  C10 UNL     1      -0.847   4.378   9.446  1.00  0.00     0.001 C 
HETATM    9  C11 UNL     1       0.265   3.620  10.160  1.00  0.00     0.001 C 
HETATM   10  C12 UNL     1      -0.361   3.447  11.532  1.00  0.00     0.011 C 
HETATM   11  C13 UNL     1      -2.706   3.203  12.201  1.00  0.00     0.022 C 
ENDROOT
BRANCH   1  12
HETATM   12  C4  UNL     1      -4.666   2.518  13.429  1.00  0.00     0.282 C 
BRANCH  12  13
HETATM   13  N1  UNL     1      -4.601   2.925  14.800  1.00  0.00     0.089 N 
HETATM   14  C3  UNL     1      -5.884   3.019  15.425  1.00  0.00     0.275 C 
HETATM   15  C2  UNL     1      -5.958   2.277  16.739  1.00  0.00     0.062 C 
HETATM   16  C1  UNL     1      -5.698   0.805  16.581  1.00  0.00     0.121 C 
HETATM   17  C15 UNL     1      -4.483   0.653  15.711  1.00  0.00     0.062 C 
HETATM   18  C14 UNL     1      -3.743   1.951  15.494  1.00  0.00     0.275 C 
BRANCH  16  19
HETATM   19  O1  UNL     1      -5.523   0.263  17.860  1.00  0.00    -0.395 OA
ATOM     20  H1  UNL     1      -6.384   0.063  18.210  1.00  0.00     0.210 HD
ENDBRANCH  16  19
ENDBRANCH  12  13
ENDBRANCH   1  12
TORSDOF 3
ENDMDL
MODEL 3
REMARK VINA RESULT: -6.547899898      3.260      5.621
REMARK  3 active torsions:
REMARK  status: ('A' for Active; 'I' for Inactive)
REMARK    1  A    between atoms: O1_1  and  C1_3 
REMARK    2  A    between atoms: N1_6  and  C4_7 
REMARK    3  A    between atoms: C4_7  and  C5_8 
ROOT
HETATM    1  C5  UNL     1      -3.442   4.240  13.007  1.00  0.00     0.053 C 
HETATM    2  C6  UNL     1      -4.658   4.899  12.462  1.00  0.00     0.061 C 
HETATM    3  N2  UNL     1      -4.645   6.294  12.328  1.00  0.00    -0.401 N 
ATOM      4  H2  UNL     1      -5.500   6.811  12.119  1.00  0.00     0.158 HD
HETATM    5  C7  UNL     1      -3.399   6.970  12.493  1.00  0.00     0.128 C 
HETATM    6  C8  UNL     1      -2.613   6.527  13.688  1.00  0.00    -0.024 C 
HETATM    7  C9  UNL     1      -3.062   7.326  14.895  1.00  0.00     0.011 C 
HETATM    8  C10 UNL     1      -1.951   8.294  15.220  1.00  0.00     0.001 C 
HETATM    9  C11 UNL     1      -1.259   8.418  13.868  1.00  0.00     0.001 C 
HETATM   10  C12 UNL     1      -1.173   6.955  13.472  1.00  0.00     0.011 C 
HETATM   11  C13 UNL     1      -2.655   5.071  13.980  1.00  0.00     0.022 C 
ENDROOT
BRANCH   1  12
HETATM   12  C4  UNL     1      -3.853   2.989  13.754  1.00  0.00     0.282 C 
BRANCH  12  13
HETATM   13  N1  UNL     1      -4.110   3.207  15.145  1.00  0.00     0.089 N 
HETATM   14  C3  UNL     1      -5.502   3.180  15.476  1.00  0.00     0.275 C 
HETATM   15  C2  UNL     1      -5.816   2.264  16.634  1.00  0.00     0.062 C 
HETATM   16  C1  UNL     1      -5.445   0.834  16.353  1.00  0.00     0.121 C 
HETATM   17  C15 UNL     1      -4.064   0.835  15.762  1.00  0.00     0.062 C 
HETATM   18  C14 UNL     1      -3.369   2.171  15.883  1.00  0.00     0.275 C 
BRANCH  16  19
HETATM   19  O1  UNL     1      -5.521   0.128  17.558  1.00  0.00    -0.395 OA
ATOM     20  H1  UNL     1      -6.033  -0.657  17.403  1.00  0.00     0.210 HD
ENDBRANCH  16  19
ENDBRANCH  12  13
ENDBRANCH   1  12
TORSDOF 3
ENDMDL
MODEL 4
REMARK VINA RESULT: -6.295803102      3.195      5.989
REMARK  3 active torsions:
REMARK  status: ('A' for Active; 'I' for Inactive)
REMARK    1  A    between atoms: O1_1  and  C1_3 
REMARK    2  A    between atoms: N1_6  and  C4_7 
REMARK    3  A    between atoms: C4_7  and  C5_8 
ROOT
HETATM    1  C5  UNL     1      -4.473   3.969  13.219  1.00  0.00     0.053 C 
HETATM    2  C6  UNL     1      -4.294   3.135  12.002  1.00  0.00     0.061 C 
HETATM    3  N2  UNL     1      -3.837   3.764  10.836  1.00  0.00    -0.401 N 
ATOM      4  H2  UNL     1      -3.854   3.282   9.937  1.00  0.00     0.158 HD
HETATM    5  C7  UNL     1      -3.349   5.101  10.945  1.00  0.00     0.128 C 
HETATM    6  C8  UNL     1      -4.222   6.011  11.752  1.00  0.00    -0.024 C 
HETATM    7  C9  UNL     1      -5.282   6.606  10.846  1.00  0.00     0.011 C 
HETATM    8  C10 UNL     1      -4.918   8.055  10.637  1.00  0.00     0.001 C 
HETATM    9  C11 UNL     1      -3.417   8.027  10.898  1.00  0.00     0.001 C 
HETATM   10  C12 UNL     1      -3.377   7.201  12.171  1.00  0.00     0.011 C 
HETATM   11  C13 UNL     1      -4.844   5.401  12.956  1.00  0.00     0.022 C 
ENDROOT
BRANCH   1  12
HETATM   12  C4  UNL     1      -5.594   3.388  14.054  1.00  0.00     0.282 C 
BRANCH  12  13
HETATM   13  N1  UNL     1      -5.346   3.435  15.463  1.00  0.00     0.089 N 
HETATM   14  C3  UNL     1      -6.519   3.218  16.253  1.00  0.00     0.275 C 
HETATM   15  C2  UNL     1      -6.330   2.160  17.315  1.00  0.00     0.062 C 
HETATM   16  C1  UNL     1      -5.988   0.818  16.732  1.00  0.00     0.121 C 
HETATM   17  C15 UNL     1      -4.916   1.034  15.701  1.00  0.00     0.062 C 
HETATM   18  C14 UNL     1      -4.319   2.420  15.750  1.00  0.00     0.275 C 
BRANCH  16  19
HETATM   19  O1  UNL     1      -5.574  -0.010  17.782  1.00  0.00    -0.395 OA
ATOM     20  H1  UNL     1      -6.213   0.067  18.481  1.00  0.00     0.210 HD
ENDBRANCH  16  19
ENDBRANCH  12  13
ENDBRANCH   1  12
TORSDOF 3
ENDMDL
MODEL 5
REMARK VINA RESULT: -6.229596278      2.778      5.695
REMARK  3 active torsions:
REMARK  status: ('A' for Active; 'I' for Inactive)
REMARK    1  A    between atoms: O1_1  and  C1_3 
REMARK    2  A    between atoms: N1_6  and  C4_7 
REMARK    3  A    between atoms: C4_7  and  C5_8 
ROOT
HETATM    1  C5  UNL     1      -4.036   4.092  13.605  1.00  0.00     0.053 C 
HETATM    2  C6  UNL     1      -2.867   4.175  14.519  1.00  0.00     0.061 C 
HETATM    3  N2  UNL     1      -1.586   4.158  13.951  1.00  0.00    -0.401 N 
ATOM      4  H2  UNL     1      -0.754   4.046  14.532  1.00  0.00     0.158 HD
HETATM    5  C7  UNL     1      -1.481   4.303  12.535  1.00  0.00     0.128 C 
HETATM    6  C8  UNL     1      -2.436   3.451  11.758  1.00  0.00    -0.024 C 
HETATM    7  C9  UNL     1      -1.813   2.088  11.538  1.00  0.00     0.011 C 
HETATM    8  C10 UNL     1      -1.428   2.009  10.081  1.00  0.00     0.001 C 
HETATM    9  C11 UNL     1      -1.280   3.485   9.732  1.00  0.00     0.001 C 
HETATM   10  C12 UNL     1      -2.543   4.042  10.363  1.00  0.00     0.011 C 
HETATM   11  C13 UNL     1      -3.797   3.317  12.341  1.00  0.00     0.022 C 
ENDROOT
BRANCH   1  12
HETATM   12  C4  UNL     1      -5.173   3.394  14.320  1.00  0.00     0.282 C 
BRANCH  12  13
HETATM   13  N1  UNL     1      -4.924   3.166  15.711  1.00  0.00     0.089 N 
HETATM   14  C3  UNL     1      -6.118   3.088  16.496  1.00  0.00     0.275 C 
HETATM   15  C2  UNL     1      -6.168   1.862  17.377  1.00  0.00     0.062 C 
HETATM   16  C1  UNL     1      -6.127   0.585  16.585  1.00  0.00     0.121 C 
HETATM   17  C15 UNL     1      -5.031   0.721  15.566  1.00  0.00     0.062 C 
HETATM   18  C14 UNL     1      -4.145   1.920  15.806  1.00  0.00     0.275 C 
BRANCH  16  19
HETATM   19  O1  UNL     1      -5.907  -0.467  17.482  1.00  0.00    -0.395 OA
ATOM     20  H1  UNL     1      -5.399  -0.126  18.210  1.00  0.00     0.210 HD
ENDBRANCH  16  19
ENDBRANCH  12  13
ENDBRANCH   1  12
TORSDOF 3
ENDMDL
