MODEL 1
REMARK VINA RESULT: -6.577832466      0.000      0.000
REMARK  3 active torsions:
REMARK  status: ('A' for Active; 'I' for Inactive)
REMARK    1  A    between atoms: N2_4  and  C1_6 
REMARK    2  A    between atoms: C1_6  and  N3_7 
REMARK    3  A    between atoms: N3_7  and  C2_9 
ROOT
HETATM    1  C2  UNL     1      95.426 -39.820  14.710  1.00  0.00     0.221 C 
HETATM    2  O1  UNL     1      95.817 -38.566  15.091  1.00  0.00    -0.366 OA
HETATM    3  C3  UNL     1      96.927 -38.042  14.507  1.00  0.00     0.175 C 
HETATM    4  C4  UNL     1      98.076 -39.011  14.392  1.00  0.00     0.010 C 
HETATM    5  C5  UNL     1      98.512 -39.476  15.762  1.00  0.00     0.007 C 
HETATM    6  C6  UNL     1      97.318 -40.318  16.182  1.00  0.00     0.009 C 
HETATM    7  C7  UNL     1      96.634 -40.752  14.902  1.00  0.00     0.034 C 
HETATM    8  C8  UNL     1      97.605 -40.329  13.799  1.00  0.00     0.015 C 
ENDROOT
BRANCH   1   9
HETATM    9  N3  UNL     1      94.914 -39.864  13.405  1.00  0.00    -0.380 N 
ATOM     10  H3  UNL     1      95.512 -40.144  12.627  1.00  0.00     0.157 HD
BRANCH   9  11
HETATM   11  C1  UNL     1      93.566 -39.517  13.177  1.00  0.00     0.257 C 
BRANCH  11  12
HETATM   12  N2  UNL     1      93.165 -38.595  14.202  1.00  0.00    -0.325 N 
HETATM   13  N1  UNL     1      93.155 -37.384  13.927  1.00  0.00    -0.348 N 
ATOM     14  H12 UNL     1      93.426 -37.071  12.995  1.00  0.00     0.176 HD
ATOM     15  H11 UNL     1      92.870 -36.730  14.656  1.00  0.00     0.176 HD
ATOM     16  H2  UNL     1      92.897 -38.926  15.129  1.00  0.00     0.181 HD
ENDBRANCH  11  12
ENDBRANCH   9  11
ENDBRANCH   1   9
TORSDOF 3
ENDMDL
MODEL 2
REMARK VINA RESULT: -6.417282834      1.097      1.863
REMARK  3 active torsions:
REMARK  status: ('A' for Active; 'I' for Inactive)
REMARK    1  A    between atoms: N2_4  and  C1_6 
REMARK    2  A    between atoms: C1_6  and  N3_7 
REMARK    3  A    between atoms: N3_7  and  C2_9 
ROOT
HETATM    1  C2  UNL     1      95.855 -39.795  14.230  1.00  0.00     0.221 C 
HETATM    2  O1  UNL     1      96.292 -40.795  15.056  1.00  0.00    -0.366 OA
HETATM    3  C3  UNL     1      96.809 -40.441  16.263  1.00  0.00     0.175 C 
HETATM    4  C4  UNL     1      97.750 -39.264  16.206  1.00  0.00     0.010 C 
HETATM    5  C5  UNL     1      98.937 -39.582  15.327  1.00  0.00     0.007 C 
HETATM    6  C6  UNL     1      98.283 -39.638  13.956  1.00  0.00     0.009 C 
HETATM    7  C7  UNL     1      97.020 -38.808  14.055  1.00  0.00     0.034 C 
HETATM    8  C8  UNL     1      97.131 -38.122  15.418  1.00  0.00     0.015 C 
ENDROOT
BRANCH   1   9
HETATM    9  N3  UNL     1      94.685 -39.173  14.690  1.00  0.00    -0.380 N 
ATOM     10  H3  UNL     1      94.631 -38.825  15.647  1.00  0.00     0.157 HD
BRANCH   9  11
HETATM   11  C1  UNL     1      93.585 -39.034  13.819  1.00  0.00     0.257 C 
BRANCH  11  12
HETATM   12  N2  UNL     1      93.071 -37.700  13.962  1.00  0.00    -0.325 N 
HETATM   13  N1  UNL     1      93.882 -36.782  14.169  1.00  0.00    -0.348 N 
ATOM     14  H12 UNL     1      94.880 -36.987  14.232  1.00  0.00     0.176 HD
ATOM     15  H11 UNL     1      93.517 -35.835  14.271  1.00  0.00     0.176 HD
ATOM     16  H2  UNL     1      92.071 -37.513  13.896  1.00  0.00     0.181 HD
ENDBRANCH  11  12
ENDBRANCH   9  11
ENDBRANCH   1   9
TORSDOF 3
ENDMDL
MODEL 3
REMARK VINA RESULT: -6.227182985      1.420      2.415
REMARK  3 active torsions:
REMARK  status: ('A' for Active; 'I' for Inactive)
REMARK    1  A    between atoms: N2_4  and  C1_6 
REMARK    2  A    between atoms: C1_6  and  N3_7 
REMARK    3  A    between atoms: N3_7  and  C2_9 
ROOT
HETATM    1  C2  UNL     1      96.641 -38.145  14.244  1.00  0.00     0.221 C 
HETATM    2  O1  UNL     1      95.869 -39.260  14.063  1.00  0.00    -0.366 OA
HETATM    3  C3  UNL     1      95.709 -40.099  15.121  1.00  0.00     0.175 C 
HETATM    4  C4  UNL     1      96.980 -40.374  15.884  1.00  0.00     0.010 C 
HETATM    5  C5  UNL     1      98.001 -41.034  14.987  1.00  0.00     0.007 C 
HETATM    6  C6  UNL     1      98.341 -39.895  14.039  1.00  0.00     0.009 C 
HETATM    7  C7  UNL     1      98.004 -38.616  14.777  1.00  0.00     0.034 C 
HETATM    8  C8  UNL     1      97.703 -39.076  16.204  1.00  0.00     0.015 C 
ENDROOT
BRANCH   1   9
HETATM    9  N3  UNL     1      96.038 -37.188  15.073  1.00  0.00    -0.380 N 
ATOM     10  H3  UNL     1      96.278 -37.142  16.064  1.00  0.00     0.157 HD
BRANCH   9  11
HETATM   11  C1  UNL     1      95.099 -36.288  14.526  1.00  0.00     0.257 C 
BRANCH  11  12
HETATM   12  N2  UNL     1      94.203 -37.037  13.691  1.00  0.00    -0.325 N 
HETATM   13  N1  UNL     1      93.156 -37.471  14.200  1.00  0.00    -0.348 N 
ATOM     14  H12 UNL     1      92.954 -37.291  15.184  1.00  0.00     0.176 HD
ATOM     15  H11 UNL     1      92.519 -38.003  13.606  1.00  0.00     0.176 HD
ATOM     16  H2  UNL     1      94.419 -37.208  12.709  1.00  0.00     0.181 HD
ENDBRANCH  11  12
ENDBRANCH   9  11
ENDBRANCH   1   9
TORSDOF 3
ENDMDL
MODEL 4
REMARK VINA RESULT: -6.162353060      1.200      1.933
REMARK  3 active torsions:
REMARK  status: ('A' for Active; 'I' for Inactive)
REMARK    1  A    between atoms: N2_4  and  C1_6 
REMARK    2  A    between atoms: C1_6  and  N3_7 
REMARK    3  A    between atoms: N3_7  and  C2_9 
ROOT
HETATM    1  C2  UNL     1      96.475 -38.268  14.713  1.00  0.00     0.221 C 
HETATM    2  O1  UNL     1      97.267 -38.737  13.701  1.00  0.00    -0.366 OA
HETATM    3  C3  UNL     1      97.928 -39.908  13.903  1.00  0.00     0.175 C 
HETATM    4  C4  UNL     1      98.571 -40.023  15.262  1.00  0.00     0.010 C 
HETATM    5  C5  UNL     1      99.599 -38.932  15.453  1.00  0.00     0.007 C 
HETATM    6  C6  UNL     1      98.711 -37.701  15.533  1.00  0.00     0.009 C 
HETATM    7  C7  UNL     1      97.348 -38.190  15.976  1.00  0.00     0.034 C 
HETATM    8  C8  UNL     1      97.581 -39.653  16.355  1.00  0.00     0.015 C 
ENDROOT
BRANCH   1   9
HETATM    9  N3  UNL     1      95.316 -39.035  14.905  1.00  0.00    -0.380 N 
ATOM     10  H3  UNL     1      95.123 -39.456  15.814  1.00  0.00     0.157 HD
BRANCH   9  11
HETATM   11  C1  UNL     1      94.421 -39.220  13.831  1.00  0.00     0.257 C 
BRANCH  11  12
HETATM   12  N2  UNL     1      93.176 -38.594  14.179  1.00  0.00    -0.325 N 
HETATM   13  N1  UNL     1      93.085 -37.362  14.049  1.00  0.00    -0.348 N 
ATOM     14  H12 UNL     1      93.881 -36.825  13.704  1.00  0.00     0.176 HD
ATOM     15  H11 UNL     1      92.201 -36.918  14.296  1.00  0.00     0.176 HD
ATOM     16  H2  UNL     1      92.389 -39.145  14.523  1.00  0.00     0.181 HD
ENDBRANCH  11  12
ENDBRANCH   9  11
ENDBRANCH   1   9
TORSDOF 3
ENDMDL
MODEL 5
REMARK VINA RESULT: -6.120589388      1.295      1.363
REMARK  3 active torsions:
REMARK  status: ('A' for Active; 'I' for Inactive)
REMARK    1  A    between atoms: N2_4  and  C1_6 
REMARK    2  A    between atoms: C1_6  and  N3_7 
REMARK    3  A    between atoms: N3_7  and  C2_9 
ROOT
HETATM    1  C2  UNL     1      94.709 -39.437  14.422  1.00  0.00     0.221 C 
HETATM    2  O1  UNL     1      95.488 -38.447  14.956  1.00  0.00    -0.366 OA
HETATM    3  C3  UNL     1      96.767 -38.335  14.508  1.00  0.00     0.175 C 
HETATM    4  C4  UNL     1      97.489 -39.651  14.375  1.00  0.00     0.010 C 
HETATM    5  C5  UNL     1      97.582 -40.339  15.718  1.00  0.00     0.007 C 
HETATM    6  C6  UNL     1      96.127 -40.703  15.965  1.00  0.00     0.009 C 
HETATM    7  C7  UNL     1      95.468 -40.761  14.603  1.00  0.00     0.034 C 
HETATM    8  C8  UNL     1      96.634 -40.655  13.619  1.00  0.00     0.015 C 
ENDROOT
BRANCH   1   9
HETATM    9  N3  UNL     1      94.353 -39.196  13.086  1.00  0.00    -0.380 N 
ATOM     10  H3  UNL     1      94.626 -39.854  12.356  1.00  0.00     0.157 HD
BRANCH   9  11
HETATM   11  C1  UNL     1      93.616 -38.038  12.763  1.00  0.00     0.257 C 
BRANCH  11  12
HETATM   12  N2  UNL     1      92.478 -38.440  11.985  1.00  0.00    -0.325 N 
HETATM   13  N1  UNL     1      91.348 -38.140  12.406  1.00  0.00    -0.348 N 
ATOM     14  H12 UNL     1      91.250 -37.624  13.280  1.00  0.00     0.176 HD
ATOM     15  H11 UNL     1      90.539 -38.426  11.854  1.00  0.00     0.176 HD
ATOM     16  H2  UNL     1      92.593 -38.956  11.113  1.00  0.00     0.181 HD
ENDBRANCH  11  12
ENDBRANCH   9  11
ENDBRANCH   1   9
TORSDOF 3
ENDMDL
