MODEL 1
REMARK VINA RESULT: -5.647943956      0.000      0.000
REMARK  5 active torsions:
REMARK  status: ('A' for Active; 'I' for Inactive)
REMARK    1  A    between atoms: N1_2  and  C2_3 
REMARK    2  A    between atoms: C2_3  and  C3_4 
REMARK    3  A    between atoms: C3_4  and  N2_5 
REMARK    4  A    between atoms: C8_13  and  C9_14 
REMARK    5  A    between atoms: C9_14  and  N3_15 
ROOT
HETATM    1  C1  UNL     1      93.863 -40.372  14.854  1.00  0.00     0.273 C 
HETATM    2  N1  UNL     1      94.914 -40.131  13.849  1.00  0.00    -0.064 N 
HETATM    3  C4  UNL     1      96.080 -40.819  14.326  1.00  0.00     0.237 C 
HETATM    4  C5  UNL     1      96.705 -40.129  15.528  1.00  0.00     0.028 C 
HETATM    5  C6  UNL     1      97.241 -38.810  14.947  1.00  0.00     0.004 C 
HETATM    6  C7  UNL     1      96.000 -38.042  14.595  1.00  0.00     0.035 C 
HETATM    7  C8  UNL     1      95.080 -38.737  13.632  1.00  0.00     0.215 C 
ENDROOT
BRANCH   2   8
HETATM    8  C2  UNL     1      94.433 -40.738  12.630  1.00  0.00     0.264 C 
BRANCH   8   9
HETATM    9  C3  UNL     1      93.338 -41.741  12.803  1.00  0.00     0.257 C 
BRANCH   9  10
HETATM   10  N2  UNL     1      93.264 -42.541  11.628  1.00  0.00    -0.078 N 
ATOM     11  H23 UNL     1      92.320 -42.584  11.244  1.00  0.00     0.274 HD
ATOM     12  H22 UNL     1      93.722 -42.104  10.828  1.00  0.00     0.274 HD
ATOM     13  H21 UNL     1      93.641 -43.464  11.838  1.00  0.00     0.274 HD
ENDBRANCH   9  10
ENDBRANCH   8   9
ENDBRANCH   2   8
BRANCH   7  14
HETATM   14  C9  UNL     1      93.781 -37.954  13.662  1.00  0.00     0.263 C 
BRANCH  14  15
HETATM   15  N3  UNL     1      93.935 -36.640  14.215  1.00  0.00    -0.077 N 
ATOM     16  H33 UNL     1      93.029 -36.184  14.332  1.00  0.00     0.274 HD
ATOM     17  H32 UNL     1      94.224 -36.686  15.192  1.00  0.00     0.274 HD
ATOM     18  H31 UNL     1      94.570 -36.053  13.674  1.00  0.00     0.274 HD
ENDBRANCH  14  15
ENDBRANCH   7  14
TORSDOF 5
ENDMDL
MODEL 2
REMARK VINA RESULT: -5.245713206      1.517      1.560
REMARK  5 active torsions:
REMARK  status: ('A' for Active; 'I' for Inactive)
REMARK    1  A    between atoms: N1_2  and  C2_3 
REMARK    2  A    between atoms: C2_3  and  C3_4 
REMARK    3  A    between atoms: C3_4  and  N2_5 
REMARK    4  A    between atoms: C8_13  and  C9_14 
REMARK    5  A    between atoms: C9_14  and  N3_15 
ROOT
HETATM    1  C1  UNL     1      94.019 -39.620  15.030  1.00  0.00     0.273 C 
HETATM    2  N1  UNL     1      95.166 -39.729  14.111  1.00  0.00    -0.064 N 
HETATM    3  C4  UNL     1      95.906 -40.882  14.540  1.00  0.00     0.237 C 
HETATM    4  C5  UNL     1      96.642 -40.639  15.849  1.00  0.00     0.028 C 
HETATM    5  C6  UNL     1      97.716 -39.605  15.471  1.00  0.00     0.004 C 
HETATM    6  C7  UNL     1      96.927 -38.362  15.173  1.00  0.00     0.035 C 
HETATM    7  C8  UNL     1      95.899 -38.513  14.089  1.00  0.00     0.215 C 
ENDROOT
BRANCH   2   8
HETATM    8  C2  UNL     1      94.596 -39.954  12.803  1.00  0.00     0.264 C 
BRANCH   8   9
HETATM    9  C3  UNL     1      93.106 -39.863  12.729  1.00  0.00     0.257 C 
BRANCH   9  10
HETATM   10  N2  UNL     1      92.758 -38.789  11.862  1.00  0.00    -0.078 N 
ATOM     11  H23 UNL     1      93.478 -38.602  11.164  1.00  0.00     0.274 HD
ATOM     12  H22 UNL     1      92.001 -39.033  11.223  1.00  0.00     0.274 HD
ATOM     13  H21 UNL     1      92.541 -37.970  12.429  1.00  0.00     0.274 HD
ENDBRANCH   9  10
ENDBRANCH   8   9
ENDBRANCH   2   8
BRANCH   7  14
HETATM   14  C9  UNL     1      95.028 -37.273  14.168  1.00  0.00     0.263 C 
BRANCH  14  15
HETATM   15  N3  UNL     1      95.638 -36.211  14.914  1.00  0.00    -0.077 N 
ATOM     16  H33 UNL     1      95.059 -35.945  15.711  1.00  0.00     0.274 HD
ATOM     17  H32 UNL     1      96.464 -36.542  15.413  1.00  0.00     0.274 HD
ATOM     18  H31 UNL     1      95.860 -35.399  14.339  1.00  0.00     0.274 HD
ENDBRANCH  14  15
ENDBRANCH   7  14
TORSDOF 5
ENDMDL
MODEL 3
REMARK VINA RESULT: -5.230601866      1.680      3.020
REMARK  5 active torsions:
REMARK  status: ('A' for Active; 'I' for Inactive)
REMARK    1  A    between atoms: N1_2  and  C2_3 
REMARK    2  A    between atoms: C2_3  and  C3_4 
REMARK    3  A    between atoms: C3_4  and  N2_5 
REMARK    4  A    between atoms: C8_13  and  C9_14 
REMARK    5  A    between atoms: C9_14  and  N3_15 
ROOT
HETATM    1  C1  UNL     1      95.063 -40.146  12.756  1.00  0.00     0.273 C 
HETATM    2  N1  UNL     1      94.877 -39.442  14.037  1.00  0.00    -0.064 N 
HETATM    3  C4  UNL     1      96.135 -38.816  14.329  1.00  0.00     0.237 C 
HETATM    4  C5  UNL     1      97.199 -39.824  14.736  1.00  0.00     0.028 C 
HETATM    5  C6  UNL     1      96.699 -40.345  16.094  1.00  0.00     0.004 C 
HETATM    6  C7  UNL     1      95.464 -41.126  15.746  1.00  0.00     0.035 C 
HETATM    7  C8  UNL     1      94.403 -40.340  15.030  1.00  0.00     0.215 C 
ENDROOT
BRANCH   2   8
HETATM    8  C2  UNL     1      93.862 -38.444  13.789  1.00  0.00     0.264 C 
BRANCH   8   9
HETATM    9  C3  UNL     1      93.413 -38.328  12.368  1.00  0.00     0.257 C 
BRANCH   9  10
HETATM   10  N2  UNL     1      92.046 -37.932  12.354  1.00  0.00    -0.078 N 
ATOM     11  H23 UNL     1      91.815 -37.296  13.118  1.00  0.00     0.274 HD
ATOM     12  H22 UNL     1      91.828 -37.306  11.578  1.00  0.00     0.274 HD
ATOM     13  H21 UNL     1      91.464 -38.770  12.355  1.00  0.00     0.274 HD
ENDBRANCH   9  10
ENDBRANCH   8   9
ENDBRANCH   2   8
BRANCH   7  14
HETATM   14  C9  UNL     1      93.412 -41.363  14.507  1.00  0.00     0.263 C 
BRANCH  14  15
HETATM   15  N3  UNL     1      92.056 -41.059  14.864  1.00  0.00    -0.077 N 
ATOM     16  H33 UNL     1      91.895 -41.221  15.858  1.00  0.00     0.274 HD
ATOM     17  H32 UNL     1      91.887 -40.053  14.831  1.00  0.00     0.274 HD
ATOM     18  H31 UNL     1      91.375 -41.562  14.296  1.00  0.00     0.274 HD
ENDBRANCH  14  15
ENDBRANCH   7  14
TORSDOF 5
ENDMDL
MODEL 4
REMARK VINA RESULT: -5.064481365      1.939      3.376
REMARK  5 active torsions:
REMARK  status: ('A' for Active; 'I' for Inactive)
REMARK    1  A    between atoms: N1_2  and  C2_3 
REMARK    2  A    between atoms: C2_3  and  C3_4 
REMARK    3  A    between atoms: C3_4  and  N2_5 
REMARK    4  A    between atoms: C8_13  and  C9_14 
REMARK    5  A    between atoms: C9_14  and  N3_15 
ROOT
HETATM    1  C1  UNL     1      96.241 -40.127  13.410  1.00  0.00     0.273 C 
HETATM    2  N1  UNL     1      95.867 -39.622  14.742  1.00  0.00    -0.064 N 
HETATM    3  C4  UNL     1      94.996 -38.505  14.510  1.00  0.00     0.237 C 
HETATM    4  C5  UNL     1      95.743 -37.294  13.972  1.00  0.00     0.028 C 
HETATM    5  C6  UNL     1      96.625 -36.860  15.155  1.00  0.00     0.004 C 
HETATM    6  C7  UNL     1      97.625 -37.973  15.283  1.00  0.00     0.035 C 
HETATM    7  C8  UNL     1      97.030 -39.334  15.506  1.00  0.00     0.215 C 
ENDROOT
BRANCH   2   8
HETATM    8  C2  UNL     1      95.146 -40.699  15.379  1.00  0.00     0.264 C 
BRANCH   8   9
HETATM    9  C3  UNL     1      93.663 -40.527  15.443  1.00  0.00     0.257 C 
BRANCH   9  10
HETATM   10  N2  UNL     1      93.054 -41.504  14.607  1.00  0.00    -0.078 N 
ATOM     11  H23 UNL     1      92.852 -41.147  13.673  1.00  0.00     0.274 HD
ATOM     12  H22 UNL     1      93.702 -42.245  14.337  1.00  0.00     0.274 HD
ATOM     13  H21 UNL     1      92.224 -41.863  15.076  1.00  0.00     0.274 HD
ENDBRANCH   9  10
ENDBRANCH   8   9
ENDBRANCH   2   8
BRANCH   7  14
HETATM   14  C9  UNL     1      98.161 -40.321  15.293  1.00  0.00     0.263 C 
BRANCH  14  15
HETATM   15  N3  UNL     1      99.416 -39.682  15.020  1.00  0.00    -0.077 N 
ATOM     16  H33 UNL     1      99.779 -39.963  14.110  1.00  0.00     0.274 HD
ATOM     17  H32 UNL     1      99.287 -38.685  14.846  1.00  0.00     0.274 HD
ATOM     18  H31 UNL     1     100.108 -39.838  15.753  1.00  0.00     0.274 HD
ENDBRANCH  14  15
ENDBRANCH   7  14
TORSDOF 5
ENDMDL
MODEL 5
REMARK VINA RESULT: -4.993562008      1.962      3.864
REMARK  5 active torsions:
REMARK  status: ('A' for Active; 'I' for Inactive)
REMARK    1  A    between atoms: N1_2  and  C2_3 
REMARK    2  A    between atoms: C2_3  and  C3_4 
REMARK    3  A    between atoms: C3_4  and  N2_5 
REMARK    4  A    between atoms: C8_13  and  C9_14 
REMARK    5  A    between atoms: C9_14  and  N3_15 
ROOT
HETATM    1  C1  UNL     1      96.260 -40.132  13.405  1.00  0.00     0.273 C 
HETATM    2  N1  UNL     1      95.584 -39.344  14.450  1.00  0.00    -0.064 N 
HETATM    3  C4  UNL     1      95.721 -40.099  15.663  1.00  0.00     0.237 C 
HETATM    4  C5  UNL     1      94.847 -41.344  15.668  1.00  0.00     0.028 C 
HETATM    5  C6  UNL     1      93.418 -40.778  15.721  1.00  0.00     0.004 C 
HETATM    6  C7  UNL     1      93.242 -40.123  14.381  1.00  0.00     0.035 C 
HETATM    7  C8  UNL     1      94.248 -39.054  14.066  1.00  0.00     0.215 C 
ENDROOT
BRANCH   2   8
HETATM    8  C2  UNL     1      96.322 -38.105  14.542  1.00  0.00     0.264 C 
BRANCH   8   9
HETATM    9  C3  UNL     1      97.315 -38.034  15.658  1.00  0.00     0.257 C 
BRANCH   9  10
HETATM   10  N2  UNL     1      97.936 -36.753  15.633  1.00  0.00    -0.078 N 
ATOM     11  H23 UNL     1      98.199 -36.465  14.691  1.00  0.00     0.274 HD
ATOM     12  H22 UNL     1      97.280 -35.997  15.833  1.00  0.00     0.274 HD
ATOM     13  H21 UNL     1      98.728 -36.763  16.274  1.00  0.00     0.274 HD
ENDBRANCH   9  10
ENDBRANCH   8   9
ENDBRANCH   2   8
BRANCH   7  14
HETATM   14  C9  UNL     1      94.089 -38.757  12.587  1.00  0.00     0.263 C 
BRANCH  14  15
HETATM   15  N3  UNL     1      93.168 -37.688  12.328  1.00  0.00    -0.077 N 
ATOM     16  H33 UNL     1      93.077 -37.517  11.327  1.00  0.00     0.274 HD
ATOM     17  H32 UNL     1      92.211 -37.972  12.536  1.00  0.00     0.274 HD
ATOM     18  H31 UNL     1      93.409 -36.829  12.824  1.00  0.00     0.274 HD
ENDBRANCH  14  15
ENDBRANCH   7  14
TORSDOF 5
ENDMDL
