MODEL 1
REMARK VINA RESULT: -8.473357359      0.000      0.000
REMARK  12 active torsions:
REMARK  status: ('A' for Active; 'I' for Inactive)
REMARK    1  A    between atoms: C4_4  and  C5_5 
REMARK    2  A    between atoms: C5_5  and  C6_6 
REMARK    3  A    between atoms: C7_9  and  C8_10 
REMARK    4  A    between atoms: C11_13  and  O1_14 
REMARK    5  A    between atoms: O1_14  and  C12_15 
REMARK    6  A    between atoms: C12_15  and  C13_16 
REMARK    7  A    between atoms: C13_16  and  C14_17 
REMARK    8  A    between atoms: N5_35  and  C26_36 
REMARK    9  A    between atoms: C26_36  and  C27_37 
REMARK   10  A    between atoms: C26_36  and  C28_40 
REMARK   11  A    between atoms: C27_37  and  O2_38 
REMARK   12  A    between atoms: C28_40  and  O3_41 
ROOT
HETATM    1  C6  UNL     1      40.704 -20.444  27.865  1.00  0.00     0.097 A 
HETATM    2  N1  UNL     1      41.451 -20.701  28.964  1.00  0.00    -0.329 N 
ATOM      3  H1  UNL     1      41.077 -20.851  29.901  1.00  0.00     0.168 HD
HETATM    4  C7  UNL     1      42.755 -20.730  28.642  1.00  0.00     0.131 A 
HETATM    5  N3  UNL     1      42.788 -20.484  27.322  1.00  0.00    -0.283 N 
ATOM      6  H3  UNL     1      43.639 -20.436  26.761  1.00  0.00     0.188 HD
HETATM    7  N4  UNL     1      41.574 -20.313  26.854  1.00  0.00    -0.287 N 
ATOM      8  H4  UNL     1      41.332 -20.115  25.883  1.00  0.00     0.188 HD
ENDROOT
BRANCH   4   9
HETATM    9  C8  UNL     1      43.873 -20.977  29.542  1.00  0.00     0.009 A 
HETATM   10  C9  UNL     1      45.087 -20.352  29.379  1.00  0.00     0.018 A 
HETATM   11  C10 UNL     1      46.136 -20.613  30.258  1.00  0.00     0.037 A 
HETATM   12  C11 UNL     1      46.022 -21.485  31.309  1.00  0.00     0.068 A 
HETATM   13  C22 UNL     1      44.782 -22.116  31.467  1.00  0.00     0.037 A 
HETATM   14  C23 UNL     1      43.772 -21.850  30.602  1.00  0.00     0.018 A 
BRANCH  12  15
HETATM   15  O1  UNL     1      46.980 -21.807  32.213  1.00  0.00    -0.351 OA
BRANCH  15  16
HETATM   16  C12 UNL     1      48.133 -22.554  32.132  1.00  0.00     0.181 C 
BRANCH  16  17
HETATM   17  C13 UNL     1      49.363 -21.904  31.650  1.00  0.00     0.079 C 
BRANCH  17  18
HETATM   18  C14 UNL     1      50.345 -21.406  32.666  1.00  0.00    -0.009 C 
HETATM   19  C15 UNL     1      50.194 -21.944  34.051  1.00  0.00     0.064 C 
HETATM   20  C16 UNL     1      51.275 -21.486  34.989  1.00  0.00    -0.007 C 
HETATM   21  C17 UNL     1      50.703 -20.943  36.276  1.00  0.00     0.018 C 
HETATM   22  C18 UNL     1      52.102 -22.710  35.371  1.00  0.00     0.018 C 
HETATM   23  C19 UNL     1      52.213 -20.482  34.410  1.00  0.00     0.216 C 
HETATM   24  F1  UNL     1      53.373 -21.107  33.916  1.00  0.00    -0.243 F 
HETATM   25  C20 UNL     1      51.710 -19.588  33.352  1.00  0.00     0.100 C 
HETATM   26  N2  UNL     1      50.603 -20.012  32.602  1.00  0.00    -0.369 N 
HETATM   27  C21 UNL     1      50.430 -19.393  31.330  1.00  0.00     0.154 C 
ENDBRANCH  17  18
ENDBRANCH  16  17
ENDBRANCH  15  16
ENDBRANCH  12  15
ENDBRANCH   4   9
BRANCH   1  28
HETATM   28  C5  UNL     1      39.218 -20.325  27.776  1.00  0.00     0.083 C 
BRANCH  28  29
HETATM   29  C4  UNL     1      38.884 -18.886  27.380  1.00  0.00    -0.001 C 
HETATM   30  C3  UNL     1      37.438 -18.854  26.973  1.00  0.00     0.030 C 
HETATM   31  C2  UNL     1      37.139 -17.418  26.565  1.00  0.00     0.080 C 
HETATM   32  C1  UNL     1      38.171 -17.052  25.507  1.00  0.00     0.032 C 
HETATM   33  N5  UNL     1      37.245 -16.548  27.667  1.00  0.00    -0.380 N 
HETATM   34  C25 UNL     1      38.207 -16.792  28.641  1.00  0.00     0.059 C 
HETATM   35  C24 UNL     1      39.089 -17.969  28.525  1.00  0.00     0.049 C 
BRANCH  33  36
HETATM   36  C26 UNL     1      36.788 -15.227  27.479  1.00  0.00     0.131 C 
BRANCH  36  37
HETATM   37  C27 UNL     1      37.873 -14.209  27.385  1.00  0.00     0.191 C 
BRANCH  37  38
HETATM   38  O2  UNL     1      37.388 -12.929  27.099  1.00  0.00    -0.399 OA
ATOM     39  H2  UNL     1      37.126 -12.455  27.880  1.00  0.00     0.209 HD
ENDBRANCH  37  38
ENDBRANCH  36  37
BRANCH  36  40
HETATM   40  C28 UNL     1      35.839 -14.762  28.589  1.00  0.00     0.191 C 
BRANCH  40  41
HETATM   41  O3  UNL     1      34.984 -13.769  28.110  1.00  0.00    -0.399 OA
ATOM     42  H3  UNL     1      34.214 -13.702  28.662  1.00  0.00     0.209 HD
ENDBRANCH  40  41
ENDBRANCH  36  40
ENDBRANCH  33  36
ENDBRANCH  28  29
ENDBRANCH   1  28
TORSDOF 12
ENDMDL
MODEL 2
REMARK VINA RESULT: -8.263228116      0.775      1.322
REMARK  12 active torsions:
REMARK  status: ('A' for Active; 'I' for Inactive)
REMARK    1  A    between atoms: C4_4  and  C5_5 
REMARK    2  A    between atoms: C5_5  and  C6_6 
REMARK    3  A    between atoms: C7_9  and  C8_10 
REMARK    4  A    between atoms: C11_13  and  O1_14 
REMARK    5  A    between atoms: O1_14  and  C12_15 
REMARK    6  A    between atoms: C12_15  and  C13_16 
REMARK    7  A    between atoms: C13_16  and  C14_17 
REMARK    8  A    between atoms: N5_35  and  C26_36 
REMARK    9  A    between atoms: C26_36  and  C27_37 
REMARK   10  A    between atoms: C26_36  and  C28_40 
REMARK   11  A    between atoms: C27_37  and  O2_38 
REMARK   12  A    between atoms: C28_40  and  O3_41 
ROOT
HETATM    1  C6  UNL     1      40.619 -20.495  28.156  1.00  0.00     0.097 A 
HETATM    2  N1  UNL     1      41.962 -20.422  28.301  1.00  0.00    -0.329 N 
ATOM      3  H1  UNL     1      42.598 -19.982  27.636  1.00  0.00     0.168 HD
HETATM    4  C7  UNL     1      42.338 -21.012  29.448  1.00  0.00     0.131 A 
HETATM    5  N3  UNL     1      41.194 -21.448  30.000  1.00  0.00    -0.283 N 
ATOM      6  H3  UNL     1      41.129 -21.946  30.889  1.00  0.00     0.188 HD
HETATM    7  N4  UNL     1      40.169 -21.144  29.239  1.00  0.00    -0.287 N 
ATOM      8  H4  UNL     1      39.193 -21.365  29.437  1.00  0.00     0.188 HD
ENDROOT
BRANCH   4   9
HETATM    9  C8  UNL     1      43.694 -21.140  29.963  1.00  0.00     0.009 A 
HETATM   10  C9  UNL     1      44.732 -20.389  29.463  1.00  0.00     0.018 A 
HETATM   11  C10 UNL     1      46.019 -20.538  29.978  1.00  0.00     0.037 A 
HETATM   12  C11 UNL     1      46.316 -21.418  30.986  1.00  0.00     0.068 A 
HETATM   13  C22 UNL     1      45.252 -22.177  31.488  1.00  0.00     0.037 A 
HETATM   14  C23 UNL     1      44.007 -22.019  30.975  1.00  0.00     0.018 A 
BRANCH  12  15
HETATM   15  O1  UNL     1      47.529 -21.637  31.549  1.00  0.00    -0.351 OA
BRANCH  15  16
HETATM   16  C12 UNL     1      48.538 -22.535  31.286  1.00  0.00     0.181 C 
BRANCH  16  17
HETATM   17  C13 UNL     1      49.920 -22.039  31.191  1.00  0.00     0.079 C 
BRANCH  17  18
HETATM   18  C14 UNL     1      50.571 -21.516  32.436  1.00  0.00    -0.009 C 
HETATM   19  C15 UNL     1      50.286 -22.264  33.697  1.00  0.00     0.064 C 
HETATM   20  C16 UNL     1      51.055 -21.751  34.881  1.00  0.00    -0.007 C 
HETATM   21  C17 UNL     1      50.155 -21.514  36.069  1.00  0.00     0.018 C 
HETATM   22  C18 UNL     1      52.038 -22.841  35.299  1.00  0.00     0.018 C 
HETATM   23  C19 UNL     1      51.849 -20.517  34.616  1.00  0.00     0.216 C 
HETATM   24  F1  UNL     1      53.185 -20.837  34.314  1.00  0.00    -0.243 F 
HETATM   25  C20 UNL     1      51.371 -19.591  33.574  1.00  0.00     0.100 C 
HETATM   26  N2  UNL     1      50.535 -20.103  32.571  1.00  0.00    -0.369 N 
HETATM   27  C21 UNL     1      50.471 -19.353  31.361  1.00  0.00     0.154 C 
ENDBRANCH  17  18
ENDBRANCH  16  17
ENDBRANCH  15  16
ENDBRANCH  12  15
ENDBRANCH   4   9
BRANCH   1  28
HETATM   28  C5  UNL     1      39.790 -19.969  27.031  1.00  0.00     0.083 C 
BRANCH  28  29
HETATM   29  C4  UNL     1      39.536 -18.483  27.286  1.00  0.00    -0.001 C 
HETATM   30  C3  UNL     1      38.502 -18.025  26.298  1.00  0.00     0.030 C 
HETATM   31  C2  UNL     1      38.285 -16.541  26.561  1.00  0.00     0.080 C 
HETATM   32  C1  UNL     1      39.659 -15.889  26.486  1.00  0.00     0.032 C 
HETATM   33  N5  UNL     1      37.718 -16.331  27.833  1.00  0.00    -0.380 N 
HETATM   34  C25 UNL     1      38.077 -17.163  28.888  1.00  0.00     0.059 C 
HETATM   35  C24 UNL     1      39.028 -18.269  28.661  1.00  0.00     0.049 C 
BRANCH  33  36
HETATM   36  C26 UNL     1      37.269 -15.025  28.120  1.00  0.00     0.131 C 
BRANCH  36  37
HETATM   37  C27 UNL     1      35.991 -14.969  28.885  1.00  0.00     0.191 C 
BRANCH  37  38
HETATM   38  O2  UNL     1      35.089 -14.038  28.361  1.00  0.00    -0.399 OA
ATOM     39  H2  UNL     1      35.267 -13.152  28.653  1.00  0.00     0.209 HD
ENDBRANCH  37  38
ENDBRANCH  36  37
BRANCH  36  40
HETATM   40  C28 UNL     1      37.070 -14.174  26.861  1.00  0.00     0.191 C 
BRANCH  40  41
HETATM   41  O3  UNL     1      37.394 -12.842  27.121  1.00  0.00    -0.399 OA
ATOM     42  H3  UNL     1      38.254 -12.638  26.774  1.00  0.00     0.209 HD
ENDBRANCH  40  41
ENDBRANCH  36  40
ENDBRANCH  33  36
ENDBRANCH  28  29
ENDBRANCH   1  28
TORSDOF 12
ENDMDL
MODEL 3
REMARK VINA RESULT: -8.159364817      1.353      1.890
REMARK  12 active torsions:
REMARK  status: ('A' for Active; 'I' for Inactive)
REMARK    1  A    between atoms: C4_4  and  C5_5 
REMARK    2  A    between atoms: C5_5  and  C6_6 
REMARK    3  A    between atoms: C7_9  and  C8_10 
REMARK    4  A    between atoms: C11_13  and  O1_14 
REMARK    5  A    between atoms: O1_14  and  C12_15 
REMARK    6  A    between atoms: C12_15  and  C13_16 
REMARK    7  A    between atoms: C13_16  and  C14_17 
REMARK    8  A    between atoms: N5_35  and  C26_36 
REMARK    9  A    between atoms: C26_36  and  C27_37 
REMARK   10  A    between atoms: C26_36  and  C28_40 
REMARK   11  A    between atoms: C27_37  and  O2_38 
REMARK   12  A    between atoms: C28_40  and  O3_41 
ROOT
HETATM    1  C6  UNL     1      40.709 -21.493  29.198  1.00  0.00     0.097 A 
HETATM    2  N1  UNL     1      42.044 -21.300  29.094  1.00  0.00    -0.329 N 
ATOM      3  H1  UNL     1      42.526 -21.001  28.247  1.00  0.00     0.168 HD
HETATM    4  C7  UNL     1      42.644 -21.559  30.269  1.00  0.00     0.131 A 
HETATM    5  N3  UNL     1      41.644 -21.915  31.092  1.00  0.00    -0.283 N 
ATOM      6  H3  UNL     1      41.763 -22.178  32.071  1.00  0.00     0.188 HD
HETATM    7  N4  UNL     1      40.493 -21.878  30.463  1.00  0.00    -0.287 N 
ATOM      8  H4  UNL     1      39.585 -22.105  30.869  1.00  0.00     0.188 HD
ENDROOT
BRANCH   4   9
HETATM    9  C8  UNL     1      44.066 -21.466  30.564  1.00  0.00     0.009 A 
HETATM   10  C9  UNL     1      44.898 -20.626  29.862  1.00  0.00     0.018 A 
HETATM   11  C10 UNL     1      46.256 -20.563  30.170  1.00  0.00     0.037 A 
HETATM   12  C11 UNL     1      46.826 -21.315  31.164  1.00  0.00     0.068 A 
HETATM   13  C22 UNL     1      45.970 -22.167  31.873  1.00  0.00     0.037 A 
HETATM   14  C23 UNL     1      44.651 -22.215  31.560  1.00  0.00     0.018 A 
BRANCH  12  15
HETATM   15  O1  UNL     1      48.129 -21.327  31.535  1.00  0.00    -0.351 OA
BRANCH  15  16
HETATM   16  C12 UNL     1      48.864 -22.154  32.354  1.00  0.00     0.181 C 
BRANCH  16  17
HETATM   17  C13 UNL     1      50.320 -21.955  32.438  1.00  0.00     0.079 C 
BRANCH  17  18
HETATM   18  C14 UNL     1      50.895 -21.480  33.737  1.00  0.00    -0.009 C 
HETATM   19  C15 UNL     1      50.312 -22.075  34.977  1.00  0.00     0.064 C 
HETATM   20  C16 UNL     1      51.008 -21.636  36.233  1.00  0.00    -0.007 C 
HETATM   21  C17 UNL     1      50.027 -21.156  37.275  1.00  0.00     0.018 C 
HETATM   22  C18 UNL     1      51.699 -22.859  36.828  1.00  0.00     0.018 C 
HETATM   23  C19 UNL     1      52.054 -20.593  36.030  1.00  0.00     0.216 C 
HETATM   24  F1  UNL     1      53.330 -21.177  35.929  1.00  0.00    -0.243 F 
HETATM   25  C20 UNL     1      51.902 -19.666  34.894  1.00  0.00     0.100 C 
HETATM   26  N2  UNL     1      51.118 -20.079  33.807  1.00  0.00    -0.369 N 
HETATM   27  C21 UNL     1      51.356 -19.413  32.570  1.00  0.00     0.154 C 
ENDBRANCH  17  18
ENDBRANCH  16  17
ENDBRANCH  15  16
ENDBRANCH  12  15
ENDBRANCH   4   9
BRANCH   1  28
HETATM   28  C5  UNL     1      39.674 -21.321  28.136  1.00  0.00     0.083 C 
BRANCH  28  29
HETATM   29  C4  UNL     1      39.748 -19.878  27.635  1.00  0.00    -0.001 C 
HETATM   30  C3  UNL     1      38.583 -19.659  26.712  1.00  0.00     0.030 C 
HETATM   31  C2  UNL     1      38.693 -18.225  26.214  1.00  0.00     0.080 C 
HETATM   32  C1  UNL     1      40.089 -18.086  25.622  1.00  0.00     0.032 C 
HETATM   33  N5  UNL     1      38.521 -17.310  27.269  1.00  0.00    -0.380 N 
HETATM   34  C25 UNL     1      38.999 -17.628  28.536  1.00  0.00     0.059 C 
HETATM   35  C24 UNL     1      39.658 -18.927  28.768  1.00  0.00     0.049 C 
BRANCH  33  36
HETATM   36  C26 UNL     1      38.387 -15.950  26.915  1.00  0.00     0.131 C 
BRANCH  36  37
HETATM   37  C27 UNL     1      37.761 -15.100  27.968  1.00  0.00     0.191 C 
BRANCH  37  38
HETATM   38  O2  UNL     1      37.473 -13.809  27.516  1.00  0.00    -0.399 OA
ATOM     39  H2  UNL     1      36.841 -13.802  26.808  1.00  0.00     0.209 HD
ENDBRANCH  37  38
ENDBRANCH  36  37
BRANCH  36  40
HETATM   40  C28 UNL     1      37.569 -15.747  25.635  1.00  0.00     0.191 C 
BRANCH  40  41
HETATM   41  O3  UNL     1      38.269 -14.940  24.738  1.00  0.00    -0.399 OA
ATOM     42  H3  UNL     1      37.828 -14.106  24.631  1.00  0.00     0.209 HD
ENDBRANCH  40  41
ENDBRANCH  36  40
ENDBRANCH  33  36
ENDBRANCH  28  29
ENDBRANCH   1  28
TORSDOF 12
ENDMDL
MODEL 4
REMARK VINA RESULT: -8.157243235      5.977      8.396
REMARK  12 active torsions:
REMARK  status: ('A' for Active; 'I' for Inactive)
REMARK    1  A    between atoms: C4_4  and  C5_5 
REMARK    2  A    between atoms: C5_5  and  C6_6 
REMARK    3  A    between atoms: C7_9  and  C8_10 
REMARK    4  A    between atoms: C11_13  and  O1_14 
REMARK    5  A    between atoms: O1_14  and  C12_15 
REMARK    6  A    between atoms: C12_15  and  C13_16 
REMARK    7  A    between atoms: C13_16  and  C14_17 
REMARK    8  A    between atoms: N5_35  and  C26_36 
REMARK    9  A    between atoms: C26_36  and  C27_37 
REMARK   10  A    between atoms: C26_36  and  C28_40 
REMARK   11  A    between atoms: C27_37  and  O2_38 
REMARK   12  A    between atoms: C28_40  and  O3_41 
ROOT
HETATM    1  C6  UNL     1      37.899 -19.019  26.980  1.00  0.00     0.097 A 
HETATM    2  N1  UNL     1      38.877 -19.933  27.174  1.00  0.00    -0.329 N 
ATOM      3  H1  UNL     1      39.065 -20.726  26.560  1.00  0.00     0.168 HD
HETATM    4  C7  UNL     1      39.565 -19.647  28.293  1.00  0.00     0.131 A 
HETATM    5  N3  UNL     1      38.984 -18.537  28.777  1.00  0.00    -0.283 N 
ATOM      6  H3  UNL     1      39.272 -18.054  29.629  1.00  0.00     0.188 HD
HETATM    7  N4  UNL     1      37.995 -18.158  28.002  1.00  0.00    -0.287 N 
ATOM      8  H4  UNL     1      37.398 -17.345  28.153  1.00  0.00     0.188 HD
ENDROOT
BRANCH   4   9
HETATM    9  C8  UNL     1      40.690 -20.389  28.841  1.00  0.00     0.009 A 
HETATM   10  C9  UNL     1      40.584 -21.111  30.006  1.00  0.00     0.018 A 
HETATM   11  C10 UNL     1      41.682 -21.809  30.504  1.00  0.00     0.037 A 
HETATM   12  C11 UNL     1      42.902 -21.815  29.878  1.00  0.00     0.068 A 
HETATM   13  C22 UNL     1      43.000 -21.077  28.693  1.00  0.00     0.037 A 
HETATM   14  C23 UNL     1      41.920 -20.404  28.222  1.00  0.00     0.018 A 
BRANCH  12  15
HETATM   15  O1  UNL     1      44.025 -22.457  30.282  1.00  0.00    -0.351 OA
BRANCH  15  16
HETATM   16  C12 UNL     1      45.033 -23.101  29.603  1.00  0.00     0.181 C 
BRANCH  16  17
HETATM   17  C13 UNL     1      44.728 -24.371  28.923  1.00  0.00     0.079 C 
BRANCH  17  18
HETATM   18  C14 UNL     1      43.324 -24.601  28.452  1.00  0.00    -0.009 C 
HETATM   19  C15 UNL     1      42.496 -25.536  29.270  1.00  0.00     0.064 C 
HETATM   20  C16 UNL     1      41.072 -25.635  28.803  1.00  0.00    -0.007 C 
HETATM   21  C17 UNL     1      40.635 -27.071  28.647  1.00  0.00     0.018 C 
HETATM   22  C18 UNL     1      40.188 -25.035  29.892  1.00  0.00     0.018 C 
HETATM   23  C19 UNL     1      40.781 -24.896  27.541  1.00  0.00     0.216 C 
HETATM   24  F1  UNL     1      40.248 -23.624  27.817  1.00  0.00    -0.243 F 
HETATM   25  C20 UNL     1      41.877 -24.714  26.572  1.00  0.00     0.100 C 
HETATM   26  N2  UNL     1      43.195 -24.776  27.049  1.00  0.00    -0.369 N 
HETATM   27  C21 UNL     1      44.187 -24.153  26.238  1.00  0.00     0.154 C 
ENDBRANCH  17  18
ENDBRANCH  16  17
ENDBRANCH  15  16
ENDBRANCH  12  15
ENDBRANCH   4   9
BRANCH   1  28
HETATM   28  C5  UNL     1      36.907 -18.962  25.864  1.00  0.00     0.083 C 
BRANCH  28  29
HETATM   29  C4  UNL     1      36.906 -20.322  25.166  1.00  0.00    -0.001 C 
HETATM   30  C3  UNL     1      35.949 -21.210  25.908  1.00  0.00     0.030 C 
HETATM   31  C2  UNL     1      35.983 -22.561  25.206  1.00  0.00     0.080 C 
HETATM   32  C1  UNL     1      37.445 -22.985  25.168  1.00  0.00     0.032 C 
HETATM   33  N5  UNL     1      35.474 -22.461  23.897  1.00  0.00    -0.380 N 
HETATM   34  C25 UNL     1      35.704 -21.304  23.159  1.00  0.00     0.059 C 
HETATM   35  C24 UNL     1      36.456 -20.186  23.761  1.00  0.00     0.049 C 
BRANCH  33  36
HETATM   36  C26 UNL     1      35.250 -23.672  23.209  1.00  0.00     0.131 C 
BRANCH  36  37
HETATM   37  C27 UNL     1      34.362 -23.547  22.017  1.00  0.00     0.191 C 
BRANCH  37  38
HETATM   38  O2  UNL     1      33.040 -23.252  22.359  1.00  0.00    -0.399 OA
ATOM     39  H2  UNL     1      32.755 -22.408  22.027  1.00  0.00     0.209 HD
ENDBRANCH  37  38
ENDBRANCH  36  37
BRANCH  36  40
HETATM   40  C28 UNL     1      34.643 -24.760  24.102  1.00  0.00     0.191 C 
BRANCH  40  41
HETATM   41  O3  UNL     1      34.369 -25.904  23.352  1.00  0.00    -0.399 OA
ATOM     42  H3  UNL     1      33.431 -26.046  23.299  1.00  0.00     0.209 HD
ENDBRANCH  40  41
ENDBRANCH  36  40
ENDBRANCH  33  36
ENDBRANCH  28  29
ENDBRANCH   1  28
TORSDOF 12
ENDMDL
MODEL 5
REMARK VINA RESULT: -8.131125780      1.323      1.917
REMARK  12 active torsions:
REMARK  status: ('A' for Active; 'I' for Inactive)
REMARK    1  A    between atoms: C4_4  and  C5_5 
REMARK    2  A    between atoms: C5_5  and  C6_6 
REMARK    3  A    between atoms: C7_9  and  C8_10 
REMARK    4  A    between atoms: C11_13  and  O1_14 
REMARK    5  A    between atoms: O1_14  and  C12_15 
REMARK    6  A    between atoms: C12_15  and  C13_16 
REMARK    7  A    between atoms: C13_16  and  C14_17 
REMARK    8  A    between atoms: N5_35  and  C26_36 
REMARK    9  A    between atoms: C26_36  and  C27_37 
REMARK   10  A    between atoms: C26_36  and  C28_40 
REMARK   11  A    between atoms: C27_37  and  O2_38 
REMARK   12  A    between atoms: C28_40  and  O3_41 
ROOT
HETATM    1  C6  UNL     1      40.783 -20.489  28.175  1.00  0.00     0.097 A 
HETATM    2  N1  UNL     1      42.124 -20.396  28.320  1.00  0.00    -0.329 N 
ATOM      3  H1  UNL     1      42.754 -19.956  27.649  1.00  0.00     0.168 HD
HETATM    4  C7  UNL     1      42.508 -20.968  29.474  1.00  0.00     0.131 A 
HETATM    5  N3  UNL     1      41.369 -21.412  30.031  1.00  0.00    -0.283 N 
ATOM      6  H3  UNL     1      41.311 -21.900  30.925  1.00  0.00     0.188 HD
HETATM    7  N4  UNL     1      40.341 -21.131  29.265  1.00  0.00    -0.287 N 
ATOM      8  H4  UNL     1      39.368 -21.362  29.466  1.00  0.00     0.188 HD
ENDROOT
BRANCH   4   9
HETATM    9  C8  UNL     1      43.865 -21.071  29.990  1.00  0.00     0.009 A 
HETATM   10  C9  UNL     1      44.929 -20.475  29.355  1.00  0.00     0.018 A 
HETATM   11  C10 UNL     1      46.216 -20.595  29.876  1.00  0.00     0.037 A 
HETATM   12  C11 UNL     1      46.489 -21.297  31.022  1.00  0.00     0.068 A 
HETATM   13  C22 UNL     1      45.399 -21.899  31.661  1.00  0.00     0.037 A 
HETATM   14  C23 UNL     1      44.153 -21.771  31.140  1.00  0.00     0.018 A 
BRANCH  12  15
HETATM   15  O1  UNL     1      47.700 -21.473  31.604  1.00  0.00    -0.351 OA
BRANCH  15  16
HETATM   16  C12 UNL     1      48.309 -22.558  32.192  1.00  0.00     0.181 C 
BRANCH  16  17
HETATM   17  C13 UNL     1      49.766 -22.712  32.055  1.00  0.00     0.079 C 
BRANCH  17  18
HETATM   18  C14 UNL     1      50.616 -22.518  33.274  1.00  0.00    -0.009 C 
HETATM   19  C15 UNL     1      50.285 -21.340  34.131  1.00  0.00     0.064 C 
HETATM   20  C16 UNL     1      51.104 -21.270  35.388  1.00  0.00    -0.007 C 
HETATM   21  C17 UNL     1      51.711 -19.901  35.582  1.00  0.00     0.018 C 
HETATM   22  C18 UNL     1      50.160 -21.490  36.566  1.00  0.00     0.018 C 
HETATM   23  C19 UNL     1      52.180 -22.298  35.486  1.00  0.00     0.216 C 
HETATM   24  F1  UNL     1      51.744 -23.408  36.233  1.00  0.00    -0.243 F 
HETATM   25  C20 UNL     1      52.767 -22.812  34.236  1.00  0.00     0.100 C 
HETATM   26  N2  UNL     1      52.005 -22.718  33.062  1.00  0.00    -0.369 N 
HETATM   27  C21 UNL     1      52.364 -23.606  32.006  1.00  0.00     0.154 C 
ENDBRANCH  17  18
ENDBRANCH  16  17
ENDBRANCH  15  16
ENDBRANCH  12  15
ENDBRANCH   4   9
BRANCH   1  28
HETATM   28  C5  UNL     1      39.947 -19.988  27.044  1.00  0.00     0.083 C 
BRANCH  28  29
HETATM   29  C4  UNL     1      39.675 -18.502  27.280  1.00  0.00    -0.001 C 
HETATM   30  C3  UNL     1      38.625 -18.072  26.295  1.00  0.00     0.030 C 
HETATM   31  C2  UNL     1      38.390 -16.588  26.538  1.00  0.00     0.080 C 
HETATM   32  C1  UNL     1      39.754 -15.919  26.442  1.00  0.00     0.032 C 
HETATM   33  N5  UNL     1      37.832 -16.368  27.812  1.00  0.00    -0.380 N 
HETATM   34  C25 UNL     1      38.212 -17.179  28.876  1.00  0.00     0.059 C 
HETATM   35  C24 UNL     1      39.175 -18.275  28.656  1.00  0.00     0.049 C 
BRANCH  33  36
HETATM   36  C26 UNL     1      37.367 -15.064  28.085  1.00  0.00     0.131 C 
BRANCH  36  37
HETATM   37  C27 UNL     1      36.081 -15.015  28.837  1.00  0.00     0.191 C 
BRANCH  37  38
HETATM   38  O2  UNL     1      35.195 -14.061  28.327  1.00  0.00    -0.399 OA
ATOM     39  H2  UNL     1      34.307 -14.180  28.645  1.00  0.00     0.209 HD
ENDBRANCH  37  38
ENDBRANCH  36  37
BRANCH  36  40
HETATM   40  C28 UNL     1      37.172 -14.225  26.817  1.00  0.00     0.191 C 
BRANCH  40  41
HETATM   41  O3  UNL     1      37.376 -12.873  27.096  1.00  0.00    -0.399 OA
ATOM     42  H3  UNL     1      37.224 -12.350  26.318  1.00  0.00     0.209 HD
ENDBRANCH  40  41
ENDBRANCH  36  40
ENDBRANCH  33  36
ENDBRANCH  28  29
ENDBRANCH   1  28
TORSDOF 12
ENDMDL
