MODEL 1
REMARK VINA RESULT: -8.825353472      0.000      0.000
REMARK  9 active torsions:
REMARK  status: ('A' for Active; 'I' for Inactive)
REMARK    1  A    between atoms: C4_4  and  N1_5 
REMARK       I    between atoms: N1_5  and  C5_7 
REMARK    2  A    between atoms: C5_7  and  C6_9 
REMARK    3  A    between atoms: N2_13  and  C9_14 
REMARK    4  A    between atoms: C9_14  and  C14_31 
REMARK    5  A    between atoms: C10_15  and  N3_16 
REMARK    6  A    between atoms: N3_16  and  C11_18 
REMARK    7  A    between atoms: C11_18  and  C12_22 
REMARK    8  A    between atoms: C13_25  and  N6_26 
REMARK    9  A    between atoms: C20_37  and  C21_38 
ROOT
HETATM    1  C6  UNL     1      38.454 -21.689  25.783  1.00  0.00     0.090 C 
HETATM    2  C7  UNL     1      39.309 -22.776  25.099  1.00  0.00     0.138 C 
HETATM    3  S1  UNL     1      38.377 -22.820  23.536  1.00  0.00    -0.143 SA
HETATM    4  C8  UNL     1      37.200 -21.468  23.949  1.00  0.00     0.203 C 
HETATM    5  N2  UNL     1      37.967 -20.774  24.968  1.00  0.00    -0.338 N 
ENDROOT
BRANCH   1   6
HETATM    6  C5  UNL     1      38.682 -21.604  27.216  1.00  0.00     0.265 C 
HETATM    7  N1  UNL     1      39.660 -22.352  27.905  1.00  0.00    -0.347 N 
ATOM      8  H1  UNL     1      40.240 -22.995  27.366  1.00  0.00     0.163 HD
HETATM    9  O1  UNL     1      37.983 -20.816  27.901  1.00  0.00    -0.266 OA
BRANCH   7  10
HETATM   10  C4  UNL     1      39.889 -22.263  29.325  1.00  0.00     0.119 C 
HETATM   11  C3  UNL     1      39.610 -23.580  29.976  1.00  0.00     0.039 C 
HETATM   12  C2  UNL     1      40.951 -24.190  30.318  1.00  0.00     0.020 C 
HETATM   13  C1  UNL     1      41.278 -25.329  29.367  1.00  0.00     0.015 C 
HETATM   14  C27 UNL     1      41.912 -23.085  30.207  1.00  0.00    -0.006 A 
HETATM   15  C17 UNL     1      41.311 -21.989  29.643  1.00  0.00    -0.026 A 
HETATM   16  C26 UNL     1      43.269 -23.064  30.597  1.00  0.00     0.134 A 
HETATM   17  C18 UNL     1      42.092 -20.876  29.479  1.00  0.00     0.011 A 
HETATM   18  C19 UNL     1      43.414 -20.829  29.849  1.00  0.00     0.016 A 
HETATM   19  C20 UNL     1      44.038 -21.948  30.428  1.00  0.00     0.009 A 
HETATM   20  F1  UNL     1      43.800 -24.165  31.151  1.00  0.00    -0.205 F 
BRANCH  19  21
HETATM   21  C21 UNL     1      45.444 -21.790  30.800  1.00  0.00    -0.045 C 
HETATM   22  C22 UNL     1      45.978 -22.148  31.933  1.00  0.00     0.007 C 
HETATM   23  C23 UNL     1      47.430 -21.969  32.283  1.00  0.00     0.195 C 
HETATM   24  O3  UNL     1      48.134 -22.022  31.068  1.00  0.00    -0.387 OA
HETATM   25  C24 UNL     1      47.710 -20.895  30.361  1.00  0.00     0.172 C 
HETATM   26  C25 UNL     1      46.363 -21.141  29.794  1.00  0.00     0.065 C 
ENDBRANCH  19  21
ENDBRANCH   7  10
ENDBRANCH   1   6
BRANCH   5  27
HETATM   27  C9  UNL     1      38.291 -19.436  24.564  1.00  0.00     0.031 C 
HETATM   28  C10 UNL     1      37.256 -18.495  24.904  1.00  0.00     0.115 C 
BRANCH  28  29
HETATM   29  N3  UNL     1      37.258 -17.124  24.677  1.00  0.00    -0.347 N 
ATOM     30  H3  UNL     1      36.822 -16.849  23.797  1.00  0.00     0.167 HD
BRANCH  29  31
HETATM   31  C11 UNL     1      37.750 -16.039  25.437  1.00  0.00     0.152 C 
HETATM   32  N4  UNL     1      38.560 -15.194  24.907  1.00  0.00    -0.382 N 
ATOM     33  H42 UNL     1      38.833 -15.291  23.929  1.00  0.00     0.157 HD
ATOM     34  H41 UNL     1      38.915 -14.412  25.456  1.00  0.00     0.157 HD
BRANCH  31  35
HETATM   35  C12 UNL     1      37.358 -15.901  26.841  1.00  0.00     0.202 A 
HETATM   36  N5  UNL     1      38.037 -16.460  27.812  1.00  0.00    -0.312 N 
HETATM   37  C13 UNL     1      37.617 -16.287  29.055  1.00  0.00     0.168 A 
ATOM     38  H5  UNL     1      38.868 -17.017  27.615  1.00  0.00     0.170 HD
HETATM   39  S2  UNL     1      36.240 -15.314  28.818  1.00  0.00     0.075 SA
HETATM   40  O2  UNL     1      36.304 -15.204  27.168  1.00  0.00    -0.249 OA
BRANCH  37  41
HETATM   41  N6  UNL     1      38.102 -16.732  30.179  1.00  0.00    -0.378 N 
ATOM     42  H62 UNL     1      38.902 -16.377  30.703  1.00  0.00     0.158 HD
ATOM     43  H61 UNL     1      37.799 -17.507  30.768  1.00  0.00     0.158 HD
ENDBRANCH  37  41
ENDBRANCH  31  35
ENDBRANCH  29  31
ENDBRANCH  28  29
BRANCH  27  44
HETATM   44  C14 UNL     1      39.746 -19.145  24.552  1.00  0.00     0.029 C 
HETATM   45  C15 UNL     1      40.259 -18.185  23.507  1.00  0.00     0.016 C 
HETATM   46  C16 UNL     1      40.254 -18.543  25.860  1.00  0.00     0.016 C 
ENDBRANCH  27  44
ENDBRANCH   5  27
TORSDOF 9
ENDMDL
MODEL 2
REMARK VINA RESULT: -8.714271360      2.007      2.798
REMARK  9 active torsions:
REMARK  status: ('A' for Active; 'I' for Inactive)
REMARK    1  A    between atoms: C4_4  and  N1_5 
REMARK       I    between atoms: N1_5  and  C5_7 
REMARK    2  A    between atoms: C5_7  and  C6_9 
REMARK    3  A    between atoms: N2_13  and  C9_14 
REMARK    4  A    between atoms: C9_14  and  C14_31 
REMARK    5  A    between atoms: C10_15  and  N3_16 
REMARK    6  A    between atoms: N3_16  and  C11_18 
REMARK    7  A    between atoms: C11_18  and  C12_22 
REMARK    8  A    between atoms: C13_25  and  N6_26 
REMARK    9  A    between atoms: C20_37  and  C21_38 
ROOT
HETATM    1  C6  UNL     1      37.185 -20.194  24.610  1.00  0.00     0.090 C 
HETATM    2  C7  UNL     1      37.792 -20.655  23.269  1.00  0.00     0.138 C 
HETATM    3  S1  UNL     1      36.906 -19.460  22.219  1.00  0.00    -0.143 SA
HETATM    4  C8  UNL     1      36.049 -18.569  23.583  1.00  0.00     0.203 C 
HETATM    5  N2  UNL     1      36.930 -18.903  24.688  1.00  0.00    -0.338 N 
ENDROOT
BRANCH   1   6
HETATM    6  C5  UNL     1      37.396 -21.148  25.687  1.00  0.00     0.265 C 
HETATM    7  N1  UNL     1      38.665 -21.623  26.082  1.00  0.00    -0.347 N 
ATOM      8  H1  UNL     1      39.483 -21.280  25.580  1.00  0.00     0.163 HD
HETATM    9  O1  UNL     1      36.403 -21.581  26.324  1.00  0.00    -0.266 OA
BRANCH   7  10
HETATM   10  C4  UNL     1      38.874 -22.564  27.153  1.00  0.00     0.119 C 
HETATM   11  C3  UNL     1      39.297 -23.887  26.602  1.00  0.00     0.039 C 
HETATM   12  C2  UNL     1      40.776 -24.023  26.883  1.00  0.00     0.020 C 
HETATM   13  C1  UNL     1      41.583 -23.832  25.609  1.00  0.00     0.015 C 
HETATM   14  C27 UNL     1      41.072 -22.990  27.884  1.00  0.00    -0.006 A 
HETATM   15  C17 UNL     1      39.992 -22.159  28.039  1.00  0.00    -0.026 A 
HETATM   16  C26 UNL     1      42.259 -22.804  28.625  1.00  0.00     0.134 A 
HETATM   17  C18 UNL     1      40.124 -21.143  28.948  1.00  0.00     0.011 A 
HETATM   18  C19 UNL     1      41.268 -20.939  29.681  1.00  0.00     0.016 A 
HETATM   19  C20 UNL     1      42.379 -21.787  29.528  1.00  0.00     0.009 A 
HETATM   20  F1  UNL     1      43.280 -23.653  28.435  1.00  0.00    -0.205 F 
BRANCH  19  21
HETATM   21  C21 UNL     1      43.542 -21.492  30.365  1.00  0.00    -0.045 C 
HETATM   22  C22 UNL     1      43.749 -21.946  31.569  1.00  0.00     0.007 C 
HETATM   23  C23 UNL     1      44.958 -21.622  32.405  1.00  0.00     0.195 C 
HETATM   24  O3  UNL     1      46.005 -21.383  31.499  1.00  0.00    -0.387 OA
HETATM   25  C24 UNL     1      45.623 -20.229  30.810  1.00  0.00     0.172 C 
HETATM   26  C25 UNL     1      44.594 -20.569  29.801  1.00  0.00     0.065 C 
ENDBRANCH  19  21
ENDBRANCH   7  10
ENDBRANCH   1   6
BRANCH   5  27
HETATM   27  C9  UNL     1      37.550 -17.733  25.239  1.00  0.00     0.031 C 
HETATM   28  C10 UNL     1      37.525 -17.724  26.678  1.00  0.00     0.115 C 
BRANCH  28  29
HETATM   29  N3  UNL     1      38.055 -16.756  27.523  1.00  0.00    -0.347 N 
ATOM     30  H3  UNL     1      38.935 -16.359  27.196  1.00  0.00     0.167 HD
BRANCH  29  31
HETATM   31  C11 UNL     1      37.603 -16.220  28.750  1.00  0.00     0.152 C 
HETATM   32  N4  UNL     1      38.123 -16.614  29.857  1.00  0.00    -0.382 N 
ATOM     33  H42 UNL     1      38.881 -17.297  29.853  1.00  0.00     0.157 HD
ATOM     34  H41 UNL     1      37.797 -16.226  30.742  1.00  0.00     0.157 HD
BRANCH  31  35
HETATM   35  C12 UNL     1      36.516 -15.239  28.756  1.00  0.00     0.202 A 
HETATM   36  N5  UNL     1      35.378 -15.464  29.365  1.00  0.00    -0.312 N 
HETATM   37  C13 UNL     1      34.445 -14.526  29.324  1.00  0.00     0.168 A 
ATOM     38  H5  UNL     1      35.215 -16.342  29.859  1.00  0.00     0.170 HD
HETATM   39  S2  UNL     1      35.216 -13.319  28.404  1.00  0.00     0.075 SA
HETATM   40  O2  UNL     1      36.654 -14.095  28.144  1.00  0.00    -0.249 OA
BRANCH  37  41
HETATM   41  N6  UNL     1      33.249 -14.504  29.836  1.00  0.00    -0.378 N 
ATOM     42  H62 UNL     1      32.397 -14.119  29.429  1.00  0.00     0.158 HD
ATOM     43  H61 UNL     1      32.906 -14.860  30.729  1.00  0.00     0.158 HD
ENDBRANCH  37  41
ENDBRANCH  31  35
ENDBRANCH  29  31
ENDBRANCH  28  29
BRANCH  27  44
HETATM   44  C14 UNL     1      38.635 -17.172  24.396  1.00  0.00     0.029 C 
HETATM   45  C15 UNL     1      38.874 -15.684  24.460  1.00  0.00     0.016 C 
HETATM   46  C16 UNL     1      40.010 -17.760  24.707  1.00  0.00     0.016 C 
ENDBRANCH  27  44
ENDBRANCH   5  27
TORSDOF 9
ENDMDL
MODEL 3
REMARK VINA RESULT: -8.692408558      4.196      9.050
REMARK  9 active torsions:
REMARK  status: ('A' for Active; 'I' for Inactive)
REMARK    1  A    between atoms: C4_4  and  N1_5 
REMARK       I    between atoms: N1_5  and  C5_7 
REMARK    2  A    between atoms: C5_7  and  C6_9 
REMARK    3  A    between atoms: N2_13  and  C9_14 
REMARK    4  A    between atoms: C9_14  and  C14_31 
REMARK    5  A    between atoms: C10_15  and  N3_16 
REMARK    6  A    between atoms: N3_16  and  C11_18 
REMARK    7  A    between atoms: C11_18  and  C12_22 
REMARK    8  A    between atoms: C13_25  and  N6_26 
REMARK    9  A    between atoms: C20_37  and  C21_38 
ROOT
HETATM    1  C6  UNL     1      40.929 -22.906  28.736  1.00  0.00     0.090 C 
HETATM    2  C7  UNL     1      42.165 -23.450  29.482  1.00  0.00     0.138 C 
HETATM    3  S1  UNL     1      41.277 -24.688  30.479  1.00  0.00    -0.143 SA
HETATM    4  C8  UNL     1      39.612 -24.395  29.753  1.00  0.00     0.203 C 
HETATM    5  N2  UNL     1      39.996 -23.803  28.484  1.00  0.00    -0.338 N 
ENDROOT
BRANCH   1   6
HETATM    6  C5  UNL     1      41.179 -21.640  28.068  1.00  0.00     0.265 C 
HETATM    7  N1  UNL     1      40.193 -20.902  27.379  1.00  0.00    -0.347 N 
ATOM      8  H1  UNL     1      39.247 -21.282  27.345  1.00  0.00     0.163 HD
HETATM    9  O1  UNL     1      42.336 -21.150  28.099  1.00  0.00    -0.266 OA
BRANCH   7  10
HETATM   10  C4  UNL     1      40.441 -19.645  26.722  1.00  0.00     0.119 C 
HETATM   11  C3  UNL     1      40.151 -19.761  25.260  1.00  0.00     0.039 C 
HETATM   12  C2  UNL     1      38.843 -19.043  25.016  1.00  0.00     0.020 C 
HETATM   13  C1  UNL     1      37.721 -20.040  24.778  1.00  0.00     0.015 C 
HETATM   14  C27 UNL     1      38.618 -18.239  26.224  1.00  0.00    -0.006 A 
HETATM   15  C17 UNL     1      39.525 -18.578  27.195  1.00  0.00    -0.026 A 
HETATM   16  C26 UNL     1      37.642 -17.242  26.443  1.00  0.00     0.134 A 
HETATM   17  C18 UNL     1      39.436 -17.903  28.384  1.00  0.00     0.011 A 
HETATM   18  C19 UNL     1      38.496 -16.931  28.623  1.00  0.00     0.016 A 
HETATM   19  C20 UNL     1      37.562 -16.576  27.632  1.00  0.00     0.009 A 
HETATM   20  F1  UNL     1      36.785 -16.947  25.453  1.00  0.00    -0.205 F 
BRANCH  19  21
HETATM   21  C21 UNL     1      36.613 -15.520  27.982  1.00  0.00    -0.045 C 
HETATM   22  C22 UNL     1      35.634 -15.627  28.835  1.00  0.00     0.007 C 
HETATM   23  C23 UNL     1      34.674 -14.518  29.172  1.00  0.00     0.195 C 
HETATM   24  O3  UNL     1      35.381 -13.318  28.983  1.00  0.00    -0.387 OA
HETATM   25  C24 UNL     1      35.644 -13.272  27.612  1.00  0.00     0.172 C 
HETATM   26  C25 UNL     1      36.763 -14.188  27.288  1.00  0.00     0.065 C 
ENDBRANCH  19  21
ENDBRANCH   7  10
ENDBRANCH   1   6
BRANCH   5  27
HETATM   27  C9  UNL     1      39.579 -24.614  27.377  1.00  0.00     0.031 C 
HETATM   28  C10 UNL     1      38.425 -24.075  26.706  1.00  0.00     0.115 C 
BRANCH  28  29
HETATM   29  N3  UNL     1      37.780 -24.595  25.590  1.00  0.00    -0.347 N 
ATOM     30  H3  UNL     1      38.311 -25.319  25.106  1.00  0.00     0.167 HD
BRANCH  29  31
HETATM   31  C11 UNL     1      36.529 -24.308  24.999  1.00  0.00     0.152 C 
HETATM   32  N4  UNL     1      35.916 -23.216  25.283  1.00  0.00    -0.382 N 
ATOM     33  H42 UNL     1      36.341 -22.539  25.918  1.00  0.00     0.157 HD
ATOM     34  H41 UNL     1      35.013 -23.009  24.856  1.00  0.00     0.157 HD
BRANCH  31  35
HETATM   35  C12 UNL     1      35.919 -25.278  24.088  1.00  0.00     0.202 A 
HETATM   36  N5  UNL     1      35.196 -26.282  24.520  1.00  0.00    -0.312 N 
HETATM   37  C13 UNL     1      34.678 -27.115  23.631  1.00  0.00     0.168 A 
ATOM     38  H5  UNL     1      35.036 -26.418  25.519  1.00  0.00     0.170 HD
HETATM   39  S2  UNL     1      35.239 -26.445  22.169  1.00  0.00     0.075 SA
HETATM   40  O2  UNL     1      36.082 -25.167  22.797  1.00  0.00    -0.249 OA
BRANCH  37  41
HETATM   41  N6  UNL     1      33.940 -28.174  23.799  1.00  0.00    -0.378 N 
ATOM     42  H62 UNL     1      33.284 -28.370  24.555  1.00  0.00     0.158 HD
ATOM     43  H61 UNL     1      33.851 -29.014  23.228  1.00  0.00     0.158 HD
ENDBRANCH  37  41
ENDBRANCH  31  35
ENDBRANCH  29  31
ENDBRANCH  28  29
BRANCH  27  44
HETATM   44  C14 UNL     1      40.685 -25.355  26.721  1.00  0.00     0.029 C 
HETATM   45  C15 UNL     1      40.394 -26.748  26.221  1.00  0.00     0.016 C 
HETATM   46  C16 UNL     1      41.238 -24.648  25.485  1.00  0.00     0.016 C 
ENDBRANCH  27  44
ENDBRANCH   5  27
TORSDOF 9
ENDMDL
MODEL 4
REMARK VINA RESULT: -8.680173818      5.012      6.250
REMARK  9 active torsions:
REMARK  status: ('A' for Active; 'I' for Inactive)
REMARK    1  A    between atoms: C4_4  and  N1_5 
REMARK       I    between atoms: N1_5  and  C5_7 
REMARK    2  A    between atoms: C5_7  and  C6_9 
REMARK    3  A    between atoms: N2_13  and  C9_14 
REMARK    4  A    between atoms: C9_14  and  C14_31 
REMARK    5  A    between atoms: C10_15  and  N3_16 
REMARK    6  A    between atoms: N3_16  and  C11_18 
REMARK    7  A    between atoms: C11_18  and  C12_22 
REMARK    8  A    between atoms: C13_25  and  N6_26 
REMARK    9  A    between atoms: C20_37  and  C21_38 
ROOT
HETATM    1  C6  UNL     1      35.652 -20.318  22.818  1.00  0.00     0.090 C 
HETATM    2  C7  UNL     1      36.154 -20.776  21.433  1.00  0.00     0.138 C 
HETATM    3  S1  UNL     1      35.863 -19.197  20.575  1.00  0.00    -0.143 SA
HETATM    4  C8  UNL     1      35.288 -18.255  22.047  1.00  0.00     0.203 C 
HETATM    5  N2  UNL     1      35.888 -19.053  23.101  1.00  0.00    -0.338 N 
ENDROOT
BRANCH   1   6
HETATM    6  C5  UNL     1      35.406 -21.425  23.728  1.00  0.00     0.265 C 
HETATM    7  N1  UNL     1      35.450 -22.783  23.349  1.00  0.00    -0.347 N 
ATOM      8  H1  UNL     1      35.663 -23.002  22.376  1.00  0.00     0.163 HD
HETATM    9  O1  UNL     1      35.146 -21.180  24.933  1.00  0.00    -0.266 OA
BRANCH   7  10
HETATM   10  C4  UNL     1      35.211 -23.879  24.253  1.00  0.00     0.119 C 
HETATM   11  C3  UNL     1      34.603 -25.031  23.518  1.00  0.00     0.039 C 
HETATM   12  C2  UNL     1      35.690 -26.070  23.361  1.00  0.00     0.020 C 
HETATM   13  C1  UNL     1      36.191 -26.107  21.927  1.00  0.00     0.015 C 
HETATM   14  C27 UNL     1      36.741 -25.669  24.303  1.00  0.00    -0.006 A 
HETATM   15  C17 UNL     1      36.473 -24.425  24.812  1.00  0.00    -0.026 A 
HETATM   16  C26 UNL     1      37.892 -26.391  24.690  1.00  0.00     0.134 A 
HETATM   17  C18 UNL     1      37.373 -23.919  25.712  1.00  0.00     0.011 A 
HETATM   18  C19 UNL     1      38.500 -24.600  26.104  1.00  0.00     0.016 A 
HETATM   19  C20 UNL     1      38.783 -25.877  25.588  1.00  0.00     0.009 A 
HETATM   20  F1  UNL     1      38.099 -27.608  24.164  1.00  0.00    -0.205 F 
BRANCH  19  21
HETATM   21  C21 UNL     1      40.000 -26.522  26.081  1.00  0.00    -0.045 C 
HETATM   22  C22 UNL     1      40.253 -26.824  27.323  1.00  0.00     0.007 C 
HETATM   23  C23 UNL     1      41.517 -27.489  27.797  1.00  0.00     0.195 C 
HETATM   24  O3  UNL     1      41.972 -28.273  26.723  1.00  0.00    -0.387 OA
HETATM   25  C24 UNL     1      42.305 -27.352  25.726  1.00  0.00     0.172 C 
HETATM   26  C25 UNL     1      41.070 -26.859  25.072  1.00  0.00     0.065 C 
ENDBRANCH  19  21
ENDBRANCH   7  10
ENDBRANCH   1   6
BRANCH   5  27
HETATM   27  C9  UNL     1      36.851 -18.297  23.850  1.00  0.00     0.031 C 
HETATM   28  C10 UNL     1      36.644 -18.400  25.271  1.00  0.00     0.115 C 
BRANCH  28  29
HETATM   29  N3  UNL     1      37.404 -17.815  26.277  1.00  0.00    -0.347 N 
ATOM     30  H3  UNL     1      38.364 -17.607  26.002  1.00  0.00     0.167 HD
BRANCH  29  31
HETATM   31  C11 UNL     1      37.098 -17.455  27.608  1.00  0.00     0.152 C 
HETATM   32  N4  UNL     1      37.239 -18.310  28.557  1.00  0.00    -0.382 N 
ATOM     33  H42 UNL     1      37.596 -19.244  28.356  1.00  0.00     0.157 HD
ATOM     34  H41 UNL     1      37.017 -18.049  29.518  1.00  0.00     0.157 HD
BRANCH  31  35
HETATM   35  C12 UNL     1      36.585 -16.114  27.897  1.00  0.00     0.202 A 
HETATM   36  N5  UNL     1      37.064 -15.044  27.311  1.00  0.00    -0.312 N 
HETATM   37  C13 UNL     1      36.546 -13.868  27.627  1.00  0.00     0.168 A 
ATOM     38  H5  UNL     1      37.818 -15.116  26.627  1.00  0.00     0.170 HD
HETATM   39  S2  UNL     1      35.367 -14.311  28.773  1.00  0.00     0.075 SA
HETATM   40  O2  UNL     1      35.622 -15.946  28.762  1.00  0.00    -0.249 OA
BRANCH  37  41
HETATM   41  N6  UNL     1      36.841 -12.674  27.198  1.00  0.00    -0.378 N 
ATOM     42  H62 UNL     1      36.859 -11.802  27.727  1.00  0.00     0.158 HD
ATOM     43  H61 UNL     1      37.114 -12.356  26.268  1.00  0.00     0.158 HD
ENDBRANCH  37  41
ENDBRANCH  31  35
ENDBRANCH  29  31
ENDBRANCH  28  29
BRANCH  27  44
HETATM   44  C14 UNL     1      38.169 -18.168  23.181  1.00  0.00     0.029 C 
HETATM   45  C15 UNL     1      38.926 -16.876  23.367  1.00  0.00     0.016 C 
HETATM   46  C16 UNL     1      39.177 -19.229  23.620  1.00  0.00     0.016 C 
ENDBRANCH  27  44
ENDBRANCH   5  27
TORSDOF 9
ENDMDL
MODEL 5
REMARK VINA RESULT: -8.669181669      4.976      6.079
REMARK  9 active torsions:
REMARK  status: ('A' for Active; 'I' for Inactive)
REMARK    1  A    between atoms: C4_4  and  N1_5 
REMARK       I    between atoms: N1_5  and  C5_7 
REMARK    2  A    between atoms: C5_7  and  C6_9 
REMARK    3  A    between atoms: N2_13  and  C9_14 
REMARK    4  A    between atoms: C9_14  and  C14_31 
REMARK    5  A    between atoms: C10_15  and  N3_16 
REMARK    6  A    between atoms: N3_16  and  C11_18 
REMARK    7  A    between atoms: C11_18  and  C12_22 
REMARK    8  A    between atoms: C13_25  and  N6_26 
REMARK    9  A    between atoms: C20_37  and  C21_38 
ROOT
HETATM    1  C6  UNL     1      35.876 -20.160  23.523  1.00  0.00     0.090 C 
HETATM    2  C7  UNL     1      36.099 -20.551  22.048  1.00  0.00     0.138 C 
HETATM    3  S1  UNL     1      35.777 -18.902  21.345  1.00  0.00    -0.143 SA
HETATM    4  C8  UNL     1      35.532 -18.031  22.947  1.00  0.00     0.203 C 
HETATM    5  N2  UNL     1      36.247 -18.933  23.832  1.00  0.00    -0.338 N 
ENDROOT
BRANCH   1   6
HETATM    6  C5  UNL     1      35.712 -21.310  24.397  1.00  0.00     0.265 C 
HETATM    7  N1  UNL     1      35.634 -22.643  23.942  1.00  0.00    -0.347 N 
ATOM      8  H1  UNL     1      35.692 -22.810  22.937  1.00  0.00     0.163 HD
HETATM    9  O1  UNL     1      35.643 -21.129  25.639  1.00  0.00    -0.266 OA
BRANCH   7  10
HETATM   10  C4  UNL     1      35.477 -23.782  24.809  1.00  0.00     0.119 C 
HETATM   11  C3  UNL     1      34.727 -24.868  24.106  1.00  0.00     0.039 C 
HETATM   12  C2  UNL     1      35.738 -25.931  23.742  1.00  0.00     0.020 C 
HETATM   13  C1  UNL     1      36.037 -25.899  22.253  1.00  0.00     0.015 C 
HETATM   14  C27 UNL     1      36.925 -25.622  24.550  1.00  0.00    -0.006 A 
HETATM   15  C17 UNL     1      36.779 -24.401  25.157  1.00  0.00    -0.026 A 
HETATM   16  C26 UNL     1      38.087 -26.403  24.733  1.00  0.00     0.134 A 
HETATM   17  C18 UNL     1      37.815 -23.980  25.949  1.00  0.00     0.011 A 
HETATM   18  C19 UNL     1      38.956 -24.720  26.143  1.00  0.00     0.016 A 
HETATM   19  C20 UNL     1      39.113 -25.972  25.524  1.00  0.00     0.009 A 
HETATM   20  F1  UNL     1      38.170 -27.593  24.118  1.00  0.00    -0.205 F 
BRANCH  19  21
HETATM   21  C21 UNL     1      40.359 -26.686  25.808  1.00  0.00    -0.045 C 
HETATM   22  C22 UNL     1      41.294 -26.959  24.943  1.00  0.00     0.007 C 
HETATM   23  C23 UNL     1      42.565 -27.696  25.269  1.00  0.00     0.195 C 
HETATM   24  O3  UNL     1      42.843 -27.417  26.618  1.00  0.00    -0.387 OA
HETATM   25  C24 UNL     1      41.796 -28.010  27.327  1.00  0.00     0.172 C 
HETATM   26  C25 UNL     1      40.583 -27.166  27.220  1.00  0.00     0.065 C 
ENDBRANCH  19  21
ENDBRANCH   7  10
ENDBRANCH   1   6
BRANCH   5  27
HETATM   27  C9  UNL     1      37.375 -18.290  24.442  1.00  0.00     0.031 C 
HETATM   28  C10 UNL     1      37.065 -17.757  25.743  1.00  0.00     0.115 C 
BRANCH  28  29
HETATM   29  N3  UNL     1      37.928 -17.097  26.610  1.00  0.00    -0.347 N 
ATOM     30  H3  UNL     1      38.868 -16.964  26.236  1.00  0.00     0.167 HD
BRANCH  29  31
HETATM   31  C11 UNL     1      37.749 -16.576  27.910  1.00  0.00     0.152 C 
HETATM   32  N4  UNL     1      38.443 -17.033  28.890  1.00  0.00    -0.382 N 
ATOM     33  H42 UNL     1      39.143 -17.757  28.728  1.00  0.00     0.157 HD
ATOM     34  H41 UNL     1      38.313 -16.657  29.829  1.00  0.00     0.157 HD
BRANCH  31  35
HETATM   35  C12 UNL     1      36.744 -15.536  28.143  1.00  0.00     0.202 A 
HETATM   36  N5  UNL     1      35.662 -15.758  28.848  1.00  0.00    -0.312 N 
HETATM   37  C13 UNL     1      34.803 -14.764  29.012  1.00  0.00     0.168 A 
ATOM     38  H5  UNL     1      35.487 -16.674  29.261  1.00  0.00     0.170 HD
HETATM   39  S2  UNL     1      35.561 -13.510  28.145  1.00  0.00     0.075 SA
HETATM   40  O2  UNL     1      36.903 -14.340  27.644  1.00  0.00    -0.249 OA
BRANCH  37  41
HETATM   41  N6  UNL     1      33.671 -14.727  29.654  1.00  0.00    -0.378 N 
ATOM     42  H62 UNL     1      33.234 -15.468  30.202  1.00  0.00     0.158 HD
ATOM     43  H61 UNL     1      32.993 -13.971  29.753  1.00  0.00     0.158 HD
ENDBRANCH  37  41
ENDBRANCH  31  35
ENDBRANCH  29  31
ENDBRANCH  28  29
BRANCH  27  44
HETATM   44  C14 UNL     1      38.685 -18.856  24.036  1.00  0.00     0.029 C 
HETATM   45  C15 UNL     1      39.841 -17.900  23.875  1.00  0.00     0.016 C 
HETATM   46  C16 UNL     1      39.225 -19.897  25.014  1.00  0.00     0.016 C 
ENDBRANCH  27  44
ENDBRANCH   5  27
TORSDOF 9
ENDMDL
