MODEL 1
REMARK VINA RESULT: -6.984975874      0.000      0.000
REMARK  14 active torsions:
REMARK  status: ('A' for Active; 'I' for Inactive)
REMARK    1  A    between atoms: S1_2  and  C2_3 
REMARK    2  A    between atoms: C2_3  and  C3_4 
REMARK    3  A    between atoms: C3_4  and  C4_5 
REMARK    4  A    between atoms: C3_4  and  C6_12 
REMARK       I    between atoms: C4_5  and  N1_7 
REMARK    5  A    between atoms: N1_7  and  O2_8 
REMARK    6  A    between atoms: N1_7  and  C5_10 
REMARK    7  A    between atoms: C12_18  and  C13_19 
REMARK    8  A    between atoms: C13_19  and  C14_20 
REMARK    9  A    between atoms: C15_21  and  C16_22 
REMARK   10  A    between atoms: C16_22  and  O4_24 
REMARK   11  A    between atoms: C16_22  and  C18_26 
REMARK   12  A    between atoms: C18_26  and  O6_28 
REMARK   13  A    between atoms: O6_28  and  C19_29 
REMARK   14  A    between atoms: C20_30  and  O7_31 
ROOT
HETATM    1  C13 UNL     1      39.861 -23.703  25.460  1.00  0.00     0.032 C 
ENDROOT
BRANCH   1   2
HETATM    2  C12 UNL     1      39.360 -24.679  26.508  1.00  0.00     0.001 C 
HETATM    3  C6  UNL     1      38.918 -25.959  25.884  1.00  0.00     0.026 C 
HETATM    4  C7  UNL     1      40.100 -26.860  25.598  1.00  0.00    -0.025 C 
HETATM    5  C8  UNL     1      40.886 -27.096  26.644  1.00  0.00    -0.030 C 
HETATM    6  C9  UNL     1      40.443 -26.415  27.911  1.00  0.00     0.031 C 
HETATM    7  C10 UNL     1      40.382 -24.947  27.565  1.00  0.00    -0.010 C 
HETATM    8  C11 UNL     1      40.108 -24.201  28.853  1.00  0.00     0.010 C 
BRANCH   3   9
HETATM    9  C3  UNL     1      38.121 -25.791  24.613  1.00  0.00     0.098 C 
BRANCH   9  10
HETATM   10  C2  UNL     1      38.523 -26.907  23.633  1.00  0.00     0.088 C 
BRANCH  10  11
HETATM   11  S1  UNL     1      37.753 -26.621  22.011  1.00  0.00    -0.173 SA
HETATM   12  C1  UNL     1      36.630 -28.013  21.704  1.00  0.00     0.089 C 
ENDBRANCH  10  11
ENDBRANCH   9  10
BRANCH   9  13
HETATM   13  C4  UNL     1      36.674 -26.019  24.865  1.00  0.00     0.255 C 
HETATM   14  O1  UNL     1      36.274 -27.112  25.331  1.00  0.00    -0.270 OA
HETATM   15  N1  UNL     1      35.713 -25.015  24.586  1.00  0.00    -0.164 N 
BRANCH  15  16
HETATM   16  O2  UNL     1      34.394 -25.327  24.821  1.00  0.00    -0.278 OA
ATOM     17  H2  UNL     1      33.745 -24.917  24.261  1.00  0.00     0.245 HD
ENDBRANCH  15  16
BRANCH  15  18
HETATM   18  C5  UNL     1      36.037 -23.724  24.095  1.00  0.00     0.385 C 
HETATM   19  O3  UNL     1      35.509 -22.701  24.592  1.00  0.00    -0.281 OA
ENDBRANCH  15  18
ENDBRANCH   9  13
ENDBRANCH   3   9
ENDBRANCH   1   2
BRANCH   1  20
HETATM   20  C14 UNL     1      39.208 -22.395  25.679  1.00  0.00    -0.027 C 
HETATM   21  C15 UNL     1      38.278 -22.163  26.596  1.00  0.00     0.016 C 
BRANCH  21  22
HETATM   22  C16 UNL     1      37.635 -20.858  26.805  1.00  0.00     0.159 C 
HETATM   23  C17 UNL     1      37.932 -19.975  25.594  1.00  0.00     0.061 C 
BRANCH  22  24
HETATM   24  O4  UNL     1      36.254 -20.942  26.947  1.00  0.00    -0.376 OA
ATOM     25  H4  UNL     1      35.810 -20.118  26.786  1.00  0.00     0.211 HD
ENDBRANCH  22  24
BRANCH  22  26
HETATM   26  C18 UNL     1      38.268 -20.193  27.978  1.00  0.00     0.297 C 
HETATM   27  O5  UNL     1      38.542 -20.924  28.961  1.00  0.00    -0.261 OA
BRANCH  26  28
HETATM   28  O6  UNL     1      38.562 -18.859  28.044  1.00  0.00    -0.310 OA
BRANCH  28  29
HETATM   29  C19 UNL     1      37.574 -17.838  28.071  1.00  0.00     0.170 C 
HETATM   30  C20 UNL     1      37.568 -17.211  29.469  1.00  0.00     0.163 C 
HETATM   31  C21 UNL     1      37.646 -15.846  28.842  1.00  0.00     0.099 C 
HETATM   32 BR1  UNL     1      35.932 -14.981  28.858  1.00  0.00    -0.087 Br
HETATM   33  C22 UNL     1      38.009 -16.514  27.536  1.00  0.00    -0.003 C 
HETATM   34  C23 UNL     1      39.494 -16.383  27.251  1.00  0.00     0.019 C 
HETATM   35  C24 UNL     1      37.211 -15.941  26.408  1.00  0.00     0.019 C 
BRANCH  30  36
HETATM   36  O7  UNL     1      38.707 -17.475  30.213  1.00  0.00    -0.392 OA
ATOM     37  H7  UNL     1      39.419 -16.865  30.063  1.00  0.00     0.210 HD
ENDBRANCH  30  36
ENDBRANCH  28  29
ENDBRANCH  26  28
ENDBRANCH  22  26
ENDBRANCH  21  22
ENDBRANCH   1  20
TORSDOF 14
ENDMDL
MODEL 2
REMARK VINA RESULT: -6.955537277      4.315      8.819
REMARK  14 active torsions:
REMARK  status: ('A' for Active; 'I' for Inactive)
REMARK    1  A    between atoms: S1_2  and  C2_3 
REMARK    2  A    between atoms: C2_3  and  C3_4 
REMARK    3  A    between atoms: C3_4  and  C4_5 
REMARK    4  A    between atoms: C3_4  and  C6_12 
REMARK       I    between atoms: C4_5  and  N1_7 
REMARK    5  A    between atoms: N1_7  and  O2_8 
REMARK    6  A    between atoms: N1_7  and  C5_10 
REMARK    7  A    between atoms: C12_18  and  C13_19 
REMARK    8  A    between atoms: C13_19  and  C14_20 
REMARK    9  A    between atoms: C15_21  and  C16_22 
REMARK   10  A    between atoms: C16_22  and  O4_24 
REMARK   11  A    between atoms: C16_22  and  C18_26 
REMARK   12  A    between atoms: C18_26  and  O6_28 
REMARK   13  A    between atoms: O6_28  and  C19_29 
REMARK   14  A    between atoms: C20_30  and  O7_31 
ROOT
HETATM    1  C13 UNL     1      36.636 -19.241  26.021  1.00  0.00     0.032 C 
ENDROOT
BRANCH   1   2
HETATM    2  C12 UNL     1      36.921 -18.163  24.993  1.00  0.00     0.001 C 
HETATM    3  C6  UNL     1      37.828 -17.118  25.546  1.00  0.00     0.026 C 
HETATM    4  C7  UNL     1      39.273 -17.565  25.488  1.00  0.00    -0.025 C 
HETATM    5  C8  UNL     1      39.686 -17.955  24.286  1.00  0.00    -0.030 C 
HETATM    6  C9  UNL     1      38.630 -17.875  23.217  1.00  0.00     0.031 C 
HETATM    7  C10 UNL     1      37.490 -18.722  23.729  1.00  0.00    -0.010 C 
HETATM    8  C11 UNL     1      36.472 -18.814  22.613  1.00  0.00     0.010 C 
BRANCH   3   9
HETATM    9  C3  UNL     1      37.510 -16.700  26.962  1.00  0.00     0.098 C 
BRANCH   9  10
HETATM   10  C2  UNL     1      38.814 -16.703  27.777  1.00  0.00     0.088 C 
BRANCH  10  11
HETATM   11  S1  UNL     1      38.677 -17.863  29.170  1.00  0.00    -0.173 SA
HETATM   12  C1  UNL     1      39.634 -19.340  28.728  1.00  0.00     0.089 C 
ENDBRANCH  10  11
ENDBRANCH   9  10
BRANCH   9  13
HETATM   13  C4  UNL     1      37.046 -15.289  27.003  1.00  0.00     0.255 C 
HETATM   14  O1  UNL     1      37.450 -14.462  26.150  1.00  0.00    -0.270 OA
HETATM   15  N1  UNL     1      36.144 -14.840  28.000  1.00  0.00    -0.164 N 
BRANCH  15  16
HETATM   16  O2  UNL     1      35.796 -13.510  27.978  1.00  0.00    -0.278 OA
ATOM     17  H2  UNL     1      35.082 -13.258  27.404  1.00  0.00     0.245 HD
ENDBRANCH  15  16
BRANCH  15  18
HETATM   18  C5  UNL     1      35.583 -15.681  28.995  1.00  0.00     0.385 C 
HETATM   19  O3  UNL     1      34.388 -15.544  29.348  1.00  0.00    -0.281 OA
ENDBRANCH  15  18
ENDBRANCH   9  13
ENDBRANCH   3   9
ENDBRANCH   1   2
BRANCH   1  20
HETATM   20  C14 UNL     1      37.511 -20.401  25.747  1.00  0.00    -0.027 C 
HETATM   21  C15 UNL     1      37.511 -21.526  26.450  1.00  0.00     0.016 C 
BRANCH  21  22
HETATM   22  C16 UNL     1      38.385 -22.673  26.169  1.00  0.00     0.159 C 
HETATM   23  C17 UNL     1      39.166 -22.382  24.889  1.00  0.00     0.061 C 
BRANCH  22  24
HETATM   24  O4  UNL     1      39.303 -22.926  27.185  1.00  0.00    -0.376 OA
ATOM     25  H4  UNL     1      39.845 -23.687  27.018  1.00  0.00     0.211 HD
ENDBRANCH  22  24
BRANCH  22  26
HETATM   26  C18 UNL     1      37.539 -23.865  25.885  1.00  0.00     0.297 C 
HETATM   27  O5  UNL     1      37.935 -24.962  26.351  1.00  0.00    -0.261 OA
BRANCH  26  28
HETATM   28  O6  UNL     1      36.379 -23.834  25.162  1.00  0.00    -0.310 OA
BRANCH  28  29
HETATM   29  C19 UNL     1      36.297 -24.213  23.795  1.00  0.00     0.170 C 
HETATM   30  C20 UNL     1      35.052 -25.088  23.611  1.00  0.00     0.163 C 
HETATM   31  C21 UNL     1      34.638 -24.230  22.447  1.00  0.00     0.099 C 
HETATM   32 BR1  UNL     1      35.029 -25.095  20.779  1.00  0.00    -0.087 Br
HETATM   33  C22 UNL     1      35.661 -23.210  22.890  1.00  0.00    -0.003 C 
HETATM   34  C23 UNL     1      34.996 -22.037  23.585  1.00  0.00     0.019 C 
HETATM   35  C24 UNL     1      36.472 -22.733  21.727  1.00  0.00     0.019 C 
BRANCH  30  36
HETATM   36  O7  UNL     1      34.134 -24.991  24.645  1.00  0.00    -0.392 OA
ATOM     37  H7  UNL     1      33.540 -25.729  24.707  1.00  0.00     0.210 HD
ENDBRANCH  30  36
ENDBRANCH  28  29
ENDBRANCH  26  28
ENDBRANCH  22  26
ENDBRANCH  21  22
ENDBRANCH   1  20
TORSDOF 14
ENDMDL
MODEL 3
REMARK VINA RESULT: -6.761956296      4.760      8.568
REMARK  14 active torsions:
REMARK  status: ('A' for Active; 'I' for Inactive)
REMARK    1  A    between atoms: S1_2  and  C2_3 
REMARK    2  A    between atoms: C2_3  and  C3_4 
REMARK    3  A    between atoms: C3_4  and  C4_5 
REMARK    4  A    between atoms: C3_4  and  C6_12 
REMARK       I    between atoms: C4_5  and  N1_7 
REMARK    5  A    between atoms: N1_7  and  O2_8 
REMARK    6  A    between atoms: N1_7  and  C5_10 
REMARK    7  A    between atoms: C12_18  and  C13_19 
REMARK    8  A    between atoms: C13_19  and  C14_20 
REMARK    9  A    between atoms: C15_21  and  C16_22 
REMARK   10  A    between atoms: C16_22  and  O4_24 
REMARK   11  A    between atoms: C16_22  and  C18_26 
REMARK   12  A    between atoms: C18_26  and  O6_28 
REMARK   13  A    between atoms: O6_28  and  C19_29 
REMARK   14  A    between atoms: C20_30  and  O7_31 
ROOT
HETATM    1  C13 UNL     1      39.556 -19.189  25.809  1.00  0.00     0.032 C 
ENDROOT
BRANCH   1   2
HETATM    2  C12 UNL     1      38.080 -19.293  26.143  1.00  0.00     0.001 C 
HETATM    3  C6  UNL     1      37.369 -18.018  25.843  1.00  0.00     0.026 C 
HETATM    4  C7  UNL     1      37.036 -17.915  24.370  1.00  0.00    -0.025 C 
HETATM    5  C8  UNL     1      36.365 -18.951  23.877  1.00  0.00    -0.030 C 
HETATM    6  C9  UNL     1      36.070 -20.028  24.887  1.00  0.00     0.031 C 
HETATM    7  C10 UNL     1      37.419 -20.431  25.434  1.00  0.00    -0.010 C 
HETATM    8  C11 UNL     1      37.192 -21.631  26.328  1.00  0.00     0.010 C 
BRANCH   3   9
HETATM    9  C3  UNL     1      38.118 -16.774  26.256  1.00  0.00     0.098 C 
BRANCH   9  10
HETATM   10  C2  UNL     1      38.363 -15.913  25.006  1.00  0.00     0.088 C 
BRANCH  10  11
HETATM   11  S1  UNL     1      40.146 -15.635  24.779  1.00  0.00    -0.173 SA
HETATM   12  C1  UNL     1      40.645 -16.564  23.303  1.00  0.00     0.089 C 
ENDBRANCH  10  11
ENDBRANCH   9  10
BRANCH   9  13
HETATM   13  C4  UNL     1      37.277 -15.922  27.137  1.00  0.00     0.255 C 
HETATM   14  O1  UNL     1      36.559 -15.017  26.650  1.00  0.00    -0.270 OA
HETATM   15  N1  UNL     1      37.264 -16.106  28.543  1.00  0.00    -0.164 N 
BRANCH  15  16
HETATM   16  O2  UNL     1      36.480 -15.250  29.281  1.00  0.00    -0.278 OA
ATOM     17  H2  UNL     1      35.932 -15.636  29.954  1.00  0.00     0.245 HD
ENDBRANCH  15  16
BRANCH  15  18
HETATM   18  C5  UNL     1      37.998 -17.118  29.215  1.00  0.00     0.385 C 
HETATM   19  O3  UNL     1      38.025 -17.162  30.468  1.00  0.00    -0.281 OA
ENDBRANCH  15  18
ENDBRANCH   9  13
ENDBRANCH   3   9
ENDBRANCH   1   2
BRANCH   1  20
HETATM   20  C14 UNL     1      40.338 -19.737  26.938  1.00  0.00    -0.027 C 
HETATM   21  C15 UNL     1      39.836 -20.024  28.132  1.00  0.00     0.016 C 
BRANCH  21  22
HETATM   22  C16 UNL     1      40.623 -20.568  29.247  1.00  0.00     0.159 C 
HETATM   23  C17 UNL     1      42.104 -20.458  28.891  1.00  0.00     0.061 C 
BRANCH  22  24
HETATM   24  O4  UNL     1      40.418 -19.891  30.445  1.00  0.00    -0.376 OA
ATOM     25  H4  UNL     1      41.097 -19.256  30.637  1.00  0.00     0.211 HD
ENDBRANCH  22  24
BRANCH  22  26
HETATM   26  C18 UNL     1      40.327 -22.021  29.381  1.00  0.00     0.297 C 
HETATM   27  O5  UNL     1      39.133 -22.372  29.215  1.00  0.00    -0.261 OA
BRANCH  26  28
HETATM   28  O6  UNL     1      41.262 -22.976  29.667  1.00  0.00    -0.310 OA
BRANCH  28  29
HETATM   29  C19 UNL     1      41.671 -23.977  28.745  1.00  0.00     0.170 C 
HETATM   30  C20 UNL     1      43.092 -24.418  29.110  1.00  0.00     0.163 C 
HETATM   31  C21 UNL     1      42.646 -25.853  29.059  1.00  0.00     0.099 C 
HETATM   32 BR1  UNL     1      43.209 -26.693  27.429  1.00  0.00    -0.087 Br
HETATM   33  C22 UNL     1      41.216 -25.363  29.062  1.00  0.00    -0.003 C 
HETATM   34  C23 UNL     1      40.580 -25.542  30.428  1.00  0.00     0.019 C 
HETATM   35  C24 UNL     1      40.412 -26.070  28.017  1.00  0.00     0.019 C 
BRANCH  30  36
HETATM   36  O7  UNL     1      43.481 -24.069  30.394  1.00  0.00    -0.392 OA
ATOM     37  H7  UNL     1      43.098 -24.608  31.076  1.00  0.00     0.210 HD
ENDBRANCH  30  36
ENDBRANCH  28  29
ENDBRANCH  26  28
ENDBRANCH  22  26
ENDBRANCH  21  22
ENDBRANCH   1  20
TORSDOF 14
ENDMDL
MODEL 4
REMARK VINA RESULT: -6.761146575      4.763      8.690
REMARK  14 active torsions:
REMARK  status: ('A' for Active; 'I' for Inactive)
REMARK    1  A    between atoms: S1_2  and  C2_3 
REMARK    2  A    between atoms: C2_3  and  C3_4 
REMARK    3  A    between atoms: C3_4  and  C4_5 
REMARK    4  A    between atoms: C3_4  and  C6_12 
REMARK       I    between atoms: C4_5  and  N1_7 
REMARK    5  A    between atoms: N1_7  and  O2_8 
REMARK    6  A    between atoms: N1_7  and  C5_10 
REMARK    7  A    between atoms: C12_18  and  C13_19 
REMARK    8  A    between atoms: C13_19  and  C14_20 
REMARK    9  A    between atoms: C15_21  and  C16_22 
REMARK   10  A    between atoms: C16_22  and  O4_24 
REMARK   11  A    between atoms: C16_22  and  C18_26 
REMARK   12  A    between atoms: C18_26  and  O6_28 
REMARK   13  A    between atoms: O6_28  and  C19_29 
REMARK   14  A    between atoms: C20_30  and  O7_31 
ROOT
HETATM    1  C13 UNL     1      36.940 -18.851  26.446  1.00  0.00     0.032 C 
ENDROOT
BRANCH   1   2
HETATM    2  C12 UNL     1      37.104 -17.772  25.393  1.00  0.00     0.001 C 
HETATM    3  C6  UNL     1      37.703 -16.538  25.975  1.00  0.00     0.026 C 
HETATM    4  C7  UNL     1      39.207 -16.666  26.090  1.00  0.00    -0.025 C 
HETATM    5  C8  UNL     1      39.825 -16.997  24.960  1.00  0.00    -0.030 C 
HETATM    6  C9  UNL     1      38.900 -17.183  23.786  1.00  0.00     0.031 C 
HETATM    7  C10 UNL     1      37.915 -18.238  24.228  1.00  0.00    -0.010 C 
HETATM    8  C11 UNL     1      37.070 -18.585  23.021  1.00  0.00     0.010 C 
BRANCH   3   9
HETATM    9  C3  UNL     1      37.148 -16.152  27.326  1.00  0.00     0.098 C 
BRANCH   9  10
HETATM   10  C2  UNL     1      38.307 -16.111  28.336  1.00  0.00     0.088 C 
BRANCH  10  11
HETATM   11  S1  UNL     1      38.049 -17.361  29.632  1.00  0.00    -0.173 SA
HETATM   12  C1  UNL     1      39.459 -18.500  29.559  1.00  0.00     0.089 C 
ENDBRANCH  10  11
ENDBRANCH   9  10
BRANCH   9  13
HETATM   13  C4  UNL     1      36.624 -14.762  27.300  1.00  0.00     0.255 C 
HETATM   14  O1  UNL     1      37.018 -13.949  26.430  1.00  0.00    -0.270 OA
HETATM   15  N1  UNL     1      35.675 -14.317  28.254  1.00  0.00    -0.164 N 
BRANCH  15  16
HETATM   16  O2  UNL     1      35.271 -13.004  28.173  1.00  0.00    -0.278 OA
ATOM     17  H2  UNL     1      35.221 -12.515  28.986  1.00  0.00     0.245 HD
ENDBRANCH  15  16
BRANCH  15  18
HETATM   18  C5  UNL     1      35.120 -15.145  29.264  1.00  0.00     0.385 C 
HETATM   19  O3  UNL     1      33.879 -15.196  29.439  1.00  0.00    -0.281 OA
ENDBRANCH  15  18
ENDBRANCH   9  13
ENDBRANCH   3   9
ENDBRANCH   1   2
BRANCH   1  20
HETATM   20  C14 UNL     1      38.033 -19.834  26.293  1.00  0.00    -0.027 C 
HETATM   21  C15 UNL     1      38.272 -20.832  27.135  1.00  0.00     0.016 C 
BRANCH  21  22
HETATM   22  C16 UNL     1      39.363 -21.803  26.973  1.00  0.00     0.159 C 
HETATM   23  C17 UNL     1      38.763 -23.125  26.496  1.00  0.00     0.061 C 
BRANCH  22  24
HETATM   24  O4  UNL     1      40.319 -21.405  26.044  1.00  0.00    -0.376 OA
ATOM     25  H4  UNL     1      40.893 -22.111  25.771  1.00  0.00     0.211 HD
ENDBRANCH  22  24
BRANCH  22  26
HETATM   26  C18 UNL     1      39.970 -22.071  28.305  1.00  0.00     0.297 C 
HETATM   27  O5  UNL     1      39.228 -21.912  29.306  1.00  0.00    -0.261 OA
BRANCH  26  28
HETATM   28  O6  UNL     1      41.262 -22.473  28.499  1.00  0.00    -0.310 OA
BRANCH  28  29
HETATM   29  C19 UNL     1      42.311 -21.590  28.873  1.00  0.00     0.170 C 
HETATM   30  C20 UNL     1      42.692 -21.884  30.327  1.00  0.00     0.163 C 
HETATM   31  C21 UNL     1      44.138 -21.955  29.920  1.00  0.00     0.099 C 
HETATM   32 BR1  UNL     1      45.069 -20.347  30.397  1.00  0.00    -0.087 Br
HETATM   33  C22 UNL     1      43.684 -22.025  28.480  1.00  0.00    -0.003 C 
HETATM   34  C23 UNL     1      43.789 -23.440  27.943  1.00  0.00     0.019 C 
HETATM   35  C24 UNL     1      44.477 -21.085  27.629  1.00  0.00     0.019 C 
BRANCH  30  36
HETATM   36  O7  UNL     1      42.251 -23.113  30.792  1.00  0.00    -0.392 OA
ATOM     37  H7  UNL     1      42.934 -23.652  31.174  1.00  0.00     0.210 HD
ENDBRANCH  30  36
ENDBRANCH  28  29
ENDBRANCH  26  28
ENDBRANCH  22  26
ENDBRANCH  21  22
ENDBRANCH   1  20
TORSDOF 14
ENDMDL
MODEL 5
REMARK VINA RESULT: -6.758999263      4.349      8.232
REMARK  14 active torsions:
REMARK  status: ('A' for Active; 'I' for Inactive)
REMARK    1  A    between atoms: S1_2  and  C2_3 
REMARK    2  A    between atoms: C2_3  and  C3_4 
REMARK    3  A    between atoms: C3_4  and  C4_5 
REMARK    4  A    between atoms: C3_4  and  C6_12 
REMARK       I    between atoms: C4_5  and  N1_7 
REMARK    5  A    between atoms: N1_7  and  O2_8 
REMARK    6  A    between atoms: N1_7  and  C5_10 
REMARK    7  A    between atoms: C12_18  and  C13_19 
REMARK    8  A    between atoms: C13_19  and  C14_20 
REMARK    9  A    between atoms: C15_21  and  C16_22 
REMARK   10  A    between atoms: C16_22  and  O4_24 
REMARK   11  A    between atoms: C16_22  and  C18_26 
REMARK   12  A    between atoms: C18_26  and  O6_28 
REMARK   13  A    between atoms: O6_28  and  C19_29 
REMARK   14  A    between atoms: C20_30  and  O7_31 
ROOT
HETATM    1  C13 UNL     1      39.526 -19.414  25.713  1.00  0.00     0.032 C 
ENDROOT
BRANCH   1   2
HETATM    2  C12 UNL     1      38.048 -19.542  26.032  1.00  0.00     0.001 C 
HETATM    3  C6  UNL     1      37.326 -18.267  25.761  1.00  0.00     0.026 C 
HETATM    4  C7  UNL     1      37.003 -18.127  24.289  1.00  0.00    -0.025 C 
HETATM    5  C8  UNL     1      36.347 -19.157  23.763  1.00  0.00    -0.030 C 
HETATM    6  C9  UNL     1      36.056 -20.264  24.741  1.00  0.00     0.031 C 
HETATM    7  C10 UNL     1      37.405 -20.667  25.288  1.00  0.00    -0.010 C 
HETATM    8  C11 UNL     1      37.184 -21.893  26.147  1.00  0.00     0.010 C 
BRANCH   3   9
HETATM    9  C3  UNL     1      38.058 -17.026  26.214  1.00  0.00     0.098 C 
BRANCH   9  10
HETATM   10  C2  UNL     1      38.387 -16.174  24.977  1.00  0.00     0.088 C 
BRANCH  10  11
HETATM   11  S1  UNL     1      40.177 -15.869  24.886  1.00  0.00    -0.173 SA
HETATM   12  C1  UNL     1      40.705 -16.305  23.206  1.00  0.00     0.089 C 
ENDBRANCH  10  11
ENDBRANCH   9  10
BRANCH   9  13
HETATM   13  C4  UNL     1      37.172 -16.164  27.038  1.00  0.00     0.255 C 
HETATM   14  O1  UNL     1      36.653 -15.133  26.548  1.00  0.00    -0.270 OA
HETATM   15  N1  UNL     1      36.893 -16.478  28.392  1.00  0.00    -0.164 N 
BRANCH  15  16
HETATM   16  O2  UNL     1      36.089 -15.604  29.085  1.00  0.00    -0.278 OA
ATOM     17  H2  UNL     1      35.465 -15.981  29.695  1.00  0.00     0.245 HD
ENDBRANCH  15  16
BRANCH  15  18
HETATM   18  C5  UNL     1      37.384 -17.633  29.053  1.00  0.00     0.385 C 
HETATM   19  O3  UNL     1      38.461 -17.595  29.694  1.00  0.00    -0.281 OA
ENDBRANCH  15  18
ENDBRANCH   9  13
ENDBRANCH   3   9
ENDBRANCH   1   2
BRANCH   1  20
HETATM   20  C14 UNL     1      40.305 -19.828  26.898  1.00  0.00    -0.027 C 
HETATM   21  C15 UNL     1      39.779 -20.329  28.008  1.00  0.00     0.016 C 
BRANCH  21  22
HETATM   22  C16 UNL     1      40.564 -20.737  29.181  1.00  0.00     0.159 C 
HETATM   23  C17 UNL     1      42.047 -20.603  28.839  1.00  0.00     0.061 C 
BRANCH  22  24
HETATM   24  O4  UNL     1      40.311 -19.961  30.309  1.00  0.00    -0.376 OA
ATOM     25  H4  UNL     1      41.084 -19.807  30.837  1.00  0.00     0.211 HD
ENDBRANCH  22  24
BRANCH  22  26
HETATM   26  C18 UNL     1      40.321 -22.182  29.444  1.00  0.00     0.297 C 
HETATM   27  O5  UNL     1      40.362 -22.553  30.643  1.00  0.00    -0.261 OA
BRANCH  26  28
HETATM   28  O6  UNL     1      40.059 -23.110  28.474  1.00  0.00    -0.310 OA
BRANCH  28  29
HETATM   29  C19 UNL     1      40.962 -24.148  28.118  1.00  0.00     0.170 C 
HETATM   30  C20 UNL     1      40.148 -25.405  27.796  1.00  0.00     0.163 C 
HETATM   31  C21 UNL     1      40.909 -25.554  26.508  1.00  0.00     0.099 C 
HETATM   32 BR1  UNL     1      42.252 -26.917  26.653  1.00  0.00    -0.087 Br
HETATM   33  C22 UNL     1      41.414 -24.141  26.695  1.00  0.00    -0.003 C 
HETATM   34  C23 UNL     1      40.681 -23.175  25.783  1.00  0.00     0.019 C 
HETATM   35  C24 UNL     1      42.888 -24.069  26.450  1.00  0.00     0.019 C 
BRANCH  30  36
HETATM   36  O7  UNL     1      38.806 -25.164  27.549  1.00  0.00    -0.392 OA
ATOM     37  H7  UNL     1      38.397 -24.572  28.170  1.00  0.00     0.210 HD
ENDBRANCH  30  36
ENDBRANCH  28  29
ENDBRANCH  26  28
ENDBRANCH  22  26
ENDBRANCH  21  22
ENDBRANCH   1  20
TORSDOF 14
ENDMDL
