MODEL 1
REMARK VINA RESULT: -8.885930491      0.000      0.000
REMARK  12 active torsions:
REMARK  status: ('A' for Active; 'I' for Inactive)
REMARK    1  A    between atoms: C3_3  and  C4_4 
REMARK    2  A    between atoms: C7_8  and  N1_9 
REMARK    3  A    between atoms: N1_9  and  C8_10 
REMARK    4  A    between atoms: N3_13  and  C9_14 
REMARK    5  A    between atoms: C12_17  and  N4_18 
REMARK    6  A    between atoms: N4_18  and  C13_21 
REMARK    7  A    between atoms: C13_21  and  C14_22 
REMARK    8  A    between atoms: C14_22  and  O1_23 
REMARK    9  A    between atoms: C20_30  and  C21_31 
REMARK       I    between atoms: C21_31  and  N6_33 
REMARK   10  A    between atoms: N6_33  and  C22_35 
REMARK   11  A    between atoms: C25_38  and  N7_40 
REMARK   12  A    between atoms: C29_46  and  O3_47 
ROOT
HETATM    1  C1  UNL     1      34.520 -29.084  22.613  1.00  0.00     0.112 C 
HETATM    2  C2  UNL     1      35.073 -27.911  23.279  1.00  0.00    -0.105 C 
HETATM    3  C3  UNL     1      35.533 -26.960  23.818  1.00  0.00    -0.061 C 
ENDROOT
BRANCH   3   4
HETATM    4  C4  UNL     1      36.118 -25.813  24.477  1.00  0.00     0.089 A 
HETATM    5  C5  UNL     1      37.332 -25.911  25.091  1.00  0.00     0.141 A 
HETATM    6  F1  UNL     1      38.005 -27.101  25.072  1.00  0.00    -0.204 F 
HETATM    7  C6  UNL     1      37.818 -24.795  25.702  1.00  0.00     0.088 A 
HETATM    8  C7  UNL     1      37.177 -23.577  25.749  1.00  0.00     0.115 A 
HETATM    9  C28 UNL     1      35.920 -23.533  25.095  1.00  0.00     0.083 A 
HETATM   10  C29 UNL     1      35.408 -24.625  24.476  1.00  0.00     0.093 A 
BRANCH   8  11
HETATM   11  N1  UNL     1      37.628 -22.525  26.339  1.00  0.00    -0.385 NA
BRANCH  11  12
HETATM   12  C8  UNL     1      38.064 -21.542  26.891  1.00  0.00     0.211 A 
HETATM   13  N2  UNL     1      37.701 -20.222  26.679  1.00  0.00    -0.271 N 
HETATM   14  N3  UNL     1      38.340 -19.422  27.470  1.00  0.00    -0.294 N 
ATOM     15  H2  UNL     1      37.017 -19.919  25.987  1.00  0.00     0.190 HD
HETATM   16  C19 UNL     1      39.157 -20.114  28.252  1.00  0.00     0.132 A 
HETATM   17  C20 UNL     1      39.009 -21.453  27.914  1.00  0.00     0.108 A 
BRANCH  14  18
HETATM   18  C9  UNL     1      38.201 -17.974  27.477  1.00  0.00     0.125 C 
HETATM   19  C10 UNL     1      37.953 -17.495  28.901  1.00  0.00     0.030 C 
HETATM   20  C11 UNL     1      37.732 -16.028  29.002  1.00  0.00     0.035 C 
HETATM   21  C12 UNL     1      36.978 -15.386  27.894  1.00  0.00     0.187 C 
HETATM   22  C16 UNL     1      37.262 -15.972  26.541  1.00  0.00     0.054 C 
HETATM   23  C17 UNL     1      37.051 -17.499  26.654  1.00  0.00     0.119 C 
HETATM   24  C18 UNL     1      37.014 -18.115  25.365  1.00  0.00     0.066 C 
HETATM   25  N5  UNL     1      36.962 -18.596  24.306  1.00  0.00    -0.197 NA
BRANCH  21  26
HETATM   26  N4  UNL     1      37.239 -13.972  27.866  1.00  0.00    -0.069 N 
ATOM     27  H42 UNL     1      37.762 -13.658  28.683  1.00  0.00     0.277 HD
ATOM     28  H41 UNL     1      37.922 -13.717  27.153  1.00  0.00     0.277 HD
BRANCH  26  29
HETATM   29  C13 UNL     1      35.964 -13.252  27.706  1.00  0.00     0.258 C 
BRANCH  29  30
HETATM   30  C14 UNL     1      35.186 -13.336  28.976  1.00  0.00     0.194 C 
BRANCH  30  31
HETATM   31  O1  UNL     1      34.037 -14.078  28.849  1.00  0.00    -0.394 OA
HETATM   32  C15 UNL     1      33.559 -14.463  30.079  1.00  0.00     0.201 C 
ENDBRANCH  30  31
ENDBRANCH  29  30
ENDBRANCH  26  29
ENDBRANCH  21  26
ENDBRANCH  14  18
BRANCH  17  33
HETATM   33  C21 UNL     1      39.783 -22.509  28.554  1.00  0.00     0.258 C 
HETATM   34  O2  UNL     1      39.991 -22.476  29.775  1.00  0.00    -0.267 OA
HETATM   35  N6  UNL     1      40.297 -23.579  27.784  1.00  0.00    -0.352 N 
ATOM     36  H6  UNL     1      40.132 -23.615  26.778  1.00  0.00     0.163 HD
BRANCH  35  37
HETATM   37  C22 UNL     1      41.073 -24.643  28.450  1.00  0.00     0.087 C 
HETATM   38  C23 UNL     1      40.109 -25.783  28.768  1.00  0.00     0.028 C 
HETATM   39  C24 UNL     1      40.945 -27.022  28.698  1.00  0.00     0.040 C 
HETATM   40  C25 UNL     1      41.854 -26.716  27.522  1.00  0.00     0.122 C 
HETATM   41  C26 UNL     1      41.198 -27.057  26.209  1.00  0.00     0.046 C 
HETATM   42  C27 UNL     1      42.113 -25.224  27.575  1.00  0.00     0.063 C 
BRANCH  40  43
HETATM   43  N7  UNL     1      43.110 -27.399  27.655  1.00  0.00    -0.071 N 
ATOM     44  H73 UNL     1      43.143 -27.968  28.500  1.00  0.00     0.275 HD
ATOM     45  H72 UNL     1      43.210 -28.142  26.964  1.00  0.00     0.275 HD
ATOM     46  H71 UNL     1      43.888 -26.740  27.614  1.00  0.00     0.275 HD
ENDBRANCH  40  43
ENDBRANCH  35  37
ENDBRANCH  17  33
ENDBRANCH  11  12
ENDBRANCH   8  11
BRANCH  10  47
HETATM   47  O3  UNL     1      34.169 -24.616  23.818  1.00  0.00    -0.354 OA
HETATM   48  C30 UNL     1      33.971 -23.700  22.764  1.00  0.00     0.210 C 
ENDBRANCH  10  47
ENDBRANCH   3   4
TORSDOF 12
ENDMDL
MODEL 2
REMARK VINA RESULT: -8.707758280      1.921      5.383
REMARK  12 active torsions:
REMARK  status: ('A' for Active; 'I' for Inactive)
REMARK    1  A    between atoms: C3_3  and  C4_4 
REMARK    2  A    between atoms: C7_8  and  N1_9 
REMARK    3  A    between atoms: N1_9  and  C8_10 
REMARK    4  A    between atoms: N3_13  and  C9_14 
REMARK    5  A    between atoms: C12_17  and  N4_18 
REMARK    6  A    between atoms: N4_18  and  C13_21 
REMARK    7  A    between atoms: C13_21  and  C14_22 
REMARK    8  A    between atoms: C14_22  and  O1_23 
REMARK    9  A    between atoms: C20_30  and  C21_31 
REMARK       I    between atoms: C21_31  and  N6_33 
REMARK   10  A    between atoms: N6_33  and  C22_35 
REMARK   11  A    between atoms: C25_38  and  N7_40 
REMARK   12  A    between atoms: C29_46  and  O3_47 
ROOT
HETATM    1  C1  UNL     1      42.667 -28.937  29.595  1.00  0.00     0.112 C 
HETATM    2  C2  UNL     1      41.983 -27.732  29.143  1.00  0.00    -0.105 C 
HETATM    3  C3  UNL     1      41.417 -26.756  28.773  1.00  0.00    -0.061 C 
ENDROOT
BRANCH   3   4
HETATM    4  C4  UNL     1      40.713 -25.584  28.306  1.00  0.00     0.089 A 
HETATM    5  C5  UNL     1      39.948 -25.638  27.178  1.00  0.00     0.141 A 
HETATM    6  F1  UNL     1      39.839 -26.816  26.492  1.00  0.00    -0.204 F 
HETATM    7  C6  UNL     1      39.321 -24.494  26.789  1.00  0.00     0.088 A 
HETATM    8  C7  UNL     1      39.401 -23.286  27.446  1.00  0.00     0.115 A 
HETATM    9  C28 UNL     1      40.208 -23.287  28.611  1.00  0.00     0.083 A 
HETATM   10  C29 UNL     1      40.845 -24.410  29.027  1.00  0.00     0.093 A 
BRANCH   8  11
HETATM   11  N1  UNL     1      38.821 -22.199  27.071  1.00  0.00    -0.385 NA
BRANCH  11  12
HETATM   12  C8  UNL     1      38.284 -21.178  26.710  1.00  0.00     0.211 A 
HETATM   13  N2  UNL     1      38.376 -19.923  27.289  1.00  0.00    -0.271 N 
HETATM   14  N3  UNL     1      37.701 -19.043  26.623  1.00  0.00    -0.294 N 
ATOM     15  H2  UNL     1      38.909 -19.719  28.134  1.00  0.00     0.190 HD
HETATM   16  C19 UNL     1      37.120 -19.614  25.578  1.00  0.00     0.132 A 
HETATM   17  C20 UNL     1      37.464 -20.959  25.602  1.00  0.00     0.108 A 
BRANCH  14  18
HETATM   18  C9  UNL     1      37.578 -17.640  26.988  1.00  0.00     0.125 C 
HETATM   19  C10 UNL     1      37.419 -16.801  25.728  1.00  0.00     0.030 C 
HETATM   20  C11 UNL     1      37.350 -15.340  25.996  1.00  0.00     0.035 C 
HETATM   21  C12 UNL     1      38.204 -14.818  27.095  1.00  0.00     0.187 C 
HETATM   22  C16 UNL     1      38.332 -15.751  28.264  1.00  0.00     0.054 C 
HETATM   23  C17 UNL     1      38.778 -17.122  27.705  1.00  0.00     0.119 C 
HETATM   24  C18 UNL     1      39.206 -17.994  28.753  1.00  0.00     0.066 C 
HETATM   25  N5  UNL     1      39.573 -18.683  29.616  1.00  0.00    -0.197 NA
BRANCH  21  26
HETATM   26  N4  UNL     1      37.710 -13.547  27.550  1.00  0.00    -0.069 N 
ATOM     27  H42 UNL     1      37.879 -13.398  28.544  1.00  0.00     0.277 HD
ATOM     28  H41 UNL     1      38.261 -12.766  27.194  1.00  0.00     0.277 HD
BRANCH  26  29
HETATM   29  C13 UNL     1      36.284 -13.434  27.199  1.00  0.00     0.258 C 
BRANCH  29  30
HETATM   30  C14 UNL     1      35.472 -13.356  28.449  1.00  0.00     0.194 C 
BRANCH  30  31
HETATM   31  O1  UNL     1      34.964 -14.574  28.831  1.00  0.00    -0.394 OA
HETATM   32  C15 UNL     1      33.924 -14.420  29.716  1.00  0.00     0.201 C 
ENDBRANCH  30  31
ENDBRANCH  29  30
ENDBRANCH  26  29
ENDBRANCH  21  26
ENDBRANCH  14  18
BRANCH  17  33
HETATM   33  C21 UNL     1      36.974 -21.908  24.612  1.00  0.00     0.258 C 
HETATM   34  O2  UNL     1      36.904 -21.582  23.418  1.00  0.00    -0.267 OA
HETATM   35  N6  UNL     1      36.578 -23.207  25.007  1.00  0.00    -0.352 N 
ATOM     36  H6  UNL     1      36.630 -23.485  25.988  1.00  0.00     0.163 HD
BRANCH  35  37
HETATM   37  C22 UNL     1      36.088 -24.158  23.990  1.00  0.00     0.087 C 
HETATM   38  C23 UNL     1      37.285 -24.980  23.518  1.00  0.00     0.028 C 
HETATM   39  C24 UNL     1      36.711 -26.313  23.150  1.00  0.00     0.040 C 
HETATM   40  C25 UNL     1      35.666 -26.509  24.232  1.00  0.00     0.122 C 
HETATM   41  C26 UNL     1      36.267 -27.088  25.487  1.00  0.00     0.046 C 
HETATM   42  C27 UNL     1      35.118 -25.129  24.536  1.00  0.00     0.063 C 
BRANCH  40  43
HETATM   43  N7  UNL     1      34.588 -27.331  23.759  1.00  0.00    -0.071 N 
ATOM     44  H73 UNL     1      34.633 -27.468  22.750  1.00  0.00     0.275 HD
ATOM     45  H72 UNL     1      34.697 -28.302  24.052  1.00  0.00     0.275 HD
ATOM     46  H71 UNL     1      33.687 -26.950  24.048  1.00  0.00     0.275 HD
ENDBRANCH  40  43
ENDBRANCH  35  37
ENDBRANCH  17  33
ENDBRANCH  11  12
ENDBRANCH   8  11
BRANCH  10  47
HETATM   47  O3  UNL     1      41.650 -24.447  30.176  1.00  0.00    -0.354 OA
HETATM   48  C30 UNL     1      42.733 -23.549  30.271  1.00  0.00     0.210 C 
ENDBRANCH  10  47
ENDBRANCH   3   4
TORSDOF 12
ENDMDL
MODEL 3
REMARK VINA RESULT: -8.617147692      1.123      1.866
REMARK  12 active torsions:
REMARK  status: ('A' for Active; 'I' for Inactive)
REMARK    1  A    between atoms: C3_3  and  C4_4 
REMARK    2  A    between atoms: C7_8  and  N1_9 
REMARK    3  A    between atoms: N1_9  and  C8_10 
REMARK    4  A    between atoms: N3_13  and  C9_14 
REMARK    5  A    between atoms: C12_17  and  N4_18 
REMARK    6  A    between atoms: N4_18  and  C13_21 
REMARK    7  A    between atoms: C13_21  and  C14_22 
REMARK    8  A    between atoms: C14_22  and  O1_23 
REMARK    9  A    between atoms: C20_30  and  C21_31 
REMARK       I    between atoms: C21_31  and  N6_33 
REMARK   10  A    between atoms: N6_33  and  C22_35 
REMARK   11  A    between atoms: C25_38  and  N7_40 
REMARK   12  A    between atoms: C29_46  and  O3_47 
ROOT
HETATM    1  C1  UNL     1      34.353 -29.218  23.204  1.00  0.00     0.112 C 
HETATM    2  C2  UNL     1      34.965 -27.988  23.690  1.00  0.00    -0.105 C 
HETATM    3  C3  UNL     1      35.474 -26.991  24.085  1.00  0.00    -0.061 C 
ENDROOT
BRANCH   3   4
HETATM    4  C4  UNL     1      36.114 -25.792  24.577  1.00  0.00     0.089 A 
HETATM    5  C5  UNL     1      37.345 -25.853  25.161  1.00  0.00     0.141 A 
HETATM    6  F1  UNL     1      37.983 -27.058  25.269  1.00  0.00    -0.204 F 
HETATM    7  C6  UNL     1      37.885 -24.687  25.613  1.00  0.00     0.088 A 
HETATM    8  C7  UNL     1      37.281 -23.452  25.526  1.00  0.00     0.115 A 
HETATM    9  C28 UNL     1      36.005 -23.447  24.911  1.00  0.00     0.083 A 
HETATM   10  C29 UNL     1      35.439 -24.590  24.450  1.00  0.00     0.093 A 
BRANCH   8  11
HETATM   11  N1  UNL     1      37.783 -22.350  25.966  1.00  0.00    -0.385 NA
BRANCH  11  12
HETATM   12  C8  UNL     1      38.248 -21.318  26.389  1.00  0.00     0.211 A 
HETATM   13  N2  UNL     1      37.601 -20.104  26.554  1.00  0.00    -0.271 N 
HETATM   14  N3  UNL     1      38.387 -19.213  27.066  1.00  0.00    -0.294 N 
ATOM     15  H2  UNL     1      36.627 -19.934  26.303  1.00  0.00     0.190 HD
HETATM   16  C19 UNL     1      39.585 -19.737  27.281  1.00  0.00     0.132 A 
HETATM   17  C20 UNL     1      39.534 -21.061  26.865  1.00  0.00     0.108 A 
BRANCH  14  18
HETATM   18  C9  UNL     1      38.013 -17.834  27.339  1.00  0.00     0.125 C 
HETATM   19  C10 UNL     1      38.075 -17.028  26.049  1.00  0.00     0.030 C 
HETATM   20  C11 UNL     1      37.771 -15.584  26.238  1.00  0.00     0.035 C 
HETATM   21  C12 UNL     1      38.258 -14.955  27.494  1.00  0.00     0.187 C 
HETATM   22  C16 UNL     1      38.199 -15.859  28.692  1.00  0.00     0.054 C 
HETATM   23  C17 UNL     1      38.928 -17.168  28.310  1.00  0.00     0.119 C 
HETATM   24  C18 UNL     1      39.181 -17.976  29.461  1.00  0.00     0.066 C 
HETATM   25  N5  UNL     1      39.400 -18.610  30.413  1.00  0.00    -0.197 NA
BRANCH  21  26
HETATM   26  N4  UNL     1      37.521 -13.752  27.768  1.00  0.00    -0.069 N 
ATOM     27  H42 UNL     1      37.621 -13.447  28.735  1.00  0.00     0.277 HD
ATOM     28  H41 UNL     1      37.931 -12.934  27.317  1.00  0.00     0.277 HD
BRANCH  26  29
HETATM   29  C13 UNL     1      36.112 -13.956  27.386  1.00  0.00     0.258 C 
BRANCH  29  30
HETATM   30  C14 UNL     1      35.233 -13.611  28.541  1.00  0.00     0.194 C 
BRANCH  30  31
HETATM   31  O1  UNL     1      34.777 -14.719  29.213  1.00  0.00    -0.394 OA
HETATM   32  C15 UNL     1      33.649 -14.426  29.941  1.00  0.00     0.201 C 
ENDBRANCH  30  31
ENDBRANCH  29  30
ENDBRANCH  26  29
ENDBRANCH  21  26
ENDBRANCH  14  18
BRANCH  17  33
HETATM   33  C21 UNL     1      40.692 -21.942  26.924  1.00  0.00     0.258 C 
HETATM   34  O2  UNL     1      41.783 -21.570  26.468  1.00  0.00    -0.267 OA
HETATM   35  N6  UNL     1      40.579 -23.227  27.506  1.00  0.00    -0.352 N 
ATOM     36  H6  UNL     1      39.685 -23.544  27.884  1.00  0.00     0.163 HD
BRANCH  35  37
HETATM   37  C22 UNL     1      41.764 -24.105  27.563  1.00  0.00     0.087 C 
HETATM   38  C23 UNL     1      42.142 -24.269  29.033  1.00  0.00     0.028 C 
HETATM   39  C24 UNL     1      42.747 -25.635  29.122  1.00  0.00     0.040 C 
HETATM   40  C25 UNL     1      41.867 -26.426  28.171  1.00  0.00     0.122 C 
HETATM   41  C26 UNL     1      40.613 -26.912  28.850  1.00  0.00     0.046 C 
HETATM   42  C27 UNL     1      41.490 -25.466  27.060  1.00  0.00     0.063 C 
BRANCH  40  43
HETATM   43  N7  UNL     1      42.592 -27.523  27.596  1.00  0.00    -0.071 N 
ATOM     44  H73 UNL     1      43.598 -27.355  27.600  1.00  0.00     0.275 HD
ATOM     45  H72 UNL     1      42.572 -28.346  28.198  1.00  0.00     0.275 HD
ATOM     46  H71 UNL     1      42.249 -27.735  26.659  1.00  0.00     0.275 HD
ENDBRANCH  40  43
ENDBRANCH  35  37
ENDBRANCH  17  33
ENDBRANCH  11  12
ENDBRANCH   8  11
BRANCH  10  47
HETATM   47  O3  UNL     1      34.179 -24.621  23.834  1.00  0.00    -0.354 OA
HETATM   48  C30 UNL     1      33.964 -23.817  22.696  1.00  0.00     0.210 C 
ENDBRANCH  10  47
ENDBRANCH   3   4
TORSDOF 12
ENDMDL
MODEL 4
REMARK VINA RESULT: -8.234892603      5.168     10.105
REMARK  12 active torsions:
REMARK  status: ('A' for Active; 'I' for Inactive)
REMARK    1  A    between atoms: C3_3  and  C4_4 
REMARK    2  A    between atoms: C7_8  and  N1_9 
REMARK    3  A    between atoms: N1_9  and  C8_10 
REMARK    4  A    between atoms: N3_13  and  C9_14 
REMARK    5  A    between atoms: C12_17  and  N4_18 
REMARK    6  A    between atoms: N4_18  and  C13_21 
REMARK    7  A    between atoms: C13_21  and  C14_22 
REMARK    8  A    between atoms: C14_22  and  O1_23 
REMARK    9  A    between atoms: C20_30  and  C21_31 
REMARK       I    between atoms: C21_31  and  N6_33 
REMARK   10  A    between atoms: N6_33  and  C22_35 
REMARK   11  A    between atoms: C25_38  and  N7_40 
REMARK   12  A    between atoms: C29_46  and  O3_47 
ROOT
HETATM    1  C1  UNL     1      35.448 -13.354  27.799  1.00  0.00     0.112 C 
HETATM    2  C2  UNL     1      36.365 -14.480  27.928  1.00  0.00    -0.105 C 
HETATM    3  C3  UNL     1      37.117 -15.391  28.042  1.00  0.00    -0.061 C 
ENDROOT
BRANCH   3   4
HETATM    4  C4  UNL     1      38.051 -16.483  28.190  1.00  0.00     0.089 A 
HETATM    5  C5  UNL     1      38.144 -17.161  29.370  1.00  0.00     0.141 A 
HETATM    6  F1  UNL     1      37.336 -16.809  30.417  1.00  0.00    -0.204 F 
HETATM    7  C6  UNL     1      39.053 -18.172  29.445  1.00  0.00     0.088 A 
HETATM    8  C7  UNL     1      39.887 -18.562  28.420  1.00  0.00     0.115 A 
HETATM    9  C28 UNL     1      39.748 -17.824  27.218  1.00  0.00     0.083 A 
HETATM   10  C29 UNL     1      38.852 -16.812  27.110  1.00  0.00     0.093 A 
BRANCH   8  11
HETATM   11  N1  UNL     1      40.757 -19.508  28.493  1.00  0.00    -0.385 NA
BRANCH  11  12
HETATM   12  C8  UNL     1      41.577 -20.392  28.573  1.00  0.00     0.211 A 
HETATM   13  N2  UNL     1      42.604 -20.514  29.495  1.00  0.00    -0.271 N 
HETATM   14  N3  UNL     1      43.275 -21.605  29.316  1.00  0.00    -0.294 N 
ATOM     15  H2  UNL     1      42.804 -19.829  30.223  1.00  0.00     0.190 HD
HETATM   16  C19 UNL     1      42.773 -22.284  28.295  1.00  0.00     0.132 A 
HETATM   17  C20 UNL     1      41.703 -21.549  27.802  1.00  0.00     0.108 A 
BRANCH  14  18
HETATM   18  C9  UNL     1      44.429 -22.009  30.105  1.00  0.00     0.125 C 
HETATM   19  C10 UNL     1      43.998 -22.250  31.546  1.00  0.00     0.030 C 
HETATM   20  C11 UNL     1      45.125 -22.606  32.448  1.00  0.00     0.035 C 
HETATM   21  C12 UNL     1      46.425 -21.930  32.198  1.00  0.00     0.187 C 
HETATM   22  C16 UNL     1      46.722 -21.697  30.745  1.00  0.00     0.054 C 
HETATM   23  C17 UNL     1      45.499 -20.971  30.141  1.00  0.00     0.119 C 
HETATM   24  C18 UNL     1      45.793 -20.448  28.844  1.00  0.00     0.066 C 
HETATM   25  N5  UNL     1      46.058 -20.009  27.799  1.00  0.00    -0.197 NA
BRANCH  21  26
HETATM   26  N4  UNL     1      47.499 -22.679  32.791  1.00  0.00    -0.069 N 
ATOM     27  H42 UNL     1      47.365 -22.825  33.791  1.00  0.00     0.277 HD
ATOM     28  H41 UNL     1      47.497 -23.657  32.503  1.00  0.00     0.277 HD
BRANCH  26  29
HETATM   29  C13 UNL     1      48.776 -22.008  32.489  1.00  0.00     0.258 C 
BRANCH  29  30
HETATM   30  C14 UNL     1      49.659 -22.062  33.689  1.00  0.00     0.194 C 
BRANCH  30  31
HETATM   31  O1  UNL     1      48.967 -22.314  34.849  1.00  0.00    -0.394 OA
HETATM   32  C15 UNL     1      49.697 -21.938  35.952  1.00  0.00     0.201 C 
ENDBRANCH  30  31
ENDBRANCH  29  30
ENDBRANCH  26  29
ENDBRANCH  21  26
ENDBRANCH  14  18
BRANCH  17  33
HETATM   33  C21 UNL     1      40.926 -21.980  26.648  1.00  0.00     0.258 C 
HETATM   34  O2  UNL     1      41.470 -22.613  25.732  1.00  0.00    -0.267 OA
HETATM   35  N6  UNL     1      39.545 -21.682  26.568  1.00  0.00    -0.352 N 
ATOM     36  H6  UNL     1      39.088 -21.159  27.316  1.00  0.00     0.163 HD
BRANCH  35  37
HETATM   37  C22 UNL     1      38.772 -22.131  25.394  1.00  0.00     0.087 C 
HETATM   38  C23 UNL     1      37.973 -23.362  25.816  1.00  0.00     0.028 C 
HETATM   39  C24 UNL     1      36.733 -23.318  24.979  1.00  0.00     0.040 C 
HETATM   40  C25 UNL     1      36.431 -21.832  24.951  1.00  0.00     0.122 C 
HETATM   41  C26 UNL     1      35.654 -21.400  26.168  1.00  0.00     0.046 C 
HETATM   42  C27 UNL     1      37.777 -21.134  24.950  1.00  0.00     0.063 C 
BRANCH  40  43
HETATM   43  N7  UNL     1      35.734 -21.473  23.748  1.00  0.00    -0.071 N 
ATOM     44  H73 UNL     1      35.208 -22.260  23.368  1.00  0.00     0.275 HD
ATOM     45  H72 UNL     1      34.953 -20.845  23.938  1.00  0.00     0.275 HD
ATOM     46  H71 UNL     1      36.375 -21.080  23.060  1.00  0.00     0.275 HD
ENDBRANCH  40  43
ENDBRANCH  35  37
ENDBRANCH  17  33
ENDBRANCH  11  12
ENDBRANCH   8  11
BRANCH  10  47
HETATM   47  O3  UNL     1      38.687 -16.063  25.935  1.00  0.00    -0.354 OA
HETATM   48  C30 UNL     1      39.838 -15.633  25.242  1.00  0.00     0.210 C 
ENDBRANCH  10  47
ENDBRANCH   3   4
TORSDOF 12
ENDMDL
MODEL 5
REMARK VINA RESULT: -8.156559898      3.523      9.705
REMARK  12 active torsions:
REMARK  status: ('A' for Active; 'I' for Inactive)
REMARK    1  A    between atoms: C3_3  and  C4_4 
REMARK    2  A    between atoms: C7_8  and  N1_9 
REMARK    3  A    between atoms: N1_9  and  C8_10 
REMARK    4  A    between atoms: N3_13  and  C9_14 
REMARK    5  A    between atoms: C12_17  and  N4_18 
REMARK    6  A    between atoms: N4_18  and  C13_21 
REMARK    7  A    between atoms: C13_21  and  C14_22 
REMARK    8  A    between atoms: C14_22  and  O1_23 
REMARK    9  A    between atoms: C20_30  and  C21_31 
REMARK       I    between atoms: C21_31  and  N6_33 
REMARK   10  A    between atoms: N6_33  and  C22_35 
REMARK   11  A    between atoms: C25_38  and  N7_40 
REMARK   12  A    between atoms: C29_46  and  O3_47 
ROOT
HETATM    1  C1  UNL     1      34.084 -16.946  20.177  1.00  0.00     0.112 C 
HETATM    2  C2  UNL     1      34.747 -17.753  21.193  1.00  0.00    -0.105 C 
HETATM    3  C3  UNL     1      35.296 -18.408  22.016  1.00  0.00    -0.061 C 
ENDROOT
BRANCH   3   4
HETATM    4  C4  UNL     1      35.986 -19.211  23.001  1.00  0.00     0.089 A 
HETATM    5  C5  UNL     1      35.406 -20.338  23.504  1.00  0.00     0.141 A 
HETATM    6  F1  UNL     1      34.168 -20.716  23.064  1.00  0.00    -0.204 F 
HETATM    7  C6  UNL     1      36.107 -21.041  24.437  1.00  0.00     0.088 A 
HETATM    8  C7  UNL     1      37.354 -20.700  24.911  1.00  0.00     0.115 A 
HETATM    9  C28 UNL     1      37.908 -19.521  24.354  1.00  0.00     0.083 A 
HETATM   10  C29 UNL     1      37.238 -18.798  23.422  1.00  0.00     0.093 A 
BRANCH   8  11
HETATM   11  N1  UNL     1      38.012 -21.355  25.804  1.00  0.00    -0.385 NA
BRANCH  11  12
HETATM   12  C8  UNL     1      38.639 -21.965  26.638  1.00  0.00     0.211 A 
HETATM   13  N2  UNL     1      38.753 -23.339  26.773  1.00  0.00    -0.271 N 
HETATM   14  N3  UNL     1      39.534 -23.655  27.754  1.00  0.00    -0.294 N 
ATOM     15  H2  UNL     1      38.281 -24.016  26.175  1.00  0.00     0.190 HD
HETATM   16  C19 UNL     1      39.995 -22.558  28.339  1.00  0.00     0.132 A 
HETATM   17  C20 UNL     1      39.450 -21.475  27.662  1.00  0.00     0.108 A 
BRANCH  14  18
HETATM   18  C9  UNL     1      39.839 -25.016  28.169  1.00  0.00     0.125 C 
HETATM   19  C10 UNL     1      40.394 -25.003  29.587  1.00  0.00     0.030 C 
HETATM   20  C11 UNL     1      40.796 -26.347  30.077  1.00  0.00     0.035 C 
HETATM   21  C12 UNL     1      41.407 -27.269  29.083  1.00  0.00     0.187 C 
HETATM   22  C16 UNL     1      40.817 -27.160  27.707  1.00  0.00     0.054 C 
HETATM   23  C17 UNL     1      40.867 -25.668  27.307  1.00  0.00     0.119 C 
HETATM   24  C18 UNL     1      40.600 -25.494  25.915  1.00  0.00     0.066 C 
HETATM   25  N5  UNL     1      40.403 -25.373  24.774  1.00  0.00    -0.197 NA
BRANCH  21  26
HETATM   26  N4  UNL     1      41.309 -28.629  29.538  1.00  0.00    -0.069 N 
ATOM     27  H42 UNL     1      40.556 -28.759  30.214  1.00  0.00     0.277 HD
ATOM     28  H41 UNL     1      40.960 -29.257  28.815  1.00  0.00     0.277 HD
BRANCH  26  29
HETATM   29  C13 UNL     1      42.617 -29.053  30.067  1.00  0.00     0.258 C 
BRANCH  29  30
HETATM   30  C14 UNL     1      43.702 -28.354  29.319  1.00  0.00     0.194 C 
BRANCH  30  31
HETATM   31  O1  UNL     1      44.889 -28.318  30.010  1.00  0.00    -0.394 OA
HETATM   32  C15 UNL     1      45.052 -29.451  30.771  1.00  0.00     0.201 C 
ENDBRANCH  30  31
ENDBRANCH  29  30
ENDBRANCH  26  29
ENDBRANCH  21  26
ENDBRANCH  14  18
BRANCH  17  33
HETATM   33  C21 UNL     1      39.714 -20.097  28.054  1.00  0.00     0.258 C 
HETATM   34  O2  UNL     1      40.764 -19.808  28.647  1.00  0.00    -0.267 OA
HETATM   35  N6  UNL     1      38.775 -19.081  27.758  1.00  0.00    -0.352 N 
ATOM     36  H6  UNL     1      37.907 -19.309  27.272  1.00  0.00     0.163 HD
BRANCH  35  37
HETATM   37  C22 UNL     1      39.062 -17.690  28.158  1.00  0.00     0.087 C 
HETATM   38  C23 UNL     1      39.766 -17.012  26.985  1.00  0.00     0.028 C 
HETATM   39  C24 UNL     1      39.361 -15.574  27.075  1.00  0.00     0.040 C 
HETATM   40  C25 UNL     1      37.910 -15.687  27.502  1.00  0.00     0.122 C 
HETATM   41  C26 UNL     1      36.998 -15.894  26.321  1.00  0.00     0.046 C 
HETATM   42  C27 UNL     1      37.836 -16.903  28.405  1.00  0.00     0.063 C 
BRANCH  40  43
HETATM   43  N7  UNL     1      37.508 -14.535  28.260  1.00  0.00    -0.071 N 
ATOM     44  H73 UNL     1      36.616 -14.162  27.934  1.00  0.00     0.275 HD
ATOM     45  H72 UNL     1      37.231 -14.786  29.209  1.00  0.00     0.275 HD
ATOM     46  H71 UNL     1      38.239 -13.824  28.256  1.00  0.00     0.275 HD
ENDBRANCH  40  43
ENDBRANCH  35  37
ENDBRANCH  17  33
ENDBRANCH  11  12
ENDBRANCH   8  11
BRANCH  10  47
HETATM   47  O3  UNL     1      37.758 -17.628  22.848  1.00  0.00    -0.354 OA
HETATM   48  C30 UNL     1      38.988 -17.131  23.325  1.00  0.00     0.210 C 
ENDBRANCH  10  47
ENDBRANCH   3   4
TORSDOF 12
ENDMDL
