MODEL 1
REMARK VINA RESULT: -8.072924569      0.000      0.000
REMARK  5 active torsions:
REMARK  status: ('A' for Active; 'I' for Inactive)
REMARK    1  A    between atoms: C2_2  and  N1_4 
REMARK    2  A    between atoms: N1_4  and  C13_19 
REMARK    3  A    between atoms: C5_6  and  O1_7 
REMARK    4  A    between atoms: C6_9  and  O2_10 
REMARK    5  A    between atoms: C13_19  and  C16_22 
ROOT
HETATM    1  N1  UNL     1      -3.304   3.138  12.578  1.00  0.00    -0.349 N 
HETATM    2  C4  UNL     1      -2.488   3.598  11.594  1.00  0.00     0.025 C 
HETATM    3  C5  UNL     1      -1.213   4.306  11.735  1.00  0.00     0.193 C 
HETATM    4  C6  UNL     1      -0.719   4.371  10.280  1.00  0.00     0.157 C 
HETATM    5  C7  UNL     1      -1.851   3.965   9.406  1.00  0.00     0.034 C 
HETATM    6  C8  UNL     1      -1.953   4.751   8.139  1.00  0.00     0.086 C 
HETATM    7  C9  UNL     1      -3.382   5.197   7.987  1.00  0.00     0.127 C 
HETATM    8  O3  UNL     1      -4.063   4.878   7.032  1.00  0.00    -0.298 OA
HETATM    9  C10 UNL     1      -3.955   6.050   9.058  1.00  0.00     0.079 C 
HETATM   10  C11 UNL     1      -3.238   5.670  10.348  1.00  0.00     0.018 C 
HETATM   11  C12 UNL     1      -3.068   4.189  10.328  1.00  0.00     0.041 C 
ENDROOT
BRANCH   1  12
HETATM   12  C2  UNL     1      -3.931   1.908  12.210  1.00  0.00    -0.018 C 
HETATM   13  C1  UNL     1      -3.115   0.759  11.814  1.00  0.00     0.063 C 
HETATM   14  C3  UNL     1      -5.181   2.026  11.380  1.00  0.00     0.063 C 
ENDBRANCH   1  12
BRANCH   1  15
HETATM   15  C13 UNL     1      -3.830   3.818  13.679  1.00  0.00     0.033 C 
HETATM   16  C14 UNL     1      -2.736   4.370  14.604  1.00  0.00     0.039 C 
HETATM   17  C15 UNL     1      -4.666   5.044  13.385  1.00  0.00     0.039 C 
BRANCH  15  18
HETATM   18  C16 UNL     1      -4.604   2.930  14.636  1.00  0.00     0.013 C 
HETATM   19  C17 UNL     1      -5.568   3.672  15.510  1.00  0.00     0.007 C 
HETATM   20  C18 UNL     1      -6.543   2.582  16.009  1.00  0.00     0.000 C 
HETATM   21  C19 UNL     1      -5.734   1.731  16.972  1.00  0.00     0.000 C 
HETATM   22  C20 UNL     1      -4.440   1.250  16.385  1.00  0.00     0.000 C 
HETATM   23  C21 UNL     1      -3.646   2.337  15.697  1.00  0.00     0.007 C 
ENDBRANCH  15  18
ENDBRANCH   1  15
BRANCH   3  24
HETATM   24  O1  UNL     1      -0.272   3.500  12.385  1.00  0.00    -0.387 OA
ATOM     25  H1  UNL     1      -0.367   3.568  13.327  1.00  0.00     0.210 HD
ENDBRANCH   3  24
BRANCH   4  26
HETATM   26  O2  UNL     1       0.343   3.522  10.037  1.00  0.00    -0.392 OA
ATOM     27  H2  UNL     1       1.066   3.954   9.596  1.00  0.00     0.210 HD
ENDBRANCH   4  26
TORSDOF 5
ENDMDL
MODEL 2
REMARK VINA RESULT: -7.762325011      2.547      5.644
REMARK  5 active torsions:
REMARK  status: ('A' for Active; 'I' for Inactive)
REMARK    1  A    between atoms: C2_2  and  N1_4 
REMARK    2  A    between atoms: N1_4  and  C13_19 
REMARK    3  A    between atoms: C5_6  and  O1_7 
REMARK    4  A    between atoms: C6_9  and  O2_10 
REMARK    5  A    between atoms: C13_19  and  C16_22 
ROOT
HETATM    1  N1  UNL     1      -2.812   4.286  11.453  1.00  0.00    -0.349 N 
HETATM    2  C4  UNL     1      -3.508   3.177  11.816  1.00  0.00     0.025 C 
HETATM    3  C5  UNL     1      -4.779   2.691  11.277  1.00  0.00     0.193 C 
HETATM    4  C6  UNL     1      -4.918   1.322  11.964  1.00  0.00     0.157 C 
HETATM    5  C7  UNL     1      -3.891   1.256  13.036  1.00  0.00     0.034 C 
HETATM    6  C8  UNL     1      -4.359   0.584  14.287  1.00  0.00     0.086 C 
HETATM    7  C9  UNL     1      -3.987   1.464  15.450  1.00  0.00     0.127 C 
HETATM    8  O3  UNL     1      -3.256   1.084  16.342  1.00  0.00    -0.298 OA
HETATM    9  C10 UNL     1      -4.545   2.840  15.478  1.00  0.00     0.079 C 
HETATM   10  C11 UNL     1      -4.739   3.261  14.026  1.00  0.00     0.018 C 
HETATM   11  C12 UNL     1      -3.564   2.747  13.265  1.00  0.00     0.041 C 
ENDROOT
BRANCH   1  12
HETATM   12  C2  UNL     1      -1.402   4.068  11.514  1.00  0.00    -0.018 C 
HETATM   13  C1  UNL     1      -0.832   2.812  11.027  1.00  0.00     0.063 C 
HETATM   14  C3  UNL     1      -0.712   4.555  12.761  1.00  0.00     0.063 C 
ENDBRANCH   1  12
BRANCH   1  15
HETATM   15  C13 UNL     1      -3.250   5.610  11.354  1.00  0.00     0.033 C 
HETATM   16  C14 UNL     1      -2.657   6.335  10.138  1.00  0.00     0.039 C 
HETATM   17  C15 UNL     1      -4.736   5.823  11.175  1.00  0.00     0.039 C 
BRANCH  15  18
HETATM   18  C16 UNL     1      -2.773   6.500  12.489  1.00  0.00     0.013 C 
HETATM   19  C17 UNL     1      -3.740   6.604  13.627  1.00  0.00     0.007 C 
HETATM   20  C18 UNL     1      -2.884   7.115  14.806  1.00  0.00     0.000 C 
HETATM   21  C19 UNL     1      -2.544   8.554  14.462  1.00  0.00     0.000 C 
HETATM   22  C20 UNL     1      -1.951   8.706  13.092  1.00  0.00     0.000 C 
HETATM   23  C21 UNL     1      -2.719   7.972  12.016  1.00  0.00     0.007 C 
ENDBRANCH  15  18
ENDBRANCH   1  15
BRANCH   3  24
HETATM   24  O1  UNL     1      -4.653   2.384   9.917  1.00  0.00    -0.387 OA
ATOM     25  H1  UNL     1      -5.507   2.262   9.521  1.00  0.00     0.210 HD
ENDBRANCH   3  24
BRANCH   4  26
HETATM   26  O2  UNL     1      -4.712   0.266  11.099  1.00  0.00    -0.392 OA
ATOM     27  H2  UNL     1      -4.340  -0.495  11.530  1.00  0.00     0.210 HD
ENDBRANCH   4  26
TORSDOF 5
ENDMDL
MODEL 3
REMARK VINA RESULT: -7.621478593      2.784      5.797
REMARK  5 active torsions:
REMARK  status: ('A' for Active; 'I' for Inactive)
REMARK    1  A    between atoms: C2_2  and  N1_4 
REMARK    2  A    between atoms: N1_4  and  C13_19 
REMARK    3  A    between atoms: C5_6  and  O1_7 
REMARK    4  A    between atoms: C6_9  and  O2_10 
REMARK    5  A    between atoms: C13_19  and  C16_22 
ROOT
HETATM    1  N1  UNL     1      -3.013   4.785  12.358  1.00  0.00    -0.349 N 
HETATM    2  C4  UNL     1      -3.560   3.545  12.258  1.00  0.00     0.025 C 
HETATM    3  C5  UNL     1      -4.609   3.092  11.342  1.00  0.00     0.193 C 
HETATM    4  C6  UNL     1      -4.631   1.577  11.602  1.00  0.00     0.157 C 
HETATM    5  C7  UNL     1      -3.820   1.322  12.821  1.00  0.00     0.034 C 
HETATM    6  C8  UNL     1      -4.383   0.268  13.718  1.00  0.00     0.086 C 
HETATM    7  C9  UNL     1      -4.387   0.810  15.122  1.00  0.00     0.127 C 
HETATM    8  O3  UNL     1      -3.775   0.276  16.025  1.00  0.00    -0.298 OA
HETATM    9  C10 UNL     1      -5.170   2.045  15.381  1.00  0.00     0.079 C 
HETATM   10  C11 UNL     1      -5.168   2.843  14.082  1.00  0.00     0.018 C 
HETATM   11  C12 UNL     1      -3.803   2.710  13.496  1.00  0.00     0.041 C 
ENDROOT
BRANCH   1  12
HETATM   12  C2  UNL     1      -1.621   4.723  12.674  1.00  0.00    -0.018 C 
HETATM   13  C1  UNL     1      -0.710   3.959  11.822  1.00  0.00     0.063 C 
HETATM   14  C3  UNL     1      -1.280   4.584  14.133  1.00  0.00     0.063 C 
ENDBRANCH   1  12
BRANCH   1  15
HETATM   15  C13 UNL     1      -3.648   6.020  12.511  1.00  0.00     0.033 C 
HETATM   16  C14 UNL     1      -4.013   6.663  11.166  1.00  0.00     0.039 C 
HETATM   17  C15 UNL     1      -4.969   6.019  13.247  1.00  0.00     0.039 C 
BRANCH  15  18
HETATM   18  C16 UNL     1      -2.763   7.094  13.120  1.00  0.00     0.013 C 
HETATM   19  C17 UNL     1      -3.220   7.568  14.465  1.00  0.00     0.007 C 
HETATM   20  C18 UNL     1      -1.972   8.245  15.072  1.00  0.00     0.000 C 
HETATM   21  C19 UNL     1      -1.772   9.517  14.267  1.00  0.00     0.000 C 
HETATM   22  C20 UNL     1      -1.746   9.276  12.787  1.00  0.00     0.000 C 
HETATM   23  C21 UNL     1      -2.876   8.399  12.296  1.00  0.00     0.007 C 
ENDBRANCH  15  18
ENDBRANCH   1  15
BRANCH   3  24
HETATM   24  O1  UNL     1      -4.187   3.209  10.013  1.00  0.00    -0.387 OA
ATOM     25  H1  UNL     1      -4.925   3.137   9.420  1.00  0.00     0.210 HD
ENDBRANCH   3  24
BRANCH   4  26
HETATM   26  O2  UNL     1      -4.092   0.847  10.561  1.00  0.00    -0.392 OA
ATOM     27  H2  UNL     1      -4.056  -0.084  10.745  1.00  0.00     0.210 HD
ENDBRANCH   4  26
TORSDOF 5
ENDMDL
MODEL 4
REMARK VINA RESULT: -7.540461489      2.332      6.077
REMARK  5 active torsions:
REMARK  status: ('A' for Active; 'I' for Inactive)
REMARK    1  A    between atoms: C2_2  and  N1_4 
REMARK    2  A    between atoms: N1_4  and  C13_19 
REMARK    3  A    between atoms: C5_6  and  O1_7 
REMARK    4  A    between atoms: C6_9  and  O2_10 
REMARK    5  A    between atoms: C13_19  and  C16_22 
ROOT
HETATM    1  N1  UNL     1      -3.288   4.673  12.118  1.00  0.00    -0.349 N 
HETATM    2  C4  UNL     1      -3.740   3.394  12.191  1.00  0.00     0.025 C 
HETATM    3  C5  UNL     1      -4.740   2.740  11.344  1.00  0.00     0.193 C 
HETATM    4  C6  UNL     1      -4.654   1.278  11.814  1.00  0.00     0.157 C 
HETATM    5  C7  UNL     1      -3.843   1.258  13.059  1.00  0.00     0.034 C 
HETATM    6  C8  UNL     1      -4.339   0.300  14.093  1.00  0.00     0.086 C 
HETATM    7  C9  UNL     1      -4.403   1.031  15.407  1.00  0.00     0.127 C 
HETATM    8  O3  UNL     1      -3.765   0.675  16.379  1.00  0.00    -0.298 OA
HETATM    9  C10 UNL     1      -5.278   2.227  15.488  1.00  0.00     0.079 C 
HETATM   10  C11 UNL     1      -5.317   2.834  14.090  1.00  0.00     0.018 C 
HETATM   11  C12 UNL     1      -3.939   2.724  13.533  1.00  0.00     0.041 C 
ENDROOT
BRANCH   1  12
HETATM   12  C2  UNL     1      -1.900   4.761  12.444  1.00  0.00    -0.018 C 
HETATM   13  C1  UNL     1      -0.919   3.979  11.690  1.00  0.00     0.063 C 
HETATM   14  C3  UNL     1      -1.568   4.819  13.911  1.00  0.00     0.063 C 
ENDBRANCH   1  12
BRANCH   1  15
HETATM   15  C13 UNL     1      -4.015   5.866  12.095  1.00  0.00     0.033 C 
HETATM   16  C14 UNL     1      -5.170   5.870  13.105  1.00  0.00     0.039 C 
HETATM   17  C15 UNL     1      -3.261   7.128  12.449  1.00  0.00     0.039 C 
BRANCH  15  18
HETATM   18  C16 UNL     1      -4.761   6.105  10.793  1.00  0.00     0.013 C 
HETATM   19  C17 UNL     1      -3.920   6.710   9.713  1.00  0.00     0.007 C 
HETATM   20  C18 UNL     1      -4.700   6.411   8.413  1.00  0.00     0.000 C 
HETATM   21  C19 UNL     1      -5.935   7.293   8.475  1.00  0.00     0.000 C 
HETATM   22  C20 UNL     1      -6.697   7.148   9.758  1.00  0.00     0.000 C 
HETATM   23  C21 UNL     1      -5.823   7.212  10.992  1.00  0.00     0.007 C 
ENDBRANCH  15  18
ENDBRANCH   1  15
BRANCH   3  24
HETATM   24  O1  UNL     1      -4.309   2.701  10.013  1.00  0.00    -0.387 OA
ATOM     25  H1  UNL     1      -4.203   1.804   9.722  1.00  0.00     0.210 HD
ENDBRANCH   3  24
BRANCH   4  26
HETATM   26  O2  UNL     1      -4.048   0.453  10.887  1.00  0.00    -0.392 OA
ATOM     27  H2  UNL     1      -3.600  -0.283  11.288  1.00  0.00     0.210 HD
ENDBRANCH   4  26
TORSDOF 5
ENDMDL
MODEL 5
REMARK VINA RESULT: -7.479752659      1.234      1.454
REMARK  5 active torsions:
REMARK  status: ('A' for Active; 'I' for Inactive)
REMARK    1  A    between atoms: C2_2  and  N1_4 
REMARK    2  A    between atoms: N1_4  and  C13_19 
REMARK    3  A    between atoms: C5_6  and  O1_7 
REMARK    4  A    between atoms: C6_9  and  O2_10 
REMARK    5  A    between atoms: C13_19  and  C16_22 
ROOT
HETATM    1  N1  UNL     1      -3.869   3.090  13.310  1.00  0.00    -0.349 N 
HETATM    2  C4  UNL     1      -3.256   3.800  12.327  1.00  0.00     0.025 C 
HETATM    3  C5  UNL     1      -1.958   4.476  12.376  1.00  0.00     0.193 C 
HETATM    4  C6  UNL     1      -1.768   4.913  10.914  1.00  0.00     0.157 C 
HETATM    5  C7  UNL     1      -3.066   4.717  10.218  1.00  0.00     0.034 C 
HETATM    6  C8  UNL     1      -3.399   5.793   9.235  1.00  0.00     0.086 C 
HETATM    7  C9  UNL     1      -4.815   6.233   9.496  1.00  0.00     0.127 C 
HETATM    8  O3  UNL     1      -5.685   6.149   8.652  1.00  0.00    -0.298 OA
HETATM    9  C10 UNL     1      -5.130   6.778  10.840  1.00  0.00     0.079 C 
HETATM   10  C11 UNL     1      -4.178   6.101  11.819  1.00  0.00     0.018 C 
HETATM   11  C12 UNL     1      -4.063   4.677  11.395  1.00  0.00     0.041 C 
ENDROOT
BRANCH   1  12
HETATM   12  C2  UNL     1      -4.597   1.979  12.784  1.00  0.00    -0.018 C 
HETATM   13  C1  UNL     1      -4.023   0.634  12.842  1.00  0.00     0.063 C 
HETATM   14  C3  UNL     1      -5.334   2.223  11.495  1.00  0.00     0.063 C 
ENDBRANCH   1  12
BRANCH   1  15
HETATM   15  C13 UNL     1      -4.138   3.462  14.630  1.00  0.00     0.033 C 
HETATM   16  C14 UNL     1      -2.931   3.253  15.556  1.00  0.00     0.039 C 
HETATM   17  C15 UNL     1      -4.493   4.912  14.870  1.00  0.00     0.039 C 
BRANCH  15  18
HETATM   18  C16 UNL     1      -5.184   2.595  15.310  1.00  0.00     0.013 C 
HETATM   19  C17 UNL     1      -6.144   3.361  16.167  1.00  0.00     0.007 C 
HETATM   20  C18 UNL     1      -7.344   2.404  16.340  1.00  0.00     0.000 C 
HETATM   21  C19 UNL     1      -6.841   1.286  17.236  1.00  0.00     0.000 C 
HETATM   22  C20 UNL     1      -5.563   0.671  16.746  1.00  0.00     0.000 C 
HETATM   23  C21 UNL     1      -4.509   1.687  16.367  1.00  0.00     0.007 C 
ENDBRANCH  15  18
ENDBRANCH   1  15
BRANCH   3  24
HETATM   24  O1  UNL     1      -0.930   3.553  12.597  1.00  0.00    -0.387 OA
ATOM     25  H1  UNL     1      -1.071   2.765  12.085  1.00  0.00     0.210 HD
ENDBRANCH   3  24
BRANCH   4  26
HETATM   26  O2  UNL     1      -0.805   4.175  10.255  1.00  0.00    -0.392 OA
ATOM     27  H2  UNL     1      -0.140   4.718   9.848  1.00  0.00     0.210 HD
ENDBRANCH   4  26
TORSDOF 5
ENDMDL
