MODEL 1
REMARK VINA RESULT: -6.849149457      0.000      0.000
REMARK  6 active torsions:
REMARK  status: ('A' for Active; 'I' for Inactive)
REMARK    1  A    between atoms: C3_3  and  C4_4 
REMARK    2  A    between atoms: C5_5  and  C6_6 
REMARK    3  A    between atoms: C6_6  and  N1_7 
REMARK    4  A    between atoms: C12_18  and  N4_19 
REMARK    5  A    between atoms: N4_19  and  C13_21 
REMARK    6  A    between atoms: C13_21  and  C16_24 
ROOT
HETATM    1  C1  UNL     1      -4.215   0.128  11.467  1.00  0.00     0.112 C 
HETATM    2  C2  UNL     1      -4.115   1.409  12.168  1.00  0.00    -0.105 C 
HETATM    3  C3  UNL     1      -4.042   2.458  12.762  1.00  0.00    -0.064 C 
ENDROOT
BRANCH   3   4
HETATM    4  C4  UNL     1      -3.976   3.699  13.479  1.00  0.00     0.057 A 
HETATM    5  C5  UNL     1      -4.835   4.153  14.491  1.00  0.00     0.059 A 
HETATM    6  N2  UNL     1      -4.413   5.346  14.878  1.00  0.00    -0.342 N 
HETATM    7  C11 UNL     1      -3.310   5.689  14.155  1.00  0.00     0.134 A 
ATOM      8  H2  UNL     1      -4.846   5.919  15.602  1.00  0.00     0.167 HD
HETATM    9  N3  UNL     1      -2.508   6.756  14.140  1.00  0.00    -0.176 N 
HETATM   10  C19 UNL     1      -3.033   4.665  13.280  1.00  0.00     0.045 A 
HETATM   11  C12 UNL     1      -1.450   6.879  13.317  1.00  0.00     0.680 A 
ATOM     12  H3  UNL     1      -2.709   7.520  14.786  1.00  0.00     0.186 HD
HETATM   13  N5  UNL     1      -1.188   5.880  12.472  1.00  0.00    -0.201 N 
HETATM   14  C18 UNL     1      -1.967   4.755  12.431  1.00  0.00     0.123 A 
ATOM     15  H5  UNL     1      -0.389   5.957  11.842  1.00  0.00     0.183 HD
BRANCH   5  16
HETATM   16  C6  UNL     1      -5.965   3.327  14.950  1.00  0.00     0.331 C 
BRANCH  16  17
HETATM   17  N1  UNL     1      -5.791   2.785  16.273  1.00  0.00     0.098 N 
HETATM   18  C7  UNL     1      -6.979   2.316  16.857  1.00  0.00     0.299 C 
HETATM   19  C8  UNL     1      -7.071   0.843  17.101  1.00  0.00     0.198 C 
HETATM   20  O1  UNL     1      -5.901   0.149  17.052  1.00  0.00    -0.388 OA
HETATM   21  C9  UNL     1      -5.060   0.529  16.011  1.00  0.00     0.198 C 
HETATM   22  C10 UNL     1      -4.640   1.956  16.312  1.00  0.00     0.299 C 
ENDBRANCH  16  17
ENDBRANCH   5  16
BRANCH  11  23
HETATM   23  N4  UNL     1      -0.760   7.923  13.383  1.00  0.00    -0.217 N 
ATOM     24  H4  UNL     1       0.137   7.809  13.853  1.00  0.00     0.178 HD
BRANCH  23  25
HETATM   25  C13 UNL     1      -1.019   9.250  12.909  1.00  0.00     0.039 C 
HETATM   26  C14 UNL     1      -2.164   9.325  11.924  1.00  0.00     0.038 C 
HETATM   27  C15 UNL     1       0.235   9.786  12.262  1.00  0.00     0.038 C 
BRANCH  25  28
HETATM   28  C16 UNL     1      -1.362  10.080  14.144  1.00  0.00     0.026 C 
HETATM   29  C17 UNL     1      -0.334   9.969  15.218  1.00  0.00     0.007 C 
ENDBRANCH  25  28
ENDBRANCH  23  25
ENDBRANCH  11  23
ENDBRANCH   3   4
TORSDOF 6
ENDMDL
MODEL 2
REMARK VINA RESULT: -6.768688315      4.768      8.346
REMARK  6 active torsions:
REMARK  status: ('A' for Active; 'I' for Inactive)
REMARK    1  A    between atoms: C3_3  and  C4_4 
REMARK    2  A    between atoms: C5_5  and  C6_6 
REMARK    3  A    between atoms: C6_6  and  N1_7 
REMARK    4  A    between atoms: C12_18  and  N4_19 
REMARK    5  A    between atoms: N4_19  and  C13_21 
REMARK    6  A    between atoms: C13_21  and  C16_24 
ROOT
HETATM    1  C1  UNL     1      -3.108   6.439   6.136  1.00  0.00     0.112 C 
HETATM    2  C2  UNL     1      -2.663   5.647   7.284  1.00  0.00    -0.105 C 
HETATM    3  C3  UNL     1      -2.289   4.981   8.218  1.00  0.00    -0.064 C 
ENDROOT
BRANCH   3   4
HETATM    4  C4  UNL     1      -1.844   4.169   9.314  1.00  0.00     0.057 A 
HETATM    5  C5  UNL     1      -0.553   3.671   9.546  1.00  0.00     0.059 A 
HETATM    6  N2  UNL     1      -0.582   2.972  10.669  1.00  0.00    -0.342 N 
HETATM    7  C11 UNL     1      -1.846   2.995  11.180  1.00  0.00     0.134 A 
ATOM      8  H2  UNL     1       0.215   2.492  11.086  1.00  0.00     0.167 HD
HETATM    9  N3  UNL     1      -2.414   2.466  12.266  1.00  0.00    -0.176 N 
HETATM   10  C19 UNL     1      -2.637   3.740  10.339  1.00  0.00     0.045 A 
HETATM   11  C12 UNL     1      -3.715   2.625  12.576  1.00  0.00     0.680 A 
ATOM     12  H3  UNL     1      -1.832   1.911  12.894  1.00  0.00     0.186 HD
HETATM   13  N5  UNL     1      -4.475   3.350  11.754  1.00  0.00    -0.201 N 
HETATM   14  C18 UNL     1      -3.961   3.922  10.622  1.00  0.00     0.123 A 
ATOM     15  H5  UNL     1      -5.463   3.481  11.974  1.00  0.00     0.183 HD
BRANCH   5  16
HETATM   16  C6  UNL     1       0.549   3.967   8.615  1.00  0.00     0.331 C 
BRANCH  16  17
HETATM   17  N1  UNL     1       1.830   4.114   9.258  1.00  0.00     0.098 N 
HETATM   18  C7  UNL     1       2.915   3.707   8.465  1.00  0.00     0.299 C 
HETATM   19  C8  UNL     1       3.871   4.776   8.037  1.00  0.00     0.198 C 
HETATM   20  O1  UNL     1       3.799   5.955   8.713  1.00  0.00    -0.388 OA
HETATM   21  C9  UNL     1       2.502   6.384   8.967  1.00  0.00     0.198 C 
HETATM   22  C10 UNL     1       1.903   5.367   9.920  1.00  0.00     0.299 C 
ENDBRANCH  16  17
ENDBRANCH   5  16
BRANCH  11  23
HETATM   23  N4  UNL     1      -4.150   2.086  13.620  1.00  0.00    -0.217 N 
ATOM     24  H4  UNL     1      -4.440   1.115  13.506  1.00  0.00     0.178 HD
BRANCH  23  25
HETATM   25  C13 UNL     1      -4.309   2.602  14.946  1.00  0.00     0.039 C 
HETATM   26  C14 UNL     1      -3.503   3.854  15.207  1.00  0.00     0.038 C 
HETATM   27  C15 UNL     1      -3.907   1.533  15.933  1.00  0.00     0.038 C 
BRANCH  25  28
HETATM   28  C16 UNL     1      -5.795   2.918  15.101  1.00  0.00     0.026 C 
HETATM   29  C17 UNL     1      -6.063   4.379  15.235  1.00  0.00     0.007 C 
ENDBRANCH  25  28
ENDBRANCH  23  25
ENDBRANCH  11  23
ENDBRANCH   3   4
TORSDOF 6
ENDMDL
MODEL 3
REMARK VINA RESULT: -6.710949562      3.082      7.999
REMARK  6 active torsions:
REMARK  status: ('A' for Active; 'I' for Inactive)
REMARK    1  A    between atoms: C3_3  and  C4_4 
REMARK    2  A    between atoms: C5_5  and  C6_6 
REMARK    3  A    between atoms: C6_6  and  N1_7 
REMARK    4  A    between atoms: C12_18  and  N4_19 
REMARK    5  A    between atoms: N4_19  and  C13_21 
REMARK    6  A    between atoms: C13_21  and  C16_24 
ROOT
HETATM    1  C1  UNL     1      -1.927  10.171  14.140  1.00  0.00     0.112 C 
HETATM    2  C2  UNL     1      -2.167   8.734  14.004  1.00  0.00    -0.105 C 
HETATM    3  C3  UNL     1      -2.353   7.545  13.907  1.00  0.00    -0.064 C 
ENDROOT
BRANCH   3   4
HETATM    4  C4  UNL     1      -2.554   6.128  13.805  1.00  0.00     0.057 A 
HETATM    5  C5  UNL     1      -1.721   5.184  13.187  1.00  0.00     0.059 A 
HETATM    6  N2  UNL     1      -2.282   3.994  13.325  1.00  0.00    -0.342 N 
HETATM    7  C11 UNL     1      -3.453   4.125  14.011  1.00  0.00     0.134 A 
ATOM      8  H2  UNL     1      -1.900   3.117  12.973  1.00  0.00     0.167 HD
HETATM    9  N3  UNL     1      -4.391   3.265  14.413  1.00  0.00    -0.176 N 
HETATM   10  C19 UNL     1      -3.628   5.455  14.313  1.00  0.00     0.045 A 
HETATM   11  C12 UNL     1      -5.492   3.632  15.095  1.00  0.00     0.680 A 
ATOM     12  H3  UNL     1      -4.267   2.277  14.191  1.00  0.00     0.186 HD
HETATM   13  N5  UNL     1      -5.654   4.925  15.384  1.00  0.00    -0.201 N 
HETATM   14  C18 UNL     1      -4.733   5.863  15.003  1.00  0.00     0.123 A 
ATOM     15  H5  UNL     1      -6.482   5.220  15.901  1.00  0.00     0.183 HD
BRANCH   5  16
HETATM   16  C6  UNL     1      -0.461   5.595  12.544  1.00  0.00     0.331 C 
BRANCH  16  17
HETATM   17  N1  UNL     1      -0.344   5.171  11.172  1.00  0.00     0.098 N 
HETATM   18  C7  UNL     1      -0.194   6.229  10.260  1.00  0.00     0.299 C 
HETATM   19  C8  UNL     1       1.115   6.314   9.540  1.00  0.00     0.198 C 
HETATM   20  O1  UNL     1       1.895   5.199   9.575  1.00  0.00    -0.388 OA
HETATM   21  C9  UNL     1       1.939   4.576  10.818  1.00  0.00     0.198 C 
HETATM   22  C10 UNL     1       0.535   4.062  11.077  1.00  0.00     0.299 C 
ENDBRANCH  16  17
ENDBRANCH   5  16
BRANCH  11  23
HETATM   23  N4  UNL     1      -6.313   2.745  15.426  1.00  0.00    -0.217 N 
ATOM     24  H4  UNL     1      -7.052   2.576  14.744  1.00  0.00     0.178 HD
BRANCH  23  25
HETATM   25  C13 UNL     1      -6.390   1.929  16.600  1.00  0.00     0.039 C 
HETATM   26  C14 UNL     1      -5.327   0.855  16.659  1.00  0.00     0.038 C 
HETATM   27  C15 UNL     1      -7.754   1.286  16.655  1.00  0.00     0.038 C 
BRANCH  25  28
HETATM   28  C16 UNL     1      -6.215   2.876  17.786  1.00  0.00     0.026 C 
HETATM   29  C17 UNL     1      -6.190   2.163  19.095  1.00  0.00     0.007 C 
ENDBRANCH  25  28
ENDBRANCH  23  25
ENDBRANCH  11  23
ENDBRANCH   3   4
TORSDOF 6
ENDMDL
MODEL 4
REMARK VINA RESULT: -6.702835632      0.825      1.166
REMARK  6 active torsions:
REMARK  status: ('A' for Active; 'I' for Inactive)
REMARK    1  A    between atoms: C3_3  and  C4_4 
REMARK    2  A    between atoms: C5_5  and  C6_6 
REMARK    3  A    between atoms: C6_6  and  N1_7 
REMARK    4  A    between atoms: C12_18  and  N4_19 
REMARK    5  A    between atoms: N4_19  and  C13_21 
REMARK    6  A    between atoms: C13_21  and  C16_24 
ROOT
HETATM    1  C1  UNL     1      -3.331   0.250  11.460  1.00  0.00     0.112 C 
HETATM    2  C2  UNL     1      -3.543   1.537  12.125  1.00  0.00    -0.105 C 
HETATM    3  C3  UNL     1      -3.700   2.604  12.667  1.00  0.00    -0.064 C 
ENDROOT
BRANCH   3   4
HETATM    4  C4  UNL     1      -3.863   3.874  13.314  1.00  0.00     0.057 A 
HETATM    5  C5  UNL     1      -4.836   4.241  14.255  1.00  0.00     0.059 A 
HETATM    6  N2  UNL     1      -4.622   5.502  14.592  1.00  0.00    -0.342 N 
HETATM    7  C11 UNL     1      -3.543   5.974  13.905  1.00  0.00     0.134 A 
ATOM      8  H2  UNL     1      -5.177   6.038  15.259  1.00  0.00     0.167 HD
HETATM    9  N3  UNL     1      -2.911   7.149  13.868  1.00  0.00    -0.176 N 
HETATM   10  C19 UNL     1      -3.065   4.962  13.106  1.00  0.00     0.045 A 
HETATM   11  C12 UNL     1      -1.837   7.392  13.093  1.00  0.00     0.680 A 
ATOM     12  H3  UNL     1      -3.261   7.905  14.458  1.00  0.00     0.186 HD
HETATM   13  N5  UNL     1      -1.380   6.404  12.321  1.00  0.00    -0.201 N 
HETATM   14  C18 UNL     1      -1.978   5.172  12.307  1.00  0.00     0.123 A 
ATOM     15  H5  UNL     1      -0.567   6.570  11.728  1.00  0.00     0.183 HD
BRANCH   5  16
HETATM   16  C6  UNL     1      -5.855   3.276  14.703  1.00  0.00     0.331 C 
BRANCH  16  17
HETATM   17  N1  UNL     1      -5.666   2.818  16.056  1.00  0.00     0.098 N 
HETATM   18  C7  UNL     1      -6.841   2.352  16.669  1.00  0.00     0.299 C 
HETATM   19  C8  UNL     1      -6.892   0.893  16.999  1.00  0.00     0.198 C 
HETATM   20  O1  UNL     1      -5.703   0.231  16.990  1.00  0.00    -0.388 OA
HETATM   21  C9  UNL     1      -4.873   0.572  15.928  1.00  0.00     0.198 C 
HETATM   22  C10 UNL     1      -4.492   2.025  16.142  1.00  0.00     0.299 C 
ENDBRANCH  16  17
ENDBRANCH   5  16
BRANCH  11  23
HETATM   23  N4  UNL     1      -1.318   8.531  13.132  1.00  0.00    -0.217 N 
ATOM     24  H4  UNL     1      -0.971   8.869  12.235  1.00  0.00     0.178 HD
BRANCH  23  25
HETATM   25  C13 UNL     1      -1.127   9.439  14.223  1.00  0.00     0.039 C 
HETATM   26  C14 UNL     1      -1.383   8.816  15.577  1.00  0.00     0.038 C 
HETATM   27  C15 UNL     1      -2.046  10.622  14.035  1.00  0.00     0.038 C 
BRANCH  25  28
HETATM   28  C16 UNL     1       0.328   9.895  14.145  1.00  0.00     0.026 C 
HETATM   29  C17 UNL     1       0.762  10.649  15.355  1.00  0.00     0.007 C 
ENDBRANCH  25  28
ENDBRANCH  23  25
ENDBRANCH  11  23
ENDBRANCH   3   4
TORSDOF 6
ENDMDL
MODEL 5
REMARK VINA RESULT: -6.656361888      4.784      8.466
REMARK  6 active torsions:
REMARK  status: ('A' for Active; 'I' for Inactive)
REMARK    1  A    between atoms: C3_3  and  C4_4 
REMARK    2  A    between atoms: C5_5  and  C6_6 
REMARK    3  A    between atoms: C6_6  and  N1_7 
REMARK    4  A    between atoms: C12_18  and  N4_19 
REMARK    5  A    between atoms: N4_19  and  C13_21 
REMARK    6  A    between atoms: C13_21  and  C16_24 
ROOT
HETATM    1  C1  UNL     1      -3.212   6.411   6.220  1.00  0.00     0.112 C 
HETATM    2  C2  UNL     1      -2.713   5.570   7.309  1.00  0.00    -0.105 C 
HETATM    3  C3  UNL     1      -2.307   4.890   8.219  1.00  0.00    -0.064 C 
ENDROOT
BRANCH   3   4
HETATM    4  C4  UNL     1      -1.819   4.102   9.315  1.00  0.00     0.057 A 
HETATM    5  C5  UNL     1      -0.506   3.664   9.541  1.00  0.00     0.059 A 
HETATM    6  N2  UNL     1      -0.498   2.967  10.666  1.00  0.00    -0.342 N 
HETATM    7  C11 UNL     1      -1.759   2.933  11.183  1.00  0.00     0.134 A 
ATOM      8  H2  UNL     1       0.322   2.525  11.080  1.00  0.00     0.167 HD
HETATM    9  N3  UNL     1      -2.297   2.381  12.273  1.00  0.00    -0.176 N 
HETATM   10  C19 UNL     1      -2.588   3.639  10.344  1.00  0.00     0.045 A 
HETATM   11  C12 UNL     1      -3.602   2.481  12.590  1.00  0.00     0.680 A 
ATOM     12  H3  UNL     1      -1.687   1.855  12.900  1.00  0.00     0.186 HD
HETATM   13  N5  UNL     1      -4.399   3.169  11.769  1.00  0.00    -0.201 N 
HETATM   14  C18 UNL     1      -3.917   3.761  10.634  1.00  0.00     0.123 A 
ATOM     15  H5  UNL     1      -5.390   3.255  11.994  1.00  0.00     0.183 HD
BRANCH   5  16
HETATM   16  C6  UNL     1       0.577   4.008   8.604  1.00  0.00     0.331 C 
BRANCH  16  17
HETATM   17  N1  UNL     1       1.872   4.115   9.226  1.00  0.00     0.098 N 
HETATM   18  C7  UNL     1       2.937   3.742   8.391  1.00  0.00     0.299 C 
HETATM   19  C8  UNL     1       3.891   4.825   7.996  1.00  0.00     0.198 C 
HETATM   20  O1  UNL     1       3.842   5.969   8.732  1.00  0.00    -0.388 OA
HETATM   21  C9  UNL     1       2.553   6.393   9.035  1.00  0.00     0.198 C 
HETATM   22  C10 UNL     1       1.967   5.332   9.949  1.00  0.00     0.299 C 
ENDBRANCH  16  17
ENDBRANCH   5  16
BRANCH  11  23
HETATM   23  N4  UNL     1      -4.007   1.925  13.636  1.00  0.00    -0.217 N 
ATOM     24  H4  UNL     1      -4.133   0.916  13.558  1.00  0.00     0.178 HD
BRANCH  23  25
HETATM   25  C13 UNL     1      -4.323   2.466  14.924  1.00  0.00     0.039 C 
HETATM   26  C14 UNL     1      -5.743   2.977  15.031  1.00  0.00     0.038 C 
HETATM   27  C15 UNL     1      -3.363   3.590  15.227  1.00  0.00     0.038 C 
BRANCH  25  28
HETATM   28  C16 UNL     1      -4.121   1.328  15.922  1.00  0.00     0.026 C 
HETATM   29  C17 UNL     1      -5.363   0.995  16.677  1.00  0.00     0.007 C 
ENDBRANCH  25  28
ENDBRANCH  23  25
ENDBRANCH  11  23
ENDBRANCH   3   4
TORSDOF 6
ENDMDL
