MODEL 1
REMARK VINA RESULT: -7.284047353      0.000      0.000
REMARK  3 active torsions:
REMARK  status: ('A' for Active; 'I' for Inactive)
REMARK    1  A    between atoms: C4_5  and  N1_6 
REMARK    2  A    between atoms: C5_7  and  C6_8 
REMARK    3  A    between atoms: C10_20  and  C11_21 
ROOT
HETATM    1  N1  UNL     1     -29.891 -10.323  -1.995  1.00  0.00    -0.267 N 
HETATM    2  C5  UNL     1     -28.619 -10.623  -1.697  1.00  0.00     0.157 A 
HETATM    3  N3  UNL     1     -28.278 -11.643  -2.567  1.00  0.00    -0.282 N 
ATOM      4  H3  UNL     1     -27.369 -12.104  -2.598  1.00  0.00     0.188 HD
HETATM    5  N4  UNL     1     -29.264 -11.922  -3.323  1.00  0.00    -0.286 N 
ATOM      6  H4  UNL     1     -29.263 -12.637  -4.051  1.00  0.00     0.188 HD
HETATM    7  C10 UNL     1     -30.321 -11.117  -3.010  1.00  0.00     0.114 A 
ENDROOT
BRANCH   7   8
HETATM    8  C11 UNL     1     -31.587 -11.150  -3.727  1.00  0.00     0.021 C 
HETATM    9  C12 UNL     1     -31.485 -12.276  -4.813  1.00  0.00     0.022 C 
HETATM   10  C13 UNL     1     -32.658 -12.251  -5.732  1.00  0.00    -0.013 C 
HETATM   11  C14 UNL     1     -33.951 -12.564  -4.962  1.00  0.00     0.009 C 
HETATM   12  C18 UNL     1     -32.910 -10.946  -6.425  1.00  0.00     0.009 C 
HETATM   13  C15 UNL     1     -34.020 -11.543  -3.871  1.00  0.00    -0.013 C 
HETATM   14  C16 UNL     1     -34.189 -10.158  -4.458  1.00  0.00     0.009 C 
HETATM   15  C20 UNL     1     -32.798 -11.521  -2.966  1.00  0.00     0.022 C 
HETATM   16  C17 UNL     1     -33.009  -9.866  -5.338  1.00  0.00    -0.013 C 
HETATM   17  C19 UNL     1     -31.697  -9.910  -4.600  1.00  0.00     0.022 C 
ENDBRANCH   7   8
BRANCH   1  18
HETATM   18  C4  UNL     1     -30.712  -9.408  -1.300  1.00  0.00     0.114 A 
HETATM   19  C3  UNL     1     -30.789  -8.093  -1.818  1.00  0.00     0.051 A 
HETATM   20  C2  UNL     1     -31.565  -7.112  -1.249  1.00  0.00     0.029 A 
HETATM   21  C1  UNL     1     -32.300  -7.420  -0.126  1.00  0.00     0.049 A 
HETATM   22 CL1  UNL     1     -33.263  -6.199   0.633  1.00  0.00    -0.083 Cl
HETATM   23  C21 UNL     1     -32.225  -8.713   0.390  1.00  0.00     0.113 A 
HETATM   24  N5  UNL     1     -31.452  -9.607  -0.215  1.00  0.00    -0.350 N 
ATOM     25  H5  UNL     1     -31.425 -10.541   0.194  1.00  0.00     0.166 HD
ENDBRANCH   1  18
BRANCH   2  26
HETATM   26  C6  UNL     1     -27.715 -10.087  -0.694  1.00  0.00     0.081 A 
HETATM   27  C7  UNL     1     -27.643  -8.857  -0.106  1.00  0.00     0.060 A 
HETATM   28  C8  UNL     1     -26.527  -8.821   0.739  1.00  0.00     0.074 A 
HETATM   29 CL2  UNL     1     -25.991  -7.466   1.711  1.00  0.00    -0.081 Cl
HETATM   30  C9  UNL     1     -25.921 -10.082   0.636  1.00  0.00     0.126 A 
HETATM   31 CL3  UNL     1     -24.482 -10.544   1.495  1.00  0.00    -0.063 Cl
HETATM   32  N2  UNL     1     -26.647 -10.811  -0.216  1.00  0.00    -0.342 N 
ATOM     33  H2  UNL     1     -26.437 -11.774  -0.477  1.00  0.00     0.167 HD
ENDBRANCH   2  26
TORSDOF 3
ENDMDL
MODEL 2
REMARK VINA RESULT: -7.208403064      3.109      6.742
REMARK  3 active torsions:
REMARK  status: ('A' for Active; 'I' for Inactive)
REMARK    1  A    between atoms: C4_5  and  N1_6 
REMARK    2  A    between atoms: C5_7  and  C6_8 
REMARK    3  A    between atoms: C10_20  and  C11_21 
ROOT
HETATM    1  N1  UNL     1     -29.830  -9.985  -1.489  1.00  0.00    -0.267 N 
HETATM    2  C5  UNL     1     -29.898 -11.262  -1.891  1.00  0.00     0.157 A 
HETATM    3  N3  UNL     1     -28.676 -11.811  -1.548  1.00  0.00    -0.282 N 
ATOM      4  H3  UNL     1     -28.401 -12.778  -1.721  1.00  0.00     0.188 HD
HETATM    5  N4  UNL     1     -27.944 -10.935  -0.984  1.00  0.00    -0.286 N 
ATOM      6  H4  UNL     1     -26.998 -11.094  -0.637  1.00  0.00     0.188 HD
HETATM    7  C10 UNL     1     -28.620  -9.751  -0.916  1.00  0.00     0.114 A 
ENDROOT
BRANCH   7   8
HETATM    8  C11 UNL     1     -28.078  -8.560  -0.281  1.00  0.00     0.021 C 
HETATM    9  C12 UNL     1     -26.706  -8.953   0.368  1.00  0.00     0.022 C 
HETATM   10  C13 UNL     1     -26.170  -7.850   1.216  1.00  0.00    -0.013 C 
HETATM   11  C14 UNL     1     -25.858  -6.615   0.356  1.00  0.00     0.009 C 
HETATM   12  C18 UNL     1     -27.084  -7.364   2.299  1.00  0.00     0.009 C 
HETATM   13  C15 UNL     1     -27.142  -6.276  -0.332  1.00  0.00    -0.013 C 
HETATM   14  C16 UNL     1     -28.183  -5.848   0.680  1.00  0.00     0.009 C 
HETATM   15  C20 UNL     1     -27.728  -7.417  -1.149  1.00  0.00     0.022 C 
HETATM   16  C17 UNL     1     -28.415  -6.983   1.635  1.00  0.00    -0.013 C 
HETATM   17  C19 UNL     1     -28.903  -8.235   0.955  1.00  0.00     0.022 C 
ENDBRANCH   7   8
BRANCH   1  18
HETATM   18  C4  UNL     1     -30.805  -8.990  -1.719  1.00  0.00     0.114 A 
HETATM   19  C3  UNL     1     -30.710  -8.267  -2.932  1.00  0.00     0.051 A 
HETATM   20  C2  UNL     1     -31.606  -7.286  -3.286  1.00  0.00     0.029 A 
HETATM   21  C1  UNL     1     -32.638  -6.992  -2.425  1.00  0.00     0.049 A 
HETATM   22 CL1  UNL     1     -33.764  -5.741  -2.827  1.00  0.00    -0.083 Cl
HETATM   23  C21 UNL     1     -32.734  -7.699  -1.226  1.00  0.00     0.113 A 
HETATM   24  N5  UNL     1     -31.831  -8.633  -0.953  1.00  0.00    -0.350 N 
ATOM     25  H5  UNL     1     -31.935  -9.127  -0.067  1.00  0.00     0.166 HD
ENDBRANCH   1  18
BRANCH   2  26
HETATM   26  C6  UNL     1     -30.950 -12.001  -2.565  1.00  0.00     0.081 A 
HETATM   27  C7  UNL     1     -31.754 -11.674  -3.619  1.00  0.00     0.060 A 
HETATM   28  C8  UNL     1     -32.673 -12.710  -3.830  1.00  0.00     0.074 A 
HETATM   29 CL2  UNL     1     -33.926 -12.767  -5.054  1.00  0.00    -0.081 Cl
HETATM   30  C9  UNL     1     -32.396 -13.680  -2.855  1.00  0.00     0.126 A 
HETATM   31 CL3  UNL     1     -33.272 -15.171  -2.689  1.00  0.00    -0.063 Cl
HETATM   32  N2  UNL     1     -31.370 -13.236  -2.124  1.00  0.00    -0.342 N 
ATOM     33  H2  UNL     1     -30.954 -13.743  -1.343  1.00  0.00     0.167 HD
ENDBRANCH   2  26
TORSDOF 3
ENDMDL
MODEL 3
REMARK VINA RESULT: -7.145881488      3.265      6.642
REMARK  3 active torsions:
REMARK  status: ('A' for Active; 'I' for Inactive)
REMARK    1  A    between atoms: C4_5  and  N1_6 
REMARK    2  A    between atoms: C5_7  and  C6_8 
REMARK    3  A    between atoms: C10_20  and  C11_21 
ROOT
HETATM    1  N1  UNL     1     -29.663 -10.951  -1.110  1.00  0.00    -0.267 N 
HETATM    2  C5  UNL     1     -29.631 -12.019  -1.919  1.00  0.00     0.157 A 
HETATM    3  N3  UNL     1     -28.324 -12.092  -2.365  1.00  0.00    -0.282 N 
ATOM      4  H3  UNL     1     -27.964 -12.798  -3.006  1.00  0.00     0.188 HD
HETATM    5  N4  UNL     1     -27.635 -11.148  -1.859  1.00  0.00    -0.286 N 
ATOM      6  H4  UNL     1     -26.643 -10.985  -2.032  1.00  0.00     0.188 HD
HETATM    7  C10 UNL     1     -28.429 -10.386  -1.051  1.00  0.00     0.114 A 
ENDROOT
BRANCH   7   8
HETATM    8  C11 UNL     1     -27.931  -9.255  -0.282  1.00  0.00     0.021 C 
HETATM    9  C12 UNL     1     -28.252  -7.953  -1.096  1.00  0.00     0.022 C 
HETATM   10  C13 UNL     1     -27.601  -6.759  -0.487  1.00  0.00    -0.013 C 
HETATM   11  C14 UNL     1     -28.170  -6.494   0.916  1.00  0.00     0.009 C 
HETATM   12  C18 UNL     1     -26.117  -6.851  -0.308  1.00  0.00     0.009 C 
HETATM   13  C15 UNL     1     -27.942  -7.759   1.681  1.00  0.00    -0.013 C 
HETATM   14  C16 UNL     1     -26.459  -8.008   1.854  1.00  0.00     0.009 C 
HETATM   15  C20 UNL     1     -28.550  -8.994   1.034  1.00  0.00     0.022 C 
HETATM   16  C17 UNL     1     -25.834  -8.130   0.495  1.00  0.00    -0.013 C 
HETATM   17  C19 UNL     1     -26.411  -9.257  -0.321  1.00  0.00     0.022 C 
ENDBRANCH   7   8
BRANCH   1  18
HETATM   18  C4  UNL     1     -30.814 -10.409  -0.496  1.00  0.00     0.114 A 
HETATM   19  C3  UNL     1     -31.239 -11.011   0.713  1.00  0.00     0.051 A 
HETATM   20  C2  UNL     1     -32.331 -10.569   1.421  1.00  0.00     0.029 A 
HETATM   21  C1  UNL     1     -33.044  -9.497   0.934  1.00  0.00     0.049 A 
HETATM   22 CL1  UNL     1     -34.443  -8.937   1.785  1.00  0.00    -0.083 Cl
HETATM   23  C21 UNL     1     -32.632  -8.904  -0.259  1.00  0.00     0.113 A 
HETATM   24  N5  UNL     1     -31.566  -9.386  -0.886  1.00  0.00    -0.350 N 
ATOM     25  H5  UNL     1     -31.298  -8.924  -1.755  1.00  0.00     0.166 HD
ENDBRANCH   1  18
BRANCH   2  26
HETATM   26  C6  UNL     1     -30.672 -12.946  -2.327  1.00  0.00     0.081 A 
HETATM   27  C7  UNL     1     -31.926 -12.737  -2.823  1.00  0.00     0.060 A 
HETATM   28  C8  UNL     1     -32.568 -13.973  -2.975  1.00  0.00     0.074 A 
HETATM   29 CL2  UNL     1     -34.195 -14.244  -3.565  1.00  0.00    -0.081 Cl
HETATM   30  C9  UNL     1     -31.649 -14.943  -2.547  1.00  0.00     0.126 A 
HETATM   31 CL3  UNL     1     -31.972 -16.650  -2.534  1.00  0.00    -0.063 Cl
HETATM   32  N2  UNL     1     -30.536 -14.307  -2.172  1.00  0.00    -0.342 N 
ATOM     33  H2  UNL     1     -29.698 -14.768  -1.819  1.00  0.00     0.167 HD
ENDBRANCH   2  26
TORSDOF 3
ENDMDL
MODEL 4
REMARK VINA RESULT: -7.144918493      3.067      6.734
REMARK  3 active torsions:
REMARK  status: ('A' for Active; 'I' for Inactive)
REMARK    1  A    between atoms: C4_5  and  N1_6 
REMARK    2  A    between atoms: C5_7  and  C6_8 
REMARK    3  A    between atoms: C10_20  and  C11_21 
ROOT
HETATM    1  N1  UNL     1     -29.796  -9.955  -1.511  1.00  0.00    -0.267 N 
HETATM    2  C5  UNL     1     -29.848 -11.178  -2.059  1.00  0.00     0.157 A 
HETATM    3  N3  UNL     1     -28.639 -11.767  -1.736  1.00  0.00    -0.282 N 
ATOM      4  H3  UNL     1     -28.357 -12.708  -2.009  1.00  0.00     0.188 HD
HETATM    5  N4  UNL     1     -27.930 -10.964  -1.048  1.00  0.00    -0.286 N 
ATOM      6  H4  UNL     1     -26.997 -11.164  -0.686  1.00  0.00     0.188 HD
HETATM    7  C10 UNL     1     -28.609  -9.793  -0.869  1.00  0.00     0.114 A 
ENDROOT
BRANCH   7   8
HETATM    8  C11 UNL     1     -28.093  -8.684  -0.082  1.00  0.00     0.021 C 
HETATM    9  C12 UNL     1     -27.806  -7.498  -1.067  1.00  0.00     0.022 C 
HETATM   10  C13 UNL     1     -27.085  -6.387  -0.383  1.00  0.00    -0.013 C 
HETATM   11  C14 UNL     1     -27.962  -5.777   0.721  1.00  0.00     0.009 C 
HETATM   12  C18 UNL     1     -25.800  -6.766   0.288  1.00  0.00     0.009 C 
HETATM   13  C15 UNL     1     -28.309  -6.915   1.627  1.00  0.00    -0.013 C 
HETATM   14  C16 UNL     1     -27.064  -7.446   2.305  1.00  0.00     0.009 C 
HETATM   15  C20 UNL     1     -28.990  -8.080   0.925  1.00  0.00     0.022 C 
HETATM   16  C17 UNL     1     -26.112  -7.923   1.247  1.00  0.00    -0.013 C 
HETATM   17  C19 UNL     1     -26.687  -9.019   0.389  1.00  0.00     0.022 C 
ENDBRANCH   7   8
BRANCH   1  18
HETATM   18  C4  UNL     1     -30.764  -8.937  -1.660  1.00  0.00     0.114 A 
HETATM   19  C3  UNL     1     -30.717  -8.179  -2.855  1.00  0.00     0.051 A 
HETATM   20  C2  UNL     1     -31.611  -7.174  -3.134  1.00  0.00     0.029 A 
HETATM   21  C1  UNL     1     -32.593  -6.888  -2.212  1.00  0.00     0.049 A 
HETATM   22 CL1  UNL     1     -33.715  -5.606  -2.519  1.00  0.00    -0.083 Cl
HETATM   23  C21 UNL     1     -32.640  -7.629  -1.031  1.00  0.00     0.113 A 
HETATM   24  N5  UNL     1     -31.742  -8.586  -0.833  1.00  0.00    -0.350 N 
ATOM     25  H5  UNL     1     -31.811  -9.105   0.043  1.00  0.00     0.166 HD
ENDBRANCH   1  18
BRANCH   2  26
HETATM   26  C6  UNL     1     -30.873 -11.831  -2.853  1.00  0.00     0.081 A 
HETATM   27  C7  UNL     1     -31.337 -11.584  -4.113  1.00  0.00     0.060 A 
HETATM   28  C8  UNL     1     -32.403 -12.451  -4.383  1.00  0.00     0.074 A 
HETATM   29 CL2  UNL     1     -33.346 -12.525  -5.859  1.00  0.00    -0.081 Cl
HETATM   30  C9  UNL     1     -32.570 -13.235  -3.232  1.00  0.00     0.126 A 
HETATM   31 CL3  UNL     1     -33.780 -14.470  -3.061  1.00  0.00    -0.063 Cl
HETATM   32  N2  UNL     1     -31.650 -12.848  -2.344  1.00  0.00    -0.342 N 
ATOM     33  H2  UNL     1     -31.537 -13.252  -1.414  1.00  0.00     0.167 HD
ENDBRANCH   2  26
TORSDOF 3
ENDMDL
MODEL 5
REMARK VINA RESULT: -7.141318206      3.174      5.809
REMARK  3 active torsions:
REMARK  status: ('A' for Active; 'I' for Inactive)
REMARK    1  A    between atoms: C4_5  and  N1_6 
REMARK    2  A    between atoms: C5_7  and  C6_8 
REMARK    3  A    between atoms: C10_20  and  C11_21 
ROOT
HETATM    1  N1  UNL     1     -28.681  -7.291   0.413  1.00  0.00    -0.267 N 
HETATM    2  C5  UNL     1     -28.962  -6.095   0.951  1.00  0.00     0.157 A 
HETATM    3  N3  UNL     1     -30.225  -5.781   0.485  1.00  0.00    -0.282 N 
ATOM      4  H3  UNL     1     -30.733  -4.926   0.708  1.00  0.00     0.188 HD
HETATM    5  N4  UNL     1     -30.661  -6.714  -0.264  1.00  0.00    -0.286 N 
ATOM      6  H4  UNL     1     -31.570  -6.720  -0.728  1.00  0.00     0.188 HD
HETATM    7  C10 UNL     1     -29.726  -7.705  -0.350  1.00  0.00     0.114 A 
ENDROOT
BRANCH   7   8
HETATM    8  C11 UNL     1     -29.939  -8.939  -1.091  1.00  0.00     0.021 C 
HETATM    9  C12 UNL     1     -31.241  -8.758  -1.945  1.00  0.00     0.022 C 
HETATM   10  C13 UNL     1     -31.654 -10.040  -2.584  1.00  0.00    -0.013 C 
HETATM   11  C14 UNL     1     -30.588 -10.508  -3.587  1.00  0.00     0.009 C 
HETATM   12  C18 UNL     1     -31.858 -11.193  -1.648  1.00  0.00     0.009 C 
HETATM   13  C15 UNL     1     -29.320 -10.609  -2.800  1.00  0.00    -0.013 C 
HETATM   14  C16 UNL     1     -29.436 -11.695  -1.753  1.00  0.00     0.009 C 
HETATM   15  C20 UNL     1     -28.924  -9.320  -2.095  1.00  0.00     0.022 C 
HETATM   16  C17 UNL     1     -30.568 -11.348  -0.830  1.00  0.00    -0.013 C 
HETATM   17  C19 UNL     1     -30.372 -10.031  -0.126  1.00  0.00     0.022 C 
ENDBRANCH   7   8
BRANCH   1  18
HETATM   18  C4  UNL     1     -27.452  -7.979   0.516  1.00  0.00     0.114 A 
HETATM   19  C3  UNL     1     -26.308  -7.332  -0.011  1.00  0.00     0.051 A 
HETATM   20  C2  UNL     1     -25.051  -7.883   0.042  1.00  0.00     0.029 A 
HETATM   21  C1  UNL     1     -24.894  -9.118   0.630  1.00  0.00     0.049 A 
HETATM   22 CL1  UNL     1     -23.328  -9.853   0.684  1.00  0.00    -0.083 Cl
HETATM   23  C21 UNL     1     -26.019  -9.761   1.147  1.00  0.00     0.113 A 
HETATM   24  N5  UNL     1     -27.201  -9.166   1.060  1.00  0.00    -0.350 N 
ATOM     25  H5  UNL     1     -27.999  -9.669   1.449  1.00  0.00     0.166 HD
ENDBRANCH   1  18
BRANCH   2  26
HETATM   26  C6  UNL     1     -28.185  -5.226   1.816  1.00  0.00     0.081 A 
HETATM   27  C7  UNL     1     -27.548  -5.461   3.001  1.00  0.00     0.060 A 
HETATM   28  C8  UNL     1     -27.013  -4.258   3.477  1.00  0.00     0.074 A 
HETATM   29 CL2  UNL     1     -26.113  -4.026   4.963  1.00  0.00    -0.081 Cl
HETATM   30  C9  UNL     1     -27.355  -3.279   2.533  1.00  0.00     0.126 A 
HETATM   31 CL3  UNL     1     -26.923  -1.602   2.669  1.00  0.00    -0.063 Cl
HETATM   32  N2  UNL     1     -28.045  -3.881   1.560  1.00  0.00    -0.342 N 
ATOM     33  H2  UNL     1     -28.419  -3.406   0.738  1.00  0.00     0.167 HD
ENDBRANCH   2  26
TORSDOF 3
ENDMDL
