MODEL 1
REMARK VINA RESULT: -7.009622604      0.000      0.000
REMARK  7 active torsions:
REMARK  status: ('A' for Active; 'I' for Inactive)
REMARK    1  A    between atoms: C2_2  and  C5_5 
REMARK    2  A    between atoms: C7_7  and  C8_8 
REMARK    3  A    between atoms: C9_14  and  N2_15 
REMARK    4  A    between atoms: N2_15  and  N3_17 
REMARK    5  A    between atoms: N3_17  and  C10_18 
REMARK    6  A    between atoms: C10_18  and  C11_19 
REMARK    7  A    between atoms: C14_23  and  C15_24 
ROOT
HETATM    1  C5  UNL     1     -27.312  -8.107   0.503  1.00  0.00     0.036 A 
HETATM    2  C6  UNL     1     -26.040  -8.634   0.562  1.00  0.00     0.056 A 
HETATM    3  C7  UNL     1     -25.838  -9.990   0.409  1.00  0.00     0.082 A 
HETATM    4  N1  UNL     1     -26.906 -10.772   0.205  1.00  0.00    -0.189 N 
ATOM      5  H1  UNL     1     -26.774 -11.777   0.090  1.00  0.00     0.184 HD
HETATM    6  C9  UNL     1     -28.147 -10.262   0.147  1.00  0.00     0.707 A 
HETATM    7  N4  UNL     1     -28.339  -8.951   0.296  1.00  0.00    -0.193 N 
ATOM      8  H4  UNL     1     -29.287  -8.579   0.251  1.00  0.00     0.184 HD
ENDROOT
BRANCH   6   9
HETATM    9  N2  UNL     1     -29.169 -11.082  -0.065  1.00  0.00    -0.065 N 
ATOM     10  H2  UNL     1     -29.883 -11.120   0.662  1.00  0.00     0.221 HD
BRANCH   9  11
HETATM   11  N3  UNL     1     -29.349 -11.822  -1.080  1.00  0.00    -0.323 NA
BRANCH  11  12
HETATM   12  C10 UNL     1     -29.527 -12.537  -2.034  1.00  0.00     0.229 C 
BRANCH  12  13
HETATM   13  C11 UNL     1     -30.777 -12.363  -2.849  1.00  0.00     0.046 A 
HETATM   14  S1  UNL     1     -31.064 -11.063  -3.948  1.00  0.00    -0.099 SA
HETATM   15  C12 UNL     1     -32.530 -11.605  -4.608  1.00  0.00     0.051 A 
HETATM   16  C13 UNL     1     -32.758 -12.774  -3.959  1.00  0.00     0.020 A 
HETATM   17  C14 UNL     1     -31.839 -13.178  -3.029  1.00  0.00    -0.010 A 
BRANCH  17  18
HETATM   18  C15 UNL     1     -32.127 -14.375  -2.188  1.00  0.00    -0.050 C 
HETATM   19  C16 UNL     1     -32.915 -14.410  -1.157  1.00  0.00    -0.019 C 
HETATM   20  C17 UNL     1     -33.053 -15.743  -0.447  1.00  0.00     0.028 C 
HETATM   21  C18 UNL     1     -33.218 -16.883  -1.394  1.00  0.00     0.004 C 
HETATM   22  C19 UNL     1     -32.512 -16.692  -2.719  1.00  0.00     0.005 C 
HETATM   23  C20 UNL     1     -31.418 -15.670  -2.493  1.00  0.00     0.039 C 
ENDBRANCH  17  18
ENDBRANCH  12  13
ENDBRANCH  11  12
ENDBRANCH   9  11
ENDBRANCH   6   9
BRANCH   3  24
HETATM   24  C8  UNL     1     -24.505 -10.634   0.450  1.00  0.00     0.231 C 
HETATM   25 CL1  UNL     1     -24.270 -11.794  -0.890  1.00  0.00    -0.077 Cl
HETATM   26 CL2  UNL     1     -23.226  -9.395   0.375  1.00  0.00    -0.077 Cl
HETATM   27 CL3  UNL     1     -24.366 -11.525   1.976  1.00  0.00    -0.077 Cl
ENDBRANCH   3  24
BRANCH   1  28
HETATM   28  C2  UNL     1     -27.480  -6.650   0.670  1.00  0.00    -0.008 C 
HETATM   29  C1  UNL     1     -27.211  -6.223   2.090  1.00  0.00     0.021 C 
HETATM   30  C3  UNL     1     -26.518  -5.965  -0.294  1.00  0.00     0.021 C 
HETATM   31  C4  UNL     1     -28.884  -6.206   0.322  1.00  0.00     0.021 C 
ENDBRANCH   1  28
TORSDOF 7
ENDMDL
MODEL 2
REMARK VINA RESULT: -6.949893674      2.051      3.528
REMARK  7 active torsions:
REMARK  status: ('A' for Active; 'I' for Inactive)
REMARK    1  A    between atoms: C2_2  and  C5_5 
REMARK    2  A    between atoms: C7_7  and  C8_8 
REMARK    3  A    between atoms: C9_14  and  N2_15 
REMARK    4  A    between atoms: N2_15  and  N3_17 
REMARK    5  A    between atoms: N3_17  and  C10_18 
REMARK    6  A    between atoms: C10_18  and  C11_19 
REMARK    7  A    between atoms: C14_23  and  C15_24 
ROOT
HETATM    1  C5  UNL     1     -25.978  -9.981   0.512  1.00  0.00     0.036 A 
HETATM    2  C6  UNL     1     -26.069  -8.610   0.599  1.00  0.00     0.056 A 
HETATM    3  C7  UNL     1     -27.303  -7.992   0.629  1.00  0.00     0.082 A 
HETATM    4  N1  UNL     1     -28.399  -8.760   0.569  1.00  0.00    -0.189 N 
ATOM      5  H1  UNL     1     -29.318  -8.319   0.590  1.00  0.00     0.184 HD
HETATM    6  C9  UNL     1     -28.313 -10.098   0.484  1.00  0.00     0.707 A 
HETATM    7  N4  UNL     1     -27.119 -10.691   0.456  1.00  0.00    -0.193 N 
ATOM      8  H4  UNL     1     -27.071 -11.708   0.389  1.00  0.00     0.184 HD
ENDROOT
BRANCH   6   9
HETATM    9  N2  UNL     1     -29.431 -10.811   0.436  1.00  0.00    -0.065 N 
ATOM     10  H2  UNL     1     -30.147 -10.588   1.127  1.00  0.00     0.221 HD
BRANCH   9  11
HETATM   11  N3  UNL     1     -29.701 -11.743  -0.383  1.00  0.00    -0.323 NA
BRANCH  11  12
HETATM   12  C10 UNL     1     -29.942 -12.635  -1.157  1.00  0.00     0.229 C 
BRANCH  12  13
HETATM   13  C11 UNL     1     -30.746 -12.329  -2.389  1.00  0.00     0.046 A 
HETATM   14  S1  UNL     1     -30.591 -10.893  -3.336  1.00  0.00    -0.099 SA
HETATM   15  C12 UNL     1     -31.633 -11.313  -4.608  1.00  0.00     0.051 A 
HETATM   16  C13 UNL     1     -32.074 -12.548  -4.264  1.00  0.00     0.020 A 
HETATM   17  C14 UNL     1     -31.611 -13.089  -3.095  1.00  0.00    -0.010 A 
BRANCH  17  18
HETATM   18  C15 UNL     1     -32.185 -14.376  -2.606  1.00  0.00    -0.050 C 
HETATM   19  C16 UNL     1     -31.592 -15.531  -2.631  1.00  0.00    -0.019 C 
HETATM   20  C17 UNL     1     -32.372 -16.711  -2.084  1.00  0.00     0.028 C 
HETATM   21  C18 UNL     1     -33.064 -16.395  -0.801  1.00  0.00     0.004 C 
HETATM   22  C19 UNL     1     -33.501 -14.952  -0.674  1.00  0.00     0.005 C 
HETATM   23  C20 UNL     1     -33.596 -14.394  -2.079  1.00  0.00     0.039 C 
ENDBRANCH  17  18
ENDBRANCH  12  13
ENDBRANCH  11  12
ENDBRANCH   9  11
ENDBRANCH   6   9
BRANCH   3  24
HETATM   24  C8  UNL     1     -27.488  -6.526   0.729  1.00  0.00     0.231 C 
HETATM   25 CL1  UNL     1     -29.160  -6.025   0.340  1.00  0.00    -0.077 Cl
HETATM   26 CL2  UNL     1     -27.085  -5.971   2.375  1.00  0.00    -0.077 Cl
HETATM   27 CL3  UNL     1     -26.398  -5.748  -0.432  1.00  0.00    -0.077 Cl
ENDBRANCH   3  24
BRANCH   1  28
HETATM   28  C2  UNL     1     -24.637 -10.599   0.485  1.00  0.00    -0.008 C 
HETATM   29  C1  UNL     1     -23.557  -9.565   0.299  1.00  0.00     0.021 C 
HETATM   30  C3  UNL     1     -24.451 -11.346   1.801  1.00  0.00     0.021 C 
HETATM   31  C4  UNL     1     -24.505 -11.599  -0.642  1.00  0.00     0.021 C 
ENDBRANCH   1  28
TORSDOF 7
ENDMDL
MODEL 3
REMARK VINA RESULT: -6.937029089      3.717      8.364
REMARK  7 active torsions:
REMARK  status: ('A' for Active; 'I' for Inactive)
REMARK    1  A    between atoms: C2_2  and  C5_5 
REMARK    2  A    between atoms: C7_7  and  C8_8 
REMARK    3  A    between atoms: C9_14  and  N2_15 
REMARK    4  A    between atoms: N2_15  and  N3_17 
REMARK    5  A    between atoms: N3_17  and  C10_18 
REMARK    6  A    between atoms: C10_18  and  C11_19 
REMARK    7  A    between atoms: C14_23  and  C15_24 
ROOT
HETATM    1  C5  UNL     1     -32.309 -12.715  -4.052  1.00  0.00     0.036 A 
HETATM    2  C6  UNL     1     -33.026 -13.632  -3.317  1.00  0.00     0.056 A 
HETATM    3  C7  UNL     1     -32.434 -14.300  -2.264  1.00  0.00     0.082 A 
HETATM    4  N1  UNL     1     -31.152 -14.032  -1.983  1.00  0.00    -0.189 N 
ATOM      5  H1  UNL     1     -30.699 -14.517  -1.208  1.00  0.00     0.184 HD
HETATM    6  C9  UNL     1     -30.449 -13.139  -2.698  1.00  0.00     0.707 A 
HETATM    7  N4  UNL     1     -31.025 -12.495  -3.715  1.00  0.00    -0.193 N 
ATOM      8  H4  UNL     1     -30.478 -11.820  -4.250  1.00  0.00     0.184 HD
ENDROOT
BRANCH   6   9
HETATM    9  N2  UNL     1     -29.185 -12.906  -2.372  1.00  0.00    -0.065 N 
ATOM     10  H2  UNL     1     -28.579 -13.720  -2.276  1.00  0.00     0.221 HD
BRANCH   9  11
HETATM   11  N3  UNL     1     -28.651 -11.772  -2.166  1.00  0.00    -0.323 NA
BRANCH  11  12
HETATM   12  C10 UNL     1     -28.158 -10.688  -1.978  1.00  0.00     0.229 C 
BRANCH  12  13
HETATM   13  C11 UNL     1     -29.061  -9.504  -1.785  1.00  0.00     0.046 A 
HETATM   14  S1  UNL     1     -30.547  -9.250  -2.627  1.00  0.00    -0.099 SA
HETATM   15  C12 UNL     1     -31.079  -7.870  -1.795  1.00  0.00     0.051 A 
HETATM   16  C13 UNL     1     -30.094  -7.643  -0.892  1.00  0.00     0.020 A 
HETATM   17  C14 UNL     1     -29.026  -8.499  -0.884  1.00  0.00    -0.010 A 
BRANCH  17  18
HETATM   18  C15 UNL     1     -27.853  -8.197  -0.013  1.00  0.00    -0.050 C 
HETATM   19  C16 UNL     1     -27.125  -9.072   0.613  1.00  0.00    -0.019 C 
HETATM   20  C17 UNL     1     -25.980  -8.535   1.450  1.00  0.00     0.028 C 
HETATM   21  C18 UNL     1     -25.207  -7.470   0.749  1.00  0.00     0.004 C 
HETATM   22  C19 UNL     1     -26.033  -6.632  -0.204  1.00  0.00     0.005 C 
HETATM   23  C20 UNL     1     -27.476  -6.759   0.235  1.00  0.00     0.039 C 
ENDBRANCH  17  18
ENDBRANCH  12  13
ENDBRANCH  11  12
ENDBRANCH   9  11
ENDBRANCH   6   9
BRANCH   3  24
HETATM   24  C8  UNL     1     -33.136 -15.294  -1.419  1.00  0.00     0.231 C 
HETATM   25 CL1  UNL     1     -32.413 -16.925  -1.547  1.00  0.00    -0.077 Cl
HETATM   26 CL2  UNL     1     -33.104 -14.777   0.286  1.00  0.00    -0.077 Cl
HETATM   27 CL3  UNL     1     -34.819 -15.396  -1.967  1.00  0.00    -0.077 Cl
ENDBRANCH   3  24
BRANCH   1  28
HETATM   28  C2  UNL     1     -32.983 -12.023  -5.168  1.00  0.00    -0.008 C 
HETATM   29  C1  UNL     1     -33.299 -10.591  -4.820  1.00  0.00     0.021 C 
HETATM   30  C3  UNL     1     -32.058 -12.095  -6.377  1.00  0.00     0.021 C 
HETATM   31  C4  UNL     1     -34.286 -12.697  -5.538  1.00  0.00     0.021 C 
ENDBRANCH   1  28
TORSDOF 7
ENDMDL
MODEL 4
REMARK VINA RESULT: -6.915407331      3.698      8.555
REMARK  7 active torsions:
REMARK  status: ('A' for Active; 'I' for Inactive)
REMARK    1  A    between atoms: C2_2  and  C5_5 
REMARK    2  A    between atoms: C7_7  and  C8_8 
REMARK    3  A    between atoms: C9_14  and  N2_15 
REMARK    4  A    between atoms: N2_15  and  N3_17 
REMARK    5  A    between atoms: N3_17  and  C10_18 
REMARK    6  A    between atoms: C10_18  and  C11_19 
REMARK    7  A    between atoms: C14_23  and  C15_24 
ROOT
HETATM    1  C5  UNL     1     -32.394 -12.137  -4.960  1.00  0.00     0.036 A 
HETATM    2  C6  UNL     1     -33.021 -13.085  -4.183  1.00  0.00     0.056 A 
HETATM    3  C7  UNL     1     -32.345 -13.701  -3.149  1.00  0.00     0.082 A 
HETATM    4  N1  UNL     1     -31.071 -13.352  -2.928  1.00  0.00    -0.189 N 
ATOM      5  H1  UNL     1     -30.557 -13.798  -2.168  1.00  0.00     0.184 HD
HETATM    6  C9  UNL     1     -30.456 -12.428  -3.684  1.00  0.00     0.707 A 
HETATM    7  N4  UNL     1     -31.112 -11.836  -4.682  1.00  0.00    -0.193 N 
ATOM      8  H4  UNL     1     -30.631 -11.138  -5.249  1.00  0.00     0.184 HD
ENDROOT
BRANCH   6   9
HETATM    9  N2  UNL     1     -29.194 -12.115  -3.416  1.00  0.00    -0.065 N 
ATOM     10  H2  UNL     1     -28.477 -12.631  -3.925  1.00  0.00     0.221 HD
BRANCH   9  11
HETATM   11  N3  UNL     1     -28.789 -11.239  -2.592  1.00  0.00    -0.323 NA
BRANCH  11  12
HETATM   12  C10 UNL     1     -28.409 -10.395  -1.819  1.00  0.00     0.229 C 
BRANCH  12  13
HETATM   13  C11 UNL     1     -29.292  -9.210  -1.548  1.00  0.00     0.046 A 
HETATM   14  S1  UNL     1     -30.831  -8.938  -2.283  1.00  0.00    -0.099 SA
HETATM   15  C12 UNL     1     -31.298  -7.568  -1.396  1.00  0.00     0.051 A 
HETATM   16  C13 UNL     1     -30.252  -7.358  -0.560  1.00  0.00     0.020 A 
HETATM   17  C14 UNL     1     -29.190  -8.218  -0.637  1.00  0.00    -0.010 A 
BRANCH  17  18
HETATM   18  C15 UNL     1     -27.959  -7.934   0.156  1.00  0.00    -0.050 C 
HETATM   19  C16 UNL     1     -27.244  -8.812   0.792  1.00  0.00    -0.019 C 
HETATM   20  C17 UNL     1     -26.031  -8.293   1.541  1.00  0.00     0.028 C 
HETATM   21  C18 UNL     1     -25.244  -7.309   0.743  1.00  0.00     0.004 C 
HETATM   22  C19 UNL     1     -26.076  -6.480  -0.212  1.00  0.00     0.005 C 
HETATM   23  C20 UNL     1     -27.498  -6.507   0.305  1.00  0.00     0.039 C 
ENDBRANCH  17  18
ENDBRANCH  12  13
ENDBRANCH  11  12
ENDBRANCH   9  11
ENDBRANCH   6   9
BRANCH   3  24
HETATM   24  C8  UNL     1     -32.949 -14.722  -2.263  1.00  0.00     0.231 C 
HETATM   25 CL1  UNL     1     -32.954 -14.214  -0.548  1.00  0.00    -0.077 Cl
HETATM   26 CL2  UNL     1     -34.624 -15.059  -2.772  1.00  0.00    -0.077 Cl
HETATM   27 CL3  UNL     1     -31.989 -16.206  -2.392  1.00  0.00    -0.077 Cl
ENDBRANCH   3  24
BRANCH   1  28
HETATM   28  C2  UNL     1     -33.156 -11.504  -6.054  1.00  0.00    -0.008 C 
HETATM   29  C1  UNL     1     -32.458 -11.667  -7.379  1.00  0.00     0.021 C 
HETATM   30  C3  UNL     1     -34.535 -12.152  -6.085  1.00  0.00     0.021 C 
HETATM   31  C4  UNL     1     -33.343 -10.021  -5.820  1.00  0.00     0.021 C 
ENDBRANCH   1  28
TORSDOF 7
ENDMDL
MODEL 5
REMARK VINA RESULT: -6.909795961      4.072      8.803
REMARK  7 active torsions:
REMARK  status: ('A' for Active; 'I' for Inactive)
REMARK    1  A    between atoms: C2_2  and  C5_5 
REMARK    2  A    between atoms: C7_7  and  C8_8 
REMARK    3  A    between atoms: C9_14  and  N2_15 
REMARK    4  A    between atoms: N2_15  and  N3_17 
REMARK    5  A    between atoms: N3_17  and  C10_18 
REMARK    6  A    between atoms: C10_18  and  C11_19 
REMARK    7  A    between atoms: C14_23  and  C15_24 
ROOT
HETATM    1  C5  UNL     1     -32.082 -13.597  -3.159  1.00  0.00     0.036 A 
HETATM    2  C6  UNL     1     -32.756 -13.103  -4.253  1.00  0.00     0.056 A 
HETATM    3  C7  UNL     1     -32.195 -12.109  -5.030  1.00  0.00     0.082 A 
HETATM    4  N1  UNL     1     -30.986 -11.644  -4.689  1.00  0.00    -0.189 N 
ATOM      5  H1  UNL     1     -30.557 -10.910  -5.252  1.00  0.00     0.184 HD
HETATM    6  C9  UNL     1     -30.326 -12.124  -3.622  1.00  0.00     0.707 A 
HETATM    7  N4  UNL     1     -30.872 -13.083  -2.874  1.00  0.00    -0.193 N 
ATOM      8  H4  UNL     1     -30.359 -13.436  -2.066  1.00  0.00     0.184 HD
ENDROOT
BRANCH   6   9
HETATM    9  N2  UNL     1     -29.128 -11.632  -3.334  1.00  0.00    -0.065 N 
ATOM     10  H2  UNL     1     -28.480 -11.518  -4.113  1.00  0.00     0.221 HD
BRANCH   9  11
HETATM   11  N3  UNL     1     -28.704 -11.290  -2.187  1.00  0.00    -0.323 NA
BRANCH  11  12
HETATM   12  C10 UNL     1     -28.316 -10.955  -1.096  1.00  0.00     0.229 C 
BRANCH  12  13
HETATM   13  C11 UNL     1     -28.218  -9.490  -0.779  1.00  0.00     0.046 A 
HETATM   14  S1  UNL     1     -29.332  -8.287  -1.320  1.00  0.00    -0.099 SA
HETATM   15  C12 UNL     1     -28.715  -6.961  -0.459  1.00  0.00     0.051 A 
HETATM   16  C13 UNL     1     -27.664  -7.484   0.219  1.00  0.00     0.020 A 
HETATM   17  C14 UNL     1     -27.395  -8.815   0.053  1.00  0.00    -0.010 A 
BRANCH  17  18
HETATM   18  C15 UNL     1     -26.161  -9.394   0.660  1.00  0.00    -0.050 C 
HETATM   19  C16 UNL     1     -26.034 -10.602   1.121  1.00  0.00    -0.019 C 
HETATM   20  C17 UNL     1     -24.683 -10.973   1.701  1.00  0.00     0.028 C 
HETATM   21  C18 UNL     1     -23.548 -10.509   0.853  1.00  0.00     0.004 C 
HETATM   22  C19 UNL     1     -23.827  -9.231   0.092  1.00  0.00     0.005 C 
HETATM   23  C20 UNL     1     -24.946  -8.518   0.822  1.00  0.00     0.039 C 
ENDBRANCH  17  18
ENDBRANCH  12  13
ENDBRANCH  11  12
ENDBRANCH   9  11
ENDBRANCH   6   9
BRANCH   3  24
HETATM   24  C8  UNL     1     -32.849 -11.530  -6.226  1.00  0.00     0.231 C 
HETATM   25 CL1  UNL     1     -33.296  -9.814  -5.990  1.00  0.00    -0.077 Cl
HETATM   26 CL2  UNL     1     -31.767 -11.659  -7.636  1.00  0.00    -0.077 Cl
HETATM   27 CL3  UNL     1     -34.333 -12.444  -6.544  1.00  0.00    -0.077 Cl
ENDBRANCH   3  24
BRANCH   1  28
HETATM   28  C2  UNL     1     -32.721 -14.660  -2.358  1.00  0.00    -0.008 C 
HETATM   29  C1  UNL     1     -31.954 -15.954  -2.448  1.00  0.00     0.021 C 
HETATM   30  C3  UNL     1     -32.788 -14.169  -0.917  1.00  0.00     0.021 C 
HETATM   31  C4  UNL     1     -34.133 -14.938  -2.822  1.00  0.00     0.021 C 
ENDBRANCH   1  28
TORSDOF 7
ENDMDL
