MODEL 1
REMARK VINA RESULT: -6.620042845      0.000      0.000
REMARK  13 active torsions:
REMARK  status: ('A' for Active; 'I' for Inactive)
REMARK    1  A    between atoms: C5_6  and  N1_7 
REMARK       I    between atoms: N1_7  and  C6_9 
REMARK    2  A    between atoms: C6_9  and  C7_11 
REMARK    3  A    between atoms: C9_14  and  N2_15 
REMARK    4  A    between atoms: C11_24  and  C12_25 
REMARK    5  A    between atoms: C12_25  and  O2_26 
REMARK    6  A    between atoms: C12_25  and  C15_31 
REMARK    7  A    between atoms: O2_26  and  C13_27 
REMARK    8  A    between atoms: C13_27  and  O4_29 
REMARK    9  A    between atoms: C15_31  and  O6_33 
REMARK   10  A    between atoms: C17_35  and  C18_36 
REMARK   11  A    between atoms: C18_36  and  S3_37 
REMARK   12  A    between atoms: S3_37  and  C19_38 
REMARK   13  A    between atoms: C20_40  and  N5_41 
ROOT
HETATM    1  C1  UNL     1       9.310  -7.073  -1.713  1.00  0.00     0.020 C 
HETATM    2  C2  UNL     1      10.485  -6.500  -1.871  1.00  0.00    -0.049 C 
HETATM    3  C3  UNL     1      11.390  -6.710  -0.723  1.00  0.00     0.114 C 
HETATM    4  S1  UNL     1      12.985  -5.968  -0.819  1.00  0.00    -0.137 SA
HETATM    5  C4  UNL     1      13.890  -6.159  -2.308  1.00  0.00     0.183 C 
HETATM    6  C5  UNL     1      14.612  -7.463  -2.581  1.00  0.00     0.213 C 
HETATM    7  C10 UNL     1      14.146  -7.261  -4.038  1.00  0.00     0.348 C 
HETATM    8  F1  UNL     1      15.141  -6.687  -4.757  1.00  0.00    -0.180 F 
HETATM    9  F2  UNL     1      13.749  -8.464  -4.522  1.00  0.00    -0.180 F 
HETATM   10  N4  UNL     1      13.121  -6.355  -3.528  1.00  0.00    -0.298 N 
HETATM   11  C11 UNL     1      11.861  -5.745  -3.865  1.00  0.00     0.084 C 
HETATM   12  C17 UNL     1      10.719  -5.801  -3.152  1.00  0.00    -0.012 C 
ENDROOT
BRANCH  12  13
HETATM   13  C18 UNL     1       9.553  -5.174  -3.689  1.00  0.00     0.123 C 
BRANCH  13  14
HETATM   14  S3  UNL     1       9.166  -3.600  -2.967  1.00  0.00    -0.098 SA
BRANCH  14  15
HETATM   15  C19 UNL     1       7.539  -3.095  -2.676  1.00  0.00     0.146 A 
HETATM   16  O7  UNL     1       6.798  -2.451  -3.584  1.00  0.00    -0.270 OA
HETATM   17  C20 UNL     1       5.584  -2.075  -3.349  1.00  0.00     0.225 A 
HETATM   18  N6  UNL     1       4.937  -2.284  -2.184  1.00  0.00    -0.287 N 
HETATM   19  C21 UNL     1       5.601  -2.922  -1.209  1.00  0.00     0.276 A 
ATOM     20  H6  UNL     1       3.977  -1.967  -2.049  1.00  0.00     0.172 HD
HETATM   21  O8  UNL     1       5.029  -3.136  -0.102  1.00  0.00    -0.266 OA
HETATM   22  C22 UNL     1       6.889  -3.317  -1.467  1.00  0.00     0.154 A 
HETATM   23  N7  UNL     1       7.600  -3.938  -0.403  1.00  0.00    -0.093 NA
BRANCH  17  24
HETATM   24  N5  UNL     1       4.914  -1.453  -4.273  1.00  0.00    -0.365 N 
ATOM     25  H52 UNL     1       4.635  -0.495  -4.059  1.00  0.00     0.159 HD
ATOM     26  H51 UNL     1       4.699  -1.929  -5.148  1.00  0.00     0.159 HD
ENDBRANCH  17  24
ENDBRANCH  14  15
ENDBRANCH  13  14
ENDBRANCH  12  13
BRANCH  11  27
HETATM   27  C12 UNL     1      11.797  -5.058  -5.140  1.00  0.00     0.183 C 
BRANCH  27  28
HETATM   28  O2  UNL     1      12.305  -3.771  -5.249  1.00  0.00    -0.247 OA
BRANCH  28  29
HETATM   29  C13 UNL     1      11.770  -2.700  -5.915  1.00  0.00     0.411 C 
HETATM   30  O3  UNL     1      12.572  -2.019  -6.628  1.00  0.00    -0.229 OA
BRANCH  29  31
HETATM   31  O4  UNL     1      10.418  -2.407  -5.791  1.00  0.00    -0.303 OA
HETATM   32  C14 UNL     1       9.602  -2.582  -6.932  1.00  0.00     0.215 C 
ENDBRANCH  29  31
ENDBRANCH  28  29
ENDBRANCH  27  28
BRANCH  27  33
HETATM   33  C15 UNL     1      11.989  -5.917  -6.360  1.00  0.00     0.319 C 
HETATM   34  O5  UNL     1      12.979  -5.861  -7.075  1.00  0.00    -0.257 OA
BRANCH  33  35
HETATM   35  O6  UNL     1      10.974  -6.812  -6.661  1.00  0.00    -0.321 OA
HETATM   36  C16 UNL     1      11.102  -8.223  -6.525  1.00  0.00     0.213 C 
ENDBRANCH  33  35
ENDBRANCH  27  33
ENDBRANCH  11  27
BRANCH   6  37
HETATM   37  N1  UNL     1      16.060  -7.364  -2.449  1.00  0.00    -0.341 N 
HETATM   38  C6  UNL     1      16.724  -7.515  -1.218  1.00  0.00     0.269 C 
HETATM   39  O1  UNL     1      16.086  -7.748  -0.162  1.00  0.00    -0.266 OA
ATOM     40  H1  UNL     1      16.615  -7.178  -3.284  1.00  0.00     0.163 HD
BRANCH  38  41
HETATM   41  C7  UNL     1      18.205  -7.388  -1.189  1.00  0.00     0.109 A 
HETATM   42  C8  UNL     1      19.006  -8.254  -1.894  1.00  0.00     0.088 A 
HETATM   43  S2  UNL     1      20.577  -7.677  -1.536  1.00  0.00    -0.064 SA
HETATM   44  C9  UNL     1      20.131  -6.382  -0.524  1.00  0.00     0.142 A 
HETATM   45  N3  UNL     1      18.810  -6.450  -0.504  1.00  0.00    -0.332 N 
ATOM     46  H3  UNL     1      18.268  -5.778   0.040  1.00  0.00     0.168 HD
BRANCH  44  47
HETATM   47  N2  UNL     1      20.904  -5.511   0.098  1.00  0.00    -0.380 N 
ATOM     48  H22 UNL     1      21.923  -5.501   0.141  1.00  0.00     0.158 HD
ATOM     49  H21 UNL     1      20.637  -4.695   0.647  1.00  0.00     0.158 HD
ENDBRANCH  44  47
ENDBRANCH  38  41
ENDBRANCH   6  37
TORSDOF 13
ENDMDL
MODEL 2
REMARK VINA RESULT: -6.612463658      2.844     10.135
REMARK  13 active torsions:
REMARK  status: ('A' for Active; 'I' for Inactive)
REMARK    1  A    between atoms: C5_6  and  N1_7 
REMARK       I    between atoms: N1_7  and  C6_9 
REMARK    2  A    between atoms: C6_9  and  C7_11 
REMARK    3  A    between atoms: C9_14  and  N2_15 
REMARK    4  A    between atoms: C11_24  and  C12_25 
REMARK    5  A    between atoms: C12_25  and  O2_26 
REMARK    6  A    between atoms: C12_25  and  C15_31 
REMARK    7  A    between atoms: O2_26  and  C13_27 
REMARK    8  A    between atoms: C13_27  and  O4_29 
REMARK    9  A    between atoms: C15_31  and  O6_33 
REMARK   10  A    between atoms: C17_35  and  C18_36 
REMARK   11  A    between atoms: C18_36  and  S3_37 
REMARK   12  A    between atoms: S3_37  and  C19_38 
REMARK   13  A    between atoms: C20_40  and  N5_41 
ROOT
HETATM    1  C1  UNL     1      15.277  -7.084  -4.555  1.00  0.00     0.020 C 
HETATM    2  C2  UNL     1      14.389  -6.583  -3.722  1.00  0.00    -0.049 C 
HETATM    3  C3  UNL     1      13.954  -5.221  -4.091  1.00  0.00     0.114 C 
HETATM    4  S1  UNL     1      12.780  -4.445  -3.031  1.00  0.00    -0.137 SA
HETATM    5  C4  UNL     1      11.384  -5.380  -2.530  1.00  0.00     0.183 C 
HETATM    6  C5  UNL     1      10.223  -5.559  -3.486  1.00  0.00     0.213 C 
HETATM    7  C10 UNL     1      10.161  -6.997  -2.930  1.00  0.00     0.348 C 
HETATM    8  F1  UNL     1       9.223  -7.066  -1.954  1.00  0.00    -0.180 F 
HETATM    9  F2  UNL     1       9.928  -7.838  -3.967  1.00  0.00    -0.180 F 
HETATM   10  N4  UNL     1      11.540  -6.826  -2.482  1.00  0.00    -0.298 N 
HETATM   11  C11 UNL     1      12.714  -7.558  -2.084  1.00  0.00     0.084 C 
HETATM   12  C17 UNL     1      13.949  -7.456  -2.612  1.00  0.00    -0.012 C 
ENDROOT
BRANCH  12  13
HETATM   13  C18 UNL     1      14.975  -8.317  -2.114  1.00  0.00     0.123 C 
BRANCH  13  14
HETATM   14  S3  UNL     1      15.977  -7.602  -0.837  1.00  0.00    -0.098 SA
BRANCH  14  15
HETATM   15  C19 UNL     1      17.682  -7.387  -1.018  1.00  0.00     0.146 A 
HETATM   16  O7  UNL     1      18.361  -6.388  -0.442  1.00  0.00    -0.270 OA
HETATM   17  C20 UNL     1      19.636  -6.237  -0.592  1.00  0.00     0.225 A 
HETATM   18  N6  UNL     1      20.414  -7.053  -1.332  1.00  0.00    -0.287 N 
HETATM   19  C21 UNL     1      19.823  -8.085  -1.951  1.00  0.00     0.276 A 
ATOM     20  H6  UNL     1      21.417  -6.891  -1.419  1.00  0.00     0.172 HD
HETATM   21  O8  UNL     1      20.518  -8.872  -2.655  1.00  0.00    -0.266 OA
HETATM   22  C22 UNL     1      18.469  -8.237  -1.788  1.00  0.00     0.154 A 
HETATM   23  N7  UNL     1      17.847  -9.299  -2.499  1.00  0.00    -0.093 NA
BRANCH  17  24
HETATM   24  N5  UNL     1      20.239  -5.246  -0.007  1.00  0.00    -0.365 N 
ATOM     25  H52 UNL     1      21.188  -5.427   0.319  1.00  0.00     0.159 HD
ATOM     26  H51 UNL     1      19.756  -4.355   0.101  1.00  0.00     0.159 HD
ENDBRANCH  17  24
ENDBRANCH  14  15
ENDBRANCH  13  14
ENDBRANCH  12  13
BRANCH  11  27
HETATM   27  C12 UNL     1      12.531  -8.560  -1.053  1.00  0.00     0.183 C 
BRANCH  27  28
HETATM   28  O2  UNL     1      12.204  -8.163   0.237  1.00  0.00    -0.247 OA
BRANCH  28  29
HETATM   29  C13 UNL     1      12.619  -8.706   1.424  1.00  0.00     0.411 C 
HETATM   30  O3  UNL     1      13.816  -9.134   1.462  1.00  0.00    -0.229 OA
BRANCH  29  31
HETATM   31  O4  UNL     1      11.749  -8.766   2.504  1.00  0.00    -0.303 OA
HETATM   32  C14 UNL     1      10.404  -9.115   2.243  1.00  0.00     0.215 C 
ENDBRANCH  29  31
ENDBRANCH  28  29
ENDBRANCH  27  28
BRANCH  27  33
HETATM   33  C15 UNL     1      11.895  -9.850  -1.495  1.00  0.00     0.319 C 
HETATM   34  O5  UNL     1      12.503 -10.735  -2.080  1.00  0.00    -0.257 OA
BRANCH  33  35
HETATM   35  O6  UNL     1      10.550 -10.014  -1.207  1.00  0.00    -0.321 OA
HETATM   36  C16 UNL     1       9.620 -10.611  -2.105  1.00  0.00     0.213 C 
ENDBRANCH  33  35
ENDBRANCH  27  33
ENDBRANCH  11  27
BRANCH   6  37
HETATM   37  N1  UNL     1       9.046  -4.780  -3.125  1.00  0.00    -0.341 N 
HETATM   38  C6  UNL     1       8.785  -3.504  -3.658  1.00  0.00     0.269 C 
HETATM   39  O1  UNL     1       9.567  -2.975  -4.484  1.00  0.00    -0.266 OA
ATOM     40  H1  UNL     1       8.383  -5.175  -2.458  1.00  0.00     0.163 HD
BRANCH  38  41
HETATM   41  C7  UNL     1       7.559  -2.787  -3.218  1.00  0.00     0.109 A 
HETATM   42  C8  UNL     1       7.137  -1.646  -3.855  1.00  0.00     0.088 A 
HETATM   43  S2  UNL     1       5.718  -1.242  -2.986  1.00  0.00    -0.064 SA
HETATM   44  C9  UNL     1       5.742  -2.533  -1.876  1.00  0.00     0.142 A 
HETATM   45  N3  UNL     1       6.828  -3.210  -2.217  1.00  0.00    -0.332 N 
ATOM     46  H3  UNL     1       7.092  -4.052  -1.705  1.00  0.00     0.168 HD
BRANCH  44  47
HETATM   47  N2  UNL     1       4.891  -2.809  -0.906  1.00  0.00    -0.380 N 
ATOM     48  H22 UNL     1       4.740  -2.288  -0.042  1.00  0.00     0.158 HD
ATOM     49  H21 UNL     1       4.232  -3.584  -0.832  1.00  0.00     0.158 HD
ENDBRANCH  44  47
ENDBRANCH  38  41
ENDBRANCH   6  37
TORSDOF 13
ENDMDL
MODEL 3
REMARK VINA RESULT: -6.421414811      1.127      1.391
REMARK  13 active torsions:
REMARK  status: ('A' for Active; 'I' for Inactive)
REMARK    1  A    between atoms: C5_6  and  N1_7 
REMARK       I    between atoms: N1_7  and  C6_9 
REMARK    2  A    between atoms: C6_9  and  C7_11 
REMARK    3  A    between atoms: C9_14  and  N2_15 
REMARK    4  A    between atoms: C11_24  and  C12_25 
REMARK    5  A    between atoms: C12_25  and  O2_26 
REMARK    6  A    between atoms: C12_25  and  C15_31 
REMARK    7  A    between atoms: O2_26  and  C13_27 
REMARK    8  A    between atoms: C13_27  and  O4_29 
REMARK    9  A    between atoms: C15_31  and  O6_33 
REMARK   10  A    between atoms: C17_35  and  C18_36 
REMARK   11  A    between atoms: C18_36  and  S3_37 
REMARK   12  A    between atoms: S3_37  and  C19_38 
REMARK   13  A    between atoms: C20_40  and  N5_41 
ROOT
HETATM    1  C1  UNL     1       9.596  -7.794  -1.712  1.00  0.00     0.020 C 
HETATM    2  C2  UNL     1      10.725  -7.130  -1.848  1.00  0.00    -0.049 C 
HETATM    3  C3  UNL     1      11.633  -7.292  -0.695  1.00  0.00     0.114 C 
HETATM    4  S1  UNL     1      13.167  -6.429  -0.762  1.00  0.00    -0.137 SA
HETATM    5  C4  UNL     1      14.096  -6.521  -2.246  1.00  0.00     0.183 C 
HETATM    6  C5  UNL     1      14.919  -7.760  -2.536  1.00  0.00     0.213 C 
HETATM    7  C10 UNL     1      14.451  -7.566  -3.994  1.00  0.00     0.348 C 
HETATM    8  F1  UNL     1      15.405  -6.904  -4.692  1.00  0.00    -0.180 F 
HETATM    9  F2  UNL     1      14.151  -8.786  -4.503  1.00  0.00    -0.180 F 
HETATM   10  N4  UNL     1      13.355  -6.752  -3.476  1.00  0.00    -0.298 N 
HETATM   11  C11 UNL     1      12.055  -6.234  -3.814  1.00  0.00     0.084 C 
HETATM   12  C17 UNL     1      10.914  -6.390  -3.113  1.00  0.00    -0.012 C 
ENDROOT
BRANCH  12  13
HETATM   13  C18 UNL     1       9.708  -5.844  -3.649  1.00  0.00     0.123 C 
BRANCH  13  14
HETATM   14  S3  UNL     1       8.955  -4.595  -2.639  1.00  0.00    -0.098 SA
BRANCH  14  15
HETATM   15  C19 UNL     1       8.073  -3.271  -3.316  1.00  0.00     0.146 A 
HETATM   16  O7  UNL     1       8.374  -2.717  -4.495  1.00  0.00    -0.270 OA
HETATM   17  C20 UNL     1       7.709  -1.723  -4.986  1.00  0.00     0.225 A 
HETATM   18  N6  UNL     1       6.655  -1.141  -4.377  1.00  0.00    -0.287 N 
HETATM   19  C21 UNL     1       6.278  -1.628  -3.186  1.00  0.00     0.276 A 
ATOM     20  H6  UNL     1       6.163  -0.359  -4.807  1.00  0.00     0.172 HD
HETATM   21  O8  UNL     1       5.295  -1.109  -2.582  1.00  0.00    -0.266 OA
HETATM   22  C22 UNL     1       6.990  -2.682  -2.672  1.00  0.00     0.154 A 
HETATM   23  N7  UNL     1       6.617  -3.147  -1.381  1.00  0.00    -0.093 NA
BRANCH  17  24
HETATM   24  N5  UNL     1       8.050  -1.227  -6.138  1.00  0.00    -0.365 N 
ATOM     25  H52 UNL     1       8.988  -0.832  -6.198  1.00  0.00     0.159 HD
ATOM     26  H51 UNL     1       7.388  -1.251  -6.913  1.00  0.00     0.159 HD
ENDBRANCH  17  24
ENDBRANCH  14  15
ENDBRANCH  13  14
ENDBRANCH  12  13
BRANCH  11  27
HETATM   27  C12 UNL     1      11.948  -5.529  -5.076  1.00  0.00     0.183 C 
BRANCH  27  28
HETATM   28  O2  UNL     1      12.436  -4.233  -5.180  1.00  0.00    -0.247 OA
BRANCH  28  29
HETATM   29  C13 UNL     1      11.815  -3.061  -4.838  1.00  0.00     0.411 C 
HETATM   30  O3  UNL     1      11.893  -2.715  -3.617  1.00  0.00    -0.229 OA
BRANCH  29  31
HETATM   31  O4  UNL     1      11.145  -2.321  -5.803  1.00  0.00    -0.303 OA
HETATM   32  C14 UNL     1      11.868  -1.945  -6.959  1.00  0.00     0.215 C 
ENDBRANCH  29  31
ENDBRANCH  28  29
ENDBRANCH  27  28
BRANCH  27  33
HETATM   33  C15 UNL     1      12.119  -6.367  -6.314  1.00  0.00     0.319 C 
HETATM   34  O5  UNL     1      12.892  -6.084  -7.218  1.00  0.00    -0.257 OA
BRANCH  33  35
HETATM   35  O6  UNL     1      11.349  -7.516  -6.402  1.00  0.00    -0.321 OA
HETATM   36  C16 UNL     1      10.034  -7.542  -6.947  1.00  0.00     0.213 C 
ENDBRANCH  33  35
ENDBRANCH  27  33
ENDBRANCH  11  27
BRANCH   6  37
HETATM   37  N1  UNL     1      16.354  -7.554  -2.389  1.00  0.00    -0.341 N 
HETATM   38  C6  UNL     1      17.001  -7.571  -1.139  1.00  0.00     0.269 C 
HETATM   39  O1  UNL     1      16.358  -7.772  -0.080  1.00  0.00    -0.266 OA
ATOM     40  H1  UNL     1      16.912  -7.390  -3.226  1.00  0.00     0.163 HD
BRANCH  38  41
HETATM   41  C7  UNL     1      18.469  -7.341  -1.096  1.00  0.00     0.109 A 
HETATM   42  C8  UNL     1      19.333  -8.135  -1.812  1.00  0.00     0.088 A 
HETATM   43  S2  UNL     1      20.857  -7.457  -1.430  1.00  0.00    -0.064 SA
HETATM   44  C9  UNL     1      20.316  -6.217  -0.396  1.00  0.00     0.142 A 
HETATM   45  N3  UNL     1      19.002  -6.377  -0.388  1.00  0.00    -0.332 N 
ATOM     46  H3  UNL     1      18.410  -5.756   0.165  1.00  0.00     0.168 HD
BRANCH  44  47
HETATM   47  N2  UNL     1      21.021  -5.307   0.249  1.00  0.00    -0.380 N 
ATOM     48  H22 UNL     1      21.950  -4.957   0.015  1.00  0.00     0.158 HD
ATOM     49  H21 UNL     1      20.779  -4.787   1.092  1.00  0.00     0.158 HD
ENDBRANCH  44  47
ENDBRANCH  38  41
ENDBRANCH   6  37
TORSDOF 13
ENDMDL
MODEL 4
REMARK VINA RESULT: -6.395537182      0.991      1.707
REMARK  13 active torsions:
REMARK  status: ('A' for Active; 'I' for Inactive)
REMARK    1  A    between atoms: C5_6  and  N1_7 
REMARK       I    between atoms: N1_7  and  C6_9 
REMARK    2  A    between atoms: C6_9  and  C7_11 
REMARK    3  A    between atoms: C9_14  and  N2_15 
REMARK    4  A    between atoms: C11_24  and  C12_25 
REMARK    5  A    between atoms: C12_25  and  O2_26 
REMARK    6  A    between atoms: C12_25  and  C15_31 
REMARK    7  A    between atoms: O2_26  and  C13_27 
REMARK    8  A    between atoms: C13_27  and  O4_29 
REMARK    9  A    between atoms: C15_31  and  O6_33 
REMARK   10  A    between atoms: C17_35  and  C18_36 
REMARK   11  A    between atoms: C18_36  and  S3_37 
REMARK   12  A    between atoms: S3_37  and  C19_38 
REMARK   13  A    between atoms: C20_40  and  N5_41 
ROOT
HETATM    1  C1  UNL     1       9.308  -6.912  -1.478  1.00  0.00     0.020 C 
HETATM    2  C2  UNL     1      10.492  -6.394  -1.727  1.00  0.00    -0.049 C 
HETATM    3  C3  UNL     1      11.435  -6.536  -0.599  1.00  0.00     0.114 C 
HETATM    4  S1  UNL     1      13.047  -5.860  -0.816  1.00  0.00    -0.137 SA
HETATM    5  C4  UNL     1      13.886  -6.206  -2.316  1.00  0.00     0.183 C 
HETATM    6  C5  UNL     1      14.557  -7.552  -2.502  1.00  0.00     0.213 C 
HETATM    7  C10 UNL     1      14.040  -7.459  -3.954  1.00  0.00     0.348 C 
HETATM    8  F1  UNL     1      15.024  -6.982  -4.755  1.00  0.00    -0.180 F 
HETATM    9  F2  UNL     1      13.588  -8.684  -4.317  1.00  0.00    -0.180 F 
HETATM   10  N4  UNL     1      13.064  -6.479  -3.485  1.00  0.00    -0.298 N 
HETATM   11  C11 UNL     1      11.812  -5.857  -3.827  1.00  0.00     0.084 C 
HETATM   12  C17 UNL     1      10.697  -5.813  -3.071  1.00  0.00    -0.012 C 
ENDROOT
BRANCH  12  13
HETATM   13  C18 UNL     1       9.530  -5.195  -3.616  1.00  0.00     0.123 C 
BRANCH  13  14
HETATM   14  S3  UNL     1       9.253  -3.532  -3.063  1.00  0.00    -0.098 SA
BRANCH  14  15
HETATM   15  C19 UNL     1       7.674  -2.937  -2.691  1.00  0.00     0.146 A 
HETATM   16  O7  UNL     1       6.982  -3.318  -1.612  1.00  0.00    -0.270 OA
HETATM   17  C20 UNL     1       5.798  -2.868  -1.351  1.00  0.00     0.225 A 
HETATM   18  N6  UNL     1       5.137  -1.981  -2.122  1.00  0.00    -0.287 N 
HETATM   19  C21 UNL     1       5.750  -1.541  -3.231  1.00  0.00     0.276 A 
ATOM     20  H6  UNL     1       4.203  -1.656  -1.872  1.00  0.00     0.172 HD
HETATM   21  O8  UNL     1       5.163  -0.709  -3.980  1.00  0.00    -0.266 OA
HETATM   22  C22 UNL     1       7.006  -2.024  -3.500  1.00  0.00     0.154 A 
HETATM   23  N7  UNL     1       7.618  -1.596  -4.710  1.00  0.00    -0.093 NA
BRANCH  17  24
HETATM   24  N5  UNL     1       5.176  -3.276  -0.285  1.00  0.00    -0.365 N 
ATOM     25  H52 UNL     1       4.455  -3.983  -0.428  1.00  0.00     0.159 HD
ATOM     26  H51 UNL     1       5.424  -2.886   0.624  1.00  0.00     0.159 HD
ENDBRANCH  17  24
ENDBRANCH  14  15
ENDBRANCH  13  14
ENDBRANCH  12  13
BRANCH  11  27
HETATM   27  C12 UNL     1      11.718  -5.278  -5.153  1.00  0.00     0.183 C 
BRANCH  27  28
HETATM   28  O2  UNL     1      12.246  -4.016  -5.387  1.00  0.00    -0.247 OA
BRANCH  28  29
HETATM   29  C13 UNL     1      11.750  -3.023  -6.189  1.00  0.00     0.411 C 
HETATM   30  O3  UNL     1      10.888  -2.250  -5.665  1.00  0.00    -0.229 OA
BRANCH  29  31
HETATM   31  O4  UNL     1      12.190  -2.902  -7.501  1.00  0.00    -0.303 OA
HETATM   32  C14 UNL     1      11.339  -3.379  -8.525  1.00  0.00     0.215 C 
ENDBRANCH  29  31
ENDBRANCH  28  29
ENDBRANCH  27  28
BRANCH  27  33
HETATM   33  C15 UNL     1      11.854  -6.241  -6.302  1.00  0.00     0.319 C 
HETATM   34  O5  UNL     1      11.009  -7.080  -6.582  1.00  0.00    -0.257 OA
BRANCH  33  35
HETATM   35  O6  UNL     1      13.007  -6.145  -7.065  1.00  0.00    -0.321 OA
HETATM   36  C16 UNL     1      13.599  -7.250  -7.740  1.00  0.00     0.213 C 
ENDBRANCH  33  35
ENDBRANCH  27  33
ENDBRANCH  11  27
BRANCH   6  37
HETATM   37  N1  UNL     1      16.011  -7.492  -2.433  1.00  0.00    -0.341 N 
HETATM   38  C6  UNL     1      16.720  -7.601  -1.222  1.00  0.00     0.269 C 
HETATM   39  O1  UNL     1      16.119  -7.762  -0.132  1.00  0.00    -0.266 OA
ATOM     40  H1  UNL     1      16.537  -7.365  -3.297  1.00  0.00     0.163 HD
BRANCH  38  41
HETATM   41  C7  UNL     1      18.204  -7.519  -1.258  1.00  0.00     0.109 A 
HETATM   42  C8  UNL     1      18.950  -8.447  -1.944  1.00  0.00     0.088 A 
HETATM   43  S2  UNL     1      20.551  -7.901  -1.680  1.00  0.00    -0.064 SA
HETATM   44  C9  UNL     1      20.184  -6.539  -0.726  1.00  0.00     0.142 A 
HETATM   45  N3  UNL     1      18.863  -6.564  -0.651  1.00  0.00    -0.332 N 
ATOM     46  H3  UNL     1      18.363  -5.846  -0.126  1.00  0.00     0.168 HD
BRANCH  44  47
HETATM   47  N2  UNL     1      21.006  -5.659  -0.185  1.00  0.00    -0.380 N 
ATOM     48  H22 UNL     1      21.635  -5.797   0.606  1.00  0.00     0.158 HD
ATOM     49  H21 UNL     1      21.168  -4.687  -0.448  1.00  0.00     0.158 HD
ENDBRANCH  44  47
ENDBRANCH  38  41
ENDBRANCH   6  37
TORSDOF 13
ENDMDL
MODEL 5
REMARK VINA RESULT: -6.320414460      3.019     10.252
REMARK  13 active torsions:
REMARK  status: ('A' for Active; 'I' for Inactive)
REMARK    1  A    between atoms: C5_6  and  N1_7 
REMARK       I    between atoms: N1_7  and  C6_9 
REMARK    2  A    between atoms: C6_9  and  C7_11 
REMARK    3  A    between atoms: C9_14  and  N2_15 
REMARK    4  A    between atoms: C11_24  and  C12_25 
REMARK    5  A    between atoms: C12_25  and  O2_26 
REMARK    6  A    between atoms: C12_25  and  C15_31 
REMARK    7  A    between atoms: O2_26  and  C13_27 
REMARK    8  A    between atoms: C13_27  and  O4_29 
REMARK    9  A    between atoms: C15_31  and  O6_33 
REMARK   10  A    between atoms: C17_35  and  C18_36 
REMARK   11  A    between atoms: C18_36  and  S3_37 
REMARK   12  A    between atoms: S3_37  and  C19_38 
REMARK   13  A    between atoms: C20_40  and  N5_41 
ROOT
HETATM    1  C1  UNL     1      14.618  -7.223  -4.661  1.00  0.00     0.020 C 
HETATM    2  C2  UNL     1      13.797  -6.622  -3.826  1.00  0.00    -0.049 C 
HETATM    3  C3  UNL     1      13.368  -5.289  -4.295  1.00  0.00     0.114 C 
HETATM    4  S1  UNL     1      12.282  -4.385  -3.244  1.00  0.00    -0.137 SA
HETATM    5  C4  UNL     1      10.902  -5.230  -2.568  1.00  0.00     0.183 C 
HETATM    6  C5  UNL     1       9.677  -5.466  -3.428  1.00  0.00     0.213 C 
HETATM    7  C10 UNL     1       9.621  -6.844  -2.733  1.00  0.00     0.348 C 
HETATM    8  F1  UNL     1       8.748  -6.794  -1.698  1.00  0.00    -0.180 F 
HETATM    9  F2  UNL     1       9.304  -7.772  -3.669  1.00  0.00    -0.180 F 
HETATM   10  N4  UNL     1      11.030  -6.668  -2.392  1.00  0.00    -0.298 N 
HETATM   11  C11 UNL     1      12.211  -7.391  -2.000  1.00  0.00     0.084 C 
HETATM   12  C17 UNL     1      13.412  -7.373  -2.612  1.00  0.00    -0.012 C 
ENDROOT
BRANCH  12  13
HETATM   13  C18 UNL     1      14.449  -8.211  -2.099  1.00  0.00     0.123 C 
BRANCH  13  14
HETATM   14  S3  UNL     1      15.870  -7.336  -1.499  1.00  0.00    -0.098 SA
BRANCH  14  15
HETATM   15  C19 UNL     1      17.483  -7.847  -1.853  1.00  0.00     0.146 A 
HETATM   16  O7  UNL     1      17.832  -8.423  -3.008  1.00  0.00    -0.270 OA
HETATM   17  C20 UNL     1      19.042  -8.806  -3.256  1.00  0.00     0.225 A 
HETATM   18  N6  UNL     1      20.071  -8.671  -2.394  1.00  0.00    -0.287 N 
HETATM   19  C21 UNL     1      19.819  -8.104  -1.206  1.00  0.00     0.276 A 
ATOM     20  H6  UNL     1      21.009  -8.989  -2.638  1.00  0.00     0.172 HD
HETATM   21  O8  UNL     1      20.757  -7.960  -0.371  1.00  0.00    -0.266 OA
HETATM   22  C22 UNL     1      18.532  -7.702  -0.951  1.00  0.00     0.154 A 
HETATM   23  N7  UNL     1      18.267  -7.159   0.336  1.00  0.00    -0.093 NA
BRANCH  17  24
HETATM   24  N5  UNL     1      19.320  -9.360  -4.397  1.00  0.00    -0.365 N 
ATOM     25  H52 UNL     1      18.545  -9.449  -5.055  1.00  0.00     0.159 HD
ATOM     26  H51 UNL     1      20.271  -9.676  -4.587  1.00  0.00     0.159 HD
ENDBRANCH  17  24
ENDBRANCH  14  15
ENDBRANCH  13  14
ENDBRANCH  12  13
BRANCH  11  27
HETATM   27  C12 UNL     1      12.075  -8.287  -0.868  1.00  0.00     0.183 C 
BRANCH  27  28
HETATM   28  O2  UNL     1      12.060  -7.764   0.419  1.00  0.00    -0.247 OA
BRANCH  28  29
HETATM   29  C13 UNL     1      12.593  -8.303   1.560  1.00  0.00     0.411 C 
HETATM   30  O3  UNL     1      11.819  -9.034   2.255  1.00  0.00    -0.229 OA
BRANCH  29  31
HETATM   31  O4  UNL     1      13.912  -8.039   1.905  1.00  0.00    -0.303 OA
HETATM   32  C14 UNL     1      14.883  -9.011   1.573  1.00  0.00     0.215 C 
ENDBRANCH  29  31
ENDBRANCH  28  29
ENDBRANCH  27  28
BRANCH  27  33
HETATM   33  C15 UNL     1      11.179  -9.477  -1.075  1.00  0.00     0.319 C 
HETATM   34  O5  UNL     1      10.059  -9.569  -0.594  1.00  0.00    -0.257 OA
BRANCH  33  35
HETATM   35  O6  UNL     1      11.677 -10.505  -1.860  1.00  0.00    -0.321 OA
HETATM   36  C16 UNL     1      11.288 -10.722  -3.213  1.00  0.00     0.213 C 
ENDBRANCH  33  35
ENDBRANCH  27  33
ENDBRANCH  11  27
BRANCH   6  37
HETATM   37  N1  UNL     1       8.543  -4.625  -3.070  1.00  0.00    -0.341 N 
HETATM   38  C6  UNL     1       8.345  -3.343  -3.615  1.00  0.00     0.269 C 
HETATM   39  O1  UNL     1       9.149  -2.863  -4.451  1.00  0.00    -0.266 OA
ATOM     40  H1  UNL     1       7.865  -4.979  -2.396  1.00  0.00     0.163 HD
BRANCH  38  41
HETATM   41  C7  UNL     1       7.159  -2.561  -3.177  1.00  0.00     0.109 A 
HETATM   42  C8  UNL     1       6.151  -3.146  -2.450  1.00  0.00     0.088 A 
HETATM   43  S2  UNL     1       5.068  -1.843  -2.205  1.00  0.00    -0.064 SA
HETATM   44  C9  UNL     1       5.950  -0.642  -3.030  1.00  0.00     0.142 A 
HETATM   45  N3  UNL     1       7.024  -1.288  -3.455  1.00  0.00    -0.332 N 
ATOM     46  H3  UNL     1       7.740  -0.799  -3.992  1.00  0.00     0.168 HD
BRANCH  44  47
HETATM   47  N2  UNL     1       5.649   0.630  -3.212  1.00  0.00    -0.380 N 
ATOM     48  H22 UNL     1       5.390   1.317  -2.503  1.00  0.00     0.158 HD
ATOM     49  H21 UNL     1       5.618   1.164  -4.080  1.00  0.00     0.158 HD
ENDBRANCH  44  47
ENDBRANCH  38  41
ENDBRANCH   6  37
TORSDOF 13
ENDMDL
