MODEL 1
REMARK VINA RESULT: -7.612774839      0.000      0.000
REMARK  14 active torsions:
REMARK  status: ('A' for Active; 'I' for Inactive)
REMARK    1  A    between atoms: C5_9  and  O1_11 
REMARK    2  A    between atoms: C7_17  and  C8_18 
REMARK    3  A    between atoms: C8_18  and  O2_19 
REMARK    4  A    between atoms: C8_18  and  N6_21 
REMARK    5  A    between atoms: N6_21  and  O3_22 
REMARK    6  A    between atoms: C9_24  and  N7_25 
REMARK    7  A    between atoms: N7_25  and  C10_27 
REMARK    8  A    between atoms: C10_27  and  C11_29 
REMARK    9  A    between atoms: C13_33  and  N10_34 
REMARK   10  A    between atoms: N10_34  and  C15_36 
REMARK   11  A    between atoms: C15_36  and  C16_37 
REMARK   12  A    between atoms: C16_37  and  O4_38 
REMARK   13  A    between atoms: C16_37  and  C17_40 
REMARK   14  A    between atoms: C17_40  and  O5_41 
ROOT
HETATM    1  C1  UNL     1     -10.846   8.756   1.439  1.00  0.00     0.147 C 
HETATM    2  N1  UNL     1     -12.164   8.211   1.696  1.00  0.00    -0.379 N 
ATOM      3  H1  UNL     1     -12.279   7.215   1.881  1.00  0.00     0.160 HD
HETATM    4  C2  UNL     1     -13.194   8.994   1.692  1.00  0.00     0.132 A 
HETATM    5  N2  UNL     1     -13.022  10.326   1.444  1.00  0.00    -0.325 N 
ATOM      6  H2  UNL     1     -12.084  10.689   1.277  1.00  0.00     0.169 HD
HETATM    7  C3  UNL     1     -14.068  11.161   1.417  1.00  0.00     0.144 A 
HETATM    8  C4  UNL     1     -14.190  12.539   1.196  1.00  0.00     0.074 A 
HETATM    9  C5  UNL     1     -13.177  13.347   0.947  1.00  0.00     0.165 C 
HETATM   10  N3  UNL     1     -11.850  12.864   0.881  1.00  0.00    -0.074 NA
HETATM   11  C6  UNL     1     -15.524  12.865   1.290  1.00  0.00     0.127 A 
HETATM   12  N4  UNL     1     -16.158  11.713   1.555  1.00  0.00    -0.302 N 
ATOM     13  H4  UNL     1     -17.166  11.625   1.682  1.00  0.00     0.186 HD
HETATM   14  N5  UNL     1     -15.289  10.688   1.632  1.00  0.00    -0.237 N 
HETATM   15  C7  UNL     1     -15.531   9.355   1.888  1.00  0.00     0.113 A 
HETATM   16  C9  UNL     1     -14.457   8.509   1.917  1.00  0.00     0.107 A 
ENDROOT
BRANCH  16  17
HETATM   17  N7  UNL     1     -14.624   7.123   2.204  1.00  0.00    -0.338 N 
ATOM     18  H7  UNL     1     -14.850   6.868   3.166  1.00  0.00     0.167 HD
BRANCH  17  19
HETATM   19  C10 UNL     1     -14.500   6.060   1.252  1.00  0.00     0.152 C 
HETATM   20  N8  UNL     1     -15.768   5.614   0.701  1.00  0.00    -0.080 NA
BRANCH  19  21
HETATM   21  C11 UNL     1     -13.560   4.981   1.560  1.00  0.00     0.135 A 
HETATM   22  C12 UNL     1     -13.956   3.701   1.887  1.00  0.00     0.132 A 
HETATM   23  N9  UNL     1     -12.869   2.955   2.107  1.00  0.00    -0.329 N 
HETATM   24  C13 UNL     1     -11.807   3.754   1.921  1.00  0.00     0.226 A 
ATOM     25  H9  UNL     1     -12.850   1.968   2.366  1.00  0.00     0.168 HD
HETATM   26  O6  UNL     1     -12.248   4.948   1.597  1.00  0.00    -0.275 OA
BRANCH  24  27
HETATM   27  N10 UNL     1     -10.439   3.403   2.043  1.00  0.00    -0.349 N 
HETATM   28  C14 UNL     1     -10.096   2.011   2.223  1.00  0.00     0.153 C 
BRANCH  27  29
HETATM   29  C15 UNL     1      -9.402   4.399   1.991  1.00  0.00     0.159 C 
BRANCH  29  30
HETATM   30  C16 UNL     1      -8.483   4.344   3.177  1.00  0.00     0.159 C 
BRANCH  30  31
HETATM   31  O4  UNL     1      -9.171   4.567   4.362  1.00  0.00    -0.392 OA
ATOM     32  H4  UNL     1      -8.770   5.263   4.870  1.00  0.00     0.210 HD
ENDBRANCH  30  31
BRANCH  30  33
HETATM   33  C17 UNL     1      -7.361   5.363   3.037  1.00  0.00     0.197 C 
BRANCH  33  34
HETATM   34  O5  UNL     1      -7.656   6.488   3.817  1.00  0.00    -0.398 OA
ATOM     35  H5  UNL     1      -8.252   7.054   3.341  1.00  0.00     0.209 HD
ENDBRANCH  33  34
ENDBRANCH  30  33
ENDBRANCH  29  30
ENDBRANCH  27  29
ENDBRANCH  24  27
ENDBRANCH  19  21
ENDBRANCH  17  19
ENDBRANCH  16  17
BRANCH  15  36
HETATM   36  C8  UNL     1     -16.951   9.001   2.018  1.00  0.00     0.293 C 
BRANCH  36  37
HETATM   37  O2  UNL     1     -17.257   8.154   0.902  1.00  0.00    -0.372 OA
ATOM     38  H2  UNL     1     -17.267   8.717   0.136  1.00  0.00     0.212 HD
ENDBRANCH  36  37
BRANCH  36  39
HETATM   39  N6  UNL     1     -17.296   8.170   3.156  1.00  0.00    -0.065 NA
BRANCH  39  40
HETATM   40  O3  UNL     1     -17.565   6.881   2.682  1.00  0.00    -0.293 OA
ATOM     41  H3  UNL     1     -17.951   6.383   3.394  1.00  0.00     0.238 HD
ENDBRANCH  39  40
ENDBRANCH  36  39
ENDBRANCH  15  36
BRANCH   9  42
HETATM   42  O1  UNL     1     -13.398  14.699   0.742  1.00  0.00    -0.348 OA
ATOM     43  H1  UNL     1     -12.666  15.305   0.720  1.00  0.00     0.219 HD
ENDBRANCH   9  42
TORSDOF 14
ENDMDL
MODEL 2
REMARK VINA RESULT: -7.589995122      3.632      7.827
REMARK  14 active torsions:
REMARK  status: ('A' for Active; 'I' for Inactive)
REMARK    1  A    between atoms: C5_9  and  O1_11 
REMARK    2  A    between atoms: C7_17  and  C8_18 
REMARK    3  A    between atoms: C8_18  and  O2_19 
REMARK    4  A    between atoms: C8_18  and  N6_21 
REMARK    5  A    between atoms: N6_21  and  O3_22 
REMARK    6  A    between atoms: C9_24  and  N7_25 
REMARK    7  A    between atoms: N7_25  and  C10_27 
REMARK    8  A    between atoms: C10_27  and  C11_29 
REMARK    9  A    between atoms: C13_33  and  N10_34 
REMARK   10  A    between atoms: N10_34  and  C15_36 
REMARK   11  A    between atoms: C15_36  and  C16_37 
REMARK   12  A    between atoms: C16_37  and  O4_38 
REMARK   13  A    between atoms: C16_37  and  C17_40 
REMARK   14  A    between atoms: C17_40  and  O5_41 
ROOT
HETATM    1  C1  UNL     1     -12.517   5.686  -1.478  1.00  0.00     0.147 C 
HETATM    2  N1  UNL     1     -11.994   6.725  -0.615  1.00  0.00    -0.379 N 
ATOM      3  H1  UNL     1     -11.026   7.034  -0.714  1.00  0.00     0.160 HD
HETATM    4  C2  UNL     1     -12.758   7.261   0.281  1.00  0.00     0.132 A 
HETATM    5  N2  UNL     1     -14.051   6.837   0.399  1.00  0.00    -0.325 N 
ATOM      6  H2  UNL     1     -14.401   6.112  -0.227  1.00  0.00     0.169 HD
HETATM    7  C3  UNL     1     -14.863   7.358   1.325  1.00  0.00     0.144 A 
HETATM    8  C4  UNL     1     -16.202   7.126   1.668  1.00  0.00     0.074 A 
HETATM    9  C5  UNL     1     -16.984   6.250   1.068  1.00  0.00     0.165 C 
HETATM   10  N3  UNL     1     -16.512   5.453  -0.001  1.00  0.00    -0.074 NA
HETATM   11  C6  UNL     1     -16.521   7.964   2.713  1.00  0.00     0.127 A 
HETATM   12  N4  UNL     1     -15.404   8.659   2.971  1.00  0.00    -0.302 N 
ATOM     13  H4  UNL     1     -15.321   9.368   3.700  1.00  0.00     0.186 HD
HETATM   14  N5  UNL     1     -14.408   8.300   2.141  1.00  0.00    -0.237 N 
HETATM   15  C7  UNL     1     -13.114   8.772   2.075  1.00  0.00     0.113 A 
HETATM   16  C9  UNL     1     -12.290   8.236   1.124  1.00  0.00     0.107 A 
ENDROOT
BRANCH  16  17
HETATM   17  N7  UNL     1     -10.949   8.694   0.974  1.00  0.00    -0.338 N 
ATOM     18  H7  UNL     1     -10.240   8.273   1.574  1.00  0.00     0.167 HD
BRANCH  17  19
HETATM   19  C10 UNL     1     -10.516   9.699   0.047  1.00  0.00     0.152 C 
HETATM   20  N8  UNL     1      -9.182  10.207   0.312  1.00  0.00    -0.080 NA
BRANCH  19  21
HETATM   21  C11 UNL     1     -11.488  10.721  -0.346  1.00  0.00     0.135 A 
HETATM   22  C12 UNL     1     -11.950  10.871  -1.636  1.00  0.00     0.132 A 
HETATM   23  N9  UNL     1     -12.824  11.882  -1.668  1.00  0.00    -0.329 N 
HETATM   24  C13 UNL     1     -12.909  12.359  -0.417  1.00  0.00     0.226 A 
ATOM     25  H9  UNL     1     -13.328  12.225  -2.485  1.00  0.00     0.168 HD
HETATM   26  O6  UNL     1     -12.107  11.651   0.345  1.00  0.00    -0.275 OA
BRANCH  24  27
HETATM   27  N10 UNL     1     -13.713  13.435   0.037  1.00  0.00    -0.349 N 
HETATM   28  C14 UNL     1     -13.166  14.337   1.024  1.00  0.00     0.153 C 
BRANCH  27  29
HETATM   29  C15 UNL     1     -15.046  13.639  -0.464  1.00  0.00     0.159 C 
BRANCH  29  30
HETATM   30  C16 UNL     1     -15.993  14.139   0.589  1.00  0.00     0.159 C 
BRANCH  30  31
HETATM   31  O4  UNL     1     -16.892  13.153   0.971  1.00  0.00    -0.392 OA
ATOM     32  H4  UNL     1     -16.518  12.285   0.872  1.00  0.00     0.210 HD
ENDBRANCH  30  31
BRANCH  30  33
HETATM   33  C17 UNL     1     -16.753  15.361   0.094  1.00  0.00     0.197 C 
BRANCH  33  34
HETATM   34  O5  UNL     1     -16.722  15.391  -1.306  1.00  0.00    -0.398 OA
ATOM     35  H5  UNL     1     -17.606  15.300  -1.643  1.00  0.00     0.209 HD
ENDBRANCH  33  34
ENDBRANCH  30  33
ENDBRANCH  29  30
ENDBRANCH  27  29
ENDBRANCH  24  27
ENDBRANCH  19  21
ENDBRANCH  17  19
ENDBRANCH  16  17
BRANCH  15  36
HETATM   36  C8  UNL     1     -12.762   9.753   3.111  1.00  0.00     0.293 C 
BRANCH  36  37
HETATM   37  O2  UNL     1     -13.585  10.902   2.872  1.00  0.00    -0.372 OA
ATOM     38  H2  UNL     1     -13.127  11.429   2.229  1.00  0.00     0.212 HD
ENDBRANCH  36  37
BRANCH  36  39
HETATM   39  N6  UNL     1     -13.103   9.389   4.473  1.00  0.00    -0.065 NA
BRANCH  39  40
HETATM   40  O3  UNL     1     -14.033  10.322   4.947  1.00  0.00    -0.293 OA
ATOM     41  H3  UNL     1     -14.792   9.844   5.260  1.00  0.00     0.238 HD
ENDBRANCH  39  40
ENDBRANCH  36  39
ENDBRANCH  15  36
BRANCH   9  42
HETATM   42  O1  UNL     1     -18.297   6.091   1.478  1.00  0.00    -0.348 OA
ATOM     43  H1  UNL     1     -18.915   5.619   0.932  1.00  0.00     0.219 HD
ENDBRANCH   9  42
TORSDOF 14
ENDMDL
MODEL 3
REMARK VINA RESULT: -7.536594702      3.603      7.512
REMARK  14 active torsions:
REMARK  status: ('A' for Active; 'I' for Inactive)
REMARK    1  A    between atoms: C5_9  and  O1_11 
REMARK    2  A    between atoms: C7_17  and  C8_18 
REMARK    3  A    between atoms: C8_18  and  O2_19 
REMARK    4  A    between atoms: C8_18  and  N6_21 
REMARK    5  A    between atoms: N6_21  and  O3_22 
REMARK    6  A    between atoms: C9_24  and  N7_25 
REMARK    7  A    between atoms: N7_25  and  C10_27 
REMARK    8  A    between atoms: C10_27  and  C11_29 
REMARK    9  A    between atoms: C13_33  and  N10_34 
REMARK   10  A    between atoms: N10_34  and  C15_36 
REMARK   11  A    between atoms: C15_36  and  C16_37 
REMARK   12  A    between atoms: C16_37  and  O4_38 
REMARK   13  A    between atoms: C16_37  and  C17_40 
REMARK   14  A    between atoms: C17_40  and  O5_41 
ROOT
HETATM    1  C1  UNL     1     -12.475   5.631  -1.373  1.00  0.00     0.147 C 
HETATM    2  N1  UNL     1     -11.953   6.698  -0.543  1.00  0.00    -0.379 N 
ATOM      3  H1  UNL     1     -10.980   6.992  -0.638  1.00  0.00     0.160 HD
HETATM    4  C2  UNL     1     -12.725   7.277   0.320  1.00  0.00     0.132 A 
HETATM    5  N2  UNL     1     -14.024   6.872   0.433  1.00  0.00    -0.325 N 
ATOM      6  H2  UNL     1     -14.373   6.127  -0.170  1.00  0.00     0.169 HD
HETATM    7  C3  UNL     1     -14.845   7.439   1.324  1.00  0.00     0.144 A 
HETATM    8  C4  UNL     1     -16.192   7.236   1.654  1.00  0.00     0.074 A 
HETATM    9  C5  UNL     1     -16.975   6.346   1.075  1.00  0.00     0.165 C 
HETATM   10  N3  UNL     1     -16.496   5.502   0.046  1.00  0.00    -0.074 NA
HETATM   11  C6  UNL     1     -16.518   8.117   2.660  1.00  0.00     0.127 A 
HETATM   12  N4  UNL     1     -15.397   8.810   2.908  1.00  0.00    -0.302 N 
ATOM     13  H4  UNL     1     -15.317   9.546   3.610  1.00  0.00     0.186 HD
HETATM   14  N5  UNL     1     -14.391   8.407   2.110  1.00  0.00    -0.237 N 
HETATM   15  C7  UNL     1     -13.091   8.861   2.047  1.00  0.00     0.113 A 
HETATM   16  C9  UNL     1     -12.259   8.279   1.131  1.00  0.00     0.107 A 
ENDROOT
BRANCH  16  17
HETATM   17  N7  UNL     1     -10.910   8.716   0.985  1.00  0.00    -0.338 N 
ATOM     18  H7  UNL     1     -10.230   8.373   1.664  1.00  0.00     0.167 HD
BRANCH  17  19
HETATM   19  C10 UNL     1     -10.432   9.597  -0.039  1.00  0.00     0.152 C 
HETATM   20  N8  UNL     1      -9.204  10.290   0.309  1.00  0.00    -0.080 NA
BRANCH  19  21
HETATM   21  C11 UNL     1     -11.419  10.423  -0.736  1.00  0.00     0.135 A 
HETATM   22  C12 UNL     1     -11.678  10.317  -2.086  1.00  0.00     0.132 A 
HETATM   23  N9  UNL     1     -12.626  11.200  -2.415  1.00  0.00    -0.329 N 
HETATM   24  C13 UNL     1     -12.957  11.850  -1.290  1.00  0.00     0.226 A 
ATOM     25  H9  UNL     1     -13.022  11.350  -3.344  1.00  0.00     0.168 HD
HETATM   26  O6  UNL     1     -12.225  11.368  -0.311  1.00  0.00    -0.275 OA
BRANCH  24  27
HETATM   27  N10 UNL     1     -13.921  12.880  -1.146  1.00  0.00    -0.349 N 
HETATM   28  C14 UNL     1     -14.558  13.399  -2.334  1.00  0.00     0.153 C 
BRANCH  27  29
HETATM   29  C15 UNL     1     -14.270  13.406   0.147  1.00  0.00     0.159 C 
BRANCH  29  30
HETATM   30  C16 UNL     1     -15.726  13.757   0.257  1.00  0.00     0.159 C 
BRANCH  30  31
HETATM   31  O4  UNL     1     -15.904  15.113   0.492  1.00  0.00    -0.392 OA
ATOM     32  H4  UNL     1     -16.248  15.556  -0.275  1.00  0.00     0.210 HD
ENDBRANCH  30  31
BRANCH  30  33
HETATM   33  C17 UNL     1     -16.391  12.954   1.366  1.00  0.00     0.197 C 
BRANCH  33  34
HETATM   34  O5  UNL     1     -15.864  11.656   1.379  1.00  0.00    -0.398 OA
ATOM     35  H5  UNL     1     -14.918  11.701   1.454  1.00  0.00     0.209 HD
ENDBRANCH  33  34
ENDBRANCH  30  33
ENDBRANCH  29  30
ENDBRANCH  27  29
ENDBRANCH  24  27
ENDBRANCH  19  21
ENDBRANCH  17  19
ENDBRANCH  16  17
BRANCH  15  36
HETATM   36  C8  UNL     1     -12.744   9.878   3.049  1.00  0.00     0.293 C 
BRANCH  36  37
HETATM   37  O2  UNL     1     -13.615  10.991   2.810  1.00  0.00    -0.372 OA
ATOM     38  H2  UNL     1     -13.260  11.451   2.059  1.00  0.00     0.212 HD
ENDBRANCH  36  37
BRANCH  36  39
HETATM   39  N6  UNL     1     -13.031   9.534   4.429  1.00  0.00    -0.065 NA
BRANCH  39  40
HETATM   40  O3  UNL     1     -14.040  10.391   4.885  1.00  0.00    -0.293 OA
ATOM     41  H3  UNL     1     -14.120  10.273   5.824  1.00  0.00     0.238 HD
ENDBRANCH  39  40
ENDBRANCH  36  39
ENDBRANCH  15  36
BRANCH   9  42
HETATM   42  O1  UNL     1     -18.296   6.218   1.469  1.00  0.00    -0.348 OA
ATOM     43  H1  UNL     1     -18.539   5.578   2.128  1.00  0.00     0.219 HD
ENDBRANCH   9  42
TORSDOF 14
ENDMDL
MODEL 4
REMARK VINA RESULT: -7.474310748      2.912      4.389
REMARK  14 active torsions:
REMARK  status: ('A' for Active; 'I' for Inactive)
REMARK    1  A    between atoms: C5_9  and  O1_11 
REMARK    2  A    between atoms: C7_17  and  C8_18 
REMARK    3  A    between atoms: C8_18  and  O2_19 
REMARK    4  A    between atoms: C8_18  and  N6_21 
REMARK    5  A    between atoms: N6_21  and  O3_22 
REMARK    6  A    between atoms: C9_24  and  N7_25 
REMARK    7  A    between atoms: N7_25  and  C10_27 
REMARK    8  A    between atoms: C10_27  and  C11_29 
REMARK    9  A    between atoms: C13_33  and  N10_34 
REMARK   10  A    between atoms: N10_34  and  C15_36 
REMARK   11  A    between atoms: C15_36  and  C16_37 
REMARK   12  A    between atoms: C16_37  and  O4_38 
REMARK   13  A    between atoms: C16_37  and  C17_40 
REMARK   14  A    between atoms: C17_40  and  O5_41 
ROOT
HETATM    1  C1  UNL     1     -10.629   9.056   1.467  1.00  0.00     0.147 C 
HETATM    2  N1  UNL     1     -11.914   8.421   1.679  1.00  0.00    -0.379 N 
ATOM      3  H1  UNL     1     -11.968   7.414   1.834  1.00  0.00     0.160 HD
HETATM    4  C2  UNL     1     -12.992   9.136   1.672  1.00  0.00     0.132 A 
HETATM    5  N2  UNL     1     -12.901  10.483   1.465  1.00  0.00    -0.325 N 
ATOM      6  H2  UNL     1     -11.985  10.910   1.329  1.00  0.00     0.169 HD
HETATM    7  C3  UNL     1     -13.998  11.250   1.436  1.00  0.00     0.144 A 
HETATM    8  C4  UNL     1     -14.205  12.623   1.250  1.00  0.00     0.074 A 
HETATM    9  C5  UNL     1     -13.241  13.501   1.046  1.00  0.00     0.165 C 
HETATM   10  N3  UNL     1     -11.884  13.106   0.997  1.00  0.00    -0.074 NA
HETATM   11  C6  UNL     1     -15.558  12.860   1.322  1.00  0.00     0.127 A 
HETATM   12  N4  UNL     1     -16.122  11.663   1.541  1.00  0.00    -0.302 N 
ATOM     13  H4  UNL     1     -17.125  11.507   1.642  1.00  0.00     0.186 HD
HETATM   14  N5  UNL     1     -15.190  10.694   1.611  1.00  0.00    -0.237 N 
HETATM   15  C7  UNL     1     -15.351   9.341   1.824  1.00  0.00     0.113 A 
HETATM   16  C9  UNL     1     -14.226   8.565   1.855  1.00  0.00     0.107 A 
ENDROOT
BRANCH  16  17
HETATM   17  N7  UNL     1     -14.308   7.164   2.101  1.00  0.00    -0.338 N 
ATOM     18  H7  UNL     1     -14.196   6.850   3.065  1.00  0.00     0.167 HD
BRANCH  17  19
HETATM   19  C10 UNL     1     -14.537   6.161   1.103  1.00  0.00     0.152 C 
HETATM   20  N8  UNL     1     -14.621   4.812   1.635  1.00  0.00    -0.080 NA
BRANCH  19  21
HETATM   21  C11 UNL     1     -13.793   6.273  -0.152  1.00  0.00     0.135 A 
HETATM   22  C12 UNL     1     -13.601   5.215  -1.015  1.00  0.00     0.132 A 
HETATM   23  N9  UNL     1     -12.890   5.638  -2.066  1.00  0.00    -0.329 N 
HETATM   24  C13 UNL     1     -12.641   6.941  -1.865  1.00  0.00     0.226 A 
ATOM     25  H9  UNL     1     -12.594   5.078  -2.866  1.00  0.00     0.168 HD
HETATM   26  O6  UNL     1     -13.189   7.289  -0.724  1.00  0.00    -0.275 OA
BRANCH  24  27
HETATM   27  N10 UNL     1     -11.918   7.816  -2.715  1.00  0.00    -0.349 N 
HETATM   28  C14 UNL     1     -10.508   7.574  -2.917  1.00  0.00     0.153 C 
BRANCH  27  29
HETATM   29  C15 UNL     1     -12.560   8.924  -3.370  1.00  0.00     0.159 C 
BRANCH  29  30
HETATM   30  C16 UNL     1     -12.151  10.252  -2.800  1.00  0.00     0.159 C 
BRANCH  30  31
HETATM   31  O4  UNL     1     -12.265  10.266  -1.416  1.00  0.00    -0.392 OA
ATOM     32  H4  UNL     1     -12.801   9.545  -1.106  1.00  0.00     0.210 HD
ENDBRANCH  30  31
BRANCH  30  33
HETATM   33  C17 UNL     1     -12.990  11.375  -3.393  1.00  0.00     0.197 C 
BRANCH  33  34
HETATM   34  O5  UNL     1     -13.731  10.880  -4.473  1.00  0.00    -0.398 OA
ATOM     35  H5  UNL     1     -14.175  11.599  -4.907  1.00  0.00     0.209 HD
ENDBRANCH  33  34
ENDBRANCH  30  33
ENDBRANCH  29  30
ENDBRANCH  27  29
ENDBRANCH  24  27
ENDBRANCH  19  21
ENDBRANCH  17  19
ENDBRANCH  16  17
BRANCH  15  36
HETATM   36  C8  UNL     1     -16.747   8.893   1.912  1.00  0.00     0.293 C 
BRANCH  36  37
HETATM   37  O2  UNL     1     -16.968   8.042   0.779  1.00  0.00    -0.372 OA
ATOM     38  H2  UNL     1     -16.298   7.370   0.817  1.00  0.00     0.212 HD
ENDBRANCH  36  37
BRANCH  36  39
HETATM   39  N6  UNL     1     -17.068   8.029   3.032  1.00  0.00    -0.065 NA
BRANCH  39  40
HETATM   40  O3  UNL     1     -17.538   6.814   2.517  1.00  0.00    -0.293 OA
ATOM     41  H3  UNL     1     -18.381   6.976   2.112  1.00  0.00     0.238 HD
ENDBRANCH  39  40
ENDBRANCH  36  39
ENDBRANCH  15  36
BRANCH   9  42
HETATM   42  O1  UNL     1     -13.544  14.841   0.873  1.00  0.00    -0.348 OA
ATOM     43  H1  UNL     1     -13.322  15.280   0.060  1.00  0.00     0.219 HD
ENDBRANCH   9  42
TORSDOF 14
ENDMDL
MODEL 5
REMARK VINA RESULT: -7.384790429      1.265      2.043
REMARK  14 active torsions:
REMARK  status: ('A' for Active; 'I' for Inactive)
REMARK    1  A    between atoms: C5_9  and  O1_11 
REMARK    2  A    between atoms: C7_17  and  C8_18 
REMARK    3  A    between atoms: C8_18  and  O2_19 
REMARK    4  A    between atoms: C8_18  and  N6_21 
REMARK    5  A    between atoms: N6_21  and  O3_22 
REMARK    6  A    between atoms: C9_24  and  N7_25 
REMARK    7  A    between atoms: N7_25  and  C10_27 
REMARK    8  A    between atoms: C10_27  and  C11_29 
REMARK    9  A    between atoms: C13_33  and  N10_34 
REMARK   10  A    between atoms: N10_34  and  C15_36 
REMARK   11  A    between atoms: C15_36  and  C16_37 
REMARK   12  A    between atoms: C16_37  and  O4_38 
REMARK   13  A    between atoms: C16_37  and  C17_40 
REMARK   14  A    between atoms: C17_40  and  O5_41 
ROOT
HETATM    1  C1  UNL     1     -10.822   8.747   1.450  1.00  0.00     0.147 C 
HETATM    2  N1  UNL     1     -12.135   8.194   1.712  1.00  0.00    -0.379 N 
ATOM      3  H1  UNL     1     -12.242   7.197   1.905  1.00  0.00     0.160 HD
HETATM    4  C2  UNL     1     -13.172   8.968   1.702  1.00  0.00     0.132 A 
HETATM    5  N2  UNL     1     -13.010  10.300   1.444  1.00  0.00    -0.325 N 
ATOM      6  H2  UNL     1     -12.075  10.669   1.274  1.00  0.00     0.169 HD
HETATM    7  C3  UNL     1     -14.062  11.126   1.411  1.00  0.00     0.144 A 
HETATM    8  C4  UNL     1     -14.195  12.502   1.180  1.00  0.00     0.074 A 
HETATM    9  C5  UNL     1     -13.189  13.315   0.924  1.00  0.00     0.165 C 
HETATM   10  N3  UNL     1     -11.857  12.843   0.861  1.00  0.00    -0.074 NA
HETATM   11  C6  UNL     1     -15.532  12.818   1.272  1.00  0.00     0.127 A 
HETATM   12  N4  UNL     1     -16.156  11.663   1.546  1.00  0.00    -0.302 N 
ATOM     13  H4  UNL     1     -17.164  11.568   1.674  1.00  0.00     0.186 HD
HETATM   14  N5  UNL     1     -15.279  10.646   1.631  1.00  0.00    -0.237 N 
HETATM   15  C7  UNL     1     -15.511   9.313   1.896  1.00  0.00     0.113 A 
HETATM   16  C9  UNL     1     -14.430   8.475   1.931  1.00  0.00     0.107 A 
ENDROOT
BRANCH  16  17
HETATM   17  N7  UNL     1     -14.586   7.090   2.229  1.00  0.00    -0.338 N 
ATOM     18  H7  UNL     1     -14.829   6.842   3.188  1.00  0.00     0.167 HD
BRANCH  17  19
HETATM   19  C10 UNL     1     -14.430   6.019   1.290  1.00  0.00     0.152 C 
HETATM   20  N8  UNL     1     -15.677   5.575   0.693  1.00  0.00    -0.080 NA
BRANCH  19  21
HETATM   21  C11 UNL     1     -13.507   4.939   1.643  1.00  0.00     0.135 A 
HETATM   22  C12 UNL     1     -13.924   3.680   2.022  1.00  0.00     0.132 A 
HETATM   23  N9  UNL     1     -12.850   2.926   2.274  1.00  0.00    -0.329 N 
HETATM   24  C13 UNL     1     -11.775   3.699   2.056  1.00  0.00     0.226 A 
ATOM     25  H9  UNL     1     -12.847   1.951   2.574  1.00  0.00     0.168 HD
HETATM   26  O6  UNL     1     -12.196   4.886   1.684  1.00  0.00    -0.275 OA
BRANCH  24  27
HETATM   27  N10 UNL     1     -10.412   3.332   2.195  1.00  0.00    -0.349 N 
HETATM   28  C14 UNL     1      -9.528   4.217   2.918  1.00  0.00     0.153 C 
BRANCH  27  29
HETATM   29  C15 UNL     1      -9.905   2.107   1.636  1.00  0.00     0.159 C 
BRANCH  29  30
HETATM   30  C16 UNL     1      -9.585   1.079   2.683  1.00  0.00     0.159 C 
BRANCH  30  31
HETATM   31  O4  UNL     1      -8.336   0.512   2.471  1.00  0.00    -0.392 OA
ATOM     32  H4  UNL     1      -7.745   1.124   2.048  1.00  0.00     0.210 HD
ENDBRANCH  30  31
BRANCH  30  33
HETATM   33  C17 UNL     1     -10.645  -0.012   2.709  1.00  0.00     0.197 C 
BRANCH  33  34
HETATM   34  O5  UNL     1     -11.702   0.386   3.537  1.00  0.00    -0.398 OA
ATOM     35  H5  UNL     1     -11.556   0.055   4.415  1.00  0.00     0.209 HD
ENDBRANCH  33  34
ENDBRANCH  30  33
ENDBRANCH  29  30
ENDBRANCH  27  29
ENDBRANCH  24  27
ENDBRANCH  19  21
ENDBRANCH  17  19
ENDBRANCH  16  17
BRANCH  15  36
HETATM   36  C8  UNL     1     -16.928   8.948   2.029  1.00  0.00     0.293 C 
BRANCH  36  37
HETATM   37  O2  UNL     1     -17.237   8.120   0.901  1.00  0.00    -0.372 OA
ATOM     38  H2  UNL     1     -17.363   8.708   0.165  1.00  0.00     0.212 HD
ENDBRANCH  36  37
BRANCH  36  39
HETATM   39  N6  UNL     1     -17.261   8.096   3.155  1.00  0.00    -0.065 NA
BRANCH  39  40
HETATM   40  O3  UNL     1     -17.549   6.819   2.658  1.00  0.00    -0.293 OA
ATOM     41  H3  UNL     1     -18.431   6.593   2.930  1.00  0.00     0.238 HD
ENDBRANCH  39  40
ENDBRANCH  36  39
ENDBRANCH  15  36
BRANCH   9  42
HETATM   42  O1  UNL     1     -13.420  14.664   0.709  1.00  0.00    -0.348 OA
ATOM     43  H1  UNL     1     -12.940  15.130   0.034  1.00  0.00     0.219 HD
ENDBRANCH   9  42
TORSDOF 14
ENDMDL
