MODEL 1
REMARK VINA RESULT: -6.999619359      0.000      0.000
REMARK  6 active torsions:
REMARK  status: ('A' for Active; 'I' for Inactive)
REMARK    1  A    between atoms: C2_2  and  N1_4 
REMARK    2  A    between atoms: N1_4  and  C4_5 
REMARK    3  A    between atoms: N1_4  and  C13_20 
REMARK    4  A    between atoms: C4_5  and  N2_7 
REMARK    5  A    between atoms: N2_7  and  C5_9 
REMARK    6  A    between atoms: C6_11  and  C7_12 
ROOT
HETATM    1  C5  UNL     1       2.931   7.954  18.046  1.00  0.00     0.097 A 
HETATM    2  S2  UNL     1       3.941   7.930  19.498  1.00  0.00    -0.075 SA
HETATM    3  C6  UNL     1       3.168   6.702  20.357  1.00  0.00    -0.008 A 
HETATM    4  C10 UNL     1       2.154   6.336  19.521  1.00  0.00     0.040 A 
HETATM    5  C11 UNL     1       2.043   6.992  18.336  1.00  0.00     0.079 A 
HETATM    6  C12 UNL     1       0.855   6.708  17.488  1.00  0.00     0.102 C 
HETATM    7  N3  UNL     1      -0.123   6.489  16.855  1.00  0.00    -0.191 NA
ENDROOT
BRANCH   1   8
HETATM    8  N2  UNL     1       3.138   8.913  17.016  1.00  0.00    -0.326 N 
ATOM      9  H2  UNL     1       2.331   8.996  16.398  1.00  0.00     0.169 HD
BRANCH   8  10
HETATM   10  C4  UNL     1       4.155   9.749  16.654  1.00  0.00     0.179 C 
HETATM   11  S1  UNL     1       5.598   9.114  16.100  1.00  0.00    -0.040 SA
BRANCH  10  12
HETATM   12  N1  UNL     1       4.206  11.189  16.845  1.00  0.00    -0.323 N 
BRANCH  12  13
HETATM   13  C2  UNL     1       4.244  11.624  18.229  1.00  0.00    -0.015 C 
HETATM   14  C1  UNL     1       5.520  11.265  18.944  1.00  0.00     0.063 C 
HETATM   15  C3  UNL     1       3.013  11.545  19.033  1.00  0.00     0.063 C 
ENDBRANCH  12  13
BRANCH  12  16
HETATM   16  C13 UNL     1       4.149  12.051  15.717  1.00  0.00     0.028 C 
HETATM   17  C14 UNL     1       3.775  11.334  14.436  1.00  0.00     0.038 C 
HETATM   18  C15 UNL     1       3.180  13.218  15.891  1.00  0.00     0.038 C 
HETATM   19  C16 UNL     1       5.477  12.787  15.471  1.00  0.00     0.038 C 
ENDBRANCH  12  16
ENDBRANCH  10  12
ENDBRANCH   8  10
ENDBRANCH   1   8
BRANCH   3  20
HETATM   20  C7  UNL     1       3.486   6.116  21.721  1.00  0.00     0.045 A 
HETATM   21  C8  UNL     1       4.753   6.673  22.306  1.00  0.00     0.032 A 
HETATM   22  C9  UNL     1       3.402   6.942  22.920  1.00  0.00     0.092 A 
HETATM   23 CL1  UNL     1       3.137   6.048  24.457  1.00  0.00    -0.124 Cl
ENDBRANCH   3  20
TORSDOF 6
ENDMDL
MODEL 2
REMARK VINA RESULT: -6.900470997      1.415      2.042
REMARK  6 active torsions:
REMARK  status: ('A' for Active; 'I' for Inactive)
REMARK    1  A    between atoms: C2_2  and  N1_4 
REMARK    2  A    between atoms: N1_4  and  C4_5 
REMARK    3  A    between atoms: N1_4  and  C13_20 
REMARK    4  A    between atoms: C4_5  and  N2_7 
REMARK    5  A    between atoms: N2_7  and  C5_9 
REMARK    6  A    between atoms: C6_11  and  C7_12 
ROOT
HETATM    1  C5  UNL     1       3.102   7.182  17.964  1.00  0.00     0.097 A 
HETATM    2  S2  UNL     1       4.142   7.180  19.395  1.00  0.00    -0.075 SA
HETATM    3  C6  UNL     1       3.170   6.291  20.447  1.00  0.00    -0.008 A 
HETATM    4  C10 UNL     1       2.070   6.015  19.688  1.00  0.00     0.040 A 
HETATM    5  C11 UNL     1       2.048   6.484  18.412  1.00  0.00     0.079 A 
HETATM    6  C12 UNL     1       0.796   6.321  17.628  1.00  0.00     0.102 C 
HETATM    7  N3  UNL     1      -0.230   6.212  17.045  1.00  0.00    -0.191 NA
ENDROOT
BRANCH   1   8
HETATM    8  N2  UNL     1       3.460   7.902  16.791  1.00  0.00    -0.326 N 
ATOM      9  H2  UNL     1       2.656   8.085  16.190  1.00  0.00     0.169 HD
BRANCH   8  10
HETATM   10  C4  UNL     1       4.618   8.408  16.273  1.00  0.00     0.179 C 
HETATM   11  S1  UNL     1       5.409   7.590  15.049  1.00  0.00    -0.040 SA
BRANCH  10  12
HETATM   12  N1  UNL     1       5.375   9.541  16.780  1.00  0.00    -0.323 N 
BRANCH  12  13
HETATM   13  C2  UNL     1       6.624   9.199  17.436  1.00  0.00    -0.015 C 
HETATM   14  C1  UNL     1       6.696   9.646  18.873  1.00  0.00     0.063 C 
HETATM   15  C3  UNL     1       7.877   9.289  16.671  1.00  0.00     0.063 C 
ENDBRANCH  12  13
BRANCH  12  16
HETATM   16  C13 UNL     1       4.839  10.851  16.669  1.00  0.00     0.028 C 
HETATM   17  C14 UNL     1       3.810  11.168  17.734  1.00  0.00     0.038 C 
HETATM   18  C15 UNL     1       5.900  11.948  16.713  1.00  0.00     0.038 C 
HETATM   19  C16 UNL     1       4.188  11.107  15.298  1.00  0.00     0.038 C 
ENDBRANCH  12  16
ENDBRANCH  10  12
ENDBRANCH   8  10
ENDBRANCH   1   8
BRANCH   3  20
HETATM   20  C7  UNL     1       3.414   5.875  21.887  1.00  0.00     0.045 A 
HETATM   21  C8  UNL     1       4.632   6.528  22.476  1.00  0.00     0.032 A 
HETATM   22  C9  UNL     1       3.241   6.832  22.974  1.00  0.00     0.092 A 
HETATM   23 CL1  UNL     1       2.900   6.116  24.587  1.00  0.00    -0.124 Cl
ENDBRANCH   3  20
TORSDOF 6
ENDMDL
MODEL 3
REMARK VINA RESULT: -6.847321984      2.110      3.336
REMARK  6 active torsions:
REMARK  status: ('A' for Active; 'I' for Inactive)
REMARK    1  A    between atoms: C2_2  and  N1_4 
REMARK    2  A    between atoms: N1_4  and  C4_5 
REMARK    3  A    between atoms: N1_4  and  C13_20 
REMARK    4  A    between atoms: C4_5  and  N2_7 
REMARK    5  A    between atoms: N2_7  and  C5_9 
REMARK    6  A    between atoms: C6_11  and  C7_12 
ROOT
HETATM    1  C5  UNL     1       3.002   7.482  18.140  1.00  0.00     0.097 A 
HETATM    2  S2  UNL     1       3.985   7.472  19.610  1.00  0.00    -0.075 SA
HETATM    3  C6  UNL     1       3.073   6.411  20.551  1.00  0.00    -0.008 A 
HETATM    4  C10 UNL     1       2.035   6.088  19.727  1.00  0.00     0.040 A 
HETATM    5  C11 UNL     1       2.010   6.650  18.489  1.00  0.00     0.079 A 
HETATM    6  C12 UNL     1       0.808   6.426  17.643  1.00  0.00     0.102 C 
HETATM    7  N3  UNL     1      -0.180   6.261  17.010  1.00  0.00    -0.191 NA
ENDROOT
BRANCH   1   8
HETATM    8  N2  UNL     1       3.325   8.324  17.039  1.00  0.00    -0.326 N 
ATOM      9  H2  UNL     1       2.515   8.517  16.450  1.00  0.00     0.169 HD
BRANCH   8  10
HETATM   10  C4  UNL     1       4.455   8.936  16.580  1.00  0.00     0.179 C 
HETATM   11  S1  UNL     1       4.349  10.428  15.832  1.00  0.00    -0.040 SA
BRANCH  10  12
HETATM   12  N1  UNL     1       5.789   8.363  16.512  1.00  0.00    -0.323 N 
BRANCH  12  13
HETATM   13  C2  UNL     1       5.934   7.256  15.584  1.00  0.00    -0.015 C 
HETATM   14  C1  UNL     1       5.711   7.637  14.144  1.00  0.00     0.063 C 
HETATM   15  C3  UNL     1       5.442   5.926  15.980  1.00  0.00     0.063 C 
ENDBRANCH  12  13
BRANCH  12  16
HETATM   16  C13 UNL     1       6.810   8.852  17.371  1.00  0.00     0.028 C 
HETATM   17  C14 UNL     1       6.328   9.932  18.317  1.00  0.00     0.038 C 
HETATM   18  C15 UNL     1       7.469   7.762  18.214  1.00  0.00     0.038 C 
HETATM   19  C16 UNL     1       8.014   9.411  16.594  1.00  0.00     0.038 C 
ENDBRANCH  12  16
ENDBRANCH  10  12
ENDBRANCH   8  10
ENDBRANCH   1   8
BRANCH   3  20
HETATM   20  C7  UNL     1       3.309   5.910  21.964  1.00  0.00     0.045 A 
HETATM   21  C8  UNL     1       4.569   6.461  22.568  1.00  0.00     0.032 A 
HETATM   22  C9  UNL     1       3.204   6.821  23.099  1.00  0.00     0.092 A 
HETATM   23 CL1  UNL     1       2.840   6.046  24.680  1.00  0.00    -0.124 Cl
ENDBRANCH   3  20
TORSDOF 6
ENDMDL
MODEL 4
REMARK VINA RESULT: -6.739174111      0.853      2.245
REMARK  6 active torsions:
REMARK  status: ('A' for Active; 'I' for Inactive)
REMARK    1  A    between atoms: C2_2  and  N1_4 
REMARK    2  A    between atoms: N1_4  and  C4_5 
REMARK    3  A    between atoms: N1_4  and  C13_20 
REMARK    4  A    between atoms: C4_5  and  N2_7 
REMARK    5  A    between atoms: N2_7  and  C5_9 
REMARK    6  A    between atoms: C6_11  and  C7_12 
ROOT
HETATM    1  C5  UNL     1       2.990   7.793  18.104  1.00  0.00     0.097 A 
HETATM    2  S2  UNL     1       3.983   7.789  19.568  1.00  0.00    -0.075 SA
HETATM    3  C6  UNL     1       3.178   6.598  20.450  1.00  0.00    -0.008 A 
HETATM    4  C10 UNL     1       2.167   6.228  19.612  1.00  0.00     0.040 A 
HETATM    5  C11 UNL     1       2.081   6.855  18.409  1.00  0.00     0.079 A 
HETATM    6  C12 UNL     1       0.898   6.571  17.554  1.00  0.00     0.102 C 
HETATM    7  N3  UNL     1      -0.077   6.353  16.916  1.00  0.00    -0.191 NA
ENDROOT
BRANCH   1   8
HETATM    8  N2  UNL     1       3.226   8.721  17.053  1.00  0.00    -0.326 N 
ATOM      9  H2  UNL     1       2.360   9.061  16.635  1.00  0.00     0.169 HD
BRANCH   8  10
HETATM   10  C4  UNL     1       4.331   9.269  16.467  1.00  0.00     0.179 C 
HETATM   11  S1  UNL     1       5.326   8.319  15.517  1.00  0.00    -0.040 SA
BRANCH  10  12
HETATM   12  N1  UNL     1       4.870  10.599  16.698  1.00  0.00    -0.323 N 
BRANCH  12  13
HETATM   13  C2  UNL     1       4.362  11.629  15.810  1.00  0.00    -0.015 C 
HETATM   14  C1  UNL     1       3.470  12.633  16.493  1.00  0.00     0.063 C 
HETATM   15  C3  UNL     1       3.982  11.261  14.437  1.00  0.00     0.063 C 
ENDBRANCH  12  13
BRANCH  12  16
HETATM   16  C13 UNL     1       5.869  10.790  17.689  1.00  0.00     0.028 C 
HETATM   17  C14 UNL     1       5.304  11.192  19.036  1.00  0.00     0.038 C 
HETATM   18  C15 UNL     1       6.752   9.564  17.907  1.00  0.00     0.038 C 
HETATM   19  C16 UNL     1       6.907  11.850  17.281  1.00  0.00     0.038 C 
ENDBRANCH  12  16
ENDBRANCH  10  12
ENDBRANCH   8  10
ENDBRANCH   1   8
BRANCH   3  20
HETATM   20  C7  UNL     1       3.470   6.042  21.832  1.00  0.00     0.045 A 
HETATM   21  C8  UNL     1       4.731   6.604  22.425  1.00  0.00     0.032 A 
HETATM   22  C9  UNL     1       3.372   6.896  23.010  1.00  0.00     0.092 A 
HETATM   23 CL1  UNL     1       3.077   6.041  24.563  1.00  0.00    -0.124 Cl
ENDBRANCH   3  20
TORSDOF 6
ENDMDL
MODEL 5
REMARK VINA RESULT: -6.691492851      1.753      2.717
REMARK  6 active torsions:
REMARK  status: ('A' for Active; 'I' for Inactive)
REMARK    1  A    between atoms: C2_2  and  N1_4 
REMARK    2  A    between atoms: N1_4  and  C4_5 
REMARK    3  A    between atoms: N1_4  and  C13_20 
REMARK    4  A    between atoms: C4_5  and  N2_7 
REMARK    5  A    between atoms: N2_7  and  C5_9 
REMARK    6  A    between atoms: C6_11  and  C7_12 
ROOT
HETATM    1  C5  UNL     1       3.236   6.617  17.681  1.00  0.00     0.097 A 
HETATM    2  S2  UNL     1       4.277   6.555  19.110  1.00  0.00    -0.075 SA
HETATM    3  C6  UNL     1       3.147   6.059  20.259  1.00  0.00    -0.008 A 
HETATM    4  C10 UNL     1       1.998   5.954  19.532  1.00  0.00     0.040 A 
HETATM    5  C11 UNL     1       2.059   6.248  18.206  1.00  0.00     0.079 A 
HETATM    6  C12 UNL     1       0.786   6.284  17.438  1.00  0.00     0.102 C 
HETATM    7  N3  UNL     1      -0.249   6.345  16.864  1.00  0.00    -0.191 NA
ENDROOT
BRANCH   1   8
HETATM    8  N2  UNL     1       3.727   7.078  16.428  1.00  0.00    -0.326 N 
ATOM      9  H2  UNL     1       3.205   6.690  15.643  1.00  0.00     0.169 HD
BRANCH   8  10
HETATM   10  C4  UNL     1       4.727   7.913  16.021  1.00  0.00     0.179 C 
HETATM   11  S1  UNL     1       5.519   7.622  14.578  1.00  0.00    -0.040 SA
BRANCH  10  12
HETATM   12  N1  UNL     1       5.332   8.987  16.792  1.00  0.00    -0.323 N 
BRANCH  12  13
HETATM   13  C2  UNL     1       4.553  10.210  16.855  1.00  0.00    -0.015 C 
HETATM   14  C1  UNL     1       3.441  10.171  17.871  1.00  0.00     0.063 C 
HETATM   15  C3  UNL     1       4.257  10.930  15.606  1.00  0.00     0.063 C 
ENDBRANCH  12  13
BRANCH  12  16
HETATM   16  C13 UNL     1       6.623   8.808  17.355  1.00  0.00     0.028 C 
HETATM   17  C14 UNL     1       7.076   7.363  17.363  1.00  0.00     0.038 C 
HETATM   18  C15 UNL     1       7.709   9.626  16.659  1.00  0.00     0.038 C 
HETATM   19  C16 UNL     1       6.715   9.337  18.797  1.00  0.00     0.038 C 
ENDBRANCH  12  16
ENDBRANCH  10  12
ENDBRANCH   8  10
ENDBRANCH   1   8
BRANCH   3  20
HETATM   20  C7  UNL     1       3.318   5.785  21.743  1.00  0.00     0.045 A 
HETATM   21  C8  UNL     1       4.532   6.459  22.316  1.00  0.00     0.032 A 
HETATM   22  C9  UNL     1       3.133   6.852  22.719  1.00  0.00     0.092 A 
HETATM   23 CL1  UNL     1       2.703   6.314  24.379  1.00  0.00    -0.124 Cl
ENDBRANCH   3  20
TORSDOF 6
ENDMDL
