MODEL 1
REMARK VINA RESULT: -7.895291414      0.000      0.000
REMARK  11 active torsions:
REMARK  status: ('A' for Active; 'I' for Inactive)
REMARK    1  A    between atoms: C2_2  and  C3_3 
REMARK    2  A    between atoms: C2_2  and  C4_6 
REMARK    3  A    between atoms: C3_3  and  O1_4 
REMARK       I    between atoms: C4_6  and  N1_8 
REMARK    4  A    between atoms: N1_8  and  C5_10 
REMARK    5  A    between atoms: C7_12  and  N2_13 
REMARK    6  A    between atoms: N3_15  and  C8_17 
REMARK    7  A    between atoms: C9_20  and  N5_21 
REMARK    8  A    between atoms: N9_32  and  C12_33 
REMARK    9  A    between atoms: C13_37  and  N11_38 
REMARK       I    between atoms: N11_38  and  C14_40 
REMARK       I    between atoms: C14_40  and  N12_42 
REMARK   10  A    between atoms: N12_42  and  N13_44 
REMARK   11  A    between atoms: C15_49  and  N15_50 
ROOT
HETATM    1  C8  UNL     1      16.796  -5.960  -1.455  1.00  0.00     0.167 A 
HETATM    2  N4  UNL     1      17.906  -6.713  -1.389  1.00  0.00    -0.173 N 
ATOM      3  H4  UNL     1      18.292  -7.118  -2.241  1.00  0.00     0.186 HD
HETATM    4  C9  UNL     1      18.521  -6.941  -0.197  1.00  0.00     0.679 A 
HETATM    5  N6  UNL     1      18.053  -6.431   0.959  1.00  0.00    -0.173 N 
ATOM      6  H6  UNL     1      18.538  -6.620   1.837  1.00  0.00     0.186 HD
HETATM    7  C10 UNL     1      16.954  -5.677   0.951  1.00  0.00     0.173 A 
HETATM    8  C11 UNL     1      16.323  -5.441  -0.261  1.00  0.00     0.141 A 
HETATM    9  N7  UNL     1      15.266  -4.666   0.042  1.00  0.00    -0.279 N 
ATOM     10  H7  UNL     1      14.581  -4.306  -0.623  1.00  0.00     0.189 HD
HETATM   11  N8  UNL     1      15.263  -4.449   1.349  1.00  0.00    -0.236 N 
ATOM     12  H8  UNL     1      14.564  -3.888   1.837  1.00  0.00     0.208 HD
HETATM   13  N9  UNL     1      16.266  -5.044   1.934  1.00  0.00    -0.224 N 
ENDROOT
BRANCH   1  14
HETATM   14  N3  UNL     1      16.105  -5.684  -2.666  1.00  0.00    -0.281 N 
HETATM   15  N2  UNL     1      15.309  -6.500  -3.175  1.00  0.00    -0.283 N 
ATOM     16  H2  UNL     1      14.824  -6.283  -4.046  1.00  0.00     0.188 HD
ATOM     17  H3  UNL     1      16.265  -4.792  -3.134  1.00  0.00     0.188 HD
BRANCH  15  18
HETATM   18  C7  UNL     1      15.095  -7.753  -2.505  1.00  0.00     0.139 A 
HETATM   19  C6  UNL     1      14.144  -7.800  -1.534  1.00  0.00     0.099 A 
HETATM   20  C5  UNL     1      13.925  -9.013  -0.873  1.00  0.00     0.127 A 
HETATM   21  N16 UNL     1      14.649 -10.077  -1.211  1.00  0.00    -0.177 N 
HETATM   22  C15 UNL     1      15.576 -10.000  -2.168  1.00  0.00     0.679 A 
ATOM     23  H16 UNL     1      14.493 -10.964  -0.733  1.00  0.00     0.185 HD
HETATM   24  N14 UNL     1      15.789  -8.841  -2.804  1.00  0.00    -0.175 N 
ATOM     25  H14 UNL     1      16.500  -8.795  -3.533  1.00  0.00     0.186 HD
BRANCH  20  26
HETATM   26  N1  UNL     1      12.937  -9.011   0.116  1.00  0.00    -0.312 N 
HETATM   27  C4  UNL     1      12.912  -9.749   1.324  1.00  0.00     0.229 C 
HETATM   28  O2  UNL     1      13.800 -10.536   1.697  1.00  0.00    -0.273 OA
ATOM     29  H1  UNL     1      12.136  -8.404  -0.053  1.00  0.00     0.170 HD
BRANCH  27  30
HETATM   30  C2  UNL     1      11.726  -9.581   2.248  1.00  0.00     0.098 C 
HETATM   31  C1  UNL     1      10.482  -9.591   1.407  1.00  0.00     0.022 C 
BRANCH  30  32
HETATM   32  C3  UNL     1      11.893  -8.213   2.891  1.00  0.00     0.177 C 
BRANCH  32  33
HETATM   33  O1  UNL     1      13.193  -7.771   2.870  1.00  0.00    -0.400 OA
ATOM     34  H1  UNL     1      13.321  -6.980   3.381  1.00  0.00     0.209 HD
ENDBRANCH  32  33
ENDBRANCH  30  32
ENDBRANCH  27  30
ENDBRANCH  20  26
BRANCH  22  35
HETATM   35  N15 UNL     1      16.274 -11.070  -2.479  1.00  0.00    -0.234 N 
ATOM     36 2H15 UNL     1      17.236 -11.153  -2.150  1.00  0.00     0.174 HD
ATOM     37 1H15 UNL     1      15.862 -11.813  -3.042  1.00  0.00     0.174 HD
ENDBRANCH  22  35
ENDBRANCH  15  18
ENDBRANCH   1  14
BRANCH   4  38
HETATM   38  N5  UNL     1      19.581  -7.676  -0.245  1.00  0.00    -0.234 N 
ATOM     39  H52 UNL     1      19.581  -8.650   0.057  1.00  0.00     0.174 HD
ATOM     40  H51 UNL     1      20.421  -7.221  -0.603  1.00  0.00     0.174 HD
ENDBRANCH   4  38
BRANCH  13  41
HETATM   41  C12 UNL     1      16.563  -5.017   3.357  1.00  0.00     0.362 A 
HETATM   42  N10 UNL     1      17.355  -6.085   3.912  1.00  0.00    -0.024 N 
HETATM   43  C13 UNL     1      15.920  -6.006   4.215  1.00  0.00     0.343 A 
ATOM     44 2H10 UNL     1      17.971  -6.801   3.526  1.00  0.00     0.282 HD
ATOM     45 1H10 UNL     1      18.208  -6.135   4.471  1.00  0.00     0.282 HD
BRANCH  43  46
HETATM   46  N11 UNL     1      15.506  -5.757   5.555  1.00  0.00    -0.310 N 
HETATM   47  C14 UNL     1      14.139  -5.663   5.928  1.00  0.00     0.336 C 
HETATM   48  O3  UNL     1      13.201  -5.794   5.084  1.00  0.00    -0.246 OA
HETATM   49  N12 UNL     1      13.743  -5.414   7.269  1.00  0.00    -0.258 N 
ATOM     50  H12 UNL     1      14.457  -5.300   7.989  1.00  0.00     0.191 HD
ATOM     51  H11 UNL     1      16.219  -5.642   6.275  1.00  0.00     0.166 HD
BRANCH  49  52
HETATM   52  N13 UNL     1      12.394  -5.324   7.622  1.00  0.00    -0.341 N 
ATOM     53 2H13 UNL     1      11.719  -5.078   6.898  1.00  0.00     0.177 HD
ATOM     54 1H13 UNL     1      12.084  -5.498   8.579  1.00  0.00     0.177 HD
ENDBRANCH  49  52
ENDBRANCH  43  46
ENDBRANCH  13  41
TORSDOF 11
ENDMDL
MODEL 2
REMARK VINA RESULT: -7.672391447      2.355      5.701
REMARK  11 active torsions:
REMARK  status: ('A' for Active; 'I' for Inactive)
REMARK    1  A    between atoms: C2_2  and  C3_3 
REMARK    2  A    between atoms: C2_2  and  C4_6 
REMARK    3  A    between atoms: C3_3  and  O1_4 
REMARK       I    between atoms: C4_6  and  N1_8 
REMARK    4  A    between atoms: N1_8  and  C5_10 
REMARK    5  A    between atoms: C7_12  and  N2_13 
REMARK    6  A    between atoms: N3_15  and  C8_17 
REMARK    7  A    between atoms: C9_20  and  N5_21 
REMARK    8  A    between atoms: N9_32  and  C12_33 
REMARK    9  A    between atoms: C13_37  and  N11_38 
REMARK       I    between atoms: N11_38  and  C14_40 
REMARK       I    between atoms: C14_40  and  N12_42 
REMARK   10  A    between atoms: N12_42  and  N13_44 
REMARK   11  A    between atoms: C15_49  and  N15_50 
ROOT
HETATM    1  C8  UNL     1      16.000  -4.080   2.309  1.00  0.00     0.167 A 
HETATM    2  N4  UNL     1      16.598  -4.626   3.381  1.00  0.00    -0.173 N 
ATOM      3  H4  UNL     1      17.454  -4.209   3.748  1.00  0.00     0.186 HD
HETATM    4  C9  UNL     1      16.076  -5.730   3.981  1.00  0.00     0.679 A 
HETATM    5  N6  UNL     1      14.950  -6.321   3.537  1.00  0.00    -0.173 N 
ATOM      6  H6  UNL     1      14.584  -7.148   4.010  1.00  0.00     0.186 HD
HETATM    7  C10 UNL     1      14.316  -5.820   2.477  1.00  0.00     0.173 A 
HETATM    8  C11 UNL     1      14.842  -4.696   1.861  1.00  0.00     0.141 A 
HETATM    9  N7  UNL     1      14.004  -4.430   0.843  1.00  0.00    -0.279 N 
ATOM     10  H7  UNL     1      14.097  -3.661   0.179  1.00  0.00     0.189 HD
HETATM   11  N8  UNL     1      13.035  -5.335   0.849  1.00  0.00    -0.236 N 
ATOM     12  H8  UNL     1      12.267  -5.357   0.178  1.00  0.00     0.208 HD
HETATM   13  N9  UNL     1      13.189  -6.192   1.820  1.00  0.00    -0.224 N 
ENDROOT
BRANCH   1  14
HETATM   14  N3  UNL     1      16.492  -2.930   1.636  1.00  0.00    -0.281 N 
HETATM   15  N2  UNL     1      17.351  -3.007   0.733  1.00  0.00    -0.283 N 
ATOM     16  H2  UNL     1      17.692  -2.169   0.263  1.00  0.00     0.188 HD
ATOM     17  H3  UNL     1      16.134  -2.012   1.899  1.00  0.00     0.188 HD
BRANCH  15  18
HETATM   18  C7  UNL     1      17.847  -4.308   0.374  1.00  0.00     0.139 A 
HETATM   19  C6  UNL     1      17.084  -5.074  -0.449  1.00  0.00     0.099 A 
HETATM   20  C5  UNL     1      17.555  -6.342  -0.806  1.00  0.00     0.127 A 
HETATM   21  N16 UNL     1      18.727  -6.758  -0.332  1.00  0.00    -0.177 N 
HETATM   22  C15 UNL     1      19.454  -5.982   0.476  1.00  0.00     0.679 A 
ATOM     23  H16 UNL     1      19.075  -7.681  -0.589  1.00  0.00     0.185 HD
HETATM   24  N14 UNL     1      19.007  -4.768   0.820  1.00  0.00    -0.175 N 
ATOM     25  H14 UNL     1      19.572  -4.185   1.437  1.00  0.00     0.186 HD
BRANCH  20  26
HETATM   26  N1  UNL     1      16.735  -7.092  -1.655  1.00  0.00    -0.312 N 
HETATM   27  C4  UNL     1      15.530  -7.762  -1.334  1.00  0.00     0.229 C 
HETATM   28  O2  UNL     1      15.004  -7.783  -0.208  1.00  0.00    -0.273 OA
ATOM     29  H1  UNL     1      17.043  -7.165  -2.624  1.00  0.00     0.170 HD
BRANCH  27  30
HETATM   30  C2  UNL     1      14.810  -8.517  -2.430  1.00  0.00     0.098 C 
HETATM   31  C1  UNL     1      13.384  -8.047  -2.454  1.00  0.00     0.022 C 
BRANCH  30  32
HETATM   32  C3  UNL     1      14.854  -9.981  -2.021  1.00  0.00     0.177 C 
BRANCH  32  33
HETATM   33  O1  UNL     1      13.929 -10.290  -1.053  1.00  0.00    -0.400 OA
ATOM     34  H1  UNL     1      14.056 -11.158  -0.688  1.00  0.00     0.209 HD
ENDBRANCH  32  33
ENDBRANCH  30  32
ENDBRANCH  27  30
ENDBRANCH  20  26
BRANCH  22  35
HETATM   35  N15 UNL     1      20.608  -6.422   0.927  1.00  0.00    -0.234 N 
ATOM     36 2H15 UNL     1      21.471  -6.097   0.493  1.00  0.00     0.174 HD
ATOM     37 1H15 UNL     1      20.643  -7.082   1.704  1.00  0.00     0.174 HD
ENDBRANCH  22  35
ENDBRANCH  15  18
ENDBRANCH   1  14
BRANCH   4  38
HETATM   38  N5  UNL     1      16.728  -6.173   5.003  1.00  0.00    -0.234 N 
ATOM     39  H52 UNL     1      16.439  -5.975   5.960  1.00  0.00     0.174 HD
ATOM     40  H51 UNL     1      17.554  -6.735   4.792  1.00  0.00     0.174 HD
ENDBRANCH   4  38
BRANCH  13  41
HETATM   41  C12 UNL     1      12.311  -7.314   2.115  1.00  0.00     0.362 A 
HETATM   42  N10 UNL     1      12.845  -8.648   2.006  1.00  0.00    -0.024 N 
HETATM   43  C13 UNL     1      11.881  -8.162   1.009  1.00  0.00     0.343 A 
ATOM     44 2H10 UNL     1      13.782  -9.048   1.965  1.00  0.00     0.282 HD
ATOM     45 1H10 UNL     1      12.894  -9.457   2.625  1.00  0.00     0.282 HD
BRANCH  43  46
HETATM   46  N11 UNL     1      10.601  -8.779   0.923  1.00  0.00    -0.310 N 
HETATM   47  C14 UNL     1      10.314  -9.823   0.003  1.00  0.00     0.336 C 
HETATM   48  O3  UNL     1      11.188 -10.268  -0.801  1.00  0.00    -0.246 OA
HETATM   49  N12 UNL     1       9.031 -10.427  -0.069  1.00  0.00    -0.258 N 
ATOM     50  H12 UNL     1       8.290 -10.107   0.555  1.00  0.00     0.191 HD
ATOM     51  H11 UNL     1       9.859  -8.459   1.547  1.00  0.00     0.166 HD
BRANCH  49  52
HETATM   52  N13 UNL     1       8.764 -11.454  -0.980  1.00  0.00    -0.341 N 
ATOM     53 2H13 UNL     1       8.944 -11.283  -1.969  1.00  0.00     0.177 HD
ATOM     54 1H13 UNL     1       8.398 -12.354  -0.670  1.00  0.00     0.177 HD
ENDBRANCH  49  52
ENDBRANCH  43  46
ENDBRANCH  13  41
TORSDOF 11
ENDMDL
MODEL 3
REMARK VINA RESULT: -7.342924806      2.549      5.580
REMARK  11 active torsions:
REMARK  status: ('A' for Active; 'I' for Inactive)
REMARK    1  A    between atoms: C2_2  and  C3_3 
REMARK    2  A    between atoms: C2_2  and  C4_6 
REMARK    3  A    between atoms: C3_3  and  O1_4 
REMARK       I    between atoms: C4_6  and  N1_8 
REMARK    4  A    between atoms: N1_8  and  C5_10 
REMARK    5  A    between atoms: C7_12  and  N2_13 
REMARK    6  A    between atoms: N3_15  and  C8_17 
REMARK    7  A    between atoms: C9_20  and  N5_21 
REMARK    8  A    between atoms: N9_32  and  C12_33 
REMARK    9  A    between atoms: C13_37  and  N11_38 
REMARK       I    between atoms: N11_38  and  C14_40 
REMARK       I    between atoms: C14_40  and  N12_42 
REMARK   10  A    between atoms: N12_42  and  N13_44 
REMARK   11  A    between atoms: C15_49  and  N15_50 
ROOT
HETATM    1  C8  UNL     1      15.329  -7.978  -2.510  1.00  0.00     0.167 A 
HETATM    2  N4  UNL     1      15.834  -9.032  -1.850  1.00  0.00    -0.173 N 
ATOM      3  H4  UNL     1      16.775  -9.361  -2.069  1.00  0.00     0.186 HD
HETATM    4  C9  UNL     1      15.106  -9.667  -0.892  1.00  0.00     0.679 A 
HETATM    5  N6  UNL     1      13.860  -9.274  -0.563  1.00  0.00    -0.173 N 
ATOM      6  H6  UNL     1      13.339  -9.772   0.161  1.00  0.00     0.186 HD
HETATM    7  C10 UNL     1      13.309  -8.233  -1.188  1.00  0.00     0.173 A 
HETATM    8  C11 UNL     1      14.047  -7.583  -2.164  1.00  0.00     0.141 A 
HETATM    9  N7  UNL     1      13.246  -6.595  -2.606  1.00  0.00    -0.279 N 
ATOM     10  H7  UNL     1      13.479  -5.920  -3.334  1.00  0.00     0.189 HD
HETATM   11  N8  UNL     1      12.103  -6.649  -1.937  1.00  0.00    -0.236 N 
ATOM     12  H8  UNL     1      11.323  -6.007  -2.080  1.00  0.00     0.208 HD
HETATM   13  N9  UNL     1      12.102  -7.625  -1.071  1.00  0.00    -0.224 N 
ENDROOT
BRANCH   1  14
HETATM   14  N3  UNL     1      16.035  -7.272  -3.521  1.00  0.00    -0.281 N 
HETATM   15  N2  UNL     1      16.889  -6.403  -3.248  1.00  0.00    -0.283 N 
ATOM     16  H2  UNL     1      17.385  -5.907  -3.989  1.00  0.00     0.188 HD
ATOM     17  H3  UNL     1      15.839  -7.481  -4.500  1.00  0.00     0.188 HD
BRANCH  15  18
HETATM   18  C7  UNL     1      17.155  -6.119  -1.864  1.00  0.00     0.139 A 
HETATM   19  C6  UNL     1      16.368  -5.203  -1.241  1.00  0.00     0.099 A 
HETATM   20  C5  UNL     1      16.617  -4.916   0.106  1.00  0.00     0.127 A 
HETATM   21  N16 UNL     1      17.609  -5.545   0.732  1.00  0.00    -0.177 N 
HETATM   22  C15 UNL     1      18.366  -6.440   0.092  1.00  0.00     0.679 A 
ATOM     23  H16 UNL     1      17.794  -5.340   1.713  1.00  0.00     0.185 HD
HETATM   24  N14 UNL     1      18.131  -6.717  -1.196  1.00  0.00    -0.175 N 
ATOM     25  H14 UNL     1      18.716  -7.402  -1.674  1.00  0.00     0.186 HD
BRANCH  20  26
HETATM   26  N1  UNL     1      15.781  -3.968   0.703  1.00  0.00    -0.312 N 
HETATM   27  C4  UNL     1      15.895  -3.395   1.993  1.00  0.00     0.229 C 
HETATM   28  O2  UNL     1      16.790  -3.661   2.814  1.00  0.00    -0.273 OA
ATOM     29  H1  UNL     1      14.992  -3.650   0.141  1.00  0.00     0.170 HD
BRANCH  27  30
HETATM   30  C2  UNL     1      14.861  -2.379   2.425  1.00  0.00     0.098 C 
HETATM   31  C1  UNL     1      14.628  -2.555   3.898  1.00  0.00     0.022 C 
BRANCH  30  32
HETATM   32  C3  UNL     1      13.592  -2.732   1.665  1.00  0.00     0.177 C 
BRANCH  32  33
HETATM   33  O1  UNL     1      13.389  -1.932   0.567  1.00  0.00    -0.400 OA
ATOM     34  H1  UNL     1      12.787  -1.217   0.739  1.00  0.00     0.209 HD
ENDBRANCH  32  33
ENDBRANCH  30  32
ENDBRANCH  27  30
ENDBRANCH  20  26
BRANCH  22  35
HETATM   35  N15 UNL     1      19.338  -7.043   0.739  1.00  0.00    -0.234 N 
ATOM     36 2H15 UNL     1      20.264  -6.616   0.764  1.00  0.00     0.174 HD
ATOM     37 1H15 UNL     1      19.172  -7.930   1.215  1.00  0.00     0.174 HD
ENDBRANCH  22  35
ENDBRANCH  15  18
ENDBRANCH   1  14
BRANCH   4  38
HETATM   38  N5  UNL     1      15.686 -10.667  -0.318  1.00  0.00    -0.234 N 
ATOM     39  H52 UNL     1      15.693 -10.783   0.695  1.00  0.00     0.174 HD
ATOM     40  H51 UNL     1      16.137 -11.336  -0.943  1.00  0.00     0.174 HD
ENDBRANCH   4  38
BRANCH  13  41
HETATM   41  C12 UNL     1      11.011  -7.970  -0.174  1.00  0.00     0.362 A 
HETATM   42  N10 UNL     1      10.276  -6.900   0.452  1.00  0.00    -0.024 N 
HETATM   43  C13 UNL     1      11.189  -7.726   1.253  1.00  0.00     0.343 A 
ATOM     44 2H10 UNL     1      10.173  -5.899   0.280  1.00  0.00     0.282 HD
ATOM     45 1H10 UNL     1       9.290  -6.645   0.517  1.00  0.00     0.282 HD
BRANCH  43  46
HETATM   46  N11 UNL     1      10.655  -8.554   2.281  1.00  0.00    -0.310 N 
HETATM   47  C14 UNL     1      11.325  -9.712   2.757  1.00  0.00     0.336 C 
HETATM   48  O3  UNL     1      12.446 -10.079   2.289  1.00  0.00    -0.246 OA
HETATM   49  N12 UNL     1      10.778 -10.528   3.782  1.00  0.00    -0.258 N 
ATOM     50  H12 UNL     1       9.877 -10.279   4.193  1.00  0.00     0.191 HD
ATOM     51  H11 UNL     1       9.754  -8.306   2.692  1.00  0.00     0.166 HD
BRANCH  49  52
HETATM   52  N13 UNL     1      11.449 -11.664   4.241  1.00  0.00    -0.341 N 
ATOM     53 2H13 UNL     1      11.147 -12.577   3.898  1.00  0.00     0.177 HD
ATOM     54 1H13 UNL     1      12.223 -11.592   4.902  1.00  0.00     0.177 HD
ENDBRANCH  49  52
ENDBRANCH  43  46
ENDBRANCH  13  41
TORSDOF 11
ENDMDL
MODEL 4
REMARK VINA RESULT: -7.300957834      3.283      6.691
REMARK  11 active torsions:
REMARK  status: ('A' for Active; 'I' for Inactive)
REMARK    1  A    between atoms: C2_2  and  C3_3 
REMARK    2  A    between atoms: C2_2  and  C4_6 
REMARK    3  A    between atoms: C3_3  and  O1_4 
REMARK       I    between atoms: C4_6  and  N1_8 
REMARK    4  A    between atoms: N1_8  and  C5_10 
REMARK    5  A    between atoms: C7_12  and  N2_13 
REMARK    6  A    between atoms: N3_15  and  C8_17 
REMARK    7  A    between atoms: C9_20  and  N5_21 
REMARK    8  A    between atoms: N9_32  and  C12_33 
REMARK    9  A    between atoms: C13_37  and  N11_38 
REMARK       I    between atoms: N11_38  and  C14_40 
REMARK       I    between atoms: C14_40  and  N12_42 
REMARK   10  A    between atoms: N12_42  and  N13_44 
REMARK   11  A    between atoms: C15_49  and  N15_50 
ROOT
HETATM    1  C8  UNL     1      12.832  -6.965  -3.244  1.00  0.00     0.167 A 
HETATM    2  N4  UNL     1      12.623  -6.146  -2.200  1.00  0.00    -0.173 N 
ATOM      3  H4  UNL     1      13.100  -5.245  -2.161  1.00  0.00     0.186 HD
HETATM    4  C9  UNL     1      11.782  -6.506  -1.192  1.00  0.00     0.679 A 
HETATM    5  N6  UNL     1      11.127  -7.684  -1.193  1.00  0.00    -0.173 N 
ATOM      6  H6  UNL     1      10.503  -7.923  -0.422  1.00  0.00     0.186 HD
HETATM    7  C10 UNL     1      11.299  -8.534  -2.205  1.00  0.00     0.173 A 
HETATM    8  C11 UNL     1      12.154  -8.173  -3.234  1.00  0.00     0.141 A 
HETATM    9  N7  UNL     1      12.125  -9.209  -4.092  1.00  0.00    -0.279 N 
ATOM     10  H7  UNL     1      12.646  -9.274  -4.966  1.00  0.00     0.189 HD
HETATM   11  N8  UNL     1      11.304 -10.131  -3.610  1.00  0.00    -0.236 N 
ATOM     12  H8  UNL     1      11.103 -11.018  -4.071  1.00  0.00     0.208 HD
HETATM   13  N9  UNL     1      10.786  -9.761  -2.471  1.00  0.00    -0.224 N 
ENDROOT
BRANCH   1  14
HETATM   14  N3  UNL     1      13.696  -6.650  -4.327  1.00  0.00    -0.281 N 
HETATM   15  N2  UNL     1      14.935  -6.782  -4.246  1.00  0.00    -0.283 N 
ATOM     16  H2  UNL     1      15.539  -6.550  -5.035  1.00  0.00     0.188 HD
ATOM     17  H3  UNL     1      13.293  -6.306  -5.198  1.00  0.00     0.188 HD
BRANCH  15  18
HETATM   18  C7  UNL     1      15.490  -7.268  -3.011  1.00  0.00     0.139 A 
HETATM   19  C6  UNL     1      15.856  -6.353  -2.075  1.00  0.00     0.099 A 
HETATM   20  C5  UNL     1      16.398  -6.812  -0.870  1.00  0.00     0.127 A 
HETATM   21  N16 UNL     1      16.537  -8.122  -0.677  1.00  0.00    -0.177 N 
HETATM   22  C15 UNL     1      16.168  -8.996  -1.616  1.00  0.00     0.679 A 
ATOM     23  H16 UNL     1      16.930  -8.463   0.200  1.00  0.00     0.185 HD
HETATM   24  N14 UNL     1      15.649  -8.561  -2.771  1.00  0.00    -0.175 N 
ATOM     25  H14 UNL     1      15.371  -9.239  -3.480  1.00  0.00     0.186 HD
BRANCH  20  26
HETATM   26  N1  UNL     1      16.758  -5.834   0.061  1.00  0.00    -0.312 N 
HETATM   27  C4  UNL     1      17.924  -5.782   0.863  1.00  0.00     0.229 C 
HETATM   28  O2  UNL     1      18.833  -6.630   0.855  1.00  0.00    -0.273 OA
ATOM     29  H1  UNL     1      16.101  -5.063   0.177  1.00  0.00     0.170 HD
BRANCH  27  30
HETATM   30  C2  UNL     1      18.099  -4.612   1.807  1.00  0.00     0.098 C 
HETATM   31  C1  UNL     1      17.436  -4.966   3.107  1.00  0.00     0.022 C 
BRANCH  30  32
HETATM   32  C3  UNL     1      17.364  -3.448   1.163  1.00  0.00     0.177 C 
BRANCH  32  33
HETATM   33  O1  UNL     1      18.012  -2.956   0.056  1.00  0.00    -0.400 OA
ATOM     34  H1  UNL     1      18.847  -2.554   0.267  1.00  0.00     0.209 HD
ENDBRANCH  32  33
ENDBRANCH  30  32
ENDBRANCH  27  30
ENDBRANCH  20  26
BRANCH  22  35
HETATM   35  N15 UNL     1      16.319 -10.284  -1.394  1.00  0.00    -0.234 N 
ATOM     36 2H15 UNL     1      17.066 -10.789  -1.870  1.00  0.00     0.174 HD
ATOM     37 1H15 UNL     1      15.697 -10.776  -0.753  1.00  0.00     0.174 HD
ENDBRANCH  22  35
ENDBRANCH  15  18
ENDBRANCH   1  14
BRANCH   4  38
HETATM   38  N5  UNL     1      11.651  -5.647  -0.238  1.00  0.00    -0.234 N 
ATOM     39  H52 UNL     1      10.859  -5.006  -0.188  1.00  0.00     0.174 HD
ATOM     40  H51 UNL     1      12.392  -5.648   0.464  1.00  0.00     0.174 HD
ENDBRANCH   4  38
BRANCH  13  41
HETATM   41  C12 UNL     1       9.848 -10.531  -1.669  1.00  0.00     0.362 A 
HETATM   42  N10 UNL     1       8.474 -10.597  -2.097  1.00  0.00    -0.024 N 
HETATM   43  C13 UNL     1       8.833  -9.807  -0.911  1.00  0.00     0.343 A 
ATOM     44 2H10 UNL     1       7.981 -10.402  -2.969  1.00  0.00     0.282 HD
ATOM     45 1H10 UNL     1       7.814 -11.351  -2.288  1.00  0.00     0.282 HD
BRANCH  43  46
HETATM   46  N11 UNL     1       8.346 -10.210   0.364  1.00  0.00    -0.310 N 
HETATM   47  C14 UNL     1       8.955  -9.803   1.581  1.00  0.00     0.336 C 
HETATM   48  O3  UNL     1       9.977  -9.051   1.601  1.00  0.00    -0.246 OA
HETATM   49  N12 UNL     1       8.456 -10.214   2.845  1.00  0.00    -0.258 N 
ATOM     50  H12 UNL     1       7.636 -10.820   2.886  1.00  0.00     0.191 HD
ATOM     51  H11 UNL     1       7.526 -10.816   0.407  1.00  0.00     0.166 HD
BRANCH  49  52
HETATM   52  N13 UNL     1       9.066  -9.805   4.033  1.00  0.00    -0.341 N 
ATOM     53 2H13 UNL     1      10.079  -9.893   4.113  1.00  0.00     0.177 HD
ATOM     54 1H13 UNL     1       8.519  -9.426   4.807  1.00  0.00     0.177 HD
ENDBRANCH  49  52
ENDBRANCH  43  46
ENDBRANCH  13  41
TORSDOF 11
ENDMDL
MODEL 5
REMARK VINA RESULT: -7.300004716      0.702      1.054
REMARK  11 active torsions:
REMARK  status: ('A' for Active; 'I' for Inactive)
REMARK    1  A    between atoms: C2_2  and  C3_3 
REMARK    2  A    between atoms: C2_2  and  C4_6 
REMARK    3  A    between atoms: C3_3  and  O1_4 
REMARK       I    between atoms: C4_6  and  N1_8 
REMARK    4  A    between atoms: N1_8  and  C5_10 
REMARK    5  A    between atoms: C7_12  and  N2_13 
REMARK    6  A    between atoms: N3_15  and  C8_17 
REMARK    7  A    between atoms: C9_20  and  N5_21 
REMARK    8  A    between atoms: N9_32  and  C12_33 
REMARK    9  A    between atoms: C13_37  and  N11_38 
REMARK       I    between atoms: N11_38  and  C14_40 
REMARK       I    between atoms: C14_40  and  N12_42 
REMARK   10  A    between atoms: N12_42  and  N13_44 
REMARK   11  A    between atoms: C15_49  and  N15_50 
ROOT
HETATM    1  C8  UNL     1      16.942  -5.959  -1.464  1.00  0.00     0.167 A 
HETATM    2  N4  UNL     1      18.033  -6.737  -1.373  1.00  0.00    -0.173 N 
ATOM      3  H4  UNL     1      18.433  -7.147  -2.217  1.00  0.00     0.186 HD
HETATM    4  C9  UNL     1      18.612  -6.984  -0.166  1.00  0.00     0.679 A 
HETATM    5  N6  UNL     1      18.125  -6.468   0.980  1.00  0.00    -0.173 N 
ATOM      6  H6  UNL     1      18.582  -6.672   1.869  1.00  0.00     0.186 HD
HETATM    7  C10 UNL     1      17.043  -5.690   0.946  1.00  0.00     0.173 A 
HETATM    8  C11 UNL     1      16.450  -5.434  -0.280  1.00  0.00     0.141 A 
HETATM    9  N7  UNL     1      15.402  -4.637  -0.002  1.00  0.00    -0.279 N 
ATOM     10  H7  UNL     1      14.744  -4.259  -0.683  1.00  0.00     0.189 HD
HETATM   11  N8  UNL     1      15.370  -4.426   1.306  1.00  0.00    -0.236 N 
ATOM     12  H8  UNL     1      14.671  -3.852   1.778  1.00  0.00     0.208 HD
HETATM   13  N9  UNL     1      16.344  -5.046   1.914  1.00  0.00    -0.224 N 
ENDROOT
BRANCH   1  14
HETATM   14  N3  UNL     1      16.290  -5.663  -2.692  1.00  0.00    -0.281 N 
HETATM   15  N2  UNL     1      15.446  -6.432  -3.196  1.00  0.00    -0.283 N 
ATOM     16  H2  UNL     1      14.990  -6.201  -4.079  1.00  0.00     0.188 HD
ATOM     17  H3  UNL     1      16.519  -4.795  -3.176  1.00  0.00     0.188 HD
BRANCH  15  18
HETATM   18  C7  UNL     1      15.135  -7.652  -2.502  1.00  0.00     0.139 A 
HETATM   19  C6  UNL     1      14.074  -7.647  -1.652  1.00  0.00     0.099 A 
HETATM   20  C5  UNL     1      13.760  -8.827  -0.969  1.00  0.00     0.127 A 
HETATM   21  N16 UNL     1      14.504  -9.912  -1.172  1.00  0.00    -0.177 N 
HETATM   22  C15 UNL     1      15.540  -9.886  -2.014  1.00  0.00     0.679 A 
ATOM     23  H16 UNL     1      14.279 -10.775  -0.678  1.00  0.00     0.185 HD
HETATM   24  N14 UNL     1      15.843  -8.759  -2.669  1.00  0.00    -0.175 N 
ATOM     25  H14 UNL     1      16.637  -8.752  -3.309  1.00  0.00     0.186 HD
BRANCH  20  26
HETATM   26  N1  UNL     1      12.662  -8.771  -0.106  1.00  0.00    -0.312 N 
HETATM   27  C4  UNL     1      12.515  -9.392   1.158  1.00  0.00     0.229 C 
HETATM   28  O2  UNL     1      13.373 -10.104   1.707  1.00  0.00    -0.273 OA
ATOM     29  H1  UNL     1      11.869  -8.215  -0.426  1.00  0.00     0.170 HD
BRANCH  27  30
HETATM   30  C2  UNL     1      11.222  -9.186   1.916  1.00  0.00     0.098 C 
HETATM   31  C1  UNL     1      11.260 -10.058   3.138  1.00  0.00     0.022 C 
BRANCH  30  32
HETATM   32  C3  UNL     1      10.117  -9.664   0.987  1.00  0.00     0.177 C 
BRANCH  32  33
HETATM   33  O1  UNL     1      10.520 -10.688   0.165  1.00  0.00    -0.400 OA
ATOM     34  H1  UNL     1       9.805 -11.054  -0.344  1.00  0.00     0.209 HD
ENDBRANCH  32  33
ENDBRANCH  30  32
ENDBRANCH  27  30
ENDBRANCH  20  26
BRANCH  22  35
HETATM   35  N15 UNL     1      16.254 -10.976  -2.192  1.00  0.00    -0.234 N 
ATOM     36 2H15 UNL     1      16.848 -11.314  -1.435  1.00  0.00     0.174 HD
ATOM     37 1H15 UNL     1      16.217 -11.482  -3.076  1.00  0.00     0.174 HD
ENDBRANCH  22  35
ENDBRANCH  15  18
ENDBRANCH   1  14
BRANCH   4  38
HETATM   38  N5  UNL     1      19.656  -7.742  -0.190  1.00  0.00    -0.234 N 
ATOM     39  H52 UNL     1      19.641  -8.675  -0.601  1.00  0.00     0.174 HD
ATOM     40  H51 UNL     1      20.499  -7.349   0.231  1.00  0.00     0.174 HD
ENDBRANCH   4  38
BRANCH  13  41
HETATM   41  C12 UNL     1      16.604  -5.031   3.345  1.00  0.00     0.362 A 
HETATM   42  N10 UNL     1      17.338  -6.130   3.918  1.00  0.00    -0.024 N 
HETATM   43  C13 UNL     1      15.900  -5.994   4.183  1.00  0.00     0.343 A 
ATOM     44 2H10 UNL     1      17.935  -6.870   3.547  1.00  0.00     0.282 HD
ATOM     45 1H10 UNL     1      18.173  -6.214   4.499  1.00  0.00     0.282 HD
BRANCH  43  46
HETATM   46  N11 UNL     1      15.461  -5.730   5.512  1.00  0.00    -0.310 N 
HETATM   47  C14 UNL     1      14.092  -5.767   5.887  1.00  0.00     0.336 C 
HETATM   48  O3  UNL     1      13.174  -6.039   5.054  1.00  0.00    -0.246 OA
HETATM   49  N12 UNL     1      13.670  -5.501   7.217  1.00  0.00    -0.258 N 
ATOM     50  H12 UNL     1      14.367  -5.277   7.927  1.00  0.00     0.191 HD
ATOM     51  H11 UNL     1      16.157  -5.505   6.223  1.00  0.00     0.166 HD
BRANCH  49  52
HETATM   52  N13 UNL     1      12.319  -5.542   7.572  1.00  0.00    -0.341 N 
ATOM     53 2H13 UNL     1      11.971  -6.366   8.062  1.00  0.00     0.177 HD
ATOM     54 1H13 UNL     1      11.690  -4.770   7.350  1.00  0.00     0.177 HD
ENDBRANCH  49  52
ENDBRANCH  43  46
ENDBRANCH  13  41
TORSDOF 11
ENDMDL
