MODEL 1
REMARK VINA RESULT: -6.398239014      0.000      0.000
REMARK  8 active torsions:
REMARK  status: ('A' for Active; 'I' for Inactive)
REMARK    1  A    between atoms: C1_2  and  N1_3 
REMARK    2  A    between atoms: N1_3  and  C2_5 
REMARK    3  A    between atoms: C2_5  and  C3_6 
REMARK    4  A    between atoms: C3_6  and  N2_7 
REMARK       I    between atoms: N2_7  and  C4_9 
REMARK       I    between atoms: C4_9  and  N3_11 
REMARK    5  A    between atoms: N3_11  and  C5_13 
REMARK    6  A    between atoms: C5_13  and  C6_14 
REMARK    7  A    between atoms: C6_14  and  N4_15 
REMARK       I    between atoms: N4_15  and  C7_17 
REMARK    8  A    between atoms: C7_17  and  C8_19 
ROOT
HETATM    1  N2  UNL     1      80.489 189.142 133.662  1.00  0.00    -0.342 N 
ATOM      2  H2  UNL     1      80.176 188.184 133.818  1.00  0.00     0.164 HD
HETATM    3  C4  UNL     1      81.596 189.623 134.397  1.00  0.00     0.316 C 
HETATM    4  O2  UNL     1      82.008 190.790 134.231  1.00  0.00    -0.247 OA
HETATM    5  N3  UNL     1      82.245 188.777 135.325  1.00  0.00    -0.342 N 
ATOM      6  H3  UNL     1      81.916 187.822 135.467  1.00  0.00     0.164 HD
ENDROOT
BRANCH   5   7
HETATM    7  C5  UNL     1      83.393 189.284 136.083  1.00  0.00     0.144 C 
BRANCH   7   8
HETATM    8  C6  UNL     1      83.819 188.274 137.101  1.00  0.00     0.142 C 
BRANCH   8   9
HETATM    9  N4  UNL     1      84.554 188.888 138.160  1.00  0.00    -0.355 N 
HETATM   10  C7  UNL     1      85.749 188.324 138.707  1.00  0.00     0.282 C 
HETATM   11  O3  UNL     1      86.213 187.237 138.267  1.00  0.00    -0.267 OA
ATOM     12  H4  UNL     1      84.211 189.769 138.544  1.00  0.00     0.162 HD
BRANCH  10  13
HETATM   13  C8  UNL     1      86.463 189.003 139.796  1.00  0.00     0.444 C 
HETATM   14  F1  UNL     1      87.126 190.093 139.309  1.00  0.00    -0.204 F 
HETATM   15  F2  UNL     1      87.301 188.129 140.480  1.00  0.00    -0.204 F 
ENDBRANCH  10  13
ENDBRANCH   8   9
ENDBRANCH   7   8
ENDBRANCH   5   7
BRANCH   1  16
HETATM   16  C3  UNL     1      79.780 189.963 132.692  1.00  0.00     0.144 C 
BRANCH  16  17
HETATM   17  C2  UNL     1      78.749 190.768 133.422  1.00  0.00     0.141 C 
BRANCH  17  18
HETATM   18  N1  UNL     1      79.220 192.075 133.779  1.00  0.00    -0.367 N 
ATOM     19  H1  UNL     1      80.208 192.305 133.678  1.00  0.00     0.161 HD
BRANCH  18  20
HETATM   20  C1  UNL     1      78.316 193.048 134.270  1.00  0.00     0.348 C 
HETATM   21  O1  UNL     1      77.868 193.049 135.456  1.00  0.00    -0.284 OA
ENDBRANCH  18  20
ENDBRANCH  17  18
ENDBRANCH  16  17
ENDBRANCH   1  16
TORSDOF 8
ENDMDL
MODEL 2
REMARK VINA RESULT: -6.197979545      2.564      3.745
REMARK  8 active torsions:
REMARK  status: ('A' for Active; 'I' for Inactive)
REMARK    1  A    between atoms: C1_2  and  N1_3 
REMARK    2  A    between atoms: N1_3  and  C2_5 
REMARK    3  A    between atoms: C2_5  and  C3_6 
REMARK    4  A    between atoms: C3_6  and  N2_7 
REMARK       I    between atoms: N2_7  and  C4_9 
REMARK       I    between atoms: C4_9  and  N3_11 
REMARK    5  A    between atoms: N3_11  and  C5_13 
REMARK    6  A    between atoms: C5_13  and  C6_14 
REMARK    7  A    between atoms: C6_14  and  N4_15 
REMARK       I    between atoms: N4_15  and  C7_17 
REMARK    8  A    between atoms: C7_17  and  C8_19 
ROOT
HETATM    1  N2  UNL     1      80.473 188.270 133.181  1.00  0.00    -0.342 N 
ATOM      2  H2  UNL     1      80.271 187.297 133.412  1.00  0.00     0.164 HD
HETATM    3  C4  UNL     1      81.343 189.002 134.020  1.00  0.00     0.316 C 
HETATM    4  O2  UNL     1      81.614 190.194 133.768  1.00  0.00    -0.247 OA
HETATM    5  N3  UNL     1      81.912 188.380 135.154  1.00  0.00    -0.342 N 
ATOM      6  H3  UNL     1      81.698 187.406 135.368  1.00  0.00     0.164 HD
ENDROOT
BRANCH   5   7
HETATM    7  C5  UNL     1      82.814 189.146 136.020  1.00  0.00     0.144 C 
BRANCH   7   8
HETATM    8  C6  UNL     1      83.447 188.240 137.028  1.00  0.00     0.142 C 
BRANCH   8   9
HETATM    9  N4  UNL     1      84.292 188.969 137.919  1.00  0.00    -0.355 N 
HETATM   10  C7  UNL     1      85.530 188.453 138.415  1.00  0.00     0.282 C 
HETATM   11  O3  UNL     1      85.935 187.306 138.080  1.00  0.00    -0.267 OA
ATOM     12  H4  UNL     1      83.999 189.900 138.214  1.00  0.00     0.162 HD
BRANCH  10  13
HETATM   13  C8  UNL     1      86.357 189.251 139.329  1.00  0.00     0.444 C 
HETATM   14  F1  UNL     1      86.807 188.467 140.352  1.00  0.00    -0.204 F 
HETATM   15  F2  UNL     1      85.679 190.379 139.778  1.00  0.00    -0.204 F 
ENDBRANCH  10  13
ENDBRANCH   8   9
ENDBRANCH   7   8
ENDBRANCH   5   7
BRANCH   1  16
HETATM   16  C3  UNL     1      79.856 188.853 131.999  1.00  0.00     0.144 C 
BRANCH  16  17
HETATM   17  C2  UNL     1      79.475 187.740 131.070  1.00  0.00     0.141 C 
BRANCH  17  18
HETATM   18  N1  UNL     1      79.897 187.980 129.720  1.00  0.00    -0.367 N 
ATOM     19  H1  UNL     1      80.171 188.919 129.432  1.00  0.00     0.161 HD
BRANCH  18  20
HETATM   20  C1  UNL     1      79.932 186.916 128.786  1.00  0.00     0.348 C 
HETATM   21  O1  UNL     1      80.654 185.884 128.930  1.00  0.00    -0.284 OA
ENDBRANCH  18  20
ENDBRANCH  17  18
ENDBRANCH  16  17
ENDBRANCH   1  16
TORSDOF 8
ENDMDL
MODEL 3
REMARK VINA RESULT: -6.082008143      3.772      8.007
REMARK  8 active torsions:
REMARK  status: ('A' for Active; 'I' for Inactive)
REMARK    1  A    between atoms: C1_2  and  N1_3 
REMARK    2  A    between atoms: N1_3  and  C2_5 
REMARK    3  A    between atoms: C2_5  and  C3_6 
REMARK    4  A    between atoms: C3_6  and  N2_7 
REMARK       I    between atoms: N2_7  and  C4_9 
REMARK       I    between atoms: C4_9  and  N3_11 
REMARK    5  A    between atoms: N3_11  and  C5_13 
REMARK    6  A    between atoms: C5_13  and  C6_14 
REMARK    7  A    between atoms: C6_14  and  N4_15 
REMARK       I    between atoms: N4_15  and  C7_17 
REMARK    8  A    between atoms: C7_17  and  C8_19 
ROOT
HETATM    1  N2  UNL     1      82.579 188.978 135.677  1.00  0.00    -0.342 N 
ATOM      2  H2  UNL     1      82.214 188.081 135.995  1.00  0.00     0.164 HD
HETATM    3  C4  UNL     1      81.855 189.700 134.701  1.00  0.00     0.316 C 
HETATM    4  O2  UNL     1      82.272 190.803 134.290  1.00  0.00    -0.247 OA
HETATM    5  N3  UNL     1      80.649 189.172 134.189  1.00  0.00    -0.342 N 
ATOM      6  H3  UNL     1      80.300 188.273 134.520  1.00  0.00     0.164 HD
ENDROOT
BRANCH   5   7
HETATM    7  C5  UNL     1      79.903 189.928 133.177  1.00  0.00     0.144 C 
BRANCH   7   8
HETATM    8  C6  UNL     1      78.811 190.714 133.830  1.00  0.00     0.142 C 
BRANCH   8   9
HETATM    9  N4  UNL     1      78.968 192.113 133.589  1.00  0.00    -0.355 N 
HETATM   10  C7  UNL     1      78.454 193.117 134.467  1.00  0.00     0.282 C 
HETATM   11  O3  UNL     1      77.825 192.802 135.514  1.00  0.00    -0.267 OA
ATOM     12  H4  UNL     1      79.471 192.409 132.752  1.00  0.00     0.162 HD
BRANCH  10  13
HETATM   13  C8  UNL     1      78.648 194.542 134.166  1.00  0.00     0.444 C 
HETATM   14  F1  UNL     1      78.896 194.705 132.834  1.00  0.00    -0.204 F 
HETATM   15  F2  UNL     1      79.638 195.102 134.967  1.00  0.00    -0.204 F 
ENDBRANCH  10  13
ENDBRANCH   8   9
ENDBRANCH   7   8
ENDBRANCH   5   7
BRANCH   1  16
HETATM   16  C3  UNL     1      83.826 189.468 136.244  1.00  0.00     0.144 C 
BRANCH  16  17
HETATM   17  C2  UNL     1      84.151 188.642 137.452  1.00  0.00     0.141 C 
BRANCH  17  18
HETATM   18  N1  UNL     1      84.956 189.350 138.404  1.00  0.00    -0.367 N 
ATOM     19  H1  UNL     1      84.777 190.337 138.589  1.00  0.00     0.161 HD
BRANCH  18  20
HETATM   20  C1  UNL     1      86.001 188.682 139.089  1.00  0.00     0.348 C 
HETATM   21  O1  UNL     1      86.413 187.525 138.776  1.00  0.00    -0.284 OA
ENDBRANCH  18  20
ENDBRANCH  17  18
ENDBRANCH  16  17
ENDBRANCH   1  16
TORSDOF 8
ENDMDL
MODEL 4
REMARK VINA RESULT: -6.047219254      4.671      8.098
REMARK  8 active torsions:
REMARK  status: ('A' for Active; 'I' for Inactive)
REMARK    1  A    between atoms: C1_2  and  N1_3 
REMARK    2  A    between atoms: N1_3  and  C2_5 
REMARK    3  A    between atoms: C2_5  and  C3_6 
REMARK    4  A    between atoms: C3_6  and  N2_7 
REMARK       I    between atoms: N2_7  and  C4_9 
REMARK       I    between atoms: C4_9  and  N3_11 
REMARK    5  A    between atoms: N3_11  and  C5_13 
REMARK    6  A    between atoms: C5_13  and  C6_14 
REMARK    7  A    between atoms: C6_14  and  N4_15 
REMARK       I    between atoms: N4_15  and  C7_17 
REMARK    8  A    between atoms: C7_17  and  C8_19 
ROOT
HETATM    1  N2  UNL     1      82.534 188.877 135.515  1.00  0.00    -0.342 N 
ATOM      2  H2  UNL     1      82.260 187.925 135.757  1.00  0.00     0.164 HD
HETATM    3  C4  UNL     1      81.802 189.564 134.521  1.00  0.00     0.316 C 
HETATM    4  O2  UNL     1      82.109 190.731 134.201  1.00  0.00    -0.247 OA
HETATM    5  N3  UNL     1      80.714 188.926 133.884  1.00  0.00    -0.342 N 
ATOM      6  H3  UNL     1      80.455 187.973 134.140  1.00  0.00     0.164 HD
ENDROOT
BRANCH   5   7
HETATM    7  C5  UNL     1      79.959 189.646 132.853  1.00  0.00     0.144 C 
BRANCH   7   8
HETATM    8  C6  UNL     1      79.448 188.684 131.829  1.00  0.00     0.142 C 
BRANCH   8   9
HETATM    9  N4  UNL     1      79.707 187.334 132.216  1.00  0.00    -0.355 N 
HETATM   10  C7  UNL     1      79.257 186.206 131.461  1.00  0.00     0.282 C 
HETATM   11  O3  UNL     1      78.596 186.361 130.397  1.00  0.00    -0.267 OA
ATOM     12  H4  UNL     1      80.239 187.166 133.071  1.00  0.00     0.162 HD
BRANCH  10  13
HETATM   13  C8  UNL     1      79.556 184.841 131.909  1.00  0.00     0.444 C 
HETATM   14  F1  UNL     1      80.485 184.873 132.909  1.00  0.00    -0.204 F 
HETATM   15  F2  UNL     1      79.941 184.027 130.849  1.00  0.00    -0.204 F 
ENDBRANCH  10  13
ENDBRANCH   8   9
ENDBRANCH   7   8
ENDBRANCH   5   7
BRANCH   1  16
HETATM   16  C3  UNL     1      83.664 189.478 136.208  1.00  0.00     0.144 C 
BRANCH  16  17
HETATM   17  C2  UNL     1      84.012 188.612 137.381  1.00  0.00     0.141 C 
BRANCH  17  18
HETATM   18  N1  UNL     1      84.870 189.274 138.320  1.00  0.00    -0.367 N 
ATOM     19  H1  UNL     1      84.736 190.265 138.520  1.00  0.00     0.161 HD
BRANCH  18  20
HETATM   20  C1  UNL     1      85.902 188.556 138.971  1.00  0.00     0.348 C 
HETATM   21  O1  UNL     1      86.350 187.446 138.555  1.00  0.00    -0.284 OA
ENDBRANCH  18  20
ENDBRANCH  17  18
ENDBRANCH  16  17
ENDBRANCH   1  16
TORSDOF 8
ENDMDL
MODEL 5
REMARK VINA RESULT: -6.043463676      2.082      2.172
REMARK  8 active torsions:
REMARK  status: ('A' for Active; 'I' for Inactive)
REMARK    1  A    between atoms: C1_2  and  N1_3 
REMARK    2  A    between atoms: N1_3  and  C2_5 
REMARK    3  A    between atoms: C2_5  and  C3_6 
REMARK    4  A    between atoms: C3_6  and  N2_7 
REMARK       I    between atoms: N2_7  and  C4_9 
REMARK       I    between atoms: C4_9  and  N3_11 
REMARK    5  A    between atoms: N3_11  and  C5_13 
REMARK    6  A    between atoms: C5_13  and  C6_14 
REMARK    7  A    between atoms: C6_14  and  N4_15 
REMARK       I    between atoms: N4_15  and  C7_17 
REMARK    8  A    between atoms: C7_17  and  C8_19 
ROOT
HETATM    1  N2  UNL     1      80.618 188.838 133.340  1.00  0.00    -0.342 N 
ATOM      2  H2  UNL     1      80.859 189.809 133.144  1.00  0.00     0.164 HD
HETATM    3  C4  UNL     1      81.116 188.238 134.519  1.00  0.00     0.316 C 
HETATM    4  O2  UNL     1      80.841 187.051 134.791  1.00  0.00    -0.247 OA
HETATM    5  N3  UNL     1      81.930 188.987 135.398  1.00  0.00    -0.342 N 
ATOM      6  H3  UNL     1      82.159 189.958 135.185  1.00  0.00     0.164 HD
ENDROOT
BRANCH   5   7
HETATM    7  C5  UNL     1      82.442 188.357 136.620  1.00  0.00     0.144 C 
BRANCH   7   8
HETATM    8  C6  UNL     1      83.937 188.346 136.599  1.00  0.00     0.142 C 
BRANCH   8   9
HETATM    9  N4  UNL     1      84.473 188.911 137.796  1.00  0.00    -0.355 N 
HETATM   10  C7  UNL     1      85.552 188.317 138.523  1.00  0.00     0.282 C 
HETATM   11  O3  UNL     1      86.085 187.245 138.129  1.00  0.00    -0.267 OA
ATOM     12  H4  UNL     1      84.068 189.779 138.149  1.00  0.00     0.162 HD
BRANCH  10  13
HETATM   13  C8  UNL     1      86.061 188.947 139.749  1.00  0.00     0.444 C 
HETATM   14  F1  UNL     1      86.373 190.253 139.504  1.00  0.00    -0.204 F 
HETATM   15  F2  UNL     1      87.128 188.233 140.284  1.00  0.00    -0.204 F 
ENDBRANCH  10  13
ENDBRANCH   8   9
ENDBRANCH   7   8
ENDBRANCH   5   7
BRANCH   1  16
HETATM   16  C3  UNL     1      79.776 188.120 132.395  1.00  0.00     0.144 C 
BRANCH  16  17
HETATM   17  C2  UNL     1      78.347 188.474 132.677  1.00  0.00     0.141 C 
BRANCH  17  18
HETATM   18  N1  UNL     1      77.899 187.989 133.951  1.00  0.00    -0.367 N 
ATOM     19  H1  UNL     1      77.907 186.989 134.146  1.00  0.00     0.161 HD
BRANCH  18  20
HETATM   20  C1  UNL     1      77.447 188.898 134.939  1.00  0.00     0.348 C 
HETATM   21  O1  UNL     1      78.225 189.584 135.666  1.00  0.00    -0.284 OA
ENDBRANCH  18  20
ENDBRANCH  17  18
ENDBRANCH  16  17
ENDBRANCH   1  16
TORSDOF 8
ENDMDL
