MODEL 1
REMARK VINA RESULT: -8.220734920      0.000      0.000
REMARK  12 active torsions:
REMARK  status: ('A' for Active; 'I' for Inactive)
REMARK    1  A    between atoms: C1_2  and  C2_3 
REMARK       I    between atoms: C1_2  and  N1_14 
REMARK    2  A    between atoms: C2_3  and  O2_4 
REMARK    3  A    between atoms: O2_4  and  C3_5 
REMARK    4  A    between atoms: C3_5  and  C4_7 
REMARK    5  A    between atoms: C4_7  and  C5_8 
REMARK    6  A    between atoms: C5_8  and  C6_9 
REMARK    7  A    between atoms: N1_14  and  C10_16 
REMARK    8  A    between atoms: C14_20  and  C15_21 
REMARK    9  A    between atoms: C15_21  and  O6_23 
REMARK   10  A    between atoms: O6_23  and  C16_24 
REMARK   11  A    between atoms: C19_27  and  N2_28 
REMARK   12  A    between atoms: C21_32  and  N3_33 
ROOT
HETATM    1  C10 UNL     1      12.029  33.995  64.807  1.00  0.00     0.035 A 
HETATM    2  C11 UNL     1      12.947  34.221  65.788  1.00  0.00     0.029 A 
HETATM    3  C12 UNL     1      12.999  33.327  66.865  1.00  0.00     0.003 A 
HETATM    4  C13 UNL     1      12.154  32.260  66.926  1.00  0.00     0.018 A 
HETATM    5  C14 UNL     1      11.208  32.004  65.939  1.00  0.00     0.042 A 
HETATM    6  C22 UNL     1      11.162  32.879  64.893  1.00  0.00     0.047 A 
ENDROOT
BRANCH   1   7
HETATM    7  N1  UNL     1      11.846  34.824  63.680  1.00  0.00    -0.325 N 
HETATM    8  C1  UNL     1      11.084  35.997  63.690  1.00  0.00     0.246 C 
HETATM    9  O1  UNL     1      10.478  36.443  64.668  1.00  0.00    -0.271 OA
ATOM     10  H1  UNL     1      12.297  34.551  62.805  1.00  0.00     0.169 HD
BRANCH   8  11
HETATM   11  C2  UNL     1      11.003  36.773  62.384  1.00  0.00     0.281 C 
BRANCH  11  12
HETATM   12  O2  UNL     1       9.946  36.246  61.613  1.00  0.00    -0.312 OA
BRANCH  12  13
HETATM   13  C3  UNL     1       8.775  36.985  61.409  1.00  0.00     0.259 C 
HETATM   14  O3  UNL     1       7.791  36.670  62.119  1.00  0.00    -0.265 OA
BRANCH  13  15
HETATM   15  C4  UNL     1       8.722  38.074  60.405  1.00  0.00     0.117 C 
BRANCH  15  16
HETATM   16  C5  UNL     1       9.333  37.606  59.126  1.00  0.00     0.075 C 
BRANCH  16  17
HETATM   17  C6  UNL     1       8.360  37.823  57.994  1.00  0.00     0.053 A 
HETATM   18  C7  UNL     1       8.755  37.959  56.674  1.00  0.00     0.034 A 
HETATM   19  C8  UNL     1       7.609  38.137  55.939  1.00  0.00     0.027 A 
HETATM   20  C9  UNL     1       6.588  38.098  56.860  1.00  0.00     0.142 A 
HETATM   21  O4  UNL     1       7.067  37.911  58.058  1.00  0.00    -0.327 OA
ENDBRANCH  16  17
ENDBRANCH  15  16
ENDBRANCH  13  15
ENDBRANCH  12  13
ENDBRANCH  11  12
ENDBRANCH   8  11
ENDBRANCH   1   7
BRANCH   5  22
HETATM   22  C15 UNL     1      10.318  30.858  66.031  1.00  0.00     0.298 C 
HETATM   23  O5  UNL     1      10.472  30.062  66.995  1.00  0.00    -0.259 OA
BRANCH  22  24
HETATM   24  O6  UNL     1       9.314  30.615  65.101  1.00  0.00    -0.272 OA
BRANCH  24  25
HETATM   25  C16 UNL     1       9.494  29.623  64.150  1.00  0.00     0.112 A 
HETATM   26  C17 UNL     1      10.342  29.823  63.067  1.00  0.00     0.042 A 
HETATM   27  C18 UNL     1      10.539  28.857  62.108  1.00  0.00     0.039 A 
HETATM   28  C19 UNL     1       9.898  27.639  62.181  1.00  0.00     0.105 A 
HETATM   29  C20 UNL     1       9.053  27.424  63.248  1.00  0.00     0.075 A 
HETATM   30  C21 UNL     1       8.859  28.401  64.211  1.00  0.00     0.139 A 
BRANCH  28  31
HETATM   31  N2  UNL     1      10.087  26.631  61.203  1.00  0.00    -0.116 N 
HETATM   32  O7  UNL     1       9.845  25.445  61.477  1.00  0.00    -0.532 OA
HETATM   33  O8  UNL     1      10.533  26.980  59.971  1.00  0.00    -0.532 OA
ENDBRANCH  28  31
BRANCH  30  34
HETATM   34  N3  UNL     1       7.979  28.135  65.294  1.00  0.00    -0.113 N 
HETATM   35  O9  UNL     1       8.405  27.700  66.392  1.00  0.00    -0.532 OA
HETATM   36  O10 UNL     1       6.626  28.337  65.206  1.00  0.00    -0.532 OA
ENDBRANCH  30  34
ENDBRANCH  24  25
ENDBRANCH  22  24
ENDBRANCH   5  22
TORSDOF 12
ENDMDL
MODEL 2
REMARK VINA RESULT: -8.134003154      5.669     11.280
REMARK  12 active torsions:
REMARK  status: ('A' for Active; 'I' for Inactive)
REMARK    1  A    between atoms: C1_2  and  C2_3 
REMARK       I    between atoms: C1_2  and  N1_14 
REMARK    2  A    between atoms: C2_3  and  O2_4 
REMARK    3  A    between atoms: O2_4  and  C3_5 
REMARK    4  A    between atoms: C3_5  and  C4_7 
REMARK    5  A    between atoms: C4_7  and  C5_8 
REMARK    6  A    between atoms: C5_8  and  C6_9 
REMARK    7  A    between atoms: N1_14  and  C10_16 
REMARK    8  A    between atoms: C14_20  and  C15_21 
REMARK    9  A    between atoms: C15_21  and  O6_23 
REMARK   10  A    between atoms: O6_23  and  C16_24 
REMARK   11  A    between atoms: C19_27  and  N2_28 
REMARK   12  A    between atoms: C21_32  and  N3_33 
ROOT
HETATM    1  C10 UNL     1       7.581  27.034  67.584  1.00  0.00     0.035 A 
HETATM    2  C11 UNL     1       6.485  26.679  66.856  1.00  0.00     0.029 A 
HETATM    3  C12 UNL     1       6.225  27.377  65.670  1.00  0.00     0.003 A 
HETATM    4  C13 UNL     1       7.047  28.381  65.257  1.00  0.00     0.018 A 
HETATM    5  C14 UNL     1       8.172  28.764  65.979  1.00  0.00     0.042 A 
HETATM    6  C22 UNL     1       8.421  28.082  67.135  1.00  0.00     0.047 A 
ENDROOT
BRANCH   1   7
HETATM    7  N1  UNL     1       7.952  26.438  68.808  1.00  0.00    -0.325 N 
HETATM    8  C1  UNL     1       7.041  26.082  69.810  1.00  0.00     0.246 C 
HETATM    9  O1  UNL     1       5.820  26.250  69.753  1.00  0.00    -0.271 OA
ATOM     10  H1  UNL     1       8.942  26.257  68.973  1.00  0.00     0.169 HD
BRANCH   8  11
HETATM   11  C2  UNL     1       7.617  25.441  71.064  1.00  0.00     0.281 C 
BRANCH  11  12
HETATM   12  O2  UNL     1       6.968  25.991  72.188  1.00  0.00    -0.312 OA
BRANCH  12  13
HETATM   13  C3  UNL     1       7.461  27.150  72.799  1.00  0.00     0.259 C 
HETATM   14  O3  UNL     1       6.825  28.207  72.576  1.00  0.00    -0.265 OA
BRANCH  13  15
HETATM   15  C4  UNL     1       8.669  27.109  73.657  1.00  0.00     0.117 C 
BRANCH  15  16
HETATM   16  C5  UNL     1       9.281  28.469  73.727  1.00  0.00     0.075 C 
BRANCH  16  17
HETATM   17  C6  UNL     1      10.723  28.351  74.154  1.00  0.00     0.053 A 
HETATM   18  C7  UNL     1      11.288  27.163  74.586  1.00  0.00     0.034 A 
HETATM   19  C8  UNL     1      12.599  27.439  74.883  1.00  0.00     0.027 A 
HETATM   20  C9  UNL     1      12.749  28.780  74.614  1.00  0.00     0.142 A 
HETATM   21  O4  UNL     1      11.625  29.283  74.187  1.00  0.00    -0.327 OA
ENDBRANCH  16  17
ENDBRANCH  15  16
ENDBRANCH  13  15
ENDBRANCH  12  13
ENDBRANCH  11  12
ENDBRANCH   8  11
ENDBRANCH   1   7
BRANCH   5  22
HETATM   22  C15 UNL     1       9.032  29.842  65.515  1.00  0.00     0.298 C 
HETATM   23  O5  UNL     1       8.656  31.028  65.712  1.00  0.00    -0.259 OA
BRANCH  22  24
HETATM   24  O6  UNL     1      10.241  29.608  64.872  1.00  0.00    -0.272 OA
BRANCH  24  25
HETATM   25  C16 UNL     1      10.260  28.837  63.720  1.00  0.00     0.112 A 
HETATM   26  C17 UNL     1      10.318  27.450  63.794  1.00  0.00     0.042 A 
HETATM   27  C18 UNL     1      10.339  26.661  62.668  1.00  0.00     0.039 A 
HETATM   28  C19 UNL     1      10.301  27.217  61.407  1.00  0.00     0.105 A 
HETATM   29  C20 UNL     1      10.243  28.590  61.315  1.00  0.00     0.075 A 
HETATM   30  C21 UNL     1      10.223  29.380  62.453  1.00  0.00     0.139 A 
BRANCH  28  31
HETATM   31  N2  UNL     1      10.322  26.421  60.234  1.00  0.00    -0.116 N 
HETATM   32  O7  UNL     1      10.648  26.922  59.147  1.00  0.00    -0.532 OA
HETATM   33  O8  UNL     1       9.981  25.111  60.318  1.00  0.00    -0.532 OA
ENDBRANCH  28  31
BRANCH  30  34
HETATM   34  N3  UNL     1      10.162  30.792  62.310  1.00  0.00    -0.113 N 
HETATM   35  O9  UNL     1       9.407  31.333  61.465  1.00  0.00    -0.532 OA
HETATM   36  O10 UNL     1      10.916  31.639  63.080  1.00  0.00    -0.532 OA
ENDBRANCH  30  34
ENDBRANCH  24  25
ENDBRANCH  22  24
ENDBRANCH   5  22
TORSDOF 12
ENDMDL
MODEL 3
REMARK VINA RESULT: -8.022214604      5.140     11.315
REMARK  12 active torsions:
REMARK  status: ('A' for Active; 'I' for Inactive)
REMARK    1  A    between atoms: C1_2  and  C2_3 
REMARK       I    between atoms: C1_2  and  N1_14 
REMARK    2  A    between atoms: C2_3  and  O2_4 
REMARK    3  A    between atoms: O2_4  and  C3_5 
REMARK    4  A    between atoms: C3_5  and  C4_7 
REMARK    5  A    between atoms: C4_7  and  C5_8 
REMARK    6  A    between atoms: C5_8  and  C6_9 
REMARK    7  A    between atoms: N1_14  and  C10_16 
REMARK    8  A    between atoms: C14_20  and  C15_21 
REMARK    9  A    between atoms: C15_21  and  O6_23 
REMARK   10  A    between atoms: O6_23  and  C16_24 
REMARK   11  A    between atoms: C19_27  and  N2_28 
REMARK   12  A    between atoms: C21_32  and  N3_33 
ROOT
HETATM    1  C10 UNL     1       8.535  28.217  64.963  1.00  0.00     0.035 A 
HETATM    2  C11 UNL     1       8.912  28.278  63.654  1.00  0.00     0.029 A 
HETATM    3  C12 UNL     1       9.621  29.405  63.222  1.00  0.00     0.003 A 
HETATM    4  C13 UNL     1       9.926  30.411  64.088  1.00  0.00     0.018 A 
HETATM    5  C14 UNL     1       9.556  30.375  65.429  1.00  0.00     0.042 A 
HETATM    6  C22 UNL     1       8.864  29.275  65.844  1.00  0.00     0.047 A 
ENDROOT
BRANCH   1   7
HETATM    7  N1  UNL     1       7.796  27.158  65.531  1.00  0.00    -0.325 N 
HETATM    8  C1  UNL     1       6.415  27.202  65.754  1.00  0.00     0.246 C 
HETATM    9  O1  UNL     1       5.683  28.160  65.494  1.00  0.00    -0.271 OA
ATOM     10  H1  UNL     1       8.299  26.309  65.795  1.00  0.00     0.169 HD
BRANCH   8  11
HETATM   11  C2  UNL     1       5.780  25.963  66.369  1.00  0.00     0.281 C 
BRANCH  11  12
HETATM   12  O2  UNL     1       4.620  26.353  67.068  1.00  0.00    -0.312 OA
BRANCH  12  13
HETATM   13  C3  UNL     1       4.522  26.162  68.451  1.00  0.00     0.259 C 
HETATM   14  O3  UNL     1       5.581  25.844  69.042  1.00  0.00    -0.265 OA
BRANCH  13  15
HETATM   15  C4  UNL     1       3.230  26.331  69.158  1.00  0.00     0.117 C 
BRANCH  15  16
HETATM   16  C5  UNL     1       2.861  25.054  69.837  1.00  0.00     0.075 C 
BRANCH  16  17
HETATM   17  C6  UNL     1       1.571  24.529  69.257  1.00  0.00     0.053 A 
HETATM   18  C7  UNL     1       1.505  23.859  68.048  1.00  0.00     0.034 A 
HETATM   19  C8  UNL     1       0.186  23.537  67.851  1.00  0.00     0.027 A 
HETATM   20  C9  UNL     1      -0.469  24.033  68.955  1.00  0.00     0.142 A 
HETATM   21  O4  UNL     1       0.378  24.610  69.760  1.00  0.00    -0.327 OA
ENDBRANCH  16  17
ENDBRANCH  15  16
ENDBRANCH  13  15
ENDBRANCH  12  13
ENDBRANCH  11  12
ENDBRANCH   8  11
ENDBRANCH   1   7
BRANCH   5  22
HETATM   22  C15 UNL     1       9.895  31.465  66.331  1.00  0.00     0.298 C 
HETATM   23  O5  UNL     1       9.024  32.349  66.546  1.00  0.00    -0.259 OA
BRANCH  22  24
HETATM   24  O6  UNL     1      11.131  31.559  66.956  1.00  0.00    -0.272 OA
BRANCH  24  25
HETATM   25  C16 UNL     1      11.997  32.582  66.600  1.00  0.00     0.112 A 
HETATM   26  C17 UNL     1      11.737  33.379  65.492  1.00  0.00     0.042 A 
HETATM   27  C18 UNL     1      12.578  34.400  65.115  1.00  0.00     0.039 A 
HETATM   28  C19 UNL     1      13.724  34.678  65.827  1.00  0.00     0.105 A 
HETATM   29  C20 UNL     1      13.998  33.898  66.930  1.00  0.00     0.075 A 
HETATM   30  C21 UNL     1      13.147  32.871  67.304  1.00  0.00     0.139 A 
BRANCH  28  31
HETATM   31  N2  UNL     1      14.604  35.725  65.455  1.00  0.00    -0.116 N 
HETATM   32  O7  UNL     1      15.810  35.656  65.741  1.00  0.00    -0.532 OA
HETATM   33  O8  UNL     1      14.111  36.797  64.788  1.00  0.00    -0.532 OA
ENDBRANCH  28  31
BRANCH  30  34
HETATM   34  N3  UNL     1      13.468  32.092  68.448  1.00  0.00    -0.113 N 
HETATM   35  O9  UNL     1      14.108  31.016  68.348  1.00  0.00    -0.532 OA
HETATM   36  O10 UNL     1      13.103  32.465  69.715  1.00  0.00    -0.532 OA
ENDBRANCH  30  34
ENDBRANCH  24  25
ENDBRANCH  22  24
ENDBRANCH   5  22
TORSDOF 12
ENDMDL
MODEL 4
REMARK VINA RESULT: -7.960169424      4.911     11.347
REMARK  12 active torsions:
REMARK  status: ('A' for Active; 'I' for Inactive)
REMARK    1  A    between atoms: C1_2  and  C2_3 
REMARK       I    between atoms: C1_2  and  N1_14 
REMARK    2  A    between atoms: C2_3  and  O2_4 
REMARK    3  A    between atoms: O2_4  and  C3_5 
REMARK    4  A    between atoms: C3_5  and  C4_7 
REMARK    5  A    between atoms: C4_7  and  C5_8 
REMARK    6  A    between atoms: C5_8  and  C6_9 
REMARK    7  A    between atoms: N1_14  and  C10_16 
REMARK    8  A    between atoms: C14_20  and  C15_21 
REMARK    9  A    between atoms: C15_21  and  O6_23 
REMARK   10  A    between atoms: O6_23  and  C16_24 
REMARK   11  A    between atoms: C19_27  and  N2_28 
REMARK   12  A    between atoms: C21_32  and  N3_33 
ROOT
HETATM    1  C10 UNL     1       8.328  28.035  65.256  1.00  0.00     0.035 A 
HETATM    2  C11 UNL     1       8.674  27.877  63.947  1.00  0.00     0.029 A 
HETATM    3  C12 UNL     1       9.491  28.849  63.357  1.00  0.00     0.003 A 
HETATM    4  C13 UNL     1       9.927  29.922  64.073  1.00  0.00     0.018 A 
HETATM    5  C14 UNL     1       9.591  30.109  65.410  1.00  0.00     0.042 A 
HETATM    6  C22 UNL     1       8.794  29.159  65.980  1.00  0.00     0.047 A 
ENDROOT
BRANCH   1   7
HETATM    7  N1  UNL     1       7.493  27.152  65.972  1.00  0.00    -0.325 N 
HETATM    8  C1  UNL     1       6.101  27.279  66.041  1.00  0.00     0.246 C 
HETATM    9  O1  UNL     1       5.440  28.170  65.500  1.00  0.00    -0.271 OA
ATOM     10  H1  UNL     1       7.930  26.375  66.469  1.00  0.00     0.169 HD
BRANCH   8  11
HETATM   11  C2  UNL     1       5.356  26.229  66.853  1.00  0.00     0.281 C 
BRANCH  11  12
HETATM   12  O2  UNL     1       5.887  26.212  68.159  1.00  0.00    -0.312 OA
BRANCH  12  13
HETATM   13  C3  UNL     1       5.064  25.941  69.259  1.00  0.00     0.259 C 
HETATM   14  O3  UNL     1       5.628  25.451  70.265  1.00  0.00    -0.265 OA
BRANCH  13  15
HETATM   15  C4  UNL     1       3.610  26.225  69.215  1.00  0.00     0.117 C 
BRANCH  15  16
HETATM   16  C5  UNL     1       2.887  25.277  70.114  1.00  0.00     0.075 C 
BRANCH  16  17
HETATM   17  C6  UNL     1       1.715  24.678  69.376  1.00  0.00     0.053 A 
HETATM   18  C7  UNL     1       1.845  24.003  68.174  1.00  0.00     0.034 A 
HETATM   19  C8  UNL     1       0.583  23.605  67.811  1.00  0.00     0.027 A 
HETATM   20  C9  UNL     1      -0.237  24.064  68.816  1.00  0.00     0.142 A 
HETATM   21  O4  UNL     1       0.464  24.691  69.720  1.00  0.00    -0.327 OA
ENDBRANCH  16  17
ENDBRANCH  15  16
ENDBRANCH  13  15
ENDBRANCH  12  13
ENDBRANCH  11  12
ENDBRANCH   8  11
ENDBRANCH   1   7
BRANCH   5  22
HETATM   22  C15 UNL     1      10.071  31.265  66.151  1.00  0.00     0.298 C 
HETATM   23  O5  UNL     1       9.234  31.934  66.813  1.00  0.00    -0.259 OA
BRANCH  22  24
HETATM   24  O6  UNL     1      11.406  31.649  66.153  1.00  0.00    -0.272 OA
BRANCH  24  25
HETATM   25  C16 UNL     1      11.756  32.891  65.646  1.00  0.00     0.112 A 
HETATM   26  C17 UNL     1      11.106  33.414  64.534  1.00  0.00     0.042 A 
HETATM   27  C18 UNL     1      11.433  34.643  64.010  1.00  0.00     0.039 A 
HETATM   28  C19 UNL     1      12.429  35.414  64.571  1.00  0.00     0.105 A 
HETATM   29  C20 UNL     1      13.084  34.911  65.673  1.00  0.00     0.075 A 
HETATM   30  C21 UNL     1      12.750  33.673  66.196  1.00  0.00     0.139 A 
BRANCH  28  31
HETATM   31  N2  UNL     1      12.782  36.683  64.045  1.00  0.00    -0.116 N 
HETATM   32  O7  UNL     1      13.686  37.347  64.575  1.00  0.00    -0.532 OA
HETATM   33  O8  UNL     1      12.119  37.157  62.962  1.00  0.00    -0.532 OA
ENDBRANCH  28  31
BRANCH  30  34
HETATM   34  N3  UNL     1      13.452  33.193  67.335  1.00  0.00    -0.113 N 
HETATM   35  O9  UNL     1      13.011  33.369  68.498  1.00  0.00    -0.532 OA
HETATM   36  O10 UNL     1      14.640  32.518  67.232  1.00  0.00    -0.532 OA
ENDBRANCH  30  34
ENDBRANCH  24  25
ENDBRANCH  22  24
ENDBRANCH   5  22
TORSDOF 12
ENDMDL
MODEL 5
REMARK VINA RESULT: -7.941016705      5.684     10.706
REMARK  12 active torsions:
REMARK  status: ('A' for Active; 'I' for Inactive)
REMARK    1  A    between atoms: C1_2  and  C2_3 
REMARK       I    between atoms: C1_2  and  N1_14 
REMARK    2  A    between atoms: C2_3  and  O2_4 
REMARK    3  A    between atoms: O2_4  and  C3_5 
REMARK    4  A    between atoms: C3_5  and  C4_7 
REMARK    5  A    between atoms: C4_7  and  C5_8 
REMARK    6  A    between atoms: C5_8  and  C6_9 
REMARK    7  A    between atoms: N1_14  and  C10_16 
REMARK    8  A    between atoms: C14_20  and  C15_21 
REMARK    9  A    between atoms: C15_21  and  O6_23 
REMARK   10  A    between atoms: O6_23  and  C16_24 
REMARK   11  A    between atoms: C19_27  and  N2_28 
REMARK   12  A    between atoms: C21_32  and  N3_33 
ROOT
HETATM    1  C10 UNL     1       7.551  27.093  67.542  1.00  0.00     0.035 A 
HETATM    2  C11 UNL     1       6.459  26.754  66.800  1.00  0.00     0.029 A 
HETATM    3  C12 UNL     1       6.241  27.434  65.596  1.00  0.00     0.003 A 
HETATM    4  C13 UNL     1       7.099  28.406  65.178  1.00  0.00     0.018 A 
HETATM    5  C14 UNL     1       8.221  28.772  65.914  1.00  0.00     0.042 A 
HETATM    6  C22 UNL     1       8.428  28.107  67.087  1.00  0.00     0.047 A 
ENDROOT
BRANCH   1   7
HETATM    7  N1  UNL     1       7.882  26.514  68.785  1.00  0.00    -0.325 N 
HETATM    8  C1  UNL     1       6.935  26.048  69.705  1.00  0.00     0.246 C 
HETATM    9  O1  UNL     1       5.712  26.094  69.552  1.00  0.00    -0.271 OA
ATOM     10  H1  UNL     1       8.869  26.429  69.028  1.00  0.00     0.169 HD
BRANCH   8  11
HETATM   11  C2  UNL     1       7.472  25.443  70.994  1.00  0.00     0.281 C 
BRANCH  11  12
HETATM   12  O2  UNL     1       6.629  25.829  72.056  1.00  0.00    -0.312 OA
BRANCH  12  13
HETATM   13  C3  UNL     1       6.693  27.125  72.582  1.00  0.00     0.259 C 
HETATM   14  O3  UNL     1       5.600  27.727  72.704  1.00  0.00    -0.265 OA
BRANCH  13  15
HETATM   15  C4  UNL     1       7.990  27.733  72.965  1.00  0.00     0.117 C 
BRANCH  15  16
HETATM   16  C5  UNL     1       7.922  29.213  72.786  1.00  0.00     0.075 C 
BRANCH  16  17
HETATM   17  C6  UNL     1       9.232  29.832  73.203  1.00  0.00     0.053 A 
HETATM   18  C7  UNL     1      10.177  29.160  73.960  1.00  0.00     0.034 A 
HETATM   19  C8  UNL     1      11.224  30.028  74.139  1.00  0.00     0.027 A 
HETATM   20  C9  UNL     1      10.850  31.176  73.478  1.00  0.00     0.142 A 
HETATM   21  O4  UNL     1       9.673  31.023  72.940  1.00  0.00    -0.327 OA
ENDBRANCH  16  17
ENDBRANCH  15  16
ENDBRANCH  13  15
ENDBRANCH  12  13
ENDBRANCH  11  12
ENDBRANCH   8  11
ENDBRANCH   1   7
BRANCH   5  22
HETATM   22  C15 UNL     1       9.120  29.815  65.444  1.00  0.00     0.298 C 
HETATM   23  O5  UNL     1       8.806  31.014  65.668  1.00  0.00    -0.259 OA
BRANCH  22  24
HETATM   24  O6  UNL     1      10.300  29.534  64.767  1.00  0.00    -0.272 OA
BRANCH  24  25
HETATM   25  C16 UNL     1      10.255  28.766  63.614  1.00  0.00     0.112 A 
HETATM   26  C17 UNL     1      10.236  27.378  63.686  1.00  0.00     0.042 A 
HETATM   27  C18 UNL     1      10.193  26.590  62.559  1.00  0.00     0.039 A 
HETATM   28  C19 UNL     1      10.166  27.150  61.300  1.00  0.00     0.105 A 
HETATM   29  C20 UNL     1      10.184  28.525  61.209  1.00  0.00     0.075 A 
HETATM   30  C21 UNL     1      10.228  29.312  62.348  1.00  0.00     0.139 A 
BRANCH  28  31
HETATM   31  N2  UNL     1      10.121  26.356  60.126  1.00  0.00    -0.116 N 
HETATM   32  O7  UNL     1      10.672  26.751  59.086  1.00  0.00    -0.532 OA
HETATM   33  O8  UNL     1       9.471  25.166  60.157  1.00  0.00    -0.532 OA
ENDBRANCH  28  31
BRANCH  30  34
HETATM   34  N3  UNL     1      10.245  30.726  62.208  1.00  0.00    -0.113 N 
HETATM   35  O9  UNL     1       9.583  31.303  61.310  1.00  0.00    -0.532 OA
HETATM   36  O10 UNL     1      10.979  31.535  63.035  1.00  0.00    -0.532 OA
ENDBRANCH  30  34
ENDBRANCH  24  25
ENDBRANCH  22  24
ENDBRANCH   5  22
TORSDOF 12
ENDMDL
