MODEL 1
REMARK VINA RESULT: -8.216067998      0.000      0.000
REMARK  11 active torsions:
REMARK  status: ('A' for Active; 'I' for Inactive)
REMARK    1  A    between atoms: O1_2  and  C2_3 
REMARK    2  A    between atoms: C4_5  and  N1_6 
REMARK       I    between atoms: N1_6  and  C5_8 
REMARK    3  A    between atoms: C5_8  and  C6_10 
REMARK    4  A    between atoms: C6_10  and  O3_11 
REMARK    5  A    between atoms: O3_11  and  C7_12 
REMARK    6  A    between atoms: C7_12  and  C8_14 
REMARK    7  A    between atoms: C10_16  and  N2_17 
REMARK    8  A    between atoms: C12_21  and  N3_22 
REMARK    9  A    between atoms: C14_26  and  O9_27 
REMARK   10  A    between atoms: O9_27  and  C15_28 
REMARK   11  A    between atoms: C20_33  and  O10_34 
ROOT
HETATM    1  N1  UNL     1       8.335  27.830  65.679  1.00  0.00    -0.323 N 
ATOM      2  H1  UNL     1       8.869  26.996  65.925  1.00  0.00     0.169 HD
HETATM    3  C5  UNL     1       6.960  27.633  65.480  1.00  0.00     0.246 C 
HETATM    4  O2  UNL     1       6.167  28.532  65.175  1.00  0.00    -0.271 OA
ENDROOT
BRANCH   1   5
HETATM    5  C4  UNL     1       9.076  29.016  65.586  1.00  0.00     0.074 A 
HETATM    6  C3  UNL     1       9.451  29.740  66.693  1.00  0.00     0.069 A 
HETATM    7  C2  UNL     1      10.229  30.905  66.590  1.00  0.00     0.073 A 
HETATM    8  C22 UNL     1      10.610  31.303  65.345  1.00  0.00     0.076 A 
HETATM    9  C20 UNL     1      10.261  30.612  64.211  1.00  0.00     0.106 A 
HETATM   10  C14 UNL     1       9.488  29.459  64.318  1.00  0.00     0.129 A 
BRANCH   7  11
HETATM   11  O1  UNL     1      10.546  31.553  67.759  1.00  0.00    -0.356 OA
HETATM   12  C1  UNL     1      11.768  32.151  68.049  1.00  0.00     0.210 C 
ENDBRANCH   7  11
BRANCH   9  13
HETATM   13  O10 UNL     1      10.685  31.075  62.982  1.00  0.00    -0.353 OA
HETATM   14  C21 UNL     1       9.868  31.933  62.235  1.00  0.00     0.210 C 
ENDBRANCH   9  13
BRANCH  10  15
HETATM   15  O9  UNL     1       9.139  28.775  63.170  1.00  0.00    -0.341 OA
BRANCH  15  16
HETATM   16  C15 UNL     1      10.021  27.922  62.467  1.00  0.00     0.129 C 
HETATM   17  C16 UNL     1      10.176  28.265  61.008  1.00  0.00     0.032 C 
HETATM   18  C17 UNL     1      10.847  27.012  60.470  1.00  0.00     0.002 C 
HETATM   19  C18 UNL     1      10.081  25.927  61.152  1.00  0.00     0.002 C 
HETATM   20  C19 UNL     1       9.426  26.505  62.374  1.00  0.00     0.032 C 
ENDBRANCH  15  16
ENDBRANCH  10  15
ENDBRANCH   1   5
BRANCH   3  21
HETATM   21  C6  UNL     1       6.418  26.229  65.652  1.00  0.00     0.282 C 
BRANCH  21  22
HETATM   22  O3  UNL     1       6.227  25.942  67.010  1.00  0.00    -0.308 OA
BRANCH  22  23
HETATM   23  C7  UNL     1       5.111  26.224  67.754  1.00  0.00     0.293 C 
HETATM   24  O4  UNL     1       4.122  26.750  67.191  1.00  0.00    -0.259 OA
BRANCH  23  25
HETATM   25  C8  UNL     1       5.031  25.934  69.176  1.00  0.00     0.044 A 
HETATM   26  C9  UNL     1       3.822  25.647  69.802  1.00  0.00     0.053 A 
HETATM   27  C10 UNL     1       3.764  25.375  71.147  1.00  0.00     0.106 A 
HETATM   28  C11 UNL     1       4.910  25.383  71.900  1.00  0.00     0.072 A 
HETATM   29  C12 UNL     1       6.152  25.664  71.321  1.00  0.00     0.106 A 
HETATM   30  C13 UNL     1       6.149  25.929  69.969  1.00  0.00     0.053 A 
BRANCH  27  31
HETATM   31  N2  UNL     1       2.512  25.090  71.736  1.00  0.00    -0.116 N 
HETATM   32  O5  UNL     1       2.224  25.498  72.901  1.00  0.00    -0.532 OA
HETATM   33  O6  UNL     1       1.557  24.357  71.066  1.00  0.00    -0.532 OA
ENDBRANCH  27  31
BRANCH  29  34
HETATM   34  N3  UNL     1       7.317  25.665  72.120  1.00  0.00    -0.116 N 
HETATM   35  O7  UNL     1       7.452  26.493  73.028  1.00  0.00    -0.532 OA
HETATM   36  O8  UNL     1       8.296  24.743  71.881  1.00  0.00    -0.532 OA
ENDBRANCH  29  34
ENDBRANCH  23  25
ENDBRANCH  22  23
ENDBRANCH  21  22
ENDBRANCH   3  21
TORSDOF 11
ENDMDL
MODEL 2
REMARK VINA RESULT: -8.211241545      0.033      2.501
REMARK  11 active torsions:
REMARK  status: ('A' for Active; 'I' for Inactive)
REMARK    1  A    between atoms: O1_2  and  C2_3 
REMARK    2  A    between atoms: C4_5  and  N1_6 
REMARK       I    between atoms: N1_6  and  C5_8 
REMARK    3  A    between atoms: C5_8  and  C6_10 
REMARK    4  A    between atoms: C6_10  and  O3_11 
REMARK    5  A    between atoms: O3_11  and  C7_12 
REMARK    6  A    between atoms: C7_12  and  C8_14 
REMARK    7  A    between atoms: C10_16  and  N2_17 
REMARK    8  A    between atoms: C12_21  and  N3_22 
REMARK    9  A    between atoms: C14_26  and  O9_27 
REMARK   10  A    between atoms: O9_27  and  C15_28 
REMARK   11  A    between atoms: C20_33  and  O10_34 
ROOT
HETATM    1  N1  UNL     1       8.338  27.838  65.685  1.00  0.00    -0.323 N 
ATOM      2  H1  UNL     1       8.869  27.006  65.943  1.00  0.00     0.169 HD
HETATM    3  C5  UNL     1       6.964  27.641  65.480  1.00  0.00     0.246 C 
HETATM    4  O2  UNL     1       6.174  28.538  65.162  1.00  0.00    -0.271 OA
ENDROOT
BRANCH   1   5
HETATM    5  C4  UNL     1       9.081  29.022  65.586  1.00  0.00     0.074 A 
HETATM    6  C3  UNL     1       9.454  29.754  66.689  1.00  0.00     0.069 A 
HETATM    7  C2  UNL     1      10.235  30.916  66.579  1.00  0.00     0.073 A 
HETATM    8  C22 UNL     1      10.618  31.306  65.332  1.00  0.00     0.076 A 
HETATM    9  C20 UNL     1      10.270  30.608  64.203  1.00  0.00     0.106 A 
HETATM   10  C14 UNL     1       9.495  29.457  64.315  1.00  0.00     0.129 A 
BRANCH   7  11
HETATM   11  O1  UNL     1      10.550  31.572  67.744  1.00  0.00    -0.356 OA
HETATM   12  C1  UNL     1      11.789  32.123  68.055  1.00  0.00     0.210 C 
ENDBRANCH   7  11
BRANCH   9  13
HETATM   13  O10 UNL     1      10.696  31.062  62.971  1.00  0.00    -0.353 OA
HETATM   14  C21 UNL     1       9.882  31.916  62.217  1.00  0.00     0.210 C 
ENDBRANCH   9  13
BRANCH  10  15
HETATM   15  O9  UNL     1       9.147  28.766  63.172  1.00  0.00    -0.341 OA
BRANCH  15  16
HETATM   16  C15 UNL     1      10.029  27.907  62.476  1.00  0.00     0.129 C 
HETATM   17  C16 UNL     1      10.186  28.238  61.014  1.00  0.00     0.032 C 
HETATM   18  C17 UNL     1      10.856  26.982  60.486  1.00  0.00     0.002 C 
HETATM   19  C18 UNL     1      10.090  25.901  61.176  1.00  0.00     0.002 C 
HETATM   20  C19 UNL     1       9.434  26.489  62.393  1.00  0.00     0.032 C 
ENDBRANCH  15  16
ENDBRANCH  10  15
ENDBRANCH   1   5
BRANCH   3  21
HETATM   21  C6  UNL     1       6.420  26.239  65.661  1.00  0.00     0.282 C 
BRANCH  21  22
HETATM   22  O3  UNL     1       6.242  25.957  67.023  1.00  0.00    -0.308 OA
BRANCH  22  23
HETATM   23  C7  UNL     1       5.131  26.232  67.775  1.00  0.00     0.293 C 
HETATM   24  O4  UNL     1       4.132  26.746  67.218  1.00  0.00    -0.259 OA
BRANCH  23  25
HETATM   25  C8  UNL     1       5.066  25.949  69.199  1.00  0.00     0.044 A 
HETATM   26  C9  UNL     1       6.202  25.947  70.002  1.00  0.00     0.053 A 
HETATM   27  C10 UNL     1       6.124  25.677  71.346  1.00  0.00     0.106 A 
HETATM   28  C11 UNL     1       4.910  25.403  71.922  1.00  0.00     0.072 A 
HETATM   29  C12 UNL     1       3.736  25.392  71.161  1.00  0.00     0.106 A 
HETATM   30  C13 UNL     1       3.876  25.669  69.819  1.00  0.00     0.053 A 
BRANCH  27  31
HETATM   31  N2  UNL     1       7.306  25.688  72.119  1.00  0.00    -0.116 N 
HETATM   32  O5  UNL     1       7.486  26.544  73.036  1.00  0.00    -0.532 OA
HETATM   33  O6  UNL     1       8.309  24.768  71.903  1.00  0.00    -0.532 OA
ENDBRANCH  27  31
BRANCH  29  34
HETATM   34  N3  UNL     1       2.499  25.106  71.780  1.00  0.00    -0.116 N 
HETATM   35  O7  UNL     1       2.256  25.527  72.916  1.00  0.00    -0.532 OA
HETATM   36  O8  UNL     1       1.570  24.358  71.113  1.00  0.00    -0.532 OA
ENDBRANCH  29  34
ENDBRANCH  23  25
ENDBRANCH  22  23
ENDBRANCH  21  22
ENDBRANCH   3  21
TORSDOF 11
ENDMDL
MODEL 3
REMARK VINA RESULT: -8.055297523      1.209      3.988
REMARK  11 active torsions:
REMARK  status: ('A' for Active; 'I' for Inactive)
REMARK    1  A    between atoms: O1_2  and  C2_3 
REMARK    2  A    between atoms: C4_5  and  N1_6 
REMARK       I    between atoms: N1_6  and  C5_8 
REMARK    3  A    between atoms: C5_8  and  C6_10 
REMARK    4  A    between atoms: C6_10  and  O3_11 
REMARK    5  A    between atoms: O3_11  and  C7_12 
REMARK    6  A    between atoms: C7_12  and  C8_14 
REMARK    7  A    between atoms: C10_16  and  N2_17 
REMARK    8  A    between atoms: C12_21  and  N3_22 
REMARK    9  A    between atoms: C14_26  and  O9_27 
REMARK   10  A    between atoms: O9_27  and  C15_28 
REMARK   11  A    between atoms: C20_33  and  O10_34 
ROOT
HETATM    1  N1  UNL     1       9.118  27.563  65.098  1.00  0.00    -0.323 N 
ATOM      2  H1  UNL     1       9.793  27.189  65.765  1.00  0.00     0.169 HD
HETATM    3  C5  UNL     1       7.806  27.704  65.577  1.00  0.00     0.246 C 
HETATM    4  O2  UNL     1       6.864  28.139  64.903  1.00  0.00    -0.271 OA
ENDROOT
BRANCH   1   5
HETATM    5  C4  UNL     1       9.627  27.866  63.828  1.00  0.00     0.074 A 
HETATM    6  C3  UNL     1       9.874  26.899  62.882  1.00  0.00     0.069 A 
HETATM    7  C2  UNL     1      10.345  27.220  61.598  1.00  0.00     0.073 A 
HETATM    8  C22 UNL     1      10.552  28.534  61.309  1.00  0.00     0.076 A 
HETATM    9  C20 UNL     1      10.319  29.534  62.220  1.00  0.00     0.106 A 
HETATM   10  C14 UNL     1       9.854  29.212  63.493  1.00  0.00     0.129 A 
BRANCH   7  11
HETATM   11  O1  UNL     1      10.560  26.176  60.731  1.00  0.00    -0.356 OA
HETATM   12  C1  UNL     1       9.809  25.006  60.668  1.00  0.00     0.210 C 
ENDBRANCH   7  11
BRANCH   9  13
HETATM   13  O10 UNL     1      10.551  30.845  61.857  1.00  0.00    -0.353 OA
HETATM   14  C21 UNL     1       9.478  31.732  61.710  1.00  0.00     0.210 C 
ENDBRANCH   9  13
BRANCH  10  15
HETATM   15  O9  UNL     1       9.628  30.226  64.403  1.00  0.00    -0.341 OA
BRANCH  15  16
HETATM   16  C15 UNL     1      10.587  30.658  65.349  1.00  0.00     0.129 C 
HETATM   17  C16 UNL     1      10.100  30.629  66.775  1.00  0.00     0.032 C 
HETATM   18  C17 UNL     1      11.159  31.462  67.476  1.00  0.00     0.002 C 
HETATM   19  C18 UNL     1      11.353  32.595  66.522  1.00  0.00     0.002 C 
HETATM   20  C19 UNL     1      10.873  32.159  65.167  1.00  0.00     0.032 C 
ENDBRANCH  15  16
ENDBRANCH  10  15
ENDBRANCH   1   5
BRANCH   3  21
HETATM   21  C6  UNL     1       7.534  27.298  67.010  1.00  0.00     0.282 C 
BRANCH  21  22
HETATM   22  O3  UNL     1       6.518  26.333  67.059  1.00  0.00    -0.308 OA
BRANCH  22  23
HETATM   23  C7  UNL     1       5.277  26.483  67.618  1.00  0.00     0.293 C 
HETATM   24  O4  UNL     1       4.397  27.116  66.987  1.00  0.00    -0.259 OA
BRANCH  23  25
HETATM   25  C8  UNL     1       4.939  25.934  68.921  1.00  0.00     0.044 A 
HETATM   26  C9  UNL     1       3.640  25.560  69.248  1.00  0.00     0.053 A 
HETATM   27  C10 UNL     1       3.338  25.042  70.484  1.00  0.00     0.106 A 
HETATM   28  C11 UNL     1       4.324  24.886  71.424  1.00  0.00     0.072 A 
HETATM   29  C12 UNL     1       5.648  25.246  71.147  1.00  0.00     0.106 A 
HETATM   30  C13 UNL     1       5.891  25.759  69.892  1.00  0.00     0.053 A 
BRANCH  27  31
HETATM   31  N2  UNL     1       2.003  24.676  70.768  1.00  0.00    -0.116 N 
HETATM   32  O5  UNL     1       1.100  24.742  69.880  1.00  0.00    -0.532 OA
HETATM   33  O6  UNL     1       1.633  24.236  72.020  1.00  0.00    -0.532 OA
ENDBRANCH  27  31
BRANCH  29  34
HETATM   34  N3  UNL     1       6.645  25.075  72.133  1.00  0.00    -0.116 N 
HETATM   35  O7  UNL     1       6.397  25.312  73.321  1.00  0.00    -0.532 OA
HETATM   36  O8  UNL     1       7.887  24.643  71.765  1.00  0.00    -0.532 OA
ENDBRANCH  29  34
ENDBRANCH  23  25
ENDBRANCH  22  23
ENDBRANCH  21  22
ENDBRANCH   3  21
TORSDOF 11
ENDMDL
MODEL 4
REMARK VINA RESULT: -8.052468422      1.207      4.675
REMARK  11 active torsions:
REMARK  status: ('A' for Active; 'I' for Inactive)
REMARK    1  A    between atoms: O1_2  and  C2_3 
REMARK    2  A    between atoms: C4_5  and  N1_6 
REMARK       I    between atoms: N1_6  and  C5_8 
REMARK    3  A    between atoms: C5_8  and  C6_10 
REMARK    4  A    between atoms: C6_10  and  O3_11 
REMARK    5  A    between atoms: O3_11  and  C7_12 
REMARK    6  A    between atoms: C7_12  and  C8_14 
REMARK    7  A    between atoms: C10_16  and  N2_17 
REMARK    8  A    between atoms: C12_21  and  N3_22 
REMARK    9  A    between atoms: C14_26  and  O9_27 
REMARK   10  A    between atoms: O9_27  and  C15_28 
REMARK   11  A    between atoms: C20_33  and  O10_34 
ROOT
HETATM    1  N1  UNL     1       9.117  27.564  65.091  1.00  0.00    -0.323 N 
ATOM      2  H1  UNL     1       9.792  27.175  65.750  1.00  0.00     0.169 HD
HETATM    3  C5  UNL     1       7.809  27.713  65.579  1.00  0.00     0.246 C 
HETATM    4  O2  UNL     1       6.869  28.165  64.915  1.00  0.00    -0.271 OA
ENDROOT
BRANCH   1   5
HETATM    5  C4  UNL     1       9.623  27.876  63.822  1.00  0.00     0.074 A 
HETATM    6  C3  UNL     1       9.864  26.917  62.867  1.00  0.00     0.069 A 
HETATM    7  C2  UNL     1      10.331  27.248  61.584  1.00  0.00     0.073 A 
HETATM    8  C22 UNL     1      10.540  28.564  61.306  1.00  0.00     0.076 A 
HETATM    9  C20 UNL     1      10.313  29.556  62.226  1.00  0.00     0.106 A 
HETATM   10  C14 UNL     1       9.852  29.224  63.498  1.00  0.00     0.129 A 
BRANCH   7  11
HETATM   11  O1  UNL     1      10.540  26.211  60.707  1.00  0.00    -0.356 OA
HETATM   12  C1  UNL     1       9.878  24.987  60.726  1.00  0.00     0.210 C 
ENDBRANCH   7  11
BRANCH   9  13
HETATM   13  O10 UNL     1      10.547  30.870  61.874  1.00  0.00    -0.353 OA
HETATM   14  C21 UNL     1       9.474  31.754  61.709  1.00  0.00     0.210 C 
ENDBRANCH   9  13
BRANCH  10  15
HETATM   15  O9  UNL     1       9.632  30.231  64.417  1.00  0.00    -0.341 OA
BRANCH  15  16
HETATM   16  C15 UNL     1      10.598  30.659  65.357  1.00  0.00     0.129 C 
HETATM   17  C16 UNL     1      10.120  30.630  66.787  1.00  0.00     0.032 C 
HETATM   18  C17 UNL     1      11.187  31.458  67.481  1.00  0.00     0.002 C 
HETATM   19  C18 UNL     1      11.378  32.591  66.528  1.00  0.00     0.002 C 
HETATM   20  C19 UNL     1      10.887  32.160  65.175  1.00  0.00     0.032 C 
ENDBRANCH  15  16
ENDBRANCH  10  15
ENDBRANCH   1   5
BRANCH   3  21
HETATM   21  C6  UNL     1       7.540  27.292  67.008  1.00  0.00     0.282 C 
BRANCH  21  22
HETATM   22  O3  UNL     1       6.523  26.328  67.050  1.00  0.00    -0.308 OA
BRANCH  22  23
HETATM   23  C7  UNL     1       5.283  26.475  67.613  1.00  0.00     0.293 C 
HETATM   24  O4  UNL     1       4.397  27.094  66.980  1.00  0.00    -0.259 OA
BRANCH  23  25
HETATM   25  C8  UNL     1       4.955  25.936  68.923  1.00  0.00     0.044 A 
HETATM   26  C9  UNL     1       5.919  25.765  69.911  1.00  0.00     0.053 A 
HETATM   27  C10 UNL     1       5.593  25.255  71.144  1.00  0.00     0.106 A 
HETATM   28  C11 UNL     1       4.297  24.902  71.421  1.00  0.00     0.072 A 
HETATM   29  C12 UNL     1       3.288  25.053  70.463  1.00  0.00     0.106 A 
HETATM   30  C13 UNL     1       3.674  25.569  69.246  1.00  0.00     0.053 A 
BRANCH  27  31
HETATM   31  N2  UNL     1       6.608  25.102  72.114  1.00  0.00    -0.116 N 
HETATM   32  O5  UNL     1       6.368  25.257  73.349  1.00  0.00    -0.532 OA
HETATM   33  O6  UNL     1       7.898  24.778  71.754  1.00  0.00    -0.532 OA
ENDBRANCH  27  31
BRANCH  29  34
HETATM   34  N3  UNL     1       1.961  24.682  70.774  1.00  0.00    -0.116 N 
HETATM   35  O7  UNL     1       1.670  24.300  71.913  1.00  0.00    -0.532 OA
HETATM   36  O8  UNL     1       1.000  24.747  69.806  1.00  0.00    -0.532 OA
ENDBRANCH  29  34
ENDBRANCH  23  25
ENDBRANCH  22  23
ENDBRANCH  21  22
ENDBRANCH   3  21
TORSDOF 11
ENDMDL
MODEL 5
REMARK VINA RESULT: -7.938060472      1.211      2.734
REMARK  11 active torsions:
REMARK  status: ('A' for Active; 'I' for Inactive)
REMARK    1  A    between atoms: O1_2  and  C2_3 
REMARK    2  A    between atoms: C4_5  and  N1_6 
REMARK       I    between atoms: N1_6  and  C5_8 
REMARK    3  A    between atoms: C5_8  and  C6_10 
REMARK    4  A    between atoms: C6_10  and  O3_11 
REMARK    5  A    between atoms: O3_11  and  C7_12 
REMARK    6  A    between atoms: C7_12  and  C8_14 
REMARK    7  A    between atoms: C10_16  and  N2_17 
REMARK    8  A    between atoms: C12_21  and  N3_22 
REMARK    9  A    between atoms: C14_26  and  O9_27 
REMARK   10  A    between atoms: O9_27  and  C15_28 
REMARK   11  A    between atoms: C20_33  and  O10_34 
ROOT
HETATM    1  N1  UNL     1       8.286  27.754  65.722  1.00  0.00    -0.323 N 
ATOM      2  H1  UNL     1       8.816  26.920  65.974  1.00  0.00     0.169 HD
HETATM    3  C5  UNL     1       6.913  27.558  65.507  1.00  0.00     0.246 C 
HETATM    4  O2  UNL     1       6.124  28.457  65.193  1.00  0.00    -0.271 OA
ENDROOT
BRANCH   1   5
HETATM    5  C4  UNL     1       9.028  28.940  65.637  1.00  0.00     0.074 A 
HETATM    6  C3  UNL     1       9.393  29.663  66.748  1.00  0.00     0.069 A 
HETATM    7  C2  UNL     1      10.173  30.827  66.653  1.00  0.00     0.073 A 
HETATM    8  C22 UNL     1      10.565  31.227  65.412  1.00  0.00     0.076 A 
HETATM    9  C20 UNL     1      10.225  30.538  64.274  1.00  0.00     0.106 A 
HETATM   10  C14 UNL     1       9.450  29.385  64.373  1.00  0.00     0.129 A 
BRANCH   7  11
HETATM   11  O1  UNL     1      10.480  31.473  67.826  1.00  0.00    -0.356 OA
HETATM   12  C1  UNL     1      11.671  32.140  68.096  1.00  0.00     0.210 C 
ENDBRANCH   7  11
BRANCH   9  13
HETATM   13  O10 UNL     1      10.659  31.003  63.049  1.00  0.00    -0.353 OA
HETATM   14  C21 UNL     1       9.837  31.839  62.285  1.00  0.00     0.210 C 
ENDBRANCH   9  13
BRANCH  10  15
HETATM   15  O9  UNL     1       9.111  28.703  63.221  1.00  0.00    -0.341 OA
BRANCH  15  16
HETATM   16  C15 UNL     1      10.001  27.857  62.520  1.00  0.00     0.129 C 
HETATM   17  C16 UNL     1      10.135  28.184  61.054  1.00  0.00     0.032 C 
HETATM   18  C17 UNL     1      10.822  26.937  60.526  1.00  0.00     0.002 C 
HETATM   19  C18 UNL     1      10.084  25.846  61.229  1.00  0.00     0.002 C 
HETATM   20  C19 UNL     1       9.431  26.428  62.450  1.00  0.00     0.032 C 
ENDBRANCH  15  16
ENDBRANCH  10  15
ENDBRANCH   1   5
BRANCH   3  21
HETATM   21  C6  UNL     1       6.369  26.154  65.673  1.00  0.00     0.282 C 
BRANCH  21  22
HETATM   22  O3  UNL     1       5.381  26.127  66.666  1.00  0.00    -0.308 OA
BRANCH  22  23
HETATM   23  C7  UNL     1       5.585  26.151  68.021  1.00  0.00     0.293 C 
HETATM   24  O4  UNL     1       6.709  26.491  68.461  1.00  0.00    -0.259 OA
BRANCH  23  25
HETATM   25  C8  UNL     1       4.544  25.797  68.971  1.00  0.00     0.044 A 
HETATM   26  C9  UNL     1       4.727  25.919  70.344  1.00  0.00     0.053 A 
HETATM   27  C10 UNL     1       3.732  25.581  71.229  1.00  0.00     0.106 A 
HETATM   28  C11 UNL     1       2.531  25.111  70.764  1.00  0.00     0.072 A 
HETATM   29  C12 UNL     1       2.293  24.969  69.393  1.00  0.00     0.106 A 
HETATM   30  C13 UNL     1       3.326  25.324  68.554  1.00  0.00     0.053 A 
BRANCH  27  31
HETATM   31  N2  UNL     1       3.968  25.723  72.614  1.00  0.00    -0.116 N 
HETATM   32  O5  UNL     1       5.124  25.986  73.062  1.00  0.00    -0.532 OA
HETATM   33  O6  UNL     1       2.949  25.581  73.531  1.00  0.00    -0.532 OA
ENDBRANCH  27  31
BRANCH  29  34
HETATM   34  N3  UNL     1       1.046  24.482  68.941  1.00  0.00    -0.116 N 
HETATM   35  O7  UNL     1       0.015  24.716  69.582  1.00  0.00    -0.532 OA
HETATM   36  O8  UNL     1       0.987  23.751  67.789  1.00  0.00    -0.532 OA
ENDBRANCH  29  34
ENDBRANCH  23  25
ENDBRANCH  22  23
ENDBRANCH  21  22
ENDBRANCH   3  21
TORSDOF 11
ENDMDL
