MODEL 1
REMARK VINA RESULT: -6.089730246      0.000      0.000
REMARK  2 active torsions:
REMARK  status: ('A' for Active; 'I' for Inactive)
REMARK    1  A    between atoms: C3_4  and  C4_5 
REMARK    2  A    between atoms: C4_5  and  O1_6 
ROOT
HETATM    1  N1  UNL     1      16.429   0.564  15.209  1.00  0.00    -0.195 NA
HETATM    2  C1  UNL     1      16.704   1.495  14.602  1.00  0.00     0.081 C 
HETATM    3  C2  UNL     1      17.035   2.657  13.825  1.00  0.00     0.194 C 
HETATM    4  C3  UNL     1      17.486   2.320  12.419  1.00  0.00     0.062 C 
HETATM    5  C5  UNL     1      17.309   3.698  11.754  1.00  0.00     0.152 C 
HETATM    6  N2  UNL     1      16.800   4.547  12.735  1.00  0.00    -0.320 N 
HETATM    7  C6  UNL     1      16.492   5.513  13.496  1.00  0.00     0.101 A 
HETATM    8  C7  UNL     1      16.031   5.793  14.194  1.00  0.00    -0.007 A 
HETATM    9  C8  UNL     1      15.169   5.480  15.176  1.00  0.00     0.045 A 
HETATM   10  C9  UNL     1      15.124   3.894  14.601  1.00  0.00     0.119 A 
HETATM   11  N3  UNL     1      15.890   3.495  13.530  1.00  0.00    -0.211 NA
ENDROOT
BRANCH   4  12
HETATM   12  C4  UNL     1      16.485   1.358  11.792  1.00  0.00     0.173 C 
BRANCH  12  13
HETATM   13  O1  UNL     1      15.569   2.039  11.001  1.00  0.00    -0.400 OA
ATOM     14  H1  UNL     1      15.364   1.545  10.216  1.00  0.00     0.209 HD
ENDBRANCH  12  13
ENDBRANCH   4  12
TORSDOF 2
ENDMDL
MODEL 2
REMARK VINA RESULT: -5.945434044      2.077      3.551
REMARK  2 active torsions:
REMARK  status: ('A' for Active; 'I' for Inactive)
REMARK    1  A    between atoms: C3_4  and  C4_5 
REMARK    2  A    between atoms: C4_5  and  O1_6 
ROOT
HETATM    1  N1  UNL     1      17.164   0.976  16.271  1.00  0.00    -0.195 NA
HETATM    2  C1  UNL     1      16.949   1.717  15.425  1.00  0.00     0.081 C 
HETATM    3  C2  UNL     1      16.700   2.653  14.364  1.00  0.00     0.194 C 
HETATM    4  C3  UNL     1      17.167   4.057  14.691  1.00  0.00     0.062 C 
HETATM    5  C5  UNL     1      17.195   4.656  13.273  1.00  0.00     0.152 C 
HETATM    6  N2  UNL     1      16.823   3.632  12.404  1.00  0.00    -0.320 N 
HETATM    7  C6  UNL     1      16.365   2.908  11.469  1.00  0.00     0.101 A 
HETATM    8  C7  UNL     1      16.285   2.101  11.123  1.00  0.00    -0.007 A 
HETATM    9  C8  UNL     1      16.574   0.792  11.233  1.00  0.00     0.045 A 
HETATM   10  C9  UNL     1      17.421   1.122  12.655  1.00  0.00     0.119 A 
HETATM   11  N3  UNL     1      17.487   2.394  13.175  1.00  0.00    -0.211 NA
ENDROOT
BRANCH   4  12
HETATM   12  C4  UNL     1      18.597   3.997  15.210  1.00  0.00     0.173 C 
BRANCH  12  13
HETATM   13  O1  UNL     1      19.502   4.345  14.215  1.00  0.00    -0.400 OA
ATOM     14  H1  UNL     1      20.015   3.593  13.944  1.00  0.00     0.209 HD
ENDBRANCH  12  13
ENDBRANCH   4  12
TORSDOF 2
ENDMDL
MODEL 3
REMARK VINA RESULT: -5.829256557      1.960      3.372
REMARK  2 active torsions:
REMARK  status: ('A' for Active; 'I' for Inactive)
REMARK    1  A    between atoms: C3_4  and  C4_5 
REMARK    2  A    between atoms: C4_5  and  O1_6 
ROOT
HETATM    1  N1  UNL     1      17.132   4.082   9.767  1.00  0.00    -0.195 NA
HETATM    2  C1  UNL     1      16.933   3.418  10.678  1.00  0.00     0.081 C 
HETATM    3  C2  UNL     1      16.702   2.574  11.818  1.00  0.00     0.194 C 
HETATM    4  C3  UNL     1      16.730   1.098  11.478  1.00  0.00     0.062 C 
HETATM    5  C5  UNL     1      16.920   0.511  12.888  1.00  0.00     0.152 C 
HETATM    6  N2  UNL     1      17.009   1.596  13.759  1.00  0.00    -0.320 N 
HETATM    7  C6  UNL     1      16.956   2.412  14.728  1.00  0.00     0.101 A 
HETATM    8  C7  UNL     1      17.154   3.213  15.038  1.00  0.00    -0.007 A 
HETATM    9  C8  UNL     1      17.721   4.408  14.797  1.00  0.00     0.045 A 
HETATM   10  C9  UNL     1      18.130   3.877  13.249  1.00  0.00     0.119 A 
HETATM   11  N3  UNL     1      17.769   2.628  12.797  1.00  0.00    -0.211 NA
ENDROOT
BRANCH   4  12
HETATM   12  C4  UNL     1      17.982   0.799  10.665  1.00  0.00     0.173 C 
BRANCH  12  13
HETATM   13  O1  UNL     1      17.667   0.102   9.504  1.00  0.00    -0.400 OA
ATOM     14  H1  UNL     1      16.742  -0.113   9.478  1.00  0.00     0.209 HD
ENDBRANCH  12  13
ENDBRANCH   4  12
TORSDOF 2
ENDMDL
MODEL 4
REMARK VINA RESULT: -5.746862449      2.691      4.212
REMARK  2 active torsions:
REMARK  status: ('A' for Active; 'I' for Inactive)
REMARK    1  A    between atoms: C3_4  and  C4_5 
REMARK    2  A    between atoms: C4_5  and  O1_6 
ROOT
HETATM    1  N1  UNL     1      15.134   4.907  13.225  1.00  0.00    -0.195 NA
HETATM    2  C1  UNL     1      15.537   4.027  13.836  1.00  0.00     0.081 C 
HETATM    3  C2  UNL     1      16.055   2.936  14.614  1.00  0.00     0.194 C 
HETATM    4  C3  UNL     1      17.569   2.884  14.627  1.00  0.00     0.062 C 
HETATM    5  C5  UNL     1      17.787   1.970  15.847  1.00  0.00     0.152 C 
HETATM    6  N2  UNL     1      16.521   1.676  16.350  1.00  0.00    -0.320 N 
HETATM    7  C6  UNL     1      15.484   1.161  16.869  1.00  0.00     0.101 A 
HETATM    8  C7  UNL     1      14.638   1.259  17.097  1.00  0.00    -0.007 A 
HETATM    9  C8  UNL     1      13.566   2.069  17.130  1.00  0.00     0.045 A 
HETATM   10  C9  UNL     1      14.487   3.282  16.404  1.00  0.00     0.119 A 
HETATM   11  N3  UNL     1      15.794   3.069  16.034  1.00  0.00    -0.211 NA
ENDROOT
BRANCH   4  12
HETATM   12  C4  UNL     1      18.111   4.267  14.966  1.00  0.00     0.173 C 
BRANCH  12  13
HETATM   13  O1  UNL     1      19.483   4.223  15.182  1.00  0.00    -0.400 OA
ATOM     14  H1  UNL     1      19.736   3.407  15.597  1.00  0.00     0.209 HD
ENDBRANCH  12  13
ENDBRANCH   4  12
TORSDOF 2
ENDMDL
MODEL 5
REMARK VINA RESULT: -5.579840501      2.469      3.434
REMARK  2 active torsions:
REMARK  status: ('A' for Active; 'I' for Inactive)
REMARK    1  A    between atoms: C3_4  and  C4_5 
REMARK    2  A    between atoms: C4_5  and  O1_6 
ROOT
HETATM    1  N1  UNL     1      15.669   2.459  11.380  1.00  0.00    -0.195 NA
HETATM    2  C1  UNL     1      16.124   2.848  12.356  1.00  0.00     0.081 C 
HETATM    3  C2  UNL     1      16.706   3.318  13.582  1.00  0.00     0.194 C 
HETATM    4  C3  UNL     1      16.450   2.392  14.753  1.00  0.00     0.062 C 
HETATM    5  C5  UNL     1      17.532   2.896  15.724  1.00  0.00     0.152 C 
HETATM    6  N2  UNL     1      18.223   3.905  15.055  1.00  0.00    -0.320 N 
HETATM    7  C6  UNL     1      18.871   4.937  14.702  1.00  0.00     0.101 A 
HETATM    8  C7  UNL     1      19.251   5.390  14.048  1.00  0.00    -0.007 A 
HETATM    9  C8  UNL     1      19.538   5.450  12.736  1.00  0.00     0.045 A 
HETATM   10  C9  UNL     1      18.766   3.965  12.522  1.00  0.00     0.119 A 
HETATM   11  N3  UNL     1      18.156   3.313  13.568  1.00  0.00    -0.211 NA
ENDROOT
BRANCH   4  12
HETATM   12  C4  UNL     1      16.802   0.967  14.346  1.00  0.00     0.173 C 
BRANCH  12  13
HETATM   13  O1  UNL     1      16.405   0.060  15.321  1.00  0.00    -0.400 OA
ATOM     14  H1  UNL     1      17.060  -0.013  16.005  1.00  0.00     0.209 HD
ENDBRANCH  12  13
ENDBRANCH   4  12
TORSDOF 2
ENDMDL
