MODEL 1
REMARK VINA RESULT: -6.181236308      0.000      0.000
REMARK  4 active torsions:
REMARK  status: ('A' for Active; 'I' for Inactive)
REMARK    1  A    between atoms: C2_2  and  O1_3 
REMARK    2  A    between atoms: C2_2  and  C3_5 
REMARK    3  A    between atoms: C5_10  and  C6_11 
REMARK    4  A    between atoms: C5_10  and  C7_13 
ROOT
HETATM    1  C7  UNL     1      17.436   4.583  14.765  1.00  0.00     0.140 C 
HETATM    2  C8  UNL     1      18.656   4.585  13.956  1.00  0.00     0.060 C 
HETATM    3  N2  UNL     1      19.625   4.576  13.318  1.00  0.00    -0.197 NA
ENDROOT
BRANCH   1   4
HETATM    4  C5  UNL     1      16.300   3.929  14.003  1.00  0.00     0.042 C 
HETATM    5  C4  UNL     1      15.008   4.105  14.723  1.00  0.00     0.281 C 
HETATM    6  N1  UNL     1      14.739   3.244  15.777  1.00  0.00    -0.355 N 
HETATM    7  F1  UNL     1      14.922   5.417  15.181  1.00  0.00    -0.226 F 
HETATM    8  C3  UNL     1      15.269   2.194  16.155  1.00  0.00     0.073 C 
ATOM      9  H1  UNL     1      13.950   3.536  16.354  1.00  0.00     0.162 HD
HETATM   10  S1  UNL     1      16.657   1.537  15.266  1.00  0.00    -0.113 SA
HETATM   11  C9  UNL     1      16.690   2.519  13.716  1.00  0.00     0.097 C 
BRANCH   8  12
HETATM   12  C2  UNL     1      14.767   1.470  17.333  1.00  0.00     0.170 C 
HETATM   13  C1  UNL     1      15.190   2.115  18.637  1.00  0.00     0.046 C 
BRANCH  12  14
HETATM   14  O1  UNL     1      15.240   0.154  17.333  1.00  0.00    -0.389 OA
ATOM     15  H1  UNL     1      14.609  -0.382  16.865  1.00  0.00     0.210 HD
ENDBRANCH  12  14
ENDBRANCH   8  12
BRANCH   4  16
HETATM   16  C6  UNL     1      16.258   4.640  12.641  1.00  0.00     0.130 C 
HETATM   17 CL1  UNL     1      15.698   3.547  11.364  1.00  0.00    -0.129 Cl
ENDBRANCH   4  16
ENDBRANCH   1   4
TORSDOF 4
ENDMDL
MODEL 2
REMARK VINA RESULT: -6.064372272      3.012      3.531
REMARK  4 active torsions:
REMARK  status: ('A' for Active; 'I' for Inactive)
REMARK    1  A    between atoms: C2_2  and  O1_3 
REMARK    2  A    between atoms: C2_2  and  C3_5 
REMARK    3  A    between atoms: C5_10  and  C6_11 
REMARK    4  A    between atoms: C5_10  and  C7_13 
ROOT
HETATM    1  C7  UNL     1      15.967   2.633  11.547  1.00  0.00     0.140 C 
HETATM    2  C8  UNL     1      15.941   3.926  10.860  1.00  0.00     0.060 C 
HETATM    3  N2  UNL     1      15.918   4.955  10.325  1.00  0.00    -0.197 NA
ENDROOT
BRANCH   1   4
HETATM    4  C5  UNL     1      17.316   2.413  12.203  1.00  0.00     0.042 C 
HETATM    5  C4  UNL     1      17.370   1.081  12.868  1.00  0.00     0.281 C 
HETATM    6  N1  UNL     1      16.790   0.967  14.123  1.00  0.00    -0.355 N 
HETATM    7  F1  UNL     1      16.803   0.131  12.023  1.00  0.00    -0.226 F 
HETATM    8  C3  UNL     1      16.383   1.804  14.935  1.00  0.00     0.073 C 
ATOM      9  H1  UNL     1      16.677   0.003  14.436  1.00  0.00     0.162 HD
HETATM   10  S1  UNL     1      16.503   3.534  14.554  1.00  0.00    -0.113 SA
HETATM   11  C9  UNL     1      17.598   3.583  13.082  1.00  0.00     0.097 C 
BRANCH   8  12
HETATM   12  C2  UNL     1      15.798   1.395  16.221  1.00  0.00     0.170 C 
HETATM   13  C1  UNL     1      14.665   2.299  16.662  1.00  0.00     0.046 C 
BRANCH  12  14
HETATM   14  O1  UNL     1      16.773   1.408  17.225  1.00  0.00    -0.389 OA
ATOM     15  H1  UNL     1      16.454   0.879  17.947  1.00  0.00     0.210 HD
ENDBRANCH  12  14
ENDBRANCH   8  12
BRANCH   4  16
HETATM   16  C6  UNL     1      18.342   2.486  11.062  1.00  0.00     0.130 C 
HETATM   17 CL1  UNL     1      19.581   1.232  11.231  1.00  0.00    -0.129 Cl
ENDBRANCH   4  16
ENDBRANCH   1   4
TORSDOF 4
ENDMDL
MODEL 3
REMARK VINA RESULT: -5.918358191      2.541      3.019
REMARK  4 active torsions:
REMARK  status: ('A' for Active; 'I' for Inactive)
REMARK    1  A    between atoms: C2_2  and  O1_3 
REMARK    2  A    between atoms: C2_2  and  C3_5 
REMARK    3  A    between atoms: C5_10  and  C6_11 
REMARK    4  A    between atoms: C5_10  and  C7_13 
ROOT
HETATM    1  C7  UNL     1      15.836   2.576  12.307  1.00  0.00     0.140 C 
HETATM    2  C8  UNL     1      15.881   3.640  11.302  1.00  0.00     0.060 C 
HETATM    3  N2  UNL     1      15.913   4.490  10.514  1.00  0.00    -0.197 NA
ENDROOT
BRANCH   1   4
HETATM    4  C5  UNL     1      17.018   2.691  13.250  1.00  0.00     0.042 C 
HETATM    5  C4  UNL     1      17.220   1.422  14.003  1.00  0.00     0.281 C 
HETATM    6  N1  UNL     1      16.414   1.199  15.110  1.00  0.00    -0.355 N 
HETATM    7  F1  UNL     1      17.085   0.350  13.126  1.00  0.00    -0.226 F 
HETATM    8  C3  UNL     1      15.658   1.932  15.756  1.00  0.00     0.073 C 
ATOM      9  H1  UNL     1      16.454   0.242  15.460  1.00  0.00     0.162 HD
HETATM   10  S1  UNL     1      15.468   3.634  15.288  1.00  0.00    -0.113 SA
HETATM   11  C9  UNL     1      16.825   3.911  14.084  1.00  0.00     0.097 C 
BRANCH   8  12
HETATM   12  C2  UNL     1      14.908   1.421  16.913  1.00  0.00     0.170 C 
HETATM   13  C1  UNL     1      15.148   2.233  18.169  1.00  0.00     0.046 C 
BRANCH  12  14
HETATM   14  O1  UNL     1      15.270   0.097  17.181  1.00  0.00    -0.389 OA
ATOM     15  H1  UNL     1      15.075  -0.079  18.095  1.00  0.00     0.210 HD
ENDBRANCH  12  14
ENDBRANCH   8  12
BRANCH   4  16
HETATM   16  C6  UNL     1      18.230   2.982  12.351  1.00  0.00     0.130 C 
HETATM   17 CL1  UNL     1      19.029   4.491  12.821  1.00  0.00    -0.129 Cl
ENDBRANCH   4  16
ENDBRANCH   1   4
TORSDOF 4
ENDMDL
MODEL 4
REMARK VINA RESULT: -5.694577210      1.924      2.082
REMARK  4 active torsions:
REMARK  status: ('A' for Active; 'I' for Inactive)
REMARK    1  A    between atoms: C2_2  and  O1_3 
REMARK    2  A    between atoms: C2_2  and  C3_5 
REMARK    3  A    between atoms: C5_10  and  C6_11 
REMARK    4  A    between atoms: C5_10  and  C7_13 
ROOT
HETATM    1  C7  UNL     1      16.822   6.050  14.668  1.00  0.00     0.140 C 
HETATM    2  C8  UNL     1      17.554   6.855  13.688  1.00  0.00     0.060 C 
HETATM    3  N2  UNL     1      18.140   7.484  12.910  1.00  0.00    -0.197 NA
ENDROOT
BRANCH   1   4
HETATM    4  C5  UNL     1      15.705   5.282  13.988  1.00  0.00     0.042 C 
HETATM    5  C4  UNL     1      14.856   4.582  14.992  1.00  0.00     0.281 C 
HETATM    6  N1  UNL     1      15.321   3.376  15.495  1.00  0.00    -0.355 N 
HETATM    7  F1  UNL     1      14.609   5.446  16.055  1.00  0.00    -0.226 F 
HETATM    8  C3  UNL     1      16.234   2.620  15.145  1.00  0.00     0.073 C 
ATOM      9  H1  UNL     1      14.809   3.049  16.314  1.00  0.00     0.162 HD
HETATM   10  S1  UNL     1      17.229   3.033  13.735  1.00  0.00    -0.113 SA
HETATM   11  C9  UNL     1      16.314   4.412  12.942  1.00  0.00     0.097 C 
BRANCH   8  12
HETATM   12  C2  UNL     1      16.514   1.376  15.878  1.00  0.00     0.170 C 
HETATM   13  C1  UNL     1      15.682   1.239  17.137  1.00  0.00     0.046 C 
BRANCH  12  14
HETATM   14  O1  UNL     1      17.862   1.321  16.247  1.00  0.00    -0.389 OA
ATOM     15  H1  UNL     1      17.951   0.669  16.932  1.00  0.00     0.210 HD
ENDBRANCH  12  14
ENDBRANCH   8  12
BRANCH   4  16
HETATM   16  C6  UNL     1      14.884   6.338  13.232  1.00  0.00     0.130 C 
HETATM   17 CL1  UNL     1      14.999   6.107  11.480  1.00  0.00    -0.129 Cl
ENDBRANCH   4  16
ENDBRANCH   1   4
TORSDOF 4
ENDMDL
MODEL 5
REMARK VINA RESULT: -5.681695020      3.560      4.559
REMARK  4 active torsions:
REMARK  status: ('A' for Active; 'I' for Inactive)
REMARK    1  A    between atoms: C2_2  and  O1_3 
REMARK    2  A    between atoms: C2_2  and  C3_5 
REMARK    3  A    between atoms: C5_10  and  C6_11 
REMARK    4  A    between atoms: C5_10  and  C7_13 
ROOT
HETATM    1  C7  UNL     1      17.631   3.894  14.848  1.00  0.00     0.140 C 
HETATM    2  C8  UNL     1      17.241   5.306  14.817  1.00  0.00     0.060 C 
HETATM    3  N2  UNL     1      16.932   6.423  14.782  1.00  0.00    -0.197 NA
ENDROOT
BRANCH   1   4
HETATM    4  C5  UNL     1      16.415   3.009  14.659  1.00  0.00     0.042 C 
HETATM    5  C4  UNL     1      16.793   1.569  14.723  1.00  0.00     0.281 C 
HETATM    6  N1  UNL     1      17.334   0.997  13.581  1.00  0.00    -0.355 N 
HETATM    7  F1  UNL     1      17.679   1.382  15.781  1.00  0.00    -0.226 F 
HETATM    8  C3  UNL     1      17.403   1.378  12.408  1.00  0.00     0.073 C 
ATOM      9  H1  UNL     1      17.757   0.083  13.741  1.00  0.00     0.162 HD
HETATM   10  S1  UNL     1      16.716   2.949  11.948  1.00  0.00    -0.113 SA
HETATM   11  C9  UNL     1      15.722   3.437  13.411  1.00  0.00     0.097 C 
BRANCH   8  12
HETATM   12  C2  UNL     1      18.047   0.551  11.376  1.00  0.00     0.170 C 
HETATM   13  C1  UNL     1      17.898  -0.933  11.640  1.00  0.00     0.046 C 
BRANCH  12  14
HETATM   14  O1  UNL     1      19.414   0.839  11.305  1.00  0.00    -0.389 OA
ATOM     15  H1  UNL     1      19.759   0.425  10.522  1.00  0.00     0.210 HD
ENDBRANCH  12  14
ENDBRANCH   8  12
BRANCH   4  16
HETATM   16  C6  UNL     1      15.465   3.366  15.813  1.00  0.00     0.130 C 
HETATM   17 CL1  UNL     1      14.732   1.914  16.514  1.00  0.00    -0.129 Cl
ENDBRANCH   4  16
ENDBRANCH   1   4
TORSDOF 4
ENDMDL
