MODEL 1
REMARK VINA RESULT: -6.358401985      0.000      0.000
REMARK  3 active torsions:
REMARK  status: ('A' for Active; 'I' for Inactive)
REMARK    1  A    between atoms: C4_4  and  N1_5 
REMARK    2  A    between atoms: N1_5  and  C5_8 
REMARK    3  A    between atoms: C5_8  and  C6_9 
ROOT
HETATM    1  N1  UNL     1      17.257   3.179  14.761  1.00  0.00    -0.069 N 
ATOM      2  H11 UNL     1      17.979   2.470  14.636  1.00  0.00     0.277 HD
ATOM      3  H12 UNL     1      17.859   4.002  14.792  1.00  0.00     0.277 HD
ENDROOT
BRANCH   1   4
HETATM    4  C4  UNL     1      16.534   2.998  15.987  1.00  0.00     0.186 C 
HETATM    5  C3  UNL     1      15.064   3.374  15.895  1.00  0.00     0.033 C 
HETATM    6  C2  UNL     1      14.550   3.382  17.320  1.00  0.00     0.002 C 
HETATM    7  C1  UNL     1      14.507   2.011  17.918  1.00  0.00     0.000 C 
HETATM    8  C11 UNL     1      15.255   1.064  17.007  1.00  0.00     0.002 C 
HETATM    9  C10 UNL     1      16.605   1.656  16.618  1.00  0.00     0.033 C 
ENDBRANCH   1   4
BRANCH   1  10
HETATM   10  C5  UNL     1      16.352   3.221  13.659  1.00  0.00     0.264 C 
BRANCH  10  11
HETATM   11  C6  UNL     1      16.745   2.382  12.495  1.00  0.00     0.147 C 
HETATM   12  C7  UNL     1      17.047   0.958  12.971  1.00  0.00     0.036 C 
HETATM   13  C8  UNL     1      17.271   0.340  11.581  1.00  0.00     0.029 C 
HETATM   14  C9  UNL     1      16.201   1.062  10.793  1.00  0.00     0.168 C 
HETATM   15  O1  UNL     1      15.825   2.201  11.497  1.00  0.00    -0.384 OA
ENDBRANCH  10  11
ENDBRANCH   1  10
TORSDOF 3
ENDMDL
MODEL 2
REMARK VINA RESULT: -6.314944614      0.959      1.793
REMARK  3 active torsions:
REMARK  status: ('A' for Active; 'I' for Inactive)
REMARK    1  A    between atoms: C4_4  and  N1_5 
REMARK    2  A    between atoms: N1_5  and  C5_8 
REMARK    3  A    between atoms: C5_8  and  C6_9 
ROOT
HETATM    1  N1  UNL     1      17.300   3.201  14.746  1.00  0.00    -0.069 N 
ATOM      2  H11 UNL     1      18.171   2.721  14.974  1.00  0.00     0.277 HD
ATOM      3  H12 UNL     1      17.523   4.114  15.141  1.00  0.00     0.277 HD
ENDROOT
BRANCH   1   4
HETATM    4  C4  UNL     1      16.171   2.598  15.394  1.00  0.00     0.186 C 
HETATM    5  C3  UNL     1      16.529   1.815  16.647  1.00  0.00     0.033 C 
HETATM    6  C2  UNL     1      15.281   1.040  17.020  1.00  0.00     0.002 C 
HETATM    7  C1  UNL     1      14.175   1.934  17.489  1.00  0.00     0.000 C 
HETATM    8  C11 UNL     1      14.550   3.366  17.182  1.00  0.00     0.002 C 
HETATM    9  C10 UNL     1      15.039   3.492  15.743  1.00  0.00     0.033 C 
ENDBRANCH   1   4
BRANCH   1  10
HETATM   10  C5  UNL     1      17.080   3.268  13.337  1.00  0.00     0.264 C 
BRANCH  10  11
HETATM   11  C6  UNL     1      17.180   1.966  12.626  1.00  0.00     0.147 C 
HETATM   12  C7  UNL     1      16.209   1.954  11.442  1.00  0.00     0.036 C 
HETATM   13  C8  UNL     1      16.639   0.597  10.861  1.00  0.00     0.029 C 
HETATM   14  C9  UNL     1      18.132   0.670  11.093  1.00  0.00     0.168 C 
HETATM   15  O1  UNL     1      18.384   1.637  12.059  1.00  0.00    -0.384 OA
ENDBRANCH  10  11
ENDBRANCH   1  10
TORSDOF 3
ENDMDL
MODEL 3
REMARK VINA RESULT: -6.306560341      1.035      1.266
REMARK  3 active torsions:
REMARK  status: ('A' for Active; 'I' for Inactive)
REMARK    1  A    between atoms: C4_4  and  N1_5 
REMARK    2  A    between atoms: N1_5  and  C5_8 
REMARK    3  A    between atoms: C5_8  and  C6_9 
ROOT
HETATM    1  N1  UNL     1      17.325   3.251  14.382  1.00  0.00    -0.069 N 
ATOM      2  H11 UNL     1      18.255   2.834  14.437  1.00  0.00     0.277 HD
ATOM      3  H12 UNL     1      17.603   4.209  14.167  1.00  0.00     0.277 HD
ENDROOT
BRANCH   1   4
HETATM    4  C4  UNL     1      16.625   3.164  15.630  1.00  0.00     0.186 C 
HETATM    5  C3  UNL     1      15.145   3.496  15.528  1.00  0.00     0.033 C 
HETATM    6  C2  UNL     1      14.649   3.620  16.954  1.00  0.00     0.002 C 
HETATM    7  C1  UNL     1      14.648   2.308  17.674  1.00  0.00     0.000 C 
HETATM    8  C11 UNL     1      15.407   1.300  16.839  1.00  0.00     0.002 C 
HETATM    9  C10 UNL     1      16.737   1.886  16.378  1.00  0.00     0.033 C 
ENDBRANCH   1   4
BRANCH   1  10
HETATM   10  C5  UNL     1      16.543   2.675  13.337  1.00  0.00     0.264 C 
BRANCH  10  11
HETATM   11  C6  UNL     1      17.230   1.613  12.554  1.00  0.00     0.147 C 
HETATM   12  C7  UNL     1      16.443   1.334  11.270  1.00  0.00     0.036 C 
HETATM   13  C8  UNL     1      17.443   0.343  10.650  1.00  0.00     0.029 C 
HETATM   14  C9  UNL     1      18.747   0.994  11.053  1.00  0.00     0.168 C 
HETATM   15  O1  UNL     1      18.500   1.868  12.106  1.00  0.00    -0.384 OA
ENDBRANCH  10  11
ENDBRANCH   1  10
TORSDOF 3
ENDMDL
MODEL 4
REMARK VINA RESULT: -6.256685257      0.969      1.120
REMARK  3 active torsions:
REMARK  status: ('A' for Active; 'I' for Inactive)
REMARK    1  A    between atoms: C4_4  and  N1_5 
REMARK    2  A    between atoms: N1_5  and  C5_8 
REMARK    3  A    between atoms: C5_8  and  C6_9 
ROOT
HETATM    1  N1  UNL     1      17.429   3.067  14.248  1.00  0.00    -0.069 N 
ATOM      2  H11 UNL     1      18.110   2.309  14.198  1.00  0.00     0.277 HD
ATOM      3  H12 UNL     1      18.075   3.854  14.177  1.00  0.00     0.277 HD
ENDROOT
BRANCH   1   4
HETATM    4  C4  UNL     1      16.720   3.067  15.495  1.00  0.00     0.186 C 
HETATM    5  C3  UNL     1      15.241   3.391  15.360  1.00  0.00     0.033 C 
HETATM    6  C2  UNL     1      14.737   3.615  16.772  1.00  0.00     0.002 C 
HETATM    7  C1  UNL     1      14.731   2.356  17.581  1.00  0.00     0.000 C 
HETATM    8  C11 UNL     1      15.495   1.293  16.825  1.00  0.00     0.002 C 
HETATM    9  C10 UNL     1      16.828   1.846  16.332  1.00  0.00     0.033 C 
ENDBRANCH   1   4
BRANCH   1  10
HETATM   10  C5  UNL     1      16.508   3.032  13.159  1.00  0.00     0.264 C 
BRANCH  10  11
HETATM   11  C6  UNL     1      16.679   1.881  12.233  1.00  0.00     0.147 C 
HETATM   12  C7  UNL     1      18.064   1.948  11.583  1.00  0.00     0.036 C 
HETATM   13  C8  UNL     1      17.984   0.609  10.832  1.00  0.00     0.029 C 
HETATM   14  C9  UNL     1      17.262  -0.231  11.862  1.00  0.00     0.168 C 
HETATM   15  O1  UNL     1      16.633   0.619  12.765  1.00  0.00    -0.384 OA
ENDBRANCH  10  11
ENDBRANCH   1  10
TORSDOF 3
ENDMDL
MODEL 5
REMARK VINA RESULT: -6.224035710      1.778      5.332
REMARK  3 active torsions:
REMARK  status: ('A' for Active; 'I' for Inactive)
REMARK    1  A    between atoms: C4_4  and  N1_5 
REMARK    2  A    between atoms: N1_5  and  C5_8 
REMARK    3  A    between atoms: C5_8  and  C6_9 
ROOT
HETATM    1  N1  UNL     1      17.179   2.050  14.600  1.00  0.00    -0.069 N 
ATOM      2  H11 UNL     1      16.780   2.941  14.899  1.00  0.00     0.277 HD
ATOM      3  H12 UNL     1      18.166   2.301  14.657  1.00  0.00     0.277 HD
ENDROOT
BRANCH   1   4
HETATM    4  C4  UNL     1      16.789   1.712  13.261  1.00  0.00     0.186 C 
HETATM    5  C3  UNL     1      17.444   2.575  12.195  1.00  0.00     0.033 C 
HETATM    6  C2  UNL     1      16.714   2.263  10.905  1.00  0.00     0.002 C 
HETATM    7  C1  UNL     1      16.982   0.872  10.421  1.00  0.00     0.000 C 
HETATM    8  C11 UNL     1      17.685   0.107  11.519  1.00  0.00     0.002 C 
HETATM    9  C10 UNL     1      16.961   0.297  12.847  1.00  0.00     0.033 C 
ENDBRANCH   1   4
BRANCH   1  10
HETATM   10  C5  UNL     1      16.845   0.988  15.493  1.00  0.00     0.264 C 
BRANCH  10  11
HETATM   11  C6  UNL     1      15.917   1.364  16.592  1.00  0.00     0.147 C 
HETATM   12  C7  UNL     1      15.473   2.819  16.411  1.00  0.00     0.036 C 
HETATM   13  C8  UNL     1      14.461   2.851  17.568  1.00  0.00     0.029 C 
HETATM   14  C9  UNL     1      13.865   1.467  17.438  1.00  0.00     0.168 C 
HETATM   15  O1  UNL     1      14.736   0.677  16.695  1.00  0.00    -0.384 OA
ENDBRANCH  10  11
ENDBRANCH   1  10
TORSDOF 3
ENDMDL
