MODEL 1
REMARK VINA RESULT: -7.929917368      0.000      0.000
REMARK  18 active torsions:
REMARK  status: ('A' for Active; 'I' for Inactive)
REMARK    1  A    between atoms: C2_2  and  S1_4 
REMARK    2  A    between atoms: S1_4  and  C4_5 
REMARK    3  A    between atoms: C4_5  and  C7_8 
REMARK    4  A    between atoms: C10_11  and  C11_12 
REMARK    5  A    between atoms: C14_15  and  C15_16 
REMARK    6  A    between atoms: C16_17  and  C17_18 
REMARK    7  A    between atoms: C17_18  and  C18_19 
REMARK    8  A    between atoms: C18_19  and  O1_20 
REMARK    9  A    between atoms: C18_19  and  C19_22 
REMARK   10  A    between atoms: C19_22  and  O2_23 
REMARK   11  A    between atoms: C19_22  and  C20_25 
REMARK   12  A    between atoms: C20_25  and  C21_26 
REMARK   13  A    between atoms: C24_31  and  C25_32 
REMARK   14  A    between atoms: C25_32  and  O4_34 
REMARK   15  A    between atoms: C28_37  and  O5_38 
REMARK   16  A    between atoms: C29_40  and  C30_41 
REMARK   17  A    between atoms: C30_41  and  C31_42 
REMARK   18  A    between atoms: C35_46  and  O6_47 
ROOT
HETATM    1  C20 UNL     1      36.014  29.854   7.382  1.00  0.00     0.054 A 
HETATM    2  C37 UNL     1      37.303  30.449   7.836  1.00  0.00     0.024 A 
HETATM    3  C38 UNL     1      36.108  31.172   8.163  1.00  0.00     0.024 A 
ENDROOT
BRANCH   1   4
HETATM    4  C19 UNL     1      35.265  28.827   8.141  1.00  0.00     0.091 C 
BRANCH   4   5
HETATM    5  C18 UNL     1      35.669  27.976   9.215  1.00  0.00     0.095 C 
BRANCH   5   6
HETATM    6  C17 UNL     1      36.181  26.799   9.181  1.00  0.00     0.039 C 
BRANCH   6   7
HETATM    7  C16 UNL     1      35.708  25.816   8.157  1.00  0.00    -0.001 C 
HETATM    8  C15 UNL     1      36.264  24.649   8.058  1.00  0.00    -0.021 C 
BRANCH   8   9
HETATM    9  C14 UNL     1      35.925  23.598   7.127  1.00  0.00     0.018 C 
HETATM   10  C7  UNL     1      34.495  23.370   6.875  1.00  0.00     0.012 C 
HETATM   11  C8  UNL     1      34.303  23.412   5.358  1.00  0.00     0.007 C 
HETATM   12  C9  UNL     1      35.696  23.330   4.758  1.00  0.00     0.006 C 
HETATM   13  C10 UNL     1      36.589  23.940   5.796  1.00  0.00    -0.003 C 
BRANCH  10  14
HETATM   14  C4  UNL     1      33.989  22.040   7.424  1.00  0.00     0.009 C 
HETATM   15  C5  UNL     1      34.753  20.853   6.894  1.00  0.00     0.027 C 
HETATM   16  C6  UNL     1      32.537  21.791   6.914  1.00  0.00     0.027 C 
BRANCH  14  17
HETATM   17  S1  UNL     1      33.859  21.998   9.204  1.00  0.00    -0.126 SA
BRANCH  17  18
HETATM   18  C2  UNL     1      32.256  21.831   9.878  1.00  0.00    -0.034 C 
HETATM   19  C1  UNL     1      31.661  20.737  10.316  1.00  0.00     0.026 C 
HETATM   20  C3  UNL     1      31.422  23.097   9.953  1.00  0.00     0.055 C 
ENDBRANCH  17  18
ENDBRANCH  14  17
ENDBRANCH  10  14
BRANCH  13  21
HETATM   21  C11 UNL     1      38.029  23.580   5.723  1.00  0.00    -0.018 C 
HETATM   22  C12 UNL     1      38.863  24.845   5.786  1.00  0.00     0.010 C 
HETATM   23  C13 UNL     1      38.422  22.659   4.616  1.00  0.00     0.010 C 
ENDBRANCH  13  21
ENDBRANCH   8   9
ENDBRANCH   6   7
ENDBRANCH   5   6
BRANCH   5  24
HETATM   24  O1  UNL     1      35.479  28.492  10.533  1.00  0.00    -0.358 OA
ATOM     25  H1  UNL     1      34.864  29.215  10.582  1.00  0.00     0.217 HD
ENDBRANCH   5  24
ENDBRANCH   4   5
BRANCH   4  26
HETATM   26  O2  UNL     1      34.016  28.658   7.782  1.00  0.00    -0.361 OA
ATOM     27  H2  UNL     1      33.706  29.315   7.170  1.00  0.00     0.217 HD
ENDBRANCH   4  26
ENDBRANCH   1   4
BRANCH   1  28
HETATM   28  C21 UNL     1      35.649  30.045   5.948  1.00  0.00     0.039 A 
HETATM   29  N1  UNL     1      34.700  30.992   5.649  1.00  0.00    -0.361 N 
HETATM   30  C22 UNL     1      34.169  31.095   4.448  1.00  0.00     0.022 A 
ATOM     31  H1  UNL     1      34.397  31.636   6.379  1.00  0.00     0.165 HD
HETATM   32  C23 UNL     1      33.127  32.133   4.111  1.00  0.00     0.069 C 
HETATM   33  C24 UNL     1      34.531  30.254   3.392  1.00  0.00     0.075 A 
HETATM   34  C27 UNL     1      35.483  29.292   3.639  1.00  0.00     0.031 A 
HETATM   35  C28 UNL     1      35.918  28.480   2.593  1.00  0.00     0.084 A 
HETATM   36  C36 UNL     1      36.021  29.223   4.940  1.00  0.00     0.035 A 
HETATM   37  C29 UNL     1      36.953  27.550   2.853  1.00  0.00    -0.021 A 
HETATM   38  C34 UNL     1      37.466  27.493   4.089  1.00  0.00     0.047 A 
HETATM   39  C35 UNL     1      37.022  28.307   5.126  1.00  0.00     0.079 A 
BRANCH  33  40
HETATM   40  C25 UNL     1      33.877  30.429   2.104  1.00  0.00     0.295 C 
HETATM   41  O3  UNL     1      34.396  31.181   1.258  1.00  0.00    -0.259 OA
BRANCH  40  42
HETATM   42  O4  UNL     1      32.710  29.765   1.839  1.00  0.00    -0.322 OA
HETATM   43  C26 UNL     1      31.698  30.372   1.075  1.00  0.00     0.213 C 
ENDBRANCH  40  42
ENDBRANCH  33  40
BRANCH  35  44
HETATM   44  O5  UNL     1      35.383  28.562   1.388  1.00  0.00    -0.359 OA
ATOM     45  H5  UNL     1      35.916  28.726   0.619  1.00  0.00     0.217 HD
ENDBRANCH  35  44
BRANCH  37  46
HETATM   46  C30 UNL     1      37.449  26.729   1.715  1.00  0.00     0.045 C 
BRANCH  46  47
HETATM   47  C31 UNL     1      37.252  25.267   1.849  1.00  0.00    -0.018 C 
HETATM   48  C32 UNL     1      36.036  24.894   0.982  1.00  0.00     0.010 C 
HETATM   49  C33 UNL     1      38.375  24.377   1.449  1.00  0.00     0.010 C 
ENDBRANCH  46  47
ENDBRANCH  37  46
BRANCH  39  50
HETATM   50  O6  UNL     1      37.641  28.158   6.332  1.00  0.00    -0.360 OA
ATOM     51  H6  UNL     1      37.749  28.942   6.857  1.00  0.00     0.217 HD
ENDBRANCH  39  50
ENDBRANCH   1  28
TORSDOF 18
ENDMDL
MODEL 2
REMARK VINA RESULT: -7.917822567      2.962      6.856
REMARK  18 active torsions:
REMARK  status: ('A' for Active; 'I' for Inactive)
REMARK    1  A    between atoms: C2_2  and  S1_4 
REMARK    2  A    between atoms: S1_4  and  C4_5 
REMARK    3  A    between atoms: C4_5  and  C7_8 
REMARK    4  A    between atoms: C10_11  and  C11_12 
REMARK    5  A    between atoms: C14_15  and  C15_16 
REMARK    6  A    between atoms: C16_17  and  C17_18 
REMARK    7  A    between atoms: C17_18  and  C18_19 
REMARK    8  A    between atoms: C18_19  and  O1_20 
REMARK    9  A    between atoms: C18_19  and  C19_22 
REMARK   10  A    between atoms: C19_22  and  O2_23 
REMARK   11  A    between atoms: C19_22  and  C20_25 
REMARK   12  A    between atoms: C20_25  and  C21_26 
REMARK   13  A    between atoms: C24_31  and  C25_32 
REMARK   14  A    between atoms: C25_32  and  O4_34 
REMARK   15  A    between atoms: C28_37  and  O5_38 
REMARK   16  A    between atoms: C29_40  and  C30_41 
REMARK   17  A    between atoms: C30_41  and  C31_42 
REMARK   18  A    between atoms: C35_46  and  O6_47 
ROOT
HETATM    1  C20 UNL     1      39.567  25.084   1.678  1.00  0.00     0.054 A 
HETATM    2  C37 UNL     1      39.665  25.745   0.346  1.00  0.00     0.024 A 
HETATM    3  C38 UNL     1      40.715  24.830   0.691  1.00  0.00     0.024 A 
ENDROOT
BRANCH   1   4
HETATM    4  C19 UNL     1      38.789  23.850   1.934  1.00  0.00     0.091 C 
BRANCH   4   5
HETATM    5  C18 UNL     1      39.040  22.750   2.811  1.00  0.00     0.095 C 
BRANCH   5   6
HETATM    6  C17 UNL     1      39.141  22.727   4.090  1.00  0.00     0.039 C 
BRANCH   6   7
HETATM    7  C16 UNL     1      37.914  22.880   4.932  1.00  0.00    -0.001 C 
HETATM    8  C15 UNL     1      37.930  23.631   5.989  1.00  0.00    -0.021 C 
BRANCH   8   9
HETATM    9  C14 UNL     1      36.836  23.877   6.900  1.00  0.00     0.018 C 
HETATM   10  C7  UNL     1      36.520  25.283   7.192  1.00  0.00     0.012 C 
HETATM   11  C8  UNL     1      35.025  25.464   6.922  1.00  0.00     0.007 C 
HETATM   12  C9  UNL     1      34.450  24.063   6.799  1.00  0.00     0.006 C 
HETATM   13  C10 UNL     1      35.592  23.231   6.299  1.00  0.00    -0.003 C 
BRANCH  10  14
HETATM   14  C4  UNL     1      36.838  25.688   8.628  1.00  0.00     0.009 C 
HETATM   15  C5  UNL     1      36.322  27.060   8.983  1.00  0.00     0.027 C 
HETATM   16  C6  UNL     1      38.381  25.827   8.795  1.00  0.00     0.027 C 
BRANCH  14  17
HETATM   17  S1  UNL     1      36.357  24.470   9.842  1.00  0.00    -0.126 SA
BRANCH  17  18
HETATM   18  C2  UNL     1      34.779  24.655  10.568  1.00  0.00    -0.034 C 
HETATM   19  C1  UNL     1      34.419  25.458  11.552  1.00  0.00     0.026 C 
HETATM   20  C3  UNL     1      33.678  23.767  10.019  1.00  0.00     0.055 C 
ENDBRANCH  17  18
ENDBRANCH  14  17
ENDBRANCH  10  14
BRANCH  13  21
HETATM   21  C11 UNL     1      35.493  21.766   6.531  1.00  0.00    -0.018 C 
HETATM   22  C12 UNL     1      35.078  21.083   5.242  1.00  0.00     0.010 C 
HETATM   23  C13 UNL     1      34.695  21.340   7.718  1.00  0.00     0.010 C 
ENDBRANCH  13  21
ENDBRANCH   8   9
ENDBRANCH   6   7
ENDBRANCH   5   6
BRANCH   5  24
HETATM   24  O1  UNL     1      39.209  21.476   2.188  1.00  0.00    -0.358 OA
ATOM     25  H1  UNL     1      39.924  21.441   1.563  1.00  0.00     0.217 HD
ENDBRANCH   5  24
ENDBRANCH   4   5
BRANCH   4  26
HETATM   26  O2  UNL     1      37.677  23.731   1.251  1.00  0.00    -0.361 OA
ATOM     27  H2  UNL     1      37.658  24.262   0.464  1.00  0.00     0.217 HD
ENDBRANCH   4  26
ENDBRANCH   1   4
BRANCH   1  28
HETATM   28  C21 UNL     1      39.979  25.889   2.865  1.00  0.00     0.039 A 
HETATM   29  N1  UNL     1      41.267  25.746   3.321  1.00  0.00    -0.361 N 
HETATM   30  C22 UNL     1      41.664  26.254   4.469  1.00  0.00     0.022 A 
ATOM     31  H1  UNL     1      41.938  25.229   2.752  1.00  0.00     0.165 HD
HETATM   32  C23 UNL     1      43.076  26.102   4.977  1.00  0.00     0.069 C 
HETATM   33  C24 UNL     1      40.808  26.978   5.306  1.00  0.00     0.075 A 
HETATM   34  C27 UNL     1      39.508  27.154   4.891  1.00  0.00     0.031 A 
HETATM   35  C28 UNL     1      38.645  27.927   5.666  1.00  0.00     0.084 A 
HETATM   36  C36 UNL     1      39.134  26.591   3.654  1.00  0.00     0.035 A 
HETATM   37  C29 UNL     1      37.336  28.160   5.181  1.00  0.00    -0.021 A 
HETATM   38  C34 UNL     1      36.988  27.628   4.002  1.00  0.00     0.047 A 
HETATM   39  C35 UNL     1      37.857  26.856   3.238  1.00  0.00     0.079 A 
BRANCH  33  40
HETATM   40  C25 UNL     1      41.329  27.486   6.565  1.00  0.00     0.295 C 
HETATM   41  O3  UNL     1      41.265  26.769   7.581  1.00  0.00    -0.259 OA
BRANCH  40  42
HETATM   42  O4  UNL     1      41.882  28.738   6.615  1.00  0.00    -0.322 OA
HETATM   43  C26 UNL     1      42.886  29.040   7.553  1.00  0.00     0.213 C 
ENDBRANCH  40  42
ENDBRANCH  33  40
BRANCH  35  44
HETATM   44  O5  UNL     1      39.025  28.430   6.827  1.00  0.00    -0.359 OA
ATOM     45  H5  UNL     1      39.416  29.293   6.889  1.00  0.00     0.217 HD
ENDBRANCH  35  44
BRANCH  37  46
HETATM   46  C30 UNL     1      36.443  29.034   5.989  1.00  0.00     0.045 C 
BRANCH  46  47
HETATM   47  C31 UNL     1      35.064  29.193   5.468  1.00  0.00    -0.018 C 
HETATM   48  C32 UNL     1      34.105  28.880   6.631  1.00  0.00     0.010 C 
HETATM   49  C33 UNL     1      34.680  30.520   4.918  1.00  0.00     0.010 C 
ENDBRANCH  46  47
ENDBRANCH  37  46
BRANCH  39  50
HETATM   50  O6  UNL     1      37.379  26.388   2.049  1.00  0.00    -0.360 OA
ATOM     51  H6  UNL     1      36.625  25.812   2.088  1.00  0.00     0.217 HD
ENDBRANCH  39  50
ENDBRANCH   1  28
TORSDOF 18
ENDMDL
MODEL 3
REMARK VINA RESULT: -7.865419969      3.722      7.665
REMARK  18 active torsions:
REMARK  status: ('A' for Active; 'I' for Inactive)
REMARK    1  A    between atoms: C2_2  and  S1_4 
REMARK    2  A    between atoms: S1_4  and  C4_5 
REMARK    3  A    between atoms: C4_5  and  C7_8 
REMARK    4  A    between atoms: C10_11  and  C11_12 
REMARK    5  A    between atoms: C14_15  and  C15_16 
REMARK    6  A    between atoms: C16_17  and  C17_18 
REMARK    7  A    between atoms: C17_18  and  C18_19 
REMARK    8  A    between atoms: C18_19  and  O1_20 
REMARK    9  A    between atoms: C18_19  and  C19_22 
REMARK   10  A    between atoms: C19_22  and  O2_23 
REMARK   11  A    between atoms: C19_22  and  C20_25 
REMARK   12  A    between atoms: C20_25  and  C21_26 
REMARK   13  A    between atoms: C24_31  and  C25_32 
REMARK   14  A    between atoms: C25_32  and  O4_34 
REMARK   15  A    between atoms: C28_37  and  O5_38 
REMARK   16  A    between atoms: C29_40  and  C30_41 
REMARK   17  A    between atoms: C30_41  and  C31_42 
REMARK   18  A    between atoms: C35_46  and  O6_47 
ROOT
HETATM    1  C20 UNL     1      34.083  22.311   8.090  1.00  0.00     0.054 A 
HETATM    2  C37 UNL     1      34.852  21.071   7.782  1.00  0.00     0.024 A 
HETATM    3  C38 UNL     1      34.563  21.324   9.164  1.00  0.00     0.024 A 
ENDROOT
BRANCH   1   4
HETATM    4  C19 UNL     1      32.606  22.398   8.055  1.00  0.00     0.091 C 
BRANCH   4   5
HETATM    5  C18 UNL     1      31.641  22.372   9.108  1.00  0.00     0.095 C 
BRANCH   5   6
HETATM    6  C17 UNL     1      31.321  23.286   9.951  1.00  0.00     0.039 C 
BRANCH   6   7
HETATM    7  C16 UNL     1      31.269  22.962  11.410  1.00  0.00    -0.001 C 
HETATM    8  C15 UNL     1      30.169  23.114  12.080  1.00  0.00    -0.021 C 
BRANCH   8   9
HETATM    9  C14 UNL     1      29.960  22.848  13.485  1.00  0.00     0.018 C 
HETATM   10  C7  UNL     1      30.285  21.495  13.959  1.00  0.00     0.012 C 
HETATM   11  C8  UNL     1      31.228  21.662  15.152  1.00  0.00     0.007 C 
HETATM   12  C9  UNL     1      31.156  23.129  15.542  1.00  0.00     0.006 C 
HETATM   13  C10 UNL     1      30.819  23.839  14.266  1.00  0.00    -0.003 C 
BRANCH  10  14
HETATM   14  C4  UNL     1      29.058  20.692  14.379  1.00  0.00     0.009 C 
HETATM   15  C5  UNL     1      27.767  21.453  14.211  1.00  0.00     0.027 C 
HETATM   16  C6  UNL     1      29.120  20.420  15.912  1.00  0.00     0.027 C 
BRANCH  14  17
HETATM   17  S1  UNL     1      28.969  19.072  13.634  1.00  0.00    -0.126 SA
BRANCH  17  18
HETATM   18  C2  UNL     1      30.118  18.719  12.366  1.00  0.00    -0.034 C 
HETATM   19  C1  UNL     1      31.284  19.293  12.134  1.00  0.00     0.026 C 
HETATM   20  C3  UNL     1      29.726  17.629  11.386  1.00  0.00     0.055 C 
ENDBRANCH  17  18
ENDBRANCH  14  17
ENDBRANCH  10  14
BRANCH  13  21
HETATM   21  C11 UNL     1      30.217  25.192  14.402  1.00  0.00    -0.018 C 
HETATM   22  C12 UNL     1      30.639  25.795  15.727  1.00  0.00     0.010 C 
HETATM   23  C13 UNL     1      28.750  25.289  14.140  1.00  0.00     0.010 C 
ENDBRANCH  13  21
ENDBRANCH   8   9
ENDBRANCH   6   7
ENDBRANCH   5   6
BRANCH   5  24
HETATM   24  O1  UNL     1      30.914  21.152   9.266  1.00  0.00    -0.358 OA
ATOM     25  H1  UNL     1      31.267  20.573   9.931  1.00  0.00     0.217 HD
ENDBRANCH   5  24
ENDBRANCH   4   5
BRANCH   4  26
HETATM   26  O2  UNL     1      32.075  22.523   6.863  1.00  0.00    -0.361 OA
ATOM     27  H2  UNL     1      31.934  23.426   6.605  1.00  0.00     0.217 HD
ENDBRANCH   4  26
ENDBRANCH   1   4
BRANCH   1  28
HETATM   28  C21 UNL     1      34.842  23.595   8.090  1.00  0.00     0.039 A 
HETATM   29  N1  UNL     1      34.820  24.353   9.236  1.00  0.00    -0.361 N 
HETATM   30  C22 UNL     1      35.286  25.584   9.270  1.00  0.00     0.022 A 
ATOM     31  H1  UNL     1      34.429  23.950  10.088  1.00  0.00     0.165 HD
HETATM   32  C23 UNL     1      35.266  26.423  10.524  1.00  0.00     0.069 C 
HETATM   33  C24 UNL     1      35.840  26.209   8.148  1.00  0.00     0.075 A 
HETATM   34  C27 UNL     1      35.891  25.489   6.977  1.00  0.00     0.031 A 
HETATM   35  C28 UNL     1      36.498  26.054   5.856  1.00  0.00     0.084 A 
HETATM   36  C36 UNL     1      35.380  24.175   6.993  1.00  0.00     0.035 A 
HETATM   37  C29 UNL     1      36.609  25.266   4.686  1.00  0.00    -0.021 A 
HETATM   38  C34 UNL     1      36.128  24.017   4.708  1.00  0.00     0.047 A 
HETATM   39  C35 UNL     1      35.522  23.464   5.832  1.00  0.00     0.079 A 
BRANCH  33  40
HETATM   40  C25 UNL     1      36.313  27.579   8.274  1.00  0.00     0.295 C 
HETATM   41  O3  UNL     1      37.472  27.784   8.679  1.00  0.00    -0.259 OA
BRANCH  40  42
HETATM   42  O4  UNL     1      35.484  28.616   7.942  1.00  0.00    -0.322 OA
HETATM   43  C26 UNL     1      35.322  29.710   8.811  1.00  0.00     0.213 C 
ENDBRANCH  40  42
ENDBRANCH  33  40
BRANCH  35  44
HETATM   44  O5  UNL     1      36.956  27.293   5.872  1.00  0.00    -0.359 OA
ATOM     45  H5  UNL     1      36.824  27.879   5.136  1.00  0.00     0.217 HD
ENDBRANCH  35  44
BRANCH  37  46
HETATM   46  C30 UNL     1      37.310  25.860   3.515  1.00  0.00     0.045 C 
BRANCH  46  47
HETATM   47  C31 UNL     1      37.004  25.237   2.205  1.00  0.00    -0.018 C 
HETATM   48  C32 UNL     1      36.562  26.369   1.259  1.00  0.00     0.010 C 
HETATM   49  C33 UNL     1      38.093  24.486   1.524  1.00  0.00     0.010 C 
ENDBRANCH  46  47
ENDBRANCH  37  46
BRANCH  39  50
HETATM   50  O6  UNL     1      35.089  22.174   5.724  1.00  0.00    -0.360 OA
ATOM     51  H6  UNL     1      34.603  21.823   6.461  1.00  0.00     0.217 HD
ENDBRANCH  39  50
ENDBRANCH   1  28
TORSDOF 18
ENDMDL
MODEL 4
REMARK VINA RESULT: -7.859065279      2.895      6.662
REMARK  18 active torsions:
REMARK  status: ('A' for Active; 'I' for Inactive)
REMARK    1  A    between atoms: C2_2  and  S1_4 
REMARK    2  A    between atoms: S1_4  and  C4_5 
REMARK    3  A    between atoms: C4_5  and  C7_8 
REMARK    4  A    between atoms: C10_11  and  C11_12 
REMARK    5  A    between atoms: C14_15  and  C15_16 
REMARK    6  A    between atoms: C16_17  and  C17_18 
REMARK    7  A    between atoms: C17_18  and  C18_19 
REMARK    8  A    between atoms: C18_19  and  O1_20 
REMARK    9  A    between atoms: C18_19  and  C19_22 
REMARK   10  A    between atoms: C19_22  and  O2_23 
REMARK   11  A    between atoms: C19_22  and  C20_25 
REMARK   12  A    between atoms: C20_25  and  C21_26 
REMARK   13  A    between atoms: C24_31  and  C25_32 
REMARK   14  A    between atoms: C25_32  and  O4_34 
REMARK   15  A    between atoms: C28_37  and  O5_38 
REMARK   16  A    between atoms: C29_40  and  C30_41 
REMARK   17  A    between atoms: C30_41  and  C31_42 
REMARK   18  A    between atoms: C35_46  and  O6_47 
ROOT
HETATM    1  C20 UNL     1      39.830  24.804   1.809  1.00  0.00     0.054 A 
HETATM    2  C37 UNL     1      40.227  25.126   0.408  1.00  0.00     0.024 A 
HETATM    3  C38 UNL     1      40.969  24.091   1.067  1.00  0.00     0.024 A 
ENDROOT
BRANCH   1   4
HETATM    4  C19 UNL     1      38.743  23.864   2.165  1.00  0.00     0.091 C 
BRANCH   4   5
HETATM    5  C18 UNL     1      38.669  22.859   3.177  1.00  0.00     0.095 C 
BRANCH   5   6
HETATM    6  C17 UNL     1      38.782  22.968   4.451  1.00  0.00     0.039 C 
BRANCH   6   7
HETATM    7  C16 UNL     1      37.577  23.292   5.276  1.00  0.00    -0.001 C 
HETATM    8  C15 UNL     1      37.680  24.044   6.327  1.00  0.00    -0.021 C 
BRANCH   8   9
HETATM    9  C14 UNL     1      36.618  24.444   7.221  1.00  0.00     0.018 C 
HETATM   10  C7  UNL     1      36.183  23.455   8.218  1.00  0.00     0.012 C 
HETATM   11  C8  UNL     1      36.241  24.150   9.580  1.00  0.00     0.007 C 
HETATM   12  C9  UNL     1      36.391  25.633   9.288  1.00  0.00     0.006 C 
HETATM   13  C10 UNL     1      37.098  25.685   7.968  1.00  0.00    -0.003 C 
BRANCH  10  14
HETATM   14  C4  UNL     1      34.774  22.925   7.968  1.00  0.00     0.009 C 
HETATM   15  C5  UNL     1      34.760  21.512   7.441  1.00  0.00     0.027 C 
HETATM   16  C6  UNL     1      34.110  23.746   6.822  1.00  0.00     0.027 C 
BRANCH  14  17
HETATM   17  S1  UNL     1      33.675  23.118   9.362  1.00  0.00    -0.126 SA
BRANCH  17  18
HETATM   18  C2  UNL     1      32.110  22.350   9.248  1.00  0.00    -0.034 C 
HETATM   19  C1  UNL     1      31.141  22.588   8.384  1.00  0.00     0.026 C 
HETATM   20  C3  UNL     1      31.806  21.285  10.287  1.00  0.00     0.055 C 
ENDBRANCH  17  18
ENDBRANCH  14  17
ENDBRANCH  10  14
BRANCH  13  21
HETATM   21  C11 UNL     1      36.965  26.950   7.197  1.00  0.00    -0.018 C 
HETATM   22  C12 UNL     1      37.230  28.125   8.117  1.00  0.00     0.010 C 
HETATM   23  C13 UNL     1      35.723  27.096   6.381  1.00  0.00     0.010 C 
ENDBRANCH  13  21
ENDBRANCH   8   9
ENDBRANCH   6   7
ENDBRANCH   5   6
BRANCH   5  24
HETATM   24  O1  UNL     1      38.439  21.525   2.723  1.00  0.00    -0.358 OA
ATOM     25  H1  UNL     1      37.555  21.210   2.873  1.00  0.00     0.217 HD
ENDBRANCH   5  24
ENDBRANCH   4   5
BRANCH   4  26
HETATM   26  O2  UNL     1      37.654  23.959   1.441  1.00  0.00    -0.361 OA
ATOM     27  H2  UNL     1      37.201  24.786   1.547  1.00  0.00     0.217 HD
ENDBRANCH   4  26
ENDBRANCH   1   4
BRANCH   1  28
HETATM   28  C21 UNL     1      40.312  25.728   2.877  1.00  0.00     0.039 A 
HETATM   29  N1  UNL     1      41.447  25.375   3.566  1.00  0.00    -0.361 N 
HETATM   30  C22 UNL     1      41.835  26.015   4.650  1.00  0.00     0.022 A 
ATOM     31  H1  UNL     1      42.008  24.593   3.227  1.00  0.00     0.165 HD
HETATM   32  C23 UNL     1      43.081  25.634   5.412  1.00  0.00     0.069 C 
HETATM   33  C24 UNL     1      41.125  27.098   5.178  1.00  0.00     0.075 A 
HETATM   34  C27 UNL     1      39.983  27.494   4.520  1.00  0.00     0.031 A 
HETATM   35  C28 UNL     1      39.288  28.612   4.977  1.00  0.00     0.084 A 
HETATM   36  C36 UNL     1      39.611  26.778   3.364  1.00  0.00     0.035 A 
HETATM   37  C29 UNL     1      38.161  29.047   4.240  1.00  0.00    -0.021 A 
HETATM   38  C34 UNL     1      37.816  28.368   3.140  1.00  0.00     0.047 A 
HETATM   39  C35 UNL     1      38.516  27.252   2.693  1.00  0.00     0.079 A 
BRANCH  33  40
HETATM   40  C25 UNL     1      41.619  27.732   6.390  1.00  0.00     0.295 C 
HETATM   41  O3  UNL     1      42.448  28.655   6.297  1.00  0.00    -0.259 OA
BRANCH  40  42
HETATM   42  O4  UNL     1      41.163  27.309   7.610  1.00  0.00    -0.322 OA
HETATM   43  C26 UNL     1      42.042  27.195   8.702  1.00  0.00     0.213 C 
ENDBRANCH  40  42
ENDBRANCH  33  40
BRANCH  35  44
HETATM   44  O5  UNL     1      39.657  29.253   6.072  1.00  0.00    -0.359 OA
ATOM     45  H5  UNL     1      39.129  29.231   6.861  1.00  0.00     0.217 HD
ENDBRANCH  35  44
BRANCH  37  46
HETATM   46  C30 UNL     1      37.461  30.276   4.705  1.00  0.00     0.045 C 
BRANCH  46  47
HETATM   47  C31 UNL     1      35.987  30.267   4.553  1.00  0.00    -0.018 C 
HETATM   48  C32 UNL     1      35.392  30.741   5.892  1.00  0.00     0.010 C 
HETATM   49  C33 UNL     1      35.396  31.110   3.479  1.00  0.00     0.010 C 
ENDBRANCH  46  47
ENDBRANCH  37  46
BRANCH  39  50
HETATM   50  O6  UNL     1      38.067  26.662   1.548  1.00  0.00    -0.360 OA
ATOM     51  H6  UNL     1      37.587  25.848   1.646  1.00  0.00     0.217 HD
ENDBRANCH  39  50
ENDBRANCH   1  28
TORSDOF 18
ENDMDL
MODEL 5
REMARK VINA RESULT: -7.773127118      4.727      9.741
REMARK  18 active torsions:
REMARK  status: ('A' for Active; 'I' for Inactive)
REMARK    1  A    between atoms: C2_2  and  S1_4 
REMARK    2  A    between atoms: S1_4  and  C4_5 
REMARK    3  A    between atoms: C4_5  and  C7_8 
REMARK    4  A    between atoms: C10_11  and  C11_12 
REMARK    5  A    between atoms: C14_15  and  C15_16 
REMARK    6  A    between atoms: C16_17  and  C17_18 
REMARK    7  A    between atoms: C17_18  and  C18_19 
REMARK    8  A    between atoms: C18_19  and  O1_20 
REMARK    9  A    between atoms: C18_19  and  C19_22 
REMARK   10  A    between atoms: C19_22  and  O2_23 
REMARK   11  A    between atoms: C19_22  and  C20_25 
REMARK   12  A    between atoms: C20_25  and  C21_26 
REMARK   13  A    between atoms: C24_31  and  C25_32 
REMARK   14  A    between atoms: C25_32  and  O4_34 
REMARK   15  A    between atoms: C28_37  and  O5_38 
REMARK   16  A    between atoms: C29_40  and  C30_41 
REMARK   17  A    between atoms: C30_41  and  C31_42 
REMARK   18  A    between atoms: C35_46  and  O6_47 
ROOT
HETATM    1  C20 UNL     1      38.485  24.347   4.165  1.00  0.00     0.054 A 
HETATM    2  C37 UNL     1      37.880  25.019   2.980  1.00  0.00     0.024 A 
HETATM    3  C38 UNL     1      39.019  25.659   3.572  1.00  0.00     0.024 A 
ENDROOT
BRANCH   1   4
HETATM    4  C19 UNL     1      39.491  23.264   4.077  1.00  0.00     0.091 C 
BRANCH   4   5
HETATM    5  C18 UNL     1      39.874  22.428   2.985  1.00  0.00     0.095 C 
BRANCH   5   6
HETATM    6  C17 UNL     1      41.017  22.295   2.415  1.00  0.00     0.039 C 
BRANCH   6   7
HETATM    7  C16 UNL     1      41.340  23.114   1.206  1.00  0.00    -0.001 C 
HETATM    8  C15 UNL     1      41.687  24.357   1.326  1.00  0.00    -0.021 C 
BRANCH   8   9
HETATM    9  C14 UNL     1      42.026  25.275   0.263  1.00  0.00     0.018 C 
HETATM   10  C7  UNL     1      42.836  24.739  -0.842  1.00  0.00     0.012 C 
HETATM   11  C8  UNL     1      42.093  25.077  -2.136  1.00  0.00     0.007 C 
HETATM   12  C9  UNL     1      41.033  26.098  -1.756  1.00  0.00     0.006 C 
HETATM   13  C10 UNL     1      40.717  25.794  -0.323  1.00  0.00    -0.003 C 
BRANCH  10  14
HETATM   14  C4  UNL     1      44.247  25.316  -0.891  1.00  0.00     0.009 C 
HETATM   15  C5  UNL     1      44.336  26.710  -0.324  1.00  0.00     0.027 C 
HETATM   16  C6  UNL     1      44.676  25.502  -2.378  1.00  0.00     0.027 C 
BRANCH  14  17
HETATM   17  S1  UNL     1      45.489  24.240  -0.191  1.00  0.00    -0.126 SA
BRANCH  17  18
HETATM   18  C2  UNL     1      45.324  23.835   1.500  1.00  0.00    -0.034 C 
HETATM   19  C1  UNL     1      45.567  24.595   2.552  1.00  0.00     0.026 C 
HETATM   20  C3  UNL     1      44.864  22.423   1.812  1.00  0.00     0.055 C 
ENDBRANCH  17  18
ENDBRANCH  14  17
ENDBRANCH  10  14
BRANCH  13  21
HETATM   21  C11 UNL     1      40.090  26.890   0.462  1.00  0.00    -0.018 C 
HETATM   22  C12 UNL     1      38.719  27.192  -0.109  1.00  0.00     0.010 C 
HETATM   23  C13 UNL     1      40.929  28.105   0.681  1.00  0.00     0.010 C 
ENDBRANCH  13  21
ENDBRANCH   8   9
ENDBRANCH   6   7
ENDBRANCH   5   6
BRANCH   5  24
HETATM   24  O1  UNL     1      38.844  21.612   2.425  1.00  0.00    -0.358 OA
ATOM     25  H1  UNL     1      38.035  21.612   2.923  1.00  0.00     0.217 HD
ENDBRANCH   5  24
ENDBRANCH   4   5
BRANCH   4  26
HETATM   26  O2  UNL     1      40.154  23.019   5.181  1.00  0.00    -0.361 OA
ATOM     27  H2  UNL     1      39.636  22.579   5.844  1.00  0.00     0.217 HD
ENDBRANCH   4  26
ENDBRANCH   1   4
BRANCH   1  28
HETATM   28  C21 UNL     1      37.793  24.532   5.474  1.00  0.00     0.039 A 
HETATM   29  N1  UNL     1      38.234  25.542   6.295  1.00  0.00    -0.361 N 
HETATM   30  C22 UNL     1      37.826  25.657   7.542  1.00  0.00     0.022 A 
ATOM     31  H1  UNL     1      38.898  26.223   5.928  1.00  0.00     0.165 HD
HETATM   32  C23 UNL     1      38.305  26.763   8.450  1.00  0.00     0.069 C 
HETATM   33  C24 UNL     1      36.917  24.767   8.121  1.00  0.00     0.075 A 
HETATM   34  C27 UNL     1      36.440  23.742   7.337  1.00  0.00     0.031 A 
HETATM   35  C28 UNL     1      35.480  22.876   7.858  1.00  0.00     0.084 A 
HETATM   36  C36 UNL     1      36.906  23.662   6.008  1.00  0.00     0.035 A 
HETATM   37  C29 UNL     1      34.948  21.877   7.008  1.00  0.00    -0.021 A 
HETATM   38  C34 UNL     1      35.389  21.810   5.746  1.00  0.00     0.047 A 
HETATM   39  C35 UNL     1      36.349  22.678   5.237  1.00  0.00     0.079 A 
BRANCH  33  40
HETATM   40  C25 UNL     1      36.538  24.962   9.512  1.00  0.00     0.295 C 
HETATM   41  O3  UNL     1      37.210  24.414  10.405  1.00  0.00    -0.259 OA
BRANCH  40  42
HETATM   42  O4  UNL     1      35.456  25.743   9.817  1.00  0.00    -0.322 OA
HETATM   43  C26 UNL     1      34.763  25.565  11.028  1.00  0.00     0.213 C 
ENDBRANCH  40  42
ENDBRANCH  33  40
BRANCH  35  44
HETATM   44  O5  UNL     1      35.074  22.971   9.112  1.00  0.00    -0.359 OA
ATOM     45  H5  UNL     1      34.152  23.032   9.330  1.00  0.00     0.217 HD
ENDBRANCH  35  44
BRANCH  37  46
HETATM   46  C30 UNL     1      33.882  20.995   7.558  1.00  0.00     0.045 C 
BRANCH  46  47
HETATM   47  C31 UNL     1      32.496  21.352   7.172  1.00  0.00    -0.018 C 
HETATM   48  C32 UNL     1      31.887  22.136   8.349  1.00  0.00     0.010 C 
HETATM   49  C33 UNL     1      32.309  22.171   5.945  1.00  0.00     0.010 C 
ENDBRANCH  46  47
ENDBRANCH  37  46
BRANCH  39  50
HETATM   50  O6  UNL     1      36.698  22.510   3.929  1.00  0.00    -0.360 OA
ATOM     51  H6  UNL     1      37.543  22.853   3.664  1.00  0.00     0.217 HD
ENDBRANCH  39  50
ENDBRANCH   1  28
TORSDOF 18
ENDMDL
