MODEL 1
REMARK VINA RESULT: -5.617638834      0.000      0.000
REMARK  4 active torsions:
REMARK  status: ('A' for Active; 'I' for Inactive)
REMARK    1  A    between atoms: C2_2  and  O1_4 
REMARK    2  A    between atoms: O1_4  and  C4_5 
REMARK    3  A    between atoms: C5_6  and  C6_7 
REMARK       I    between atoms: C6_7  and  N1_9 
REMARK    4  A    between atoms: N1_9  and  N2_11 
ROOT
HETATM    1  C4  UNL     1      25.871  41.047   2.895  1.00  0.00     0.111 A 
HETATM    2  C5  UNL     1      26.284  42.064   2.106  1.00  0.00     0.110 A 
HETATM    3  S1  UNL     1      24.831  43.039   1.985  1.00  0.00    -0.073 SA
HETATM    4  C7  UNL     1      23.801  42.107   2.942  1.00  0.00     0.072 A 
HETATM    5 BR1  UNL     1      21.943  42.437   3.380  1.00  0.00    -0.042 Br
HETATM    6  C8  UNL     1      24.584  41.060   3.339  1.00  0.00     0.070 A 
HETATM    7 BR2  UNL     1      23.791  39.713   4.519  1.00  0.00    -0.046 Br
ENDROOT
BRANCH   2   8
HETATM    8  C6  UNL     1      27.537  42.436   1.468  1.00  0.00     0.279 C 
HETATM    9  O2  UNL     1      27.651  42.242   0.208  1.00  0.00    -0.265 OA
HETATM   10  N1  UNL     1      28.609  42.997   2.149  1.00  0.00    -0.272 N 
ATOM     11  H1  UNL     1      28.523  43.166   3.151  1.00  0.00     0.189 HD
BRANCH  10  12
HETATM   12  N2  UNL     1      29.828  43.344   1.492  1.00  0.00    -0.342 N 
ATOM     13  H22 UNL     1      29.825  43.389   0.473  1.00  0.00     0.176 HD
ATOM     14  H21 UNL     1      30.684  43.545   2.008  1.00  0.00     0.176 HD
ENDBRANCH  10  12
ENDBRANCH   2   8
BRANCH   1  15
HETATM   15  O1  UNL     1      26.738  39.948   3.262  1.00  0.00    -0.344 OA
BRANCH  15  16
HETATM   16  C2  UNL     1      26.811  38.839   2.382  1.00  0.00     0.121 C 
HETATM   17  C1  UNL     1      26.093  38.967   1.071  1.00  0.00     0.040 C 
HETATM   18  C3  UNL     1      28.287  38.617   2.016  1.00  0.00     0.040 C 
ENDBRANCH  15  16
ENDBRANCH   1  15
TORSDOF 4
ENDMDL
MODEL 2
REMARK VINA RESULT: -5.617054365      3.659      4.343
REMARK  4 active torsions:
REMARK  status: ('A' for Active; 'I' for Inactive)
REMARK    1  A    between atoms: C2_2  and  O1_4 
REMARK    2  A    between atoms: O1_4  and  C4_5 
REMARK    3  A    between atoms: C5_6  and  C6_7 
REMARK       I    between atoms: C6_7  and  N1_9 
REMARK    4  A    between atoms: N1_9  and  N2_11 
ROOT
HETATM    1  C4  UNL     1      26.332  41.002   0.227  1.00  0.00     0.111 A 
HETATM    2  C5  UNL     1      27.135  41.894   0.851  1.00  0.00     0.110 A 
HETATM    3  S1  UNL     1      28.503  41.974  -0.243  1.00  0.00    -0.073 SA
HETATM    4  C7  UNL     1      27.973  40.885  -1.418  1.00  0.00     0.072 A 
HETATM    5 BR1  UNL     1      28.873  40.341  -3.045  1.00  0.00    -0.042 Br
HETATM    6  C8  UNL     1      26.755  40.473  -0.954  1.00  0.00     0.070 A 
HETATM    7 BR2  UNL     1      25.740  39.200  -2.040  1.00  0.00    -0.046 Br
ENDROOT
BRANCH   2   8
HETATM    8  C6  UNL     1      27.052  42.689   2.066  1.00  0.00     0.279 C 
HETATM    9  O2  UNL     1      25.982  43.360   2.273  1.00  0.00    -0.265 OA
HETATM   10  N1  UNL     1      28.064  42.752   3.014  1.00  0.00    -0.272 N 
ATOM     11  H1  UNL     1      28.916  42.212   2.863  1.00  0.00     0.189 HD
BRANCH  10  12
HETATM   12  N2  UNL     1      27.951  43.548   4.193  1.00  0.00    -0.342 N 
ATOM     13  H22 UNL     1      27.019  43.854   4.475  1.00  0.00     0.176 HD
ATOM     14  H21 UNL     1      28.764  43.812   4.749  1.00  0.00     0.176 HD
ENDBRANCH  10  12
ENDBRANCH   2   8
BRANCH   1  15
HETATM   15  O1  UNL     1      25.064  40.582   0.781  1.00  0.00    -0.344 OA
BRANCH  15  16
HETATM   16  C2  UNL     1      25.070  39.529   1.729  1.00  0.00     0.121 C 
HETATM   17  C1  UNL     1      26.378  38.831   1.957  1.00  0.00     0.040 C 
HETATM   18  C3  UNL     1      24.678  40.114   3.095  1.00  0.00     0.040 C 
ENDBRANCH  15  16
ENDBRANCH   1  15
TORSDOF 4
ENDMDL
MODEL 3
REMARK VINA RESULT: -5.562662166      3.140      4.415
REMARK  4 active torsions:
REMARK  status: ('A' for Active; 'I' for Inactive)
REMARK    1  A    between atoms: C2_2  and  O1_4 
REMARK    2  A    between atoms: O1_4  and  C4_5 
REMARK    3  A    between atoms: C5_6  and  C6_7 
REMARK       I    between atoms: C6_7  and  N1_9 
REMARK    4  A    between atoms: N1_9  and  N2_11 
ROOT
HETATM    1  C4  UNL     1      26.992  41.528   0.590  1.00  0.00     0.111 A 
HETATM    2  C5  UNL     1      26.738  41.304   1.899  1.00  0.00     0.110 A 
HETATM    3  S1  UNL     1      25.737  39.866   1.832  1.00  0.00    -0.073 SA
HETATM    4  C7  UNL     1      25.710  39.634   0.161  1.00  0.00     0.072 A 
HETATM    5 BR1  UNL     1      24.817  38.238  -0.843  1.00  0.00    -0.042 Br
HETATM    6  C8  UNL     1      26.466  40.665  -0.323  1.00  0.00     0.070 A 
HETATM    7 BR2  UNL     1      26.739  40.776  -2.258  1.00  0.00    -0.046 Br
ENDROOT
BRANCH   2   8
HETATM    8  C6  UNL     1      27.119  41.941   3.150  1.00  0.00     0.279 C 
HETATM    9  O2  UNL     1      27.194  41.210   4.198  1.00  0.00    -0.265 OA
HETATM   10  N1  UNL     1      27.412  43.293   3.266  1.00  0.00    -0.272 N 
ATOM     11  H1  UNL     1      27.365  43.881   2.434  1.00  0.00     0.189 HD
BRANCH  10  12
HETATM   12  N2  UNL     1      27.777  43.886   4.512  1.00  0.00    -0.342 N 
ATOM     13  H22 UNL     1      28.289  43.313   5.183  1.00  0.00     0.176 HD
ATOM     14  H21 UNL     1      27.542  44.851   4.742  1.00  0.00     0.176 HD
ENDBRANCH  10  12
ENDBRANCH   2   8
BRANCH   1  15
HETATM   15  O1  UNL     1      27.779  42.652   0.133  1.00  0.00    -0.344 OA
BRANCH  15  16
HETATM   16  C2  UNL     1      29.151  42.433  -0.143  1.00  0.00     0.121 C 
HETATM   17  C1  UNL     1      29.641  42.836  -1.502  1.00  0.00     0.040 C 
HETATM   18  C3  UNL     1      29.977  43.267   0.849  1.00  0.00     0.040 C 
ENDBRANCH  15  16
ENDBRANCH   1  15
TORSDOF 4
ENDMDL
MODEL 4
REMARK VINA RESULT: -5.499364396      2.921      4.009
REMARK  4 active torsions:
REMARK  status: ('A' for Active; 'I' for Inactive)
REMARK    1  A    between atoms: C2_2  and  O1_4 
REMARK    2  A    between atoms: O1_4  and  C4_5 
REMARK    3  A    between atoms: C5_6  and  C6_7 
REMARK       I    between atoms: C6_7  and  N1_9 
REMARK    4  A    between atoms: N1_9  and  N2_11 
ROOT
HETATM    1  C4  UNL     1      25.905  40.440   1.762  1.00  0.00     0.111 A 
HETATM    2  C5  UNL     1      26.857  41.339   2.103  1.00  0.00     0.110 A 
HETATM    3  S1  UNL     1      27.687  41.581   0.578  1.00  0.00    -0.073 SA
HETATM    4  C7  UNL     1      26.777  40.542  -0.392  1.00  0.00     0.072 A 
HETATM    5 BR1  UNL     1      26.990  40.169  -2.281  1.00  0.00    -0.042 Br
HETATM    6  C8  UNL     1      25.851  40.022   0.468  1.00  0.00     0.070 A 
HETATM    7 BR2  UNL     1      24.536  38.761  -0.249  1.00  0.00    -0.046 Br
ENDROOT
BRANCH   2   8
HETATM    8  C6  UNL     1      27.226  42.042   3.321  1.00  0.00     0.279 C 
HETATM    9  O2  UNL     1      27.453  41.348   4.372  1.00  0.00    -0.265 OA
HETATM   10  N1  UNL     1      27.355  43.422   3.402  1.00  0.00    -0.272 N 
ATOM     11  H1  UNL     1      27.188  43.983   2.567  1.00  0.00     0.189 HD
BRANCH  10  12
HETATM   12  N2  UNL     1      27.714  44.081   4.617  1.00  0.00    -0.342 N 
ATOM     13  H22 UNL     1      28.184  44.984   4.550  1.00  0.00     0.176 HD
ATOM     14  H21 UNL     1      27.514  43.678   5.532  1.00  0.00     0.176 HD
ENDBRANCH  10  12
ENDBRANCH   2   8
BRANCH   1  15
HETATM   15  O1  UNL     1      24.966  39.903   2.723  1.00  0.00    -0.344 OA
BRANCH  15  16
HETATM   16  C2  UNL     1      24.167  40.818   3.453  1.00  0.00     0.121 C 
HETATM   17  C1  UNL     1      23.181  41.630   2.668  1.00  0.00     0.040 C 
HETATM   18  C3  UNL     1      23.324  40.018   4.459  1.00  0.00     0.040 C 
ENDBRANCH  15  16
ENDBRANCH   1  15
TORSDOF 4
ENDMDL
MODEL 5
REMARK VINA RESULT: -5.431537824      4.004      4.824
REMARK  4 active torsions:
REMARK  status: ('A' for Active; 'I' for Inactive)
REMARK    1  A    between atoms: C2_2  and  O1_4 
REMARK    2  A    between atoms: O1_4  and  C4_5 
REMARK    3  A    between atoms: C5_6  and  C6_7 
REMARK       I    between atoms: C6_7  and  N1_9 
REMARK    4  A    between atoms: N1_9  and  N2_11 
ROOT
HETATM    1  C4  UNL     1      27.036  41.446  -0.141  1.00  0.00     0.111 A 
HETATM    2  C5  UNL     1      27.587  42.189   0.845  1.00  0.00     0.110 A 
HETATM    3  S1  UNL     1      29.137  42.620   0.148  1.00  0.00    -0.073 SA
HETATM    4  C7  UNL     1      28.988  41.843  -1.342  1.00  0.00     0.072 A 
HETATM    5 BR1  UNL     1      30.265  41.783  -2.798  1.00  0.00    -0.042 Br
HETATM    6  C8  UNL     1      27.753  41.261  -1.283  1.00  0.00     0.070 A 
HETATM    7 BR2  UNL     1      27.134  40.257  -2.845  1.00  0.00    -0.046 Br
ENDROOT
BRANCH   2   8
HETATM    8  C6  UNL     1      27.163  42.640   2.162  1.00  0.00     0.279 C 
HETATM    9  O2  UNL     1      25.948  43.014   2.307  1.00  0.00    -0.265 OA
HETATM   10  N1  UNL     1      28.002  42.678   3.267  1.00  0.00    -0.272 N 
ATOM     11  H1  UNL     1      28.969  42.371   3.164  1.00  0.00     0.189 HD
BRANCH  10  12
HETATM   12  N2  UNL     1      27.554  43.132   4.545  1.00  0.00    -0.342 N 
ATOM     13  H22 UNL     1      26.578  42.971   4.794  1.00  0.00     0.176 HD
ATOM     14  H21 UNL     1      28.176  43.605   5.200  1.00  0.00     0.176 HD
ENDBRANCH  10  12
ENDBRANCH   2   8
BRANCH   1  15
HETATM   15  O1  UNL     1      25.733  40.831  -0.012  1.00  0.00    -0.344 OA
BRANCH  15  16
HETATM   16  C2  UNL     1      25.665  39.532   0.552  1.00  0.00     0.121 C 
HETATM   17  C1  UNL     1      25.174  39.433   1.966  1.00  0.00     0.040 C 
HETATM   18  C3  UNL     1      24.676  38.702  -0.280  1.00  0.00     0.040 C 
ENDBRANCH  15  16
ENDBRANCH   1  15
TORSDOF 4
ENDMDL
