MODEL 1
REMARK VINA RESULT: -6.400758763      0.000      0.000
REMARK  5 active torsions:
REMARK  status: ('A' for Active; 'I' for Inactive)
REMARK    1  A    between atoms: C2_2  and  N1_3 
REMARK       I    between atoms: N1_3  and  C4_5 
REMARK       I    between atoms: C4_5  and  N2_7 
REMARK    2  A    between atoms: N2_7  and  C5_9 
REMARK    3  A    between atoms: C8_15  and  N3_16 
REMARK       I    between atoms: N3_16  and  C9_18 
REMARK    4  A    between atoms: C9_18  and  O4_20 
REMARK    5  A    between atoms: O4_20  and  C10_21 
ROOT
HETATM    1  C5  UNL     1      27.138  39.941   2.395  1.00  0.00     0.138 C 
HETATM    2  C6  UNL     1      27.245  40.429   3.827  1.00  0.00     0.199 C 
HETATM    3  O2  UNL     1      26.821  41.731   3.856  1.00  0.00    -0.348 OA
HETATM    4  C7  UNL     1      26.026  41.950   2.732  1.00  0.00     0.238 C 
HETATM    5 CL1  UNL     1      24.530  41.018   2.959  1.00  0.00    -0.068 Cl
HETATM    6 CL2  UNL     1      25.753  43.633   2.386  1.00  0.00    -0.068 Cl
HETATM    7  C8  UNL     1      26.888  41.262   1.663  1.00  0.00     0.178 C 
ENDROOT
BRANCH   7   8
HETATM    8  N3  UNL     1      28.095  42.016   1.555  1.00  0.00    -0.325 N 
HETATM    9  C9  UNL     1      28.639  42.475   0.321  1.00  0.00     0.361 C 
HETATM   10  O3  UNL     1      28.005  42.190  -0.726  1.00  0.00    -0.238 OA
ATOM     11  H3  UNL     1      28.598  42.239   2.413  1.00  0.00     0.165 HD
BRANCH   9  12
HETATM   12  O4  UNL     1      29.792  43.195   0.215  1.00  0.00    -0.294 OA
BRANCH  12  13
HETATM   13  C10 UNL     1      30.948  42.792  -0.487  1.00  0.00     0.061 C 
HETATM   14  C11 UNL     1      31.070  43.466  -1.830  1.00  0.00     0.046 C 
HETATM   15  C12 UNL     1      31.028  41.311  -0.702  1.00  0.00     0.046 C 
HETATM   16  C13 UNL     1      32.152  43.215   0.341  1.00  0.00     0.046 C 
ENDBRANCH  12  13
ENDBRANCH   9  12
ENDBRANCH   7   8
BRANCH   1  17
HETATM   17  N2  UNL     1      28.322  39.282   1.940  1.00  0.00    -0.334 N 
HETATM   18  C4  UNL     1      28.279  38.454   0.814  1.00  0.00     0.318 C 
HETATM   19  N1  UNL     1      29.435  37.794   0.352  1.00  0.00    -0.339 N 
HETATM   20  O1  UNL     1      27.190  38.294   0.200  1.00  0.00    -0.247 OA
HETATM   21  C3  UNL     1      29.373  36.947  -0.845  1.00  0.00     0.154 C 
ATOM     22  H2  UNL     1      29.202  39.415   2.439  1.00  0.00     0.164 HD
BRANCH  19  23
HETATM   23  C2  UNL     1      30.682  37.958   1.065  1.00  0.00     0.122 C 
HETATM   24  C1  UNL     1      31.868  37.781   0.142  1.00  0.00     0.026 C 
ENDBRANCH  19  23
ENDBRANCH   1  17
TORSDOF 5
ENDMDL
MODEL 2
REMARK VINA RESULT: -6.279490851      2.826      5.404
REMARK  5 active torsions:
REMARK  status: ('A' for Active; 'I' for Inactive)
REMARK    1  A    between atoms: C2_2  and  N1_3 
REMARK       I    between atoms: N1_3  and  C4_5 
REMARK       I    between atoms: C4_5  and  N2_7 
REMARK    2  A    between atoms: N2_7  and  C5_9 
REMARK    3  A    between atoms: C8_15  and  N3_16 
REMARK       I    between atoms: N3_16  and  C9_18 
REMARK    4  A    between atoms: C9_18  and  O4_20 
REMARK    5  A    between atoms: O4_20  and  C10_21 
ROOT
HETATM    1  C5  UNL     1      30.304  39.374  -0.506  1.00  0.00     0.138 C 
HETATM    2  C6  UNL     1      30.553  38.304   0.540  1.00  0.00     0.199 C 
HETATM    3  O2  UNL     1      29.340  37.765   0.881  1.00  0.00    -0.348 OA
HETATM    4  C7  UNL     1      28.446  38.028  -0.156  1.00  0.00     0.238 C 
HETATM    5 CL1  UNL     1      28.959  37.053  -1.550  1.00  0.00    -0.068 Cl
HETATM    6 CL2  UNL     1      26.779  37.792   0.283  1.00  0.00    -0.068 Cl
HETATM    7  C8  UNL     1      28.781  39.502  -0.424  1.00  0.00     0.178 C 
ENDROOT
BRANCH   7   8
HETATM    8  N3  UNL     1      28.398  40.233   0.741  1.00  0.00    -0.325 N 
HETATM    9  C9  UNL     1      27.488  41.329   0.730  1.00  0.00     0.361 C 
HETATM   10  O3  UNL     1      27.002  41.659  -0.381  1.00  0.00    -0.238 OA
ATOM     11  H3  UNL     1      28.801  39.954   1.635  1.00  0.00     0.165 HD
BRANCH   9  12
HETATM   12  O4  UNL     1      27.121  42.029   1.842  1.00  0.00    -0.294 OA
BRANCH  12  13
HETATM   13  C10 UNL     1      26.199  41.593   2.817  1.00  0.00     0.061 C 
HETATM   14  C11 UNL     1      26.825  40.660   3.823  1.00  0.00     0.046 C 
HETATM   15  C12 UNL     1      24.996  40.913   2.238  1.00  0.00     0.046 C 
HETATM   16  C13 UNL     1      25.727  42.823   3.577  1.00  0.00     0.046 C 
ENDBRANCH  12  13
ENDBRANCH   9  12
ENDBRANCH   7   8
BRANCH   1  17
HETATM   17  N2  UNL     1      30.972  40.604  -0.216  1.00  0.00    -0.334 N 
HETATM   18  C4  UNL     1      32.135  40.954  -0.907  1.00  0.00     0.318 C 
HETATM   19  N1  UNL     1      32.809  42.162  -0.634  1.00  0.00    -0.339 N 
HETATM   20  O1  UNL     1      32.592  40.178  -1.790  1.00  0.00    -0.247 OA
HETATM   21  C3  UNL     1      34.017  42.519  -1.386  1.00  0.00     0.154 C 
ATOM     22  H2  UNL     1      30.597  41.229   0.498  1.00  0.00     0.164 HD
BRANCH  19  23
HETATM   23  C2  UNL     1      32.300  43.044   0.392  1.00  0.00     0.122 C 
HETATM   24  C1  UNL     1      33.328  43.269   1.480  1.00  0.00     0.026 C 
ENDBRANCH  19  23
ENDBRANCH   1  17
TORSDOF 5
ENDMDL
MODEL 3
REMARK VINA RESULT: -6.218486023      2.543      5.310
REMARK  5 active torsions:
REMARK  status: ('A' for Active; 'I' for Inactive)
REMARK    1  A    between atoms: C2_2  and  N1_3 
REMARK       I    between atoms: N1_3  and  C4_5 
REMARK       I    between atoms: C4_5  and  N2_7 
REMARK    2  A    between atoms: N2_7  and  C5_9 
REMARK    3  A    between atoms: C8_15  and  N3_16 
REMARK       I    between atoms: N3_16  and  C9_18 
REMARK    4  A    between atoms: C9_18  and  O4_20 
REMARK    5  A    between atoms: O4_20  and  C10_21 
ROOT
HETATM    1  C5  UNL     1      30.127  39.285  -0.466  1.00  0.00     0.138 C 
HETATM    2  C6  UNL     1      30.424  38.246   0.598  1.00  0.00     0.199 C 
HETATM    3  O2  UNL     1      29.232  37.692   0.983  1.00  0.00    -0.348 OA
HETATM    4  C7  UNL     1      28.307  37.911  -0.037  1.00  0.00     0.238 C 
HETATM    5 CL1  UNL     1      28.805  36.914  -1.421  1.00  0.00    -0.068 Cl
HETATM    6 CL2  UNL     1      26.656  37.653   0.450  1.00  0.00    -0.068 Cl
HETATM    7  C8  UNL     1      28.604  39.385  -0.348  1.00  0.00     0.178 C 
ENDROOT
BRANCH   7   8
HETATM    8  N3  UNL     1      28.236  40.136   0.809  1.00  0.00    -0.325 N 
HETATM    9  C9  UNL     1      27.416  41.300   0.775  1.00  0.00     0.361 C 
HETATM   10  O3  UNL     1      27.000  41.675  -0.351  1.00  0.00    -0.238 OA
ATOM     11  H3  UNL     1      28.581  39.819   1.715  1.00  0.00     0.165 HD
BRANCH   9  12
HETATM   12  O4  UNL     1      27.063  42.020   1.878  1.00  0.00    -0.294 OA
BRANCH  12  13
HETATM   13  C10 UNL     1      26.136  41.611   2.860  1.00  0.00     0.061 C 
HETATM   14  C11 UNL     1      26.747  40.680   3.876  1.00  0.00     0.046 C 
HETATM   15  C12 UNL     1      24.921  40.945   2.291  1.00  0.00     0.046 C 
HETATM   16  C13 UNL     1      25.686  42.858   3.607  1.00  0.00     0.046 C 
ENDBRANCH  12  13
ENDBRANCH   9  12
ENDBRANCH   7   8
BRANCH   1  17
HETATM   17  N2  UNL     1      30.776  40.535  -0.223  1.00  0.00    -0.334 N 
HETATM   18  C4  UNL     1      30.816  41.515  -1.219  1.00  0.00     0.318 C 
HETATM   19  N1  UNL     1      31.453  42.752  -0.999  1.00  0.00    -0.339 N 
HETATM   20  O1  UNL     1      30.273  41.289  -2.335  1.00  0.00    -0.247 OA
HETATM   21  C3  UNL     1      31.464  43.774  -2.052  1.00  0.00     0.154 C 
ATOM     22  H2  UNL     1      31.212  40.713   0.682  1.00  0.00     0.164 HD
BRANCH  19  23
HETATM   23  C2  UNL     1      32.094  43.007   0.271  1.00  0.00     0.122 C 
HETATM   24  C1  UNL     1      33.600  43.042   0.128  1.00  0.00     0.026 C 
ENDBRANCH  19  23
ENDBRANCH   1  17
TORSDOF 5
ENDMDL
MODEL 4
REMARK VINA RESULT: -6.152985740      0.985      1.060
REMARK  5 active torsions:
REMARK  status: ('A' for Active; 'I' for Inactive)
REMARK    1  A    between atoms: C2_2  and  N1_3 
REMARK       I    between atoms: N1_3  and  C4_5 
REMARK       I    between atoms: C4_5  and  N2_7 
REMARK    2  A    between atoms: N2_7  and  C5_9 
REMARK    3  A    between atoms: C8_15  and  N3_16 
REMARK       I    between atoms: N3_16  and  C9_18 
REMARK    4  A    between atoms: C9_18  and  O4_20 
REMARK    5  A    between atoms: O4_20  and  C10_21 
ROOT
HETATM    1  C5  UNL     1      27.655  39.288   1.441  1.00  0.00     0.138 C 
HETATM    2  C6  UNL     1      27.595  39.560   2.932  1.00  0.00     0.199 C 
HETATM    3  O2  UNL     1      27.058  40.808   3.106  1.00  0.00    -0.348 OA
HETATM    4  C7  UNL     1      26.346  41.135   1.952  1.00  0.00     0.238 C 
HETATM    5 CL1  UNL     1      24.924  40.071   1.894  1.00  0.00    -0.068 Cl
HETATM    6 CL2  UNL     1      25.957  42.826   1.825  1.00  0.00    -0.068 Cl
HETATM    7  C8  UNL     1      27.354  40.682   0.885  1.00  0.00     0.178 C 
ENDROOT
BRANCH   7   8
HETATM    8  N3  UNL     1      28.495  41.531   1.006  1.00  0.00    -0.325 N 
HETATM    9  C9  UNL     1      29.020  42.316  -0.061  1.00  0.00     0.361 C 
HETATM   10  O3  UNL     1      28.430  42.245  -1.169  1.00  0.00    -0.238 OA
ATOM     11  H3  UNL     1      28.963  41.578   1.910  1.00  0.00     0.165 HD
BRANCH   9  12
HETATM   12  O4  UNL     1      30.110  43.128   0.051  1.00  0.00    -0.294 OA
BRANCH  12  13
HETATM   13  C10 UNL     1      31.403  42.834  -0.430  1.00  0.00     0.061 C 
HETATM   14  C11 UNL     1      31.729  43.581  -1.698  1.00  0.00     0.046 C 
HETATM   15  C12 UNL     1      31.627  41.374  -0.681  1.00  0.00     0.046 C 
HETATM   16  C13 UNL     1      32.396  43.289   0.629  1.00  0.00     0.046 C 
ENDBRANCH  12  13
ENDBRANCH   9  12
ENDBRANCH   7   8
BRANCH   1  17
HETATM   17  N2  UNL     1      28.928  38.794   1.015  1.00  0.00    -0.334 N 
HETATM   18  C4  UNL     1      29.031  38.020  -0.144  1.00  0.00     0.318 C 
HETATM   19  N1  UNL     1      30.276  37.523  -0.579  1.00  0.00    -0.339 N 
HETATM   20  O1  UNL     1      27.994  37.760  -0.814  1.00  0.00    -0.247 OA
HETATM   21  C3  UNL     1      30.364  36.729  -1.811  1.00  0.00     0.154 C 
ATOM     22  H2  UNL     1      29.764  39.008   1.559  1.00  0.00     0.164 HD
BRANCH  19  23
HETATM   23  C2  UNL     1      31.463  37.800   0.196  1.00  0.00     0.122 C 
HETATM   24  C1  UNL     1      32.650  37.013  -0.317  1.00  0.00     0.026 C 
ENDBRANCH  19  23
ENDBRANCH   1  17
TORSDOF 5
ENDMDL
MODEL 5
REMARK VINA RESULT: -6.043274002      1.560      1.880
REMARK  5 active torsions:
REMARK  status: ('A' for Active; 'I' for Inactive)
REMARK    1  A    between atoms: C2_2  and  N1_3 
REMARK       I    between atoms: N1_3  and  C4_5 
REMARK       I    between atoms: C4_5  and  N2_7 
REMARK    2  A    between atoms: N2_7  and  C5_9 
REMARK    3  A    between atoms: C8_15  and  N3_16 
REMARK       I    between atoms: N3_16  and  C9_18 
REMARK    4  A    between atoms: C9_18  and  O4_20 
REMARK    5  A    between atoms: O4_20  and  C10_21 
ROOT
HETATM    1  C5  UNL     1      26.703  39.236   1.529  1.00  0.00     0.138 C 
HETATM    2  C6  UNL     1      27.467  39.383   2.831  1.00  0.00     0.199 C 
HETATM    3  O2  UNL     1      27.223  40.640   3.317  1.00  0.00    -0.348 OA
HETATM    4  C7  UNL     1      26.042  41.103   2.739  1.00  0.00     0.238 C 
HETATM    5 CL1  UNL     1      24.714  40.130   3.407  1.00  0.00    -0.068 Cl
HETATM    6 CL2  UNL     1      25.805  42.818   2.912  1.00  0.00    -0.068 Cl
HETATM    7  C8  UNL     1      26.284  40.687   1.280  1.00  0.00     0.178 C 
ENDROOT
BRANCH   7   8
HETATM    8  N3  UNL     1      27.389  41.457   0.807  1.00  0.00    -0.325 N 
HETATM    9  C9  UNL     1      27.606  41.777  -0.564  1.00  0.00     0.361 C 
HETATM   10  O3  UNL     1      26.765  41.347  -1.393  1.00  0.00    -0.238 OA
ATOM     11  H3  UNL     1      28.063  41.799   1.492  1.00  0.00     0.165 HD
BRANCH   9  12
HETATM   12  O4  UNL     1      28.661  42.512  -1.020  1.00  0.00    -0.294 OA
BRANCH  12  13
HETATM   13  C10 UNL     1      29.859  41.986  -1.548  1.00  0.00     0.061 C 
HETATM   14  C11 UNL     1      29.694  41.485  -2.960  1.00  0.00     0.046 C 
HETATM   15  C12 UNL     1      30.435  40.875  -0.724  1.00  0.00     0.046 C 
HETATM   16  C13 UNL     1      30.874  43.119  -1.587  1.00  0.00     0.046 C 
ENDBRANCH  12  13
ENDBRANCH   9  12
ENDBRANCH   7   8
BRANCH   1  17
HETATM   17  N2  UNL     1      27.503  38.710   0.468  1.00  0.00    -0.334 N 
HETATM   18  C4  UNL     1      26.915  37.953  -0.550  1.00  0.00     0.318 C 
HETATM   19  N1  UNL     1      27.688  37.424  -1.603  1.00  0.00    -0.339 N 
HETATM   20  O1  UNL     1      25.673  37.739  -0.527  1.00  0.00    -0.247 OA
HETATM   21  C3  UNL     1      27.046  36.651  -2.673  1.00  0.00     0.154 C 
ATOM     22  H2  UNL     1      28.508  38.887   0.453  1.00  0.00     0.164 HD
BRANCH  19  23
HETATM   23  C2  UNL     1      29.115  37.650  -1.622  1.00  0.00     0.122 C 
HETATM   24  C1  UNL     1      29.870  36.425  -1.153  1.00  0.00     0.026 C 
ENDBRANCH  19  23
ENDBRANCH   1  17
TORSDOF 5
ENDMDL
