MODEL 1
REMARK VINA RESULT: -7.239548315      0.000      0.000
REMARK  7 active torsions:
REMARK  status: ('A' for Active; 'I' for Inactive)
REMARK    1  A    between atoms: S1_2  and  C2_3 
REMARK    2  A    between atoms: C2_3  and  C3_4 
REMARK    3  A    between atoms: C3_4  and  C4_5 
REMARK    4  A    between atoms: C4_5  and  N1_6 
REMARK    5  A    between atoms: C4_5  and  C12_15 
REMARK    6  A    between atoms: N1_6  and  C5_8 
REMARK       I    between atoms: C12_15  and  N2_17 
REMARK    7  A    between atoms: N2_17  and  C13_19 
ROOT
HETATM    1  C4  UNL     1      17.657   4.447  13.379  1.00  0.00     0.074 C 
ENDROOT
BRANCH   1   2
HETATM    2  C3  UNL     1      17.694   5.853  13.100  1.00  0.00     0.073 C 
BRANCH   2   3
HETATM    3  C2  UNL     1      17.671   6.782  14.298  1.00  0.00     0.079 C 
BRANCH   3   4
HETATM    4  S1  UNL     1      19.174   7.795  14.260  1.00  0.00    -0.173 SA
HETATM    5  C1  UNL     1      19.195   9.058  15.530  1.00  0.00     0.089 C 
ENDBRANCH   3   4
ENDBRANCH   2   3
ENDBRANCH   1   2
BRANCH   1   6
HETATM    6  N1  UNL     1      18.429   3.473  12.720  1.00  0.00    -0.384 N 
ATOM      7  H1  UNL     1      19.393   3.377  13.040  1.00  0.00     0.160 HD
BRANCH   6   8
HETATM    8  C5  UNL     1      18.054   2.645  11.714  1.00  0.00     0.086 C 
HETATM    9  C6  UNL     1      18.819   1.474  11.226  1.00  0.00     0.030 C 
HETATM   10  C7  UNL     1      17.909   0.263  11.478  1.00  0.00    -0.012 C 
HETATM   11  C8  UNL     1      16.854   0.260  10.433  1.00  0.00     0.005 C 
HETATM   12  C11 UNL     1      17.095   0.783  12.675  1.00  0.00     0.011 C 
HETATM   13  C9  UNL     1      16.124   1.589  10.693  1.00  0.00     0.007 C 
HETATM   14  C10 UNL     1      16.648   2.067  12.001  1.00  0.00     0.009 C 
ENDBRANCH   6   8
ENDBRANCH   1   6
BRANCH   1  15
HETATM   15  C12 UNL     1      17.548   3.908  14.766  1.00  0.00     0.264 C 
HETATM   16  O1  UNL     1      18.511   3.789  15.524  1.00  0.00    -0.266 OA
HETATM   17  N2  UNL     1      16.239   3.479  15.204  1.00  0.00    -0.351 N 
ATOM     18  H2  UNL     1      15.460   3.613  14.559  1.00  0.00     0.163 HD
BRANCH  17  19
HETATM   19  C13 UNL     1      15.956   2.894  16.448  1.00  0.00     0.084 C 
HETATM   20  C14 UNL     1      14.494   3.165  16.875  1.00  0.00     0.025 C 
HETATM   21  C15 UNL     1      14.465   2.255  18.110  1.00  0.00     0.002 C 
HETATM   22  C16 UNL     1      15.028   0.976  17.543  1.00  0.00     0.002 C 
HETATM   23  C17 UNL     1      15.942   1.382  16.414  1.00  0.00     0.025 C 
ENDBRANCH  17  19
ENDBRANCH   1  15
TORSDOF 7
ENDMDL
MODEL 2
REMARK VINA RESULT: -7.217731926      1.514      1.846
REMARK  7 active torsions:
REMARK  status: ('A' for Active; 'I' for Inactive)
REMARK    1  A    between atoms: S1_2  and  C2_3 
REMARK    2  A    between atoms: C2_3  and  C3_4 
REMARK    3  A    between atoms: C3_4  and  C4_5 
REMARK    4  A    between atoms: C4_5  and  N1_6 
REMARK    5  A    between atoms: C4_5  and  C12_15 
REMARK    6  A    between atoms: N1_6  and  C5_8 
REMARK       I    between atoms: C12_15  and  N2_17 
REMARK    7  A    between atoms: N2_17  and  C13_19 
ROOT
HETATM    1  C4  UNL     1      17.378   4.379  13.147  1.00  0.00     0.074 C 
ENDROOT
BRANCH   1   2
HETATM    2  C3  UNL     1      17.230   5.750  12.754  1.00  0.00     0.073 C 
BRANCH   2   3
HETATM    3  C2  UNL     1      15.835   6.336  12.850  1.00  0.00     0.079 C 
BRANCH   3   4
HETATM    4  S1  UNL     1      15.605   7.485  11.466  1.00  0.00    -0.173 SA
HETATM    5  C1  UNL     1      14.002   8.283  11.482  1.00  0.00     0.089 C 
ENDBRANCH   3   4
ENDBRANCH   2   3
ENDBRANCH   1   2
BRANCH   1   6
HETATM    6  N1  UNL     1      18.269   3.463  12.561  1.00  0.00    -0.384 N 
ATOM      7  H1  UNL     1      19.222   3.471  12.926  1.00  0.00     0.160 HD
BRANCH   6   8
HETATM    8  C5  UNL     1      18.022   2.569  11.571  1.00  0.00     0.086 C 
HETATM    9  C6  UNL     1      18.922   1.468  11.154  1.00  0.00     0.030 C 
HETATM   10  C7  UNL     1      18.129   0.179  11.414  1.00  0.00    -0.012 C 
HETATM   11  C8  UNL     1      17.124   0.035  10.331  1.00  0.00     0.005 C 
HETATM   12  C11 UNL     1      17.218   0.649  12.561  1.00  0.00     0.011 C 
HETATM   13  C9  UNL     1      16.253   1.288  10.515  1.00  0.00     0.007 C 
HETATM   14  C10 UNL     1      16.671   1.860  11.825  1.00  0.00     0.009 C 
ENDBRANCH   6   8
ENDBRANCH   1   6
BRANCH   1  15
HETATM   15  C12 UNL     1      17.343   3.948  14.575  1.00  0.00     0.264 C 
HETATM   16  O1  UNL     1      18.305   4.051  15.337  1.00  0.00    -0.266 OA
HETATM   17  N2  UNL     1      16.117   3.350  15.053  1.00  0.00    -0.351 N 
ATOM     18  H2  UNL     1      15.333   3.301  14.401  1.00  0.00     0.163 HD
BRANCH  17  19
HETATM   19  C13 UNL     1      15.920   2.832  16.342  1.00  0.00     0.084 C 
HETATM   20  C14 UNL     1      14.493   3.138  16.856  1.00  0.00     0.025 C 
HETATM   21  C15 UNL     1      14.548   2.294  18.136  1.00  0.00     0.002 C 
HETATM   22  C16 UNL     1      15.063   0.982  17.598  1.00  0.00     0.002 C 
HETATM   23  C17 UNL     1      15.896   1.321  16.389  1.00  0.00     0.025 C 
ENDBRANCH  17  19
ENDBRANCH   1  15
TORSDOF 7
ENDMDL
MODEL 3
REMARK VINA RESULT: -7.188222135      1.853      2.375
REMARK  7 active torsions:
REMARK  status: ('A' for Active; 'I' for Inactive)
REMARK    1  A    between atoms: S1_2  and  C2_3 
REMARK    2  A    between atoms: C2_3  and  C3_4 
REMARK    3  A    between atoms: C3_4  and  C4_5 
REMARK    4  A    between atoms: C4_5  and  N1_6 
REMARK    5  A    between atoms: C4_5  and  C12_15 
REMARK    6  A    between atoms: N1_6  and  C5_8 
REMARK       I    between atoms: C12_15  and  N2_17 
REMARK    7  A    between atoms: N2_17  and  C13_19 
ROOT
HETATM    1  C4  UNL     1      16.826   4.213  12.870  1.00  0.00     0.074 C 
ENDROOT
BRANCH   1   2
HETATM    2  C3  UNL     1      17.580   5.266  12.255  1.00  0.00     0.073 C 
BRANCH   2   3
HETATM    3  C2  UNL     1      17.704   5.218  10.745  1.00  0.00     0.079 C 
BRANCH   3   4
HETATM    4  S1  UNL     1      19.424   4.822  10.330  1.00  0.00    -0.173 SA
HETATM    5  C1  UNL     1      20.313   4.067  11.689  1.00  0.00     0.089 C 
ENDBRANCH   3   4
ENDBRANCH   2   3
ENDBRANCH   1   2
BRANCH   1   6
HETATM    6  N1  UNL     1      16.534   2.974  12.272  1.00  0.00    -0.384 N 
ATOM      7  H1  UNL     1      15.638   2.914  11.787  1.00  0.00     0.160 HD
BRANCH   6   8
HETATM    8  C5  UNL     1      17.292   1.849  12.257  1.00  0.00     0.086 C 
HETATM    9  C6  UNL     1      16.921   0.548  12.860  1.00  0.00     0.030 C 
HETATM   10  C7  UNL     1      16.871  -0.441  11.686  1.00  0.00    -0.012 C 
HETATM   11  C8  UNL     1      18.267  -0.783  11.317  1.00  0.00     0.005 C 
HETATM   12  C11 UNL     1      16.521   0.522  10.538  1.00  0.00     0.011 C 
HETATM   13  C9  UNL     1      18.844   0.578  10.893  1.00  0.00     0.007 C 
HETATM   14  C10 UNL     1      17.665   1.484  10.802  1.00  0.00     0.009 C 
ENDBRANCH   6   8
ENDBRANCH   1   6
BRANCH   1  15
HETATM   15  C12 UNL     1      16.968   3.863  14.314  1.00  0.00     0.264 C 
HETATM   16  O1  UNL     1      18.018   4.001  14.943  1.00  0.00    -0.266 OA
HETATM   17  N2  UNL     1      15.810   3.304  14.973  1.00  0.00    -0.351 N 
ATOM     18  H2  UNL     1      14.951   3.224  14.428  1.00  0.00     0.163 HD
BRANCH  17  19
HETATM   19  C13 UNL     1      15.774   2.862  16.305  1.00  0.00     0.084 C 
HETATM   20  C14 UNL     1      14.404   3.162  16.958  1.00  0.00     0.025 C 
HETATM   21  C15 UNL     1      14.628   2.400  18.271  1.00  0.00     0.002 C 
HETATM   22  C16 UNL     1      15.123   1.072  17.756  1.00  0.00     0.002 C 
HETATM   23  C17 UNL     1      15.806   1.356  16.442  1.00  0.00     0.025 C 
ENDBRANCH  17  19
ENDBRANCH   1  15
TORSDOF 7
ENDMDL
MODEL 4
REMARK VINA RESULT: -7.098987080      0.766      1.286
REMARK  7 active torsions:
REMARK  status: ('A' for Active; 'I' for Inactive)
REMARK    1  A    between atoms: S1_2  and  C2_3 
REMARK    2  A    between atoms: C2_3  and  C3_4 
REMARK    3  A    between atoms: C3_4  and  C4_5 
REMARK    4  A    between atoms: C4_5  and  N1_6 
REMARK    5  A    between atoms: C4_5  and  C12_15 
REMARK    6  A    between atoms: N1_6  and  C5_8 
REMARK       I    between atoms: C12_15  and  N2_17 
REMARK    7  A    between atoms: N2_17  and  C13_19 
ROOT
HETATM    1  C4  UNL     1      16.952   4.424  13.074  1.00  0.00     0.074 C 
ENDROOT
BRANCH   1   2
HETATM    2  C3  UNL     1      17.734   5.512  12.563  1.00  0.00     0.073 C 
BRANCH   2   3
HETATM    3  C2  UNL     1      17.594   6.841  13.278  1.00  0.00     0.079 C 
BRANCH   3   4
HETATM    4  S1  UNL     1      19.205   7.275  13.988  1.00  0.00    -0.173 SA
HETATM    5  C1  UNL     1      19.130   8.708  15.060  1.00  0.00     0.089 C 
ENDBRANCH   3   4
ENDBRANCH   2   3
ENDBRANCH   1   2
BRANCH   1   6
HETATM    6  N1  UNL     1      16.648   3.246  12.368  1.00  0.00    -0.384 N 
ATOM      7  H1  UNL     1      15.776   3.255  11.840  1.00  0.00     0.160 HD
BRANCH   6   8
HETATM    8  C5  UNL     1      17.369   2.099  12.301  1.00  0.00     0.086 C 
HETATM    9  C6  UNL     1      16.970   0.790  12.869  1.00  0.00     0.030 C 
HETATM   10  C7  UNL     1      16.863  -0.157  11.665  1.00  0.00    -0.012 C 
HETATM   11  C8  UNL     1      18.239  -0.531  11.255  1.00  0.00     0.005 C 
HETATM   12  C11 UNL     1      16.521   0.854  10.557  1.00  0.00     0.011 C 
HETATM   13  C9  UNL     1      18.851   0.825  10.863  1.00  0.00     0.007 C 
HETATM   14  C10 UNL     1      17.700   1.770  10.826  1.00  0.00     0.009 C 
ENDBRANCH   6   8
ENDBRANCH   1   6
BRANCH   1  15
HETATM   15  C12 UNL     1      17.064   3.951  14.485  1.00  0.00     0.264 C 
HETATM   16  O1  UNL     1      18.122   3.946  15.115  1.00  0.00    -0.266 OA
HETATM   17  N2  UNL     1      15.861   3.447  15.108  1.00  0.00    -0.351 N 
ATOM     18  H2  UNL     1      14.998   3.487  14.565  1.00  0.00     0.163 HD
BRANCH  17  19
HETATM   19  C13 UNL     1      15.787   2.907  16.401  1.00  0.00     0.084 C 
HETATM   20  C14 UNL     1      14.397   3.156  17.034  1.00  0.00     0.025 C 
HETATM   21  C15 UNL     1      14.585   2.298  18.292  1.00  0.00     0.002 C 
HETATM   22  C16 UNL     1      15.099   1.012  17.695  1.00  0.00     0.002 C 
HETATM   23  C17 UNL     1      15.820   1.395  16.427  1.00  0.00     0.025 C 
ENDBRANCH  17  19
ENDBRANCH   1  15
TORSDOF 7
ENDMDL
MODEL 5
REMARK VINA RESULT: -7.033537121      1.488      5.151
REMARK  7 active torsions:
REMARK  status: ('A' for Active; 'I' for Inactive)
REMARK    1  A    between atoms: S1_2  and  C2_3 
REMARK    2  A    between atoms: C2_3  and  C3_4 
REMARK    3  A    between atoms: C3_4  and  C4_5 
REMARK    4  A    between atoms: C4_5  and  N1_6 
REMARK    5  A    between atoms: C4_5  and  C12_15 
REMARK    6  A    between atoms: N1_6  and  C5_8 
REMARK       I    between atoms: C12_15  and  N2_17 
REMARK    7  A    between atoms: N2_17  and  C13_19 
ROOT
HETATM    1  C4  UNL     1      17.064   4.410  14.623  1.00  0.00     0.074 C 
ENDROOT
BRANCH   1   2
HETATM    2  C3  UNL     1      16.844   5.826  14.687  1.00  0.00     0.073 C 
BRANCH   2   3
HETATM    3  C2  UNL     1      17.523   6.666  13.623  1.00  0.00     0.079 C 
BRANCH   3   4
HETATM    4  S1  UNL     1      19.305   6.340  13.695  1.00  0.00    -0.173 SA
HETATM    5  C1  UNL     1      19.891   5.361  12.316  1.00  0.00     0.089 C 
ENDBRANCH   3   4
ENDBRANCH   2   3
ENDBRANCH   1   2
BRANCH   1   6
HETATM    6  N1  UNL     1      16.872   3.514  15.690  1.00  0.00    -0.384 N 
ATOM      7  H1  UNL     1      17.587   3.528  16.418  1.00  0.00     0.160 HD
BRANCH   6   8
HETATM    8  C5  UNL     1      15.856   2.635  15.875  1.00  0.00     0.086 C 
HETATM    9  C6  UNL     1      15.990   1.253  16.391  1.00  0.00     0.030 C 
HETATM   10  C7  UNL     1      15.176   1.227  17.693  1.00  0.00    -0.012 C 
HETATM   11  C8  UNL     1      13.738   1.165  17.331  1.00  0.00     0.005 C 
HETATM   12  C11 UNL     1      15.282   2.705  18.106  1.00  0.00     0.011 C 
HETATM   13  C9  UNL     1      13.532   2.476  16.554  1.00  0.00     0.007 C 
HETATM   14  C10 UNL     1      14.775   3.262  16.788  1.00  0.00     0.009 C 
ENDBRANCH   6   8
ENDBRANCH   1   6
BRANCH   1  15
HETATM   15  C12 UNL     1      16.695   3.595  13.429  1.00  0.00     0.264 C 
HETATM   16  O1  UNL     1      15.653   3.760  12.793  1.00  0.00    -0.266 OA
HETATM   17  N2  UNL     1      17.606   2.542  13.043  1.00  0.00    -0.351 N 
ATOM     18  H2  UNL     1      18.470   2.447  13.579  1.00  0.00     0.163 HD
BRANCH  17  19
HETATM   19  C13 UNL     1      17.397   1.639  11.989  1.00  0.00     0.084 C 
HETATM   20  C14 UNL     1      18.724   1.303  11.268  1.00  0.00     0.025 C 
HETATM   21  C15 UNL     1      18.189   0.190  10.356  1.00  0.00     0.002 C 
HETATM   22  C16 UNL     1      17.446  -0.668  11.349  1.00  0.00     0.002 C 
HETATM   23  C17 UNL     1      16.992   0.257  12.449  1.00  0.00     0.025 C 
ENDBRANCH  17  19
ENDBRANCH   1  15
TORSDOF 7
ENDMDL
