MODEL 1
REMARK VINA RESULT: -7.144000788      0.000      0.000
REMARK  2 active torsions:
REMARK  status: ('A' for Active; 'I' for Inactive)
REMARK    1  A    between atoms: C4_6  and  N1_7 
REMARK    2  A    between atoms: N1_7  and  C5_10 
ROOT
HETATM    1  N1  UNL     1      17.495   2.152  15.139  1.00  0.00    -0.066 N 
ATOM      2  H11 UNL     1      18.137   1.404  15.401  1.00  0.00     0.278 HD
ATOM      3  H12 UNL     1      18.190   2.870  14.932  1.00  0.00     0.278 HD
ENDROOT
BRANCH   1   4
HETATM    4  C4  UNL     1      16.618   2.530  16.225  1.00  0.00     0.192 C 
HETATM    5  C3  UNL     1      15.444   3.362  15.742  1.00  0.00     0.039 C 
HETATM    6  C2  UNL     1      14.503   3.268  16.927  1.00  0.00     0.081 C 
HETATM    7  C1  UNL     1      14.783   1.924  17.580  1.00  0.00     0.245 C 
HETATM    8  F1  UNL     1      13.645   1.132  17.613  1.00  0.00    -0.206 F 
HETATM    9  F2  UNL     1      15.297   2.144  18.847  1.00  0.00    -0.206 F 
HETATM   10  C12 UNL     1      15.870   1.294  16.743  1.00  0.00     0.112 C 
ENDBRANCH   1   4
BRANCH   1  11
HETATM   11  C5  UNL     1      16.689   1.808  13.971  1.00  0.00     0.188 C 
HETATM   12  C6  UNL     1      17.340   2.346  12.712  1.00  0.00     0.042 C 
HETATM   13  C7  UNL     1      17.425   0.961  12.210  1.00  0.00    -0.037 C 
HETATM   14  C8  UNL     1      16.710   0.604  10.946  1.00  0.00     0.010 C 
HETATM   15  C10 UNL     1      18.689   0.479  11.606  1.00  0.00     0.010 C 
HETATM   16  C11 UNL     1      16.955   0.378  13.481  1.00  0.00     0.042 C 
HETATM   17  C9  UNL     1      18.056   0.802  10.248  1.00  0.00     0.002 C 
ENDBRANCH   1  11
TORSDOF 2
ENDMDL
MODEL 2
REMARK VINA RESULT: -6.869908337      1.149      1.335
REMARK  2 active torsions:
REMARK  status: ('A' for Active; 'I' for Inactive)
REMARK    1  A    between atoms: C4_6  and  N1_7 
REMARK    2  A    between atoms: N1_7  and  C5_10 
ROOT
HETATM    1  N1  UNL     1      17.382   2.117  15.268  1.00  0.00    -0.066 N 
ATOM      2  H11 UNL     1      17.562   1.113  15.238  1.00  0.00     0.278 HD
ATOM      3  H12 UNL     1      18.342   2.430  15.412  1.00  0.00     0.278 HD
ENDROOT
BRANCH   1   4
HETATM    4  C4  UNL     1      16.512   2.487  16.363  1.00  0.00     0.192 C 
HETATM    5  C3  UNL     1      15.339   3.328  15.894  1.00  0.00     0.039 C 
HETATM    6  C2  UNL     1      14.403   3.225  17.083  1.00  0.00     0.081 C 
HETATM    7  C1  UNL     1      14.681   1.874  17.720  1.00  0.00     0.245 C 
HETATM    8  F1  UNL     1      13.540   1.085  17.751  1.00  0.00    -0.206 F 
HETATM    9  F2  UNL     1      15.202   2.079  18.987  1.00  0.00    -0.206 F 
HETATM   10  C12 UNL     1      15.762   1.248  16.872  1.00  0.00     0.112 C 
ENDBRANCH   1   4
BRANCH   1  11
HETATM   11  C5  UNL     1      16.817   2.617  14.018  1.00  0.00     0.188 C 
HETATM   12  C6  UNL     1      17.784   3.581  13.360  1.00  0.00     0.042 C 
HETATM   13  C7  UNL     1      17.820   2.684  12.188  1.00  0.00    -0.037 C 
HETATM   14  C8  UNL     1      17.364   3.204  10.863  1.00  0.00     0.010 C 
HETATM   15  C10 UNL     1      19.124   2.333  11.577  1.00  0.00     0.010 C 
HETATM   16  C11 UNL     1      17.022   1.638  12.854  1.00  0.00     0.042 C 
HETATM   17  C9  UNL     1      18.843   3.446  10.561  1.00  0.00     0.002 C 
ENDBRANCH   1  11
TORSDOF 2
ENDMDL
MODEL 3
REMARK VINA RESULT: -6.644621013      3.451      6.146
REMARK  2 active torsions:
REMARK  status: ('A' for Active; 'I' for Inactive)
REMARK    1  A    between atoms: C4_6  and  N1_7 
REMARK    2  A    between atoms: N1_7  and  C5_10 
ROOT
HETATM    1  N1  UNL     1      16.372   2.676  13.404  1.00  0.00    -0.066 N 
ATOM      2  H11 UNL     1      15.359   2.609  13.304  1.00  0.00     0.278 HD
ATOM      3  H12 UNL     1      16.493   3.612  13.018  1.00  0.00     0.278 HD
ENDROOT
BRANCH   1   4
HETATM    4  C4  UNL     1      17.067   1.669  12.633  1.00  0.00     0.192 C 
HETATM    5  C3  UNL     1      16.330   1.328  11.350  1.00  0.00     0.039 C 
HETATM    6  C2  UNL     1      17.413   0.615  10.563  1.00  0.00     0.081 C 
HETATM    7  C1  UNL     1      18.731   1.220  11.019  1.00  0.00     0.245 C 
HETATM    8  F1  UNL     1      19.422   1.782   9.956  1.00  0.00    -0.206 F 
HETATM    9  F2  UNL     1      19.472   0.241  11.658  1.00  0.00    -0.206 F 
HETATM   10  C12 UNL     1      18.356   2.261  12.047  1.00  0.00     0.112 C 
ENDBRANCH   1   4
BRANCH   1  11
HETATM   11  C5  UNL     1      16.799   2.590  14.797  1.00  0.00     0.188 C 
HETATM   12  C6  UNL     1      15.802   3.302  15.691  1.00  0.00     0.042 C 
HETATM   13  C7  UNL     1      15.580   2.023  16.395  1.00  0.00    -0.037 C 
HETATM   14  C8  UNL     1      15.892   1.937  17.855  1.00  0.00     0.010 C 
HETATM   15  C10 UNL     1      14.196   1.581  16.686  1.00  0.00     0.010 C 
HETATM   16  C11 UNL     1      16.407   1.255  15.446  1.00  0.00     0.042 C 
HETATM   17  C9  UNL     1      14.398   2.174  18.084  1.00  0.00     0.002 C 
ENDBRANCH   1  11
TORSDOF 2
ENDMDL
MODEL 4
REMARK VINA RESULT: -6.589100772      3.097      4.465
REMARK  2 active torsions:
REMARK  status: ('A' for Active; 'I' for Inactive)
REMARK    1  A    between atoms: C4_6  and  N1_7 
REMARK    2  A    between atoms: N1_7  and  C5_10 
ROOT
HETATM    1  N1  UNL     1      15.845   3.612  14.613  1.00  0.00    -0.066 N 
ATOM      2  H11 UNL     1      15.057   3.982  14.082  1.00  0.00     0.278 HD
ATOM      3  H12 UNL     1      16.370   3.214  13.834  1.00  0.00     0.278 HD
ENDROOT
BRANCH   1   4
HETATM    4  C4  UNL     1      15.439   2.608  15.572  1.00  0.00     0.192 C 
HETATM    5  C3  UNL     1      16.625   2.023  16.317  1.00  0.00     0.039 C 
HETATM    6  C2  UNL     1      15.940   1.354  17.492  1.00  0.00     0.081 C 
HETATM    7  C1  UNL     1      14.684   2.166  17.765  1.00  0.00     0.245 C 
HETATM    8  F1  UNL     1      14.680   2.671  19.057  1.00  0.00    -0.206 F 
HETATM    9  F2  UNL     1      13.578   1.371  17.516  1.00  0.00    -0.206 F 
HETATM   10  C12 UNL     1      14.697   3.274  16.739  1.00  0.00     0.112 C 
ENDBRANCH   1   4
BRANCH   1  11
HETATM   11  C5  UNL     1      16.589   4.661  15.305  1.00  0.00     0.188 C 
HETATM   12  C6  UNL     1      17.817   5.042  14.503  1.00  0.00     0.042 C 
HETATM   13  C7  UNL     1      17.289   6.419  14.423  1.00  0.00    -0.037 C 
HETATM   14  C8  UNL     1      18.087   7.536  15.014  1.00  0.00     0.010 C 
HETATM   15  C10 UNL     1      17.298   7.129  13.123  1.00  0.00     0.010 C 
HETATM   16  C11 UNL     1      16.003   6.056  15.047  1.00  0.00     0.042 C 
HETATM   17  C9  UNL     1      18.599   7.788  13.595  1.00  0.00     0.002 C 
ENDBRANCH   1  11
TORSDOF 2
ENDMDL
MODEL 5
REMARK VINA RESULT: -6.516968823      0.916      1.900
REMARK  2 active torsions:
REMARK  status: ('A' for Active; 'I' for Inactive)
REMARK    1  A    between atoms: C4_6  and  N1_7 
REMARK    2  A    between atoms: N1_7  and  C5_10 
ROOT
HETATM    1  N1  UNL     1      16.142   3.220  14.503  1.00  0.00    -0.066 N 
ATOM      2  H11 UNL     1      16.307   4.172  14.830  1.00  0.00     0.278 HD
ATOM      3  H12 UNL     1      15.446   3.433  13.788  1.00  0.00     0.278 HD
ENDROOT
BRANCH   1   4
HETATM    4  C4  UNL     1      15.617   2.365  15.544  1.00  0.00     0.192 C 
HETATM    5  C3  UNL     1      16.706   1.884  16.485  1.00  0.00     0.039 C 
HETATM    6  C2  UNL     1      15.888   1.392  17.663  1.00  0.00     0.081 C 
HETATM    7  C1  UNL     1      14.629   2.242  17.684  1.00  0.00     0.245 C 
HETATM    8  F1  UNL     1      14.499   2.924  18.885  1.00  0.00    -0.206 F 
HETATM    9  F2  UNL     1      13.538   1.426  17.433  1.00  0.00    -0.206 F 
HETATM   10  C12 UNL     1      14.771   3.193  16.521  1.00  0.00     0.112 C 
ENDBRANCH   1   4
BRANCH   1  11
HETATM   11  C5  UNL     1      17.344   2.609  13.943  1.00  0.00     0.188 C 
HETATM   12  C6  UNL     1      17.012   1.253  13.354  1.00  0.00     0.042 C 
HETATM   13  C7  UNL     1      17.483   1.750  12.045  1.00  0.00    -0.037 C 
HETATM   14  C8  UNL     1      18.637   1.067  11.385  1.00  0.00     0.010 C 
HETATM   15  C10 UNL     1      16.669   1.499  10.833  1.00  0.00     0.010 C 
HETATM   16  C11 UNL     1      17.659   3.130  12.534  1.00  0.00     0.042 C 
HETATM   17  C9  UNL     1      17.590   0.303  10.572  1.00  0.00     0.002 C 
ENDBRANCH   1  11
TORSDOF 2
ENDMDL
