MODEL 1
REMARK VINA RESULT: -7.781530626      0.000      0.000
REMARK  9 active torsions:
REMARK  status: ('A' for Active; 'I' for Inactive)
REMARK    1  A    between atoms: N1_2  and  C2_4 
REMARK    2  A    between atoms: C3_7  and  N3_8 
REMARK    3  A    between atoms: C6_13  and  N5_14 
REMARK    4  A    between atoms: N5_14  and  C7_16 
REMARK    5  A    between atoms: C9_18  and  C10_19 
REMARK    6  A    between atoms: C10_19  and  C11_20 
REMARK    7  A    between atoms: C16_25  and  O1_26 
REMARK    8  A    between atoms: C17_28  and  O2_29 
REMARK    9  A    between atoms: C18_31  and  C19_32 
ROOT
HETATM    1  C7  UNL     1      -4.619   5.586  14.168  1.00  0.00     0.050 A 
HETATM    2  C8  UNL     1      -5.187   5.871  12.945  1.00  0.00     0.040 A 
HETATM    3  C9  UNL     1      -4.658   6.847  12.094  1.00  0.00    -0.022 A 
HETATM    4  C17 UNL     1      -3.539   7.505  12.542  1.00  0.00     0.079 A 
HETATM    5  C18 UNL     1      -2.963   7.218  13.781  1.00  0.00    -0.014 A 
HETATM    6  C23 UNL     1      -3.493   6.263  14.600  1.00  0.00     0.040 A 
ENDROOT
BRANCH   1   7
HETATM    7  N5  UNL     1      -5.177   4.596  15.004  1.00  0.00    -0.191 N 
ATOM      8  H5  UNL     1      -5.825   4.896  15.732  1.00  0.00     0.184 HD
BRANCH   7   9
HETATM    9  C6  UNL     1      -4.925   3.350  14.909  1.00  0.00     0.711 A 
HETATM   10  N4  UNL     1      -4.501   2.860  13.727  1.00  0.00    -0.021 N 
HETATM   11  C3  UNL     1      -4.216   1.557  13.551  1.00  0.00     0.708 A 
ATOM     12  H4  UNL     1      -4.393   3.498  12.939  1.00  0.00     0.203 HD
HETATM   13  N2  UNL     1      -4.353   0.710  14.571  1.00  0.00    -0.021 N 
HETATM   14  C2  UNL     1      -4.776   1.179  15.765  1.00  0.00     0.706 A 
ATOM     15  H2  UNL     1      -4.140  -0.280  14.451  1.00  0.00     0.203 HD
HETATM   16  N6  UNL     1      -5.058   2.478  15.931  1.00  0.00    -0.021 N 
ATOM     17  H6  UNL     1      -5.377   2.812  16.840  1.00  0.00     0.203 HD
BRANCH  11  18
HETATM   18  N3  UNL     1      -3.773   1.080  12.287  1.00  0.00    -0.225 N 
HETATM   19  C4  UNL     1      -4.288  -0.167  11.758  1.00  0.00     0.168 C 
HETATM   20  C5  UNL     1      -2.796   1.841  11.511  1.00  0.00     0.168 C 
ENDBRANCH  11  18
BRANCH  14  21
HETATM   21  N1  UNL     1      -4.913   0.383  16.762  1.00  0.00    -0.229 N 
HETATM   22  C1  UNL     1      -6.015   0.472  17.694  1.00  0.00     0.165 C 
ATOM     23  H1  UNL     1      -4.214  -0.347  16.902  1.00  0.00     0.177 HD
ENDBRANCH  14  21
ENDBRANCH   7   9
ENDBRANCH   1   7
BRANCH   3  24
HETATM   24  C10 UNL     1      -5.267   7.171  10.786  1.00  0.00     0.048 C 
BRANCH  24  25
HETATM   25  C11 UNL     1      -6.293   8.270  10.816  1.00  0.00     0.019 C 
HETATM   26  C12 UNL     1      -7.557   7.815  10.175  1.00  0.00     0.007 C 
HETATM   27  C13 UNL     1      -7.569   8.163   8.690  1.00  0.00     0.001 C 
HETATM   28  C14 UNL     1      -7.682   9.650   8.582  1.00  0.00     0.002 C 
HETATM   29  C15 UNL     1      -6.707  10.344   9.467  1.00  0.00     0.032 C 
HETATM   30  C16 UNL     1      -5.694   9.479  10.132  1.00  0.00     0.122 C 
BRANCH  30  31
HETATM   31  O1  UNL     1      -4.676   9.054   9.294  1.00  0.00    -0.395 OA
ATOM     32  H1  UNL     1      -4.076   9.777   9.153  1.00  0.00     0.210 HD
ENDBRANCH  30  31
ENDBRANCH  24  25
ENDBRANCH   3  24
BRANCH   5  33
HETATM   33  C19 UNL     1      -1.747   8.011  14.140  1.00  0.00    -0.014 A 
HETATM   34  C20 UNL     1      -0.462   7.479  13.598  1.00  0.00     0.020 C 
HETATM   35  C21 UNL     1      -1.689   8.374  15.630  1.00  0.00     0.015 A 
HETATM   36  C22 UNL     1      -1.888   9.417  14.577  1.00  0.00     0.015 A 
ENDBRANCH   5  33
BRANCH   4  37
HETATM   37  O2  UNL     1      -2.943   8.480  11.766  1.00  0.00    -0.360 OA
ATOM     38  H2  UNL     1      -1.998   8.573  11.752  1.00  0.00     0.217 HD
ENDBRANCH   4  37
TORSDOF 9
ENDMDL
MODEL 2
REMARK VINA RESULT: -7.652648475      1.120      1.531
REMARK  9 active torsions:
REMARK  status: ('A' for Active; 'I' for Inactive)
REMARK    1  A    between atoms: N1_2  and  C2_4 
REMARK    2  A    between atoms: C3_7  and  N3_8 
REMARK    3  A    between atoms: C6_13  and  N5_14 
REMARK    4  A    between atoms: N5_14  and  C7_16 
REMARK    5  A    between atoms: C9_18  and  C10_19 
REMARK    6  A    between atoms: C10_19  and  C11_20 
REMARK    7  A    between atoms: C16_25  and  O1_26 
REMARK    8  A    between atoms: C17_28  and  O2_29 
REMARK    9  A    between atoms: C18_31  and  C19_32 
ROOT
HETATM    1  C7  UNL     1      -4.930   5.490  14.050  1.00  0.00     0.050 A 
HETATM    2  C8  UNL     1      -5.622   5.986  12.966  1.00  0.00     0.040 A 
HETATM    3  C9  UNL     1      -5.099   7.000  12.157  1.00  0.00    -0.022 A 
HETATM    4  C17 UNL     1      -3.857   7.474  12.500  1.00  0.00     0.079 A 
HETATM    5  C18 UNL     1      -3.155   6.973  13.599  1.00  0.00    -0.014 A 
HETATM    6  C23 UNL     1      -3.681   5.984  14.378  1.00  0.00     0.040 A 
ENDROOT
BRANCH   1   7
HETATM    7  N5  UNL     1      -5.486   4.466  14.846  1.00  0.00    -0.191 N 
ATOM      8  H5  UNL     1      -6.217   4.722  15.510  1.00  0.00     0.184 HD
BRANCH   7   9
HETATM    9  C6  UNL     1      -5.134   3.242  14.792  1.00  0.00     0.711 A 
HETATM   10  N4  UNL     1      -4.667   2.750  13.627  1.00  0.00    -0.021 N 
HETATM   11  C3  UNL     1      -4.276   1.470  13.494  1.00  0.00     0.708 A 
ATOM     12  H4  UNL     1      -4.607   3.370  12.819  1.00  0.00     0.203 HD
HETATM   13  N2  UNL     1      -4.348   0.648  14.540  1.00  0.00    -0.021 N 
HETATM   14  C2  UNL     1      -4.813   1.119  15.718  1.00  0.00     0.706 A 
ATOM     15  H2  UNL     1      -4.056  -0.325  14.453  1.00  0.00     0.203 HD
HETATM   16  N6  UNL     1      -5.199   2.396  15.842  1.00  0.00    -0.021 N 
ATOM     17  H6  UNL     1      -5.548   2.732  16.739  1.00  0.00     0.203 HD
BRANCH  11  18
HETATM   18  N3  UNL     1      -3.791   0.991  12.246  1.00  0.00    -0.225 N 
HETATM   19  C4  UNL     1      -4.326  -0.231  11.679  1.00  0.00     0.168 C 
HETATM   20  C5  UNL     1      -2.752   1.722  11.527  1.00  0.00     0.168 C 
ENDBRANCH  11  18
BRANCH  14  21
HETATM   21  N1  UNL     1      -4.889   0.347  16.740  1.00  0.00    -0.229 N 
HETATM   22  C1  UNL     1      -5.991   0.386  17.675  1.00  0.00     0.165 C 
ATOM     23  H1  UNL     1      -4.139  -0.326  16.899  1.00  0.00     0.177 HD
ENDBRANCH  14  21
ENDBRANCH   7   9
ENDBRANCH   1   7
BRANCH   3  24
HETATM   24  C10 UNL     1      -5.838   7.550  11.000  1.00  0.00     0.048 C 
BRANCH  24  25
HETATM   25  C11 UNL     1      -5.982   6.614   9.832  1.00  0.00     0.019 C 
HETATM   26  C12 UNL     1      -4.761   6.654   8.982  1.00  0.00     0.007 C 
HETATM   27  C13 UNL     1      -4.905   7.687   7.871  1.00  0.00     0.001 C 
HETATM   28  C14 UNL     1      -5.933   7.174   6.915  1.00  0.00     0.002 C 
HETATM   29  C15 UNL     1      -7.161   6.712   7.620  1.00  0.00     0.032 C 
HETATM   30  C16 UNL     1      -7.233   7.010   9.076  1.00  0.00     0.122 C 
BRANCH  30  31
HETATM   31  O1  UNL     1      -7.526   8.331   9.369  1.00  0.00    -0.395 OA
ATOM     32  H1  UNL     1      -8.395   8.530   9.040  1.00  0.00     0.210 HD
ENDBRANCH  30  31
ENDBRANCH  24  25
ENDBRANCH   3  24
BRANCH   5  33
HETATM   33  C19 UNL     1      -1.814   7.582  13.855  1.00  0.00    -0.014 A 
HETATM   34  C20 UNL     1      -0.659   6.835  13.274  1.00  0.00     0.020 C 
HETATM   35  C21 UNL     1      -1.614   7.993  15.320  1.00  0.00     0.015 A 
HETATM   36  C22 UNL     1      -1.712   9.010  14.228  1.00  0.00     0.015 A 
ENDBRANCH   5  33
BRANCH   4  37
HETATM   37  O2  UNL     1      -3.259   8.471  11.755  1.00  0.00    -0.360 OA
ATOM     38  H2  UNL     1      -3.173   8.383  10.813  1.00  0.00     0.217 HD
ENDBRANCH   4  37
TORSDOF 9
ENDMDL
MODEL 3
REMARK VINA RESULT: -7.651124200      3.544      7.193
REMARK  9 active torsions:
REMARK  status: ('A' for Active; 'I' for Inactive)
REMARK    1  A    between atoms: N1_2  and  C2_4 
REMARK    2  A    between atoms: C3_7  and  N3_8 
REMARK    3  A    between atoms: C6_13  and  N5_14 
REMARK    4  A    between atoms: N5_14  and  C7_16 
REMARK    5  A    between atoms: C9_18  and  C10_19 
REMARK    6  A    between atoms: C10_19  and  C11_20 
REMARK    7  A    between atoms: C16_25  and  O1_26 
REMARK    8  A    between atoms: C17_28  and  O2_29 
REMARK    9  A    between atoms: C18_31  and  C19_32 
ROOT
HETATM    1  C7  UNL     1      -2.842   6.763  12.827  1.00  0.00     0.050 A 
HETATM    2  C8  UNL     1      -3.178   5.971  13.904  1.00  0.00     0.040 A 
HETATM    3  C9  UNL     1      -4.497   5.570  14.145  1.00  0.00    -0.022 A 
HETATM    4  C17 UNL     1      -5.439   6.008  13.248  1.00  0.00     0.079 A 
HETATM    5  C18 UNL     1      -5.101   6.811  12.156  1.00  0.00    -0.014 A 
HETATM    6  C23 UNL     1      -3.810   7.193  11.937  1.00  0.00     0.040 A 
ENDROOT
BRANCH   1   7
HETATM    7  N5  UNL     1      -1.502   7.148  12.612  1.00  0.00    -0.191 N 
ATOM      8  H5  UNL     1      -1.269   8.137  12.711  1.00  0.00     0.184 HD
BRANCH   7   9
HETATM    9  C6  UNL     1      -0.563   6.344  12.302  1.00  0.00     0.711 A 
HETATM   10  N4  UNL     1       0.709   6.690  12.582  1.00  0.00    -0.021 N 
HETATM   11  C3  UNL     1       1.752   5.893  12.284  1.00  0.00     0.708 A 
ATOM     12  H4  UNL     1       0.888   7.586  13.034  1.00  0.00     0.203 HD
HETATM   13  N2  UNL     1       1.533   4.719  11.693  1.00  0.00    -0.021 N 
HETATM   14  C2  UNL     1       0.266   4.351  11.404  1.00  0.00     0.706 A 
ATOM     15  H2  UNL     1       2.314   4.105  11.462  1.00  0.00     0.203 HD
HETATM   16  N6  UNL     1      -0.766   5.151  11.704  1.00  0.00    -0.021 N 
ATOM     17  H6  UNL     1      -1.715   4.856  11.477  1.00  0.00     0.203 HD
BRANCH  11  18
HETATM   18  N3  UNL     1       3.079   6.297  12.594  1.00  0.00    -0.225 N 
HETATM   19  C4  UNL     1       3.448   7.696  12.523  1.00  0.00     0.168 C 
HETATM   20  C5  UNL     1       4.080   5.308  12.985  1.00  0.00     0.168 C 
ENDBRANCH  11  18
BRANCH  14  21
HETATM   21  N1  UNL     1       0.032   3.224  10.837  1.00  0.00    -0.229 N 
HETATM   22  C1  UNL     1      -1.111   2.401  11.164  1.00  0.00     0.165 C 
ATOM     23  H1  UNL     1       0.682   2.893  10.123  1.00  0.00     0.177 HD
ENDBRANCH  14  21
ENDBRANCH   7   9
ENDBRANCH   1   7
BRANCH   3  24
HETATM   24  C10 UNL     1      -4.871   4.733  15.305  1.00  0.00     0.048 C 
BRANCH  24  25
HETATM   25  C11 UNL     1      -5.330   3.342  14.966  1.00  0.00     0.019 C 
HETATM   26  C12 UNL     1      -6.370   2.891  15.931  1.00  0.00     0.007 C 
HETATM   27  C13 UNL     1      -5.739   2.145  17.101  1.00  0.00     0.001 C 
HETATM   28  C14 UNL     1      -5.218   0.847  16.574  1.00  0.00     0.002 C 
HETATM   29  C15 UNL     1      -4.414   1.036  15.336  1.00  0.00     0.032 C 
HETATM   30  C16 UNL     1      -4.112   2.444  14.959  1.00  0.00     0.122 C 
BRANCH  30  31
HETATM   31  O1  UNL     1      -3.122   3.035  15.727  1.00  0.00    -0.395 OA
ATOM     32  H1  UNL     1      -3.037   2.549  16.539  1.00  0.00     0.210 HD
ENDBRANCH  30  31
ENDBRANCH  24  25
ENDBRANCH   3  24
BRANCH   5  33
HETATM   33  C19 UNL     1      -6.229   7.212  11.261  1.00  0.00    -0.014 A 
HETATM   34  C20 UNL     1      -6.238   6.554   9.921  1.00  0.00     0.020 C 
HETATM   35  C21 UNL     1      -6.439   8.731  11.208  1.00  0.00     0.015 A 
HETATM   36  C22 UNL     1      -7.446   7.824  11.839  1.00  0.00     0.015 A 
ENDBRANCH   5  33
BRANCH   4  37
HETATM   37  O2  UNL     1      -6.767   5.657  13.401  1.00  0.00    -0.360 OA
ATOM     38  H2  UNL     1      -7.315   6.111  14.030  1.00  0.00     0.217 HD
ENDBRANCH   4  37
TORSDOF 9
ENDMDL
MODEL 4
REMARK VINA RESULT: -7.551411777      4.045      8.396
REMARK  9 active torsions:
REMARK  status: ('A' for Active; 'I' for Inactive)
REMARK    1  A    between atoms: N1_2  and  C2_4 
REMARK    2  A    between atoms: C3_7  and  N3_8 
REMARK    3  A    between atoms: C6_13  and  N5_14 
REMARK    4  A    between atoms: N5_14  and  C7_16 
REMARK    5  A    between atoms: C9_18  and  C10_19 
REMARK    6  A    between atoms: C10_19  and  C11_20 
REMARK    7  A    between atoms: C16_25  and  O1_26 
REMARK    8  A    between atoms: C17_28  and  O2_29 
REMARK    9  A    between atoms: C18_31  and  C19_32 
ROOT
HETATM    1  C7  UNL     1      -3.293   4.033  12.063  1.00  0.00     0.050 A 
HETATM    2  C8  UNL     1      -3.653   4.055  13.393  1.00  0.00     0.040 A 
HETATM    3  C9  UNL     1      -3.897   2.880  14.112  1.00  0.00    -0.022 A 
HETATM    4  C17 UNL     1      -3.757   1.702  13.420  1.00  0.00     0.079 A 
HETATM    5  C18 UNL     1      -3.392   1.678  12.072  1.00  0.00    -0.014 A 
HETATM    6  C23 UNL     1      -3.158   2.835  11.386  1.00  0.00     0.040 A 
ENDROOT
BRANCH   1   7
HETATM    7  N5  UNL     1      -3.052   5.237  11.367  1.00  0.00    -0.191 N 
ATOM      8  H5  UNL     1      -2.221   5.773  11.615  1.00  0.00     0.184 HD
BRANCH   7   9
HETATM    9  C6  UNL     1      -3.806   5.699  10.449  1.00  0.00     0.711 A 
HETATM   10  N4  UNL     1      -4.954   6.315  10.798  1.00  0.00    -0.021 N 
HETATM   11  C3  UNL     1      -5.799   6.828   9.885  1.00  0.00     0.708 A 
ATOM     12  H4  UNL     1      -5.189   6.395  11.787  1.00  0.00     0.203 HD
HETATM   13  N2  UNL     1      -5.505   6.730   8.589  1.00  0.00    -0.021 N 
HETATM   14  C2  UNL     1      -4.361   6.117   8.216  1.00  0.00     0.706 A 
ATOM     15  H2  UNL     1      -6.138   7.114   7.887  1.00  0.00     0.203 HD
HETATM   16  N6  UNL     1      -3.525   5.610   9.131  1.00  0.00    -0.021 N 
ATOM     17  H6  UNL     1      -2.666   5.150   8.830  1.00  0.00     0.203 HD
BRANCH  11  18
HETATM   18  N3  UNL     1      -7.000   7.468  10.296  1.00  0.00    -0.225 N 
HETATM   19  C4  UNL     1      -7.991   7.855   9.311  1.00  0.00     0.168 C 
HETATM   20  C5  UNL     1      -7.246   7.742  11.709  1.00  0.00     0.168 C 
ENDBRANCH  11  18
BRANCH  14  21
HETATM   21  N1  UNL     1      -4.057   6.014   6.974  1.00  0.00    -0.229 N 
HETATM   22  C1  UNL     1      -2.740   5.631   6.516  1.00  0.00     0.165 C 
ATOM     23  H1  UNL     1      -4.777   6.210   6.278  1.00  0.00     0.177 HD
ENDBRANCH  14  21
ENDBRANCH   7   9
ENDBRANCH   1   7
BRANCH   3  24
HETATM   24  C10 UNL     1      -4.299   2.891  15.535  1.00  0.00     0.048 C 
BRANCH  24  25
HETATM   25  C11 UNL     1      -5.696   2.405  15.807  1.00  0.00     0.019 C 
HETATM   26  C12 UNL     1      -6.444   3.407  16.615  1.00  0.00     0.007 C 
HETATM   27  C13 UNL     1      -6.304   3.117  18.105  1.00  0.00     0.001 C 
HETATM   28  C14 UNL     1      -7.062   1.860  18.387  1.00  0.00     0.002 C 
HETATM   29  C15 UNL     1      -6.723   0.781  17.419  1.00  0.00     0.032 C 
HETATM   30  C16 UNL     1      -5.591   1.061  16.494  1.00  0.00     0.122 C 
BRANCH  30  31
HETATM   31  O1  UNL     1      -4.342   0.963  17.085  1.00  0.00    -0.395 OA
ATOM     32  H1  UNL     1      -4.377   0.295  17.760  1.00  0.00     0.210 HD
ENDBRANCH  30  31
ENDBRANCH  24  25
ENDBRANCH   3  24
BRANCH   5  33
HETATM   33  C19 UNL     1      -3.275   0.326  11.447  1.00  0.00    -0.014 A 
HETATM   34  C20 UNL     1      -1.878  -0.169  11.265  1.00  0.00     0.020 C 
HETATM   35  C21 UNL     1      -4.157   0.165  10.201  1.00  0.00     0.015 A 
HETATM   36  C22 UNL     1      -4.433  -0.594  11.459  1.00  0.00     0.015 A 
ENDBRANCH   5  33
BRANCH   4  37
HETATM   37  O2  UNL     1      -3.971   0.491  14.049  1.00  0.00    -0.360 OA
ATOM     38  H2  UNL     1      -3.278   0.080  14.552  1.00  0.00     0.217 HD
ENDBRANCH   4  37
TORSDOF 9
ENDMDL
MODEL 5
REMARK VINA RESULT: -7.528389056      5.380      8.357
REMARK  9 active torsions:
REMARK  status: ('A' for Active; 'I' for Inactive)
REMARK    1  A    between atoms: N1_2  and  C2_4 
REMARK    2  A    between atoms: C3_7  and  N3_8 
REMARK    3  A    between atoms: C6_13  and  N5_14 
REMARK    4  A    between atoms: N5_14  and  C7_16 
REMARK    5  A    between atoms: C9_18  and  C10_19 
REMARK    6  A    between atoms: C10_19  and  C11_20 
REMARK    7  A    between atoms: C16_25  and  O1_26 
REMARK    8  A    between atoms: C17_28  and  O2_29 
REMARK    9  A    between atoms: C18_31  and  C19_32 
ROOT
HETATM    1  C7  UNL     1      -2.523   3.430  12.115  1.00  0.00     0.050 A 
HETATM    2  C8  UNL     1      -2.992   3.570  13.403  1.00  0.00     0.040 A 
HETATM    3  C9  UNL     1      -3.641   2.527  14.071  1.00  0.00    -0.022 A 
HETATM    4  C17 UNL     1      -3.783   1.353  13.374  1.00  0.00     0.079 A 
HETATM    5  C18 UNL     1      -3.308   1.209  12.069  1.00  0.00    -0.014 A 
HETATM    6  C23 UNL     1      -2.678   2.238  11.432  1.00  0.00     0.040 A 
ENDROOT
BRANCH   1   7
HETATM    7  N5  UNL     1      -1.872   4.503  11.470  1.00  0.00    -0.191 N 
ATOM      8  H5  UNL     1      -2.411   5.351  11.294  1.00  0.00     0.184 HD
BRANCH   7   9
HETATM    9  C6  UNL     1      -0.654   4.483  11.092  1.00  0.00     0.711 A 
HETATM   10  N4  UNL     1      -0.382   4.305   9.784  1.00  0.00    -0.021 N 
HETATM   11  C3  UNL     1       0.878   4.272   9.311  1.00  0.00     0.708 A 
ATOM     12  H4  UNL     1      -1.156   4.191   9.130  1.00  0.00     0.203 HD
HETATM   13  N2  UNL     1       1.900   4.419  10.154  1.00  0.00    -0.021 N 
HETATM   14  C2  UNL     1       1.650   4.599  11.469  1.00  0.00     0.706 A 
ATOM     15  H2  UNL     1       2.859   4.396   9.809  1.00  0.00     0.203 HD
HETATM   16  N6  UNL     1       0.394   4.630  11.931  1.00  0.00    -0.021 N 
ATOM     17  H6  UNL     1       0.226   4.766  12.927  1.00  0.00     0.203 HD
BRANCH  11  18
HETATM   18  N3  UNL     1       1.122   4.080   7.924  1.00  0.00    -0.225 N 
HETATM   19  C4  UNL     1       2.479   4.093   7.416  1.00  0.00     0.168 C 
HETATM   20  C5  UNL     1       0.010   3.870   7.000  1.00  0.00     0.168 C 
ENDBRANCH  11  18
BRANCH  14  21
HETATM   21  N1  UNL     1       2.619   4.745  12.298  1.00  0.00    -0.229 N 
HETATM   22  C1  UNL     1       3.227   6.026  12.579  1.00  0.00     0.165 C 
ATOM     23  H1  UNL     1       2.976   3.920  12.780  1.00  0.00     0.177 HD
ENDBRANCH  14  21
ENDBRANCH   7   9
ENDBRANCH   1   7
BRANCH   3  24
HETATM   24  C10 UNL     1      -4.163   2.670  15.447  1.00  0.00     0.048 C 
BRANCH  24  25
HETATM   25  C11 UNL     1      -5.602   2.275  15.628  1.00  0.00     0.019 C 
HETATM   26  C12 UNL     1      -6.366   3.381  16.267  1.00  0.00     0.007 C 
HETATM   27  C13 UNL     1      -6.378   3.229  17.784  1.00  0.00     0.001 C 
HETATM   28  C14 UNL     1      -7.223   2.040  18.106  1.00  0.00     0.002 C 
HETATM   29  C15 UNL     1      -6.856   0.859  17.277  1.00  0.00     0.032 C 
HETATM   30  C16 UNL     1      -5.631   1.000  16.442  1.00  0.00     0.122 C 
BRANCH  30  31
HETATM   31  O1  UNL     1      -4.448   0.903  17.156  1.00  0.00    -0.395 OA
ATOM     32  H1  UNL     1      -3.767   0.590  16.573  1.00  0.00     0.210 HD
ENDBRANCH  30  31
ENDBRANCH  24  25
ENDBRANCH   3  24
BRANCH   5  33
HETATM   33  C19 UNL     1      -3.531  -0.125  11.431  1.00  0.00    -0.014 A 
HETATM   34  C20 UNL     1      -2.451  -1.129  11.671  1.00  0.00     0.020 C 
HETATM   35  C21 UNL     1      -3.968  -0.021   9.964  1.00  0.00     0.015 A 
HETATM   36  C22 UNL     1      -4.894  -0.528  11.022  1.00  0.00     0.015 A 
ENDBRANCH   5  33
BRANCH   4  37
HETATM   37  O2  UNL     1      -4.406   0.265  13.955  1.00  0.00    -0.360 OA
ATOM     38  H2  UNL     1      -3.951  -0.566  14.032  1.00  0.00     0.217 HD
ENDBRANCH   4  37
TORSDOF 9
ENDMDL
