MODEL 1
REMARK VINA RESULT: -7.235991871      0.000      0.000
REMARK  7 active torsions:
REMARK  status: ('A' for Active; 'I' for Inactive)
REMARK    1  A    between atoms: C2_2  and  C3_3 
REMARK    2  A    between atoms: C3_3  and  C4_4 
REMARK    3  A    between atoms: C4_4  and  C5_5 
REMARK    4  A    between atoms: C5_5  and  O1_7 
REMARK    5  A    between atoms: O1_7  and  C6_8 
REMARK    6  A    between atoms: C13_21  and  C14_22 
REMARK       I    between atoms: N3_25  and  C15_26 
REMARK       I    between atoms: C15_26  and  N4_28 
REMARK    7  A    between atoms: N4_28  and  C16_30 
ROOT
HETATM    1  C4  UNL     1      -3.875   3.678  12.307  1.00  0.00     0.134 C 
HETATM    2  C8  UNL     1      -3.698   3.221  13.708  1.00  0.00     0.048 C 
HETATM    3  N1  UNL     1      -3.914   1.843  14.040  1.00  0.00    -0.338 N 
ATOM      4  H1  UNL     1      -3.773   1.140  13.314  1.00  0.00     0.168 HD
HETATM    5  C9  UNL     1      -4.317   1.409  15.338  1.00  0.00     0.138 C 
HETATM    6  N2  UNL     1      -3.774   0.386  15.914  1.00  0.00    -0.380 N 
ATOM      7  H21 UNL     1      -4.063   0.076  16.842  1.00  0.00     0.158 HD
ATOM      8  H22 UNL     1      -3.035  -0.146  15.456  1.00  0.00     0.158 HD
HETATM    9  S1  UNL     1      -5.627   2.353  16.151  1.00  0.00    -0.090 SA
HETATM   10  C10 UNL     1      -5.518   3.999  15.324  1.00  0.00     0.118 C 
HETATM   11  C11 UNL     1      -4.140   4.099  14.832  1.00  0.00    -0.042 C 
HETATM   12  C12 UNL     1      -3.585   5.449  14.656  1.00  0.00     0.073 C 
HETATM   13  C13 UNL     1      -3.950   6.022  13.354  1.00  0.00     0.195 C 
HETATM   14  N3  UNL     1      -4.187   5.116  12.256  1.00  0.00    -0.299 N 
HETATM   15  C15 UNL     1      -4.724   5.725  11.099  1.00  0.00     0.320 C 
HETATM   16  O4  UNL     1      -4.937   5.192   9.984  1.00  0.00    -0.247 OA
HETATM   17  N4  UNL     1      -5.121   7.098  11.042  1.00  0.00    -0.335 N 
ATOM     18  H4  UNL     1      -5.017   7.674  11.877  1.00  0.00     0.165 HD
ENDROOT
BRANCH   1  19
HETATM   19  C3  UNL     1      -4.598   2.836  11.359  1.00  0.00     0.043 C 
BRANCH  19  20
HETATM   20  C2  UNL     1      -5.249   1.566  11.517  1.00  0.00    -0.002 C 
HETATM   21  C1  UNL     1      -4.846   0.374  10.703  1.00  0.00     0.005 C 
ENDBRANCH  19  20
ENDBRANCH   1  19
BRANCH   1  22
HETATM   22  C5  UNL     1      -2.410   3.653  11.707  1.00  0.00     0.341 C 
HETATM   23  F1  UNL     1      -2.436   3.420  10.346  1.00  0.00    -0.217 F 
BRANCH  22  24
HETATM   24  O1  UNL     1      -1.681   2.586  12.187  1.00  0.00    -0.354 OA
BRANCH  24  25
HETATM   25  C6  UNL     1      -1.178   1.836  11.172  1.00  0.00     0.167 C 
HETATM   26  C7  UNL     1      -1.626   0.388  11.397  1.00  0.00     0.033 C 
ENDBRANCH  24  25
ENDBRANCH  22  24
ENDBRANCH   1  22
BRANCH  13  27
HETATM   27  C14 UNL     1      -2.877   7.025  13.079  1.00  0.00     0.197 C 
HETATM   28  O2  UNL     1      -3.113   8.195  12.727  1.00  0.00    -0.646 OA
HETATM   29  O3  UNL     1      -1.556   6.644  13.222  1.00  0.00    -0.646 OA
ENDBRANCH  13  27
BRANCH  17  30
HETATM   30  C16 UNL     1      -5.665   7.698   9.843  1.00  0.00     0.023 C 
HETATM   31  C17 UNL     1      -5.996   9.166  10.061  1.00  0.00     0.037 C 
HETATM   32  C18 UNL     1      -4.691   7.624   8.702  1.00  0.00     0.037 C 
HETATM   33  C19 UNL     1      -6.952   7.024   9.412  1.00  0.00     0.037 C 
ENDBRANCH  17  30
TORSDOF 7
ENDMDL
MODEL 2
REMARK VINA RESULT: -7.109144410      2.713      5.988
REMARK  7 active torsions:
REMARK  status: ('A' for Active; 'I' for Inactive)
REMARK    1  A    between atoms: C2_2  and  C3_3 
REMARK    2  A    between atoms: C3_3  and  C4_4 
REMARK    3  A    between atoms: C4_4  and  C5_5 
REMARK    4  A    between atoms: C5_5  and  O1_7 
REMARK    5  A    between atoms: O1_7  and  C6_8 
REMARK    6  A    between atoms: C13_21  and  C14_22 
REMARK       I    between atoms: N3_25  and  C15_26 
REMARK       I    between atoms: C15_26  and  N4_28 
REMARK    7  A    between atoms: N4_28  and  C16_30 
ROOT
HETATM    1  C4  UNL     1      -3.661   5.884  11.669  1.00  0.00     0.134 C 
HETATM    2  C8  UNL     1      -3.432   7.038  12.574  1.00  0.00     0.048 C 
HETATM    3  N1  UNL     1      -2.695   8.175  12.106  1.00  0.00    -0.338 N 
ATOM      4  H1  UNL     1      -2.699   8.379  11.106  1.00  0.00     0.168 HD
HETATM    5  C9  UNL     1      -1.956   9.034  12.972  1.00  0.00     0.138 C 
HETATM    6  N2  UNL     1      -2.003  10.322  12.858  1.00  0.00    -0.380 N 
ATOM      7  H21 UNL     1      -1.475  10.936  13.478  1.00  0.00     0.158 HD
ATOM      8  H22 UNL     1      -2.574  10.767  12.140  1.00  0.00     0.158 HD
HETATM    9  S1  UNL     1      -0.944   8.246  14.246  1.00  0.00    -0.090 SA
HETATM   10  C10 UNL     1      -1.758   6.603  14.456  1.00  0.00     0.118 C 
HETATM   11  C11 UNL     1      -3.146   6.795  14.019  1.00  0.00    -0.042 C 
HETATM   12  C12 UNL     1      -4.159   5.891  14.582  1.00  0.00     0.073 C 
HETATM   13  C13 UNL     1      -4.239   4.630  13.834  1.00  0.00     0.195 C 
HETATM   14  N3  UNL     1      -3.886   4.647  12.435  1.00  0.00    -0.299 N 
HETATM   15  C15 UNL     1      -3.795   3.370  11.838  1.00  0.00     0.320 C 
HETATM   16  O4  UNL     1      -3.598   3.104  10.628  1.00  0.00    -0.247 OA
HETATM   17  N4  UNL     1      -3.920   2.146  12.568  1.00  0.00    -0.335 N 
ATOM     18  H4  UNL     1      -4.079   2.189  13.575  1.00  0.00     0.165 HD
ENDROOT
BRANCH   1  19
HETATM   19  C3  UNL     1      -2.857   5.746  10.458  1.00  0.00     0.043 C 
BRANCH  19  20
HETATM   20  C2  UNL     1      -1.436   5.748  10.254  1.00  0.00    -0.002 C 
HETATM   21  C1  UNL     1      -0.502   5.119  11.243  1.00  0.00     0.005 C 
ENDBRANCH  19  20
ENDBRANCH   1  19
BRANCH   1  22
HETATM   22  C5  UNL     1      -5.103   6.147  11.069  1.00  0.00     0.341 C 
HETATM   23  F1  UNL     1      -5.150   5.815   9.729  1.00  0.00    -0.217 F 
BRANCH  22  24
HETATM   24  O1  UNL     1      -5.415   7.491  11.063  1.00  0.00    -0.354 OA
BRANCH  24  25
HETATM   25  C6  UNL     1      -6.721   7.691  10.747  1.00  0.00     0.167 C 
HETATM   26  C7  UNL     1      -7.524   7.669  12.053  1.00  0.00     0.033 C 
ENDBRANCH  24  25
ENDBRANCH  22  24
ENDBRANCH   1  22
BRANCH  13  27
HETATM   27  C14 UNL     1      -5.625   4.136  14.094  1.00  0.00     0.197 C 
HETATM   28  O2  UNL     1      -6.643   4.702  13.653  1.00  0.00    -0.646 OA
HETATM   29  O3  UNL     1      -5.795   2.997  14.858  1.00  0.00    -0.646 OA
ENDBRANCH  13  27
BRANCH  17  30
HETATM   30  C16 UNL     1      -3.827   0.851  11.932  1.00  0.00     0.023 C 
HETATM   31  C17 UNL     1      -4.115  -0.271  12.917  1.00  0.00     0.037 C 
HETATM   32  C18 UNL     1      -4.814   0.721  10.807  1.00  0.00     0.037 C 
HETATM   33  C19 UNL     1      -2.441   0.595  11.378  1.00  0.00     0.037 C 
ENDBRANCH  17  30
TORSDOF 7
ENDMDL
MODEL 3
REMARK VINA RESULT: -6.576217950      2.398      5.247
REMARK  7 active torsions:
REMARK  status: ('A' for Active; 'I' for Inactive)
REMARK    1  A    between atoms: C2_2  and  C3_3 
REMARK    2  A    between atoms: C3_3  and  C4_4 
REMARK    3  A    between atoms: C4_4  and  C5_5 
REMARK    4  A    between atoms: C5_5  and  O1_7 
REMARK    5  A    between atoms: O1_7  and  C6_8 
REMARK    6  A    between atoms: C13_21  and  C14_22 
REMARK       I    between atoms: N3_25  and  C15_26 
REMARK       I    between atoms: C15_26  and  N4_28 
REMARK    7  A    between atoms: N4_28  and  C16_30 
ROOT
HETATM    1  C4  UNL     1      -4.194   4.719  13.289  1.00  0.00     0.134 C 
HETATM    2  C8  UNL     1      -5.022   3.708  13.993  1.00  0.00     0.048 C 
HETATM    3  N1  UNL     1      -5.811   4.096  15.125  1.00  0.00    -0.338 N 
ATOM      4  H1  UNL     1      -6.132   5.063  15.186  1.00  0.00     0.168 HD
HETATM    5  C9  UNL     1      -6.170   3.194  16.170  1.00  0.00     0.138 C 
HETATM    6  N2  UNL     1      -7.368   3.156  16.658  1.00  0.00    -0.380 N 
ATOM      7  H21 UNL     1      -7.624   2.511  17.405  1.00  0.00     0.158 HD
ATOM      8  H22 UNL     1      -8.099   3.775  16.308  1.00  0.00     0.158 HD
HETATM    9  S1  UNL     1      -4.874   2.096  16.790  1.00  0.00    -0.090 SA
HETATM   10  C10 UNL     1      -3.694   2.016  15.374  1.00  0.00     0.118 C 
HETATM   11  C11 UNL     1      -4.492   2.325  14.182  1.00  0.00    -0.042 C 
HETATM   12  C12 UNL     1      -4.013   1.796  12.897  1.00  0.00     0.073 C 
HETATM   13  C13 UNL     1      -3.006   2.675  12.287  1.00  0.00     0.195 C 
HETATM   14  N3  UNL     1      -3.066   4.085  12.588  1.00  0.00    -0.299 N 
HETATM   15  C15 UNL     1      -1.955   4.829  12.130  1.00  0.00     0.320 C 
HETATM   16  O4  UNL     1      -1.798   6.073  12.176  1.00  0.00    -0.247 OA
HETATM   17  N4  UNL     1      -0.803   4.236  11.525  1.00  0.00    -0.335 N 
ATOM     18  H4  UNL     1      -0.771   3.222  11.418  1.00  0.00     0.165 HD
ENDROOT
BRANCH   1  19
HETATM   19  C3  UNL     1      -3.905   5.994  13.940  1.00  0.00     0.043 C 
BRANCH  19  20
HETATM   20  C2  UNL     1      -3.178   6.308  15.137  1.00  0.00    -0.002 C 
HETATM   21  C1  UNL     1      -2.490   7.628  15.312  1.00  0.00     0.005 C 
ENDBRANCH  19  20
ENDBRANCH   1  19
BRANCH   1  22
HETATM   22  C5  UNL     1      -5.101   5.178  12.074  1.00  0.00     0.341 C 
HETATM   23  F1  UNL     1      -4.370   5.914  11.162  1.00  0.00    -0.217 F 
BRANCH  22  24
HETATM   24  O1  UNL     1      -6.078   6.065  12.473  1.00  0.00    -0.354 OA
BRANCH  24  25
HETATM   25  C6  UNL     1      -6.196   7.095  11.595  1.00  0.00     0.167 C 
HETATM   26  C7  UNL     1      -7.536   7.787  11.868  1.00  0.00     0.033 C 
ENDBRANCH  24  25
ENDBRANCH  22  24
ENDBRANCH   1  22
BRANCH  13  27
HETATM   27  C14 UNL     1      -3.090   2.372  10.826  1.00  0.00     0.197 C 
HETATM   28  O2  UNL     1      -2.124   1.952  10.162  1.00  0.00    -0.646 OA
HETATM   29  O3  UNL     1      -4.293   2.565  10.173  1.00  0.00    -0.646 OA
ENDBRANCH  13  27
BRANCH  17  30
HETATM   30  C16 UNL     1       0.319   5.022  11.061  1.00  0.00     0.023 C 
HETATM   31  C17 UNL     1       1.433   4.134  10.527  1.00  0.00     0.037 C 
HETATM   32  C18 UNL     1      -0.083   5.950   9.950  1.00  0.00     0.037 C 
HETATM   33  C19 UNL     1       0.924   5.851  12.175  1.00  0.00     0.037 C 
ENDBRANCH  17  30
TORSDOF 7
ENDMDL
MODEL 4
REMARK VINA RESULT: -6.550608617      3.310      5.207
REMARK  7 active torsions:
REMARK  status: ('A' for Active; 'I' for Inactive)
REMARK    1  A    between atoms: C2_2  and  C3_3 
REMARK    2  A    between atoms: C3_3  and  C4_4 
REMARK    3  A    between atoms: C4_4  and  C5_5 
REMARK    4  A    between atoms: C5_5  and  O1_7 
REMARK    5  A    between atoms: O1_7  and  C6_8 
REMARK    6  A    between atoms: C13_21  and  C14_22 
REMARK       I    between atoms: N3_25  and  C15_26 
REMARK       I    between atoms: C15_26  and  N4_28 
REMARK    7  A    between atoms: N4_28  and  C16_30 
ROOT
HETATM    1  C4  UNL     1      -2.061   5.706  12.282  1.00  0.00     0.134 C 
HETATM    2  C8  UNL     1      -0.705   5.412  11.754  1.00  0.00     0.048 C 
HETATM    3  N1  UNL     1       0.436   5.527  12.615  1.00  0.00    -0.338 N 
ATOM      4  H1  UNL     1       0.304   5.394  13.618  1.00  0.00     0.168 HD
HETATM    5  C9  UNL     1       1.746   5.819  12.134  1.00  0.00     0.138 C 
HETATM    6  N2  UNL     1       2.788   5.182  12.563  1.00  0.00    -0.380 N 
ATOM      7  H21 UNL     1       3.725   5.391  12.220  1.00  0.00     0.158 HD
ATOM      8  H22 UNL     1       2.704   4.445  13.263  1.00  0.00     0.158 HD
HETATM    9  S1  UNL     1       1.897   7.124  10.893  1.00  0.00    -0.090 SA
HETATM   10  C10 UNL     1       0.214   7.164  10.137  1.00  0.00     0.118 C 
HETATM   11  C11 UNL     1      -0.349   5.829  10.365  1.00  0.00    -0.042 C 
HETATM   12  C12 UNL     1      -1.381   5.364   9.426  1.00  0.00     0.073 C 
HETATM   13  C13 UNL     1      -2.716   5.846   9.803  1.00  0.00     0.195 C 
HETATM   14  N3  UNL     1      -2.976   6.102  11.200  1.00  0.00    -0.299 N 
HETATM   15  C15 UNL     1      -4.206   6.748  11.458  1.00  0.00     0.320 C 
HETATM   16  O4  UNL     1      -4.715   7.002  12.576  1.00  0.00    -0.247 OA
HETATM   17  N4  UNL     1      -5.078   7.225  10.430  1.00  0.00    -0.335 N 
ATOM     18  H4  UNL     1      -4.804   7.100   9.456  1.00  0.00     0.165 HD
ENDROOT
BRANCH   1  19
HETATM   19  C3  UNL     1      -2.202   6.440  13.536  1.00  0.00     0.043 C 
BRANCH  19  20
HETATM   20  C2  UNL     1      -1.680   7.708  13.962  1.00  0.00    -0.002 C 
HETATM   21  C1  UNL     1      -2.010   8.278  15.308  1.00  0.00     0.005 C 
ENDBRANCH  19  20
ENDBRANCH   1  19
BRANCH   1  22
HETATM   22  C5  UNL     1      -2.636   4.284  12.676  1.00  0.00     0.341 C 
HETATM   23  F1  UNL     1      -2.819   4.184  14.041  1.00  0.00    -0.217 F 
BRANCH  22  24
HETATM   24  O1  UNL     1      -1.731   3.278  12.412  1.00  0.00    -0.354 OA
BRANCH  24  25
HETATM   25  C6  UNL     1      -2.351   2.177  11.910  1.00  0.00     0.167 C 
HETATM   26  C7  UNL     1      -1.640   1.797  10.607  1.00  0.00     0.033 C 
ENDBRANCH  24  25
ENDBRANCH  22  24
ENDBRANCH   1  22
BRANCH  13  27
HETATM   27  C14 UNL     1      -3.651   4.852   9.195  1.00  0.00     0.197 C 
HETATM   28  O2  UNL     1      -4.313   4.041   9.868  1.00  0.00    -0.646 OA
HETATM   29  O3  UNL     1      -3.794   4.826   7.820  1.00  0.00    -0.646 OA
ENDBRANCH  13  27
BRANCH  17  30
HETATM   30  C16 UNL     1      -6.335   7.879  10.721  1.00  0.00     0.023 C 
HETATM   31  C17 UNL     1      -7.326   7.707   9.581  1.00  0.00     0.037 C 
HETATM   32  C18 UNL     1      -6.974   7.315  11.958  1.00  0.00     0.037 C 
HETATM   33  C19 UNL     1      -6.159   9.372  10.918  1.00  0.00     0.037 C 
ENDBRANCH  17  30
TORSDOF 7
ENDMDL
MODEL 5
REMARK VINA RESULT: -6.460086843      2.640      5.053
REMARK  7 active torsions:
REMARK  status: ('A' for Active; 'I' for Inactive)
REMARK    1  A    between atoms: C2_2  and  C3_3 
REMARK    2  A    between atoms: C3_3  and  C4_4 
REMARK    3  A    between atoms: C4_4  and  C5_5 
REMARK    4  A    between atoms: C5_5  and  O1_7 
REMARK    5  A    between atoms: O1_7  and  C6_8 
REMARK    6  A    between atoms: C13_21  and  C14_22 
REMARK       I    between atoms: N3_25  and  C15_26 
REMARK       I    between atoms: C15_26  and  N4_28 
REMARK    7  A    between atoms: N4_28  and  C16_30 
ROOT
HETATM    1  C4  UNL     1      -3.976   5.316  12.105  1.00  0.00     0.134 C 
HETATM    2  C8  UNL     1      -3.887   4.110  11.245  1.00  0.00     0.048 C 
HETATM    3  N1  UNL     1      -4.722   2.976  11.518  1.00  0.00    -0.338 N 
ATOM      4  H1  UNL     1      -5.616   3.132  11.985  1.00  0.00     0.168 HD
HETATM    5  C9  UNL     1      -4.362   1.642  11.165  1.00  0.00     0.138 C 
HETATM    6  N2  UNL     1      -5.210   0.827  10.625  1.00  0.00    -0.380 N 
ATOM      7  H21 UNL     1      -4.953  -0.128  10.374  1.00  0.00     0.158 HD
ATOM      8  H22 UNL     1      -6.169   1.115  10.432  1.00  0.00     0.158 HD
HETATM    9  S1  UNL     1      -2.663   1.130  11.506  1.00  0.00    -0.090 SA
HETATM   10  C10 UNL     1      -1.754   2.735  11.549  1.00  0.00     0.118 C 
HETATM   11  C11 UNL     1      -2.555   3.660  10.740  1.00  0.00    -0.042 C 
HETATM   12  C12 UNL     1      -1.852   4.791  10.117  1.00  0.00     0.073 C 
HETATM   13  C13 UNL     1      -1.719   5.925  11.042  1.00  0.00     0.195 C 
HETATM   14  N3  UNL     1      -2.723   6.086  12.066  1.00  0.00    -0.299 N 
HETATM   15  C15 UNL     1      -2.421   7.073  13.032  1.00  0.00     0.320 C 
HETATM   16  O4  UNL     1      -3.152   7.476  13.967  1.00  0.00    -0.247 OA
HETATM   17  N4  UNL     1      -1.177   7.778  13.078  1.00  0.00    -0.335 N 
ATOM     18  H4  UNL     1      -0.463   7.561  12.382  1.00  0.00     0.165 HD
ENDROOT
BRANCH   1  19
HETATM   19  C3  UNL     1      -4.629   5.226  13.408  1.00  0.00     0.043 C 
BRANCH  19  20
HETATM   20  C2  UNL     1      -4.436   4.325  14.509  1.00  0.00    -0.002 C 
HETATM   21  C1  UNL     1      -3.067   4.006  15.028  1.00  0.00     0.005 C 
ENDBRANCH  19  20
ENDBRANCH   1  19
BRANCH   1  22
HETATM   22  C5  UNL     1      -4.959   6.276  11.318  1.00  0.00     0.341 C 
HETATM   23  F1  UNL     1      -6.084   6.557  12.069  1.00  0.00    -0.217 F 
BRANCH  22  24
HETATM   24  O1  UNL     1      -5.482   5.664  10.199  1.00  0.00    -0.354 OA
BRANCH  24  25
HETATM   25  C6  UNL     1      -5.654   6.553   9.186  1.00  0.00     0.167 C 
HETATM   26  C7  UNL     1      -7.161   6.710   8.955  1.00  0.00     0.033 C 
ENDBRANCH  24  25
ENDBRANCH  22  24
ENDBRANCH   1  22
BRANCH  13  27
HETATM   27  C14 UNL     1      -1.584   7.115  10.147  1.00  0.00     0.197 C 
HETATM   28  O2  UNL     1      -2.407   7.393   9.256  1.00  0.00    -0.646 OA
HETATM   29  O3  UNL     1      -0.495   7.951  10.310  1.00  0.00    -0.646 OA
ENDBRANCH  13  27
BRANCH  17  30
HETATM   30  C16 UNL     1      -0.894   8.787  14.074  1.00  0.00     0.023 C 
HETATM   31  C17 UNL     1       0.584   9.141  14.100  1.00  0.00     0.037 C 
HETATM   32  C18 UNL     1      -1.653  10.055  13.802  1.00  0.00     0.037 C 
HETATM   33  C19 UNL     1      -1.249   8.314  15.469  1.00  0.00     0.037 C 
ENDBRANCH  17  30
TORSDOF 7
ENDMDL
