MODEL 1
REMARK VINA RESULT: -6.366960417      0.000      0.000
REMARK  9 active torsions:
REMARK  status: ('A' for Active; 'I' for Inactive)
REMARK    1  A    between atoms: C2_2  and  C4_4 
REMARK    2  A    between atoms: C4_4  and  C5_5 
REMARK    3  A    between atoms: C5_5  and  C6_6 
REMARK    4  A    between atoms: C6_6  and  C7_7 
REMARK    5  A    between atoms: C7_7  and  N1_8 
REMARK    6  A    between atoms: C7_7  and  N2_12 
REMARK    7  A    between atoms: N3_15  and  C10_16 
REMARK    8  A    between atoms: C10_16  and  C11_17 
REMARK    9  A    between atoms: C11_17  and  N4_18 
ROOT
HETATM    1  N2  UNL     1       0.680   3.224  82.825  1.00  0.00     0.122 N 
HETATM    2  C8  UNL     1      -0.716   3.004  82.544  1.00  0.00     0.305 C 
HETATM    3  C9  UNL     1      -1.353   2.335  83.746  1.00  0.00     0.302 C 
HETATM    4  N3  UNL     1      -1.259   3.213  84.863  1.00  0.00     0.093 N 
HETATM    5  C13 UNL     1      -0.391   4.334  84.727  1.00  0.00     0.302 C 
HETATM    6  C14 UNL     1       0.883   4.071  83.961  1.00  0.00     0.305 C 
ENDROOT
BRANCH   1   7
HETATM    7  C7  UNL     1       1.325   3.657  81.606  1.00  0.00     0.417 C 
BRANCH   7   8
HETATM    8  C6  UNL     1       2.387   2.752  81.126  1.00  0.00     0.065 C 
BRANCH   8   9
HETATM    9  C5  UNL     1       1.886   1.533  80.439  1.00  0.00     0.004 C 
BRANCH   9  10
HETATM   10  C4  UNL     1       1.756   0.260  81.161  1.00  0.00     0.004 C 
BRANCH  10  11
HETATM   11  C2  UNL     1       0.419  -0.344  81.333  1.00  0.00    -0.023 C 
HETATM   12  C1  UNL     1       0.519  -1.887  81.342  1.00  0.00     0.009 C 
HETATM   13  C3  UNL     1      -0.717   0.033  80.489  1.00  0.00     0.009 C 
ENDBRANCH  10  11
ENDBRANCH   9  10
ENDBRANCH   8   9
ENDBRANCH   7   8
BRANCH   7  14
HETATM   14  N1  UNL     1       0.289   3.912  80.658  1.00  0.00    -0.048 N 
ATOM     15  H13 UNL     1      -0.428   4.511  81.067  1.00  0.00     0.276 HD
ATOM     16  H12 UNL     1       0.629   4.526  79.917  1.00  0.00     0.276 HD
ATOM     17  H11 UNL     1      -0.135   3.075  80.258  1.00  0.00     0.276 HD
ENDBRANCH   7  14
ENDBRANCH   1   7
BRANCH   4  18
HETATM   18  C10 UNL     1      -2.609   3.667  85.215  1.00  0.00     0.292 C 
BRANCH  18  19
HETATM   19  C11 UNL     1      -3.074   3.033  86.514  1.00  0.00     0.152 C 
BRANCH  19  20
HETATM   20  N4  UNL     1      -2.958   1.602  86.370  1.00  0.00    -0.365 N 
HETATM   21  C12 UNL     1      -2.436   0.882  87.290  1.00  0.00     0.197 C 
HETATM   22  N5  UNL     1      -2.313  -0.523  87.168  1.00  0.00    -0.067 NA
HETATM   23  N6  UNL     1      -1.961   1.505  88.474  1.00  0.00    -0.067 NA
ATOM     24  H4  UNL     1      -3.300   1.155  85.519  1.00  0.00     0.161 HD
ENDBRANCH  19  20
ENDBRANCH  18  19
ENDBRANCH   4  18
TORSDOF 9
ENDMDL
MODEL 2
REMARK VINA RESULT: -6.196511995      1.324      2.051
REMARK  9 active torsions:
REMARK  status: ('A' for Active; 'I' for Inactive)
REMARK    1  A    between atoms: C2_2  and  C4_4 
REMARK    2  A    between atoms: C4_4  and  C5_5 
REMARK    3  A    between atoms: C5_5  and  C6_6 
REMARK    4  A    between atoms: C6_6  and  C7_7 
REMARK    5  A    between atoms: C7_7  and  N1_8 
REMARK    6  A    between atoms: C7_7  and  N2_12 
REMARK    7  A    between atoms: N3_15  and  C10_16 
REMARK    8  A    between atoms: C10_16  and  C11_17 
REMARK    9  A    between atoms: C11_17  and  N4_18 
ROOT
HETATM    1  N2  UNL     1       1.417   4.518  81.657  1.00  0.00     0.122 N 
HETATM    2  C8  UNL     1       1.681   4.072  83.002  1.00  0.00     0.305 C 
HETATM    3  C9  UNL     1       0.792   4.848  83.954  1.00  0.00     0.302 C 
HETATM    4  N3  UNL     1      -0.568   4.555  83.650  1.00  0.00     0.093 N 
HETATM    5  C13 UNL     1      -0.822   3.883  82.420  1.00  0.00     0.302 C 
HETATM    6  C14 UNL     1       0.058   4.302  81.266  1.00  0.00     0.305 C 
ENDROOT
BRANCH   1   7
HETATM    7  C7  UNL     1       2.412   3.940  80.783  1.00  0.00     0.417 C 
BRANCH   7   8
HETATM    8  C6  UNL     1       2.885   2.606  81.199  1.00  0.00     0.065 C 
BRANCH   8   9
HETATM    9  C5  UNL     1       2.115   1.476  80.616  1.00  0.00     0.004 C 
BRANCH   9  10
HETATM   10  C4  UNL     1       1.156   0.717  81.429  1.00  0.00     0.004 C 
BRANCH  10  11
HETATM   11  C2  UNL     1       0.370  -0.366  80.803  1.00  0.00    -0.023 C 
HETATM   12  C1  UNL     1      -1.118   0.038  80.693  1.00  0.00     0.009 C 
HETATM   13  C3  UNL     1       0.432  -1.748  81.284  1.00  0.00     0.009 C 
ENDBRANCH  10  11
ENDBRANCH   9  10
ENDBRANCH   8   9
ENDBRANCH   7   8
BRANCH   7  14
HETATM   14  N1  UNL     1       1.883   3.995  79.459  1.00  0.00    -0.048 N 
ATOM     15  H13 UNL     1       2.501   4.531  78.851  1.00  0.00     0.276 HD
ATOM     16  H12 UNL     1       1.948   3.080  79.012  1.00  0.00     0.276 HD
ATOM     17  H11 UNL     1       0.930   4.353  79.398  1.00  0.00     0.276 HD
ENDBRANCH   7  14
ENDBRANCH   1   7
BRANCH   4  18
HETATM   18  C10 UNL     1      -1.142   3.792  84.764  1.00  0.00     0.292 C 
BRANCH  18  19
HETATM   19  C11 UNL     1      -0.900   2.304  84.586  1.00  0.00     0.152 C 
BRANCH  19  20
HETATM   20  N4  UNL     1      -1.839   1.602  85.428  1.00  0.00    -0.365 N 
HETATM   21  C12 UNL     1      -1.460   0.658  86.203  1.00  0.00     0.197 C 
HETATM   22  N5  UNL     1      -2.364  -0.043  87.035  1.00  0.00    -0.067 NA
HETATM   23  N6  UNL     1      -0.087   0.294  86.235  1.00  0.00    -0.067 NA
ATOM     24  H4  UNL     1      -2.825   1.864  85.404  1.00  0.00     0.161 HD
ENDBRANCH  19  20
ENDBRANCH  18  19
ENDBRANCH   4  18
TORSDOF 9
ENDMDL
MODEL 3
REMARK VINA RESULT: -6.181158701      2.165      6.124
REMARK  9 active torsions:
REMARK  status: ('A' for Active; 'I' for Inactive)
REMARK    1  A    between atoms: C2_2  and  C4_4 
REMARK    2  A    between atoms: C4_4  and  C5_5 
REMARK    3  A    between atoms: C5_5  and  C6_6 
REMARK    4  A    between atoms: C6_6  and  C7_7 
REMARK    5  A    between atoms: C7_7  and  N1_8 
REMARK    6  A    between atoms: C7_7  and  N2_12 
REMARK    7  A    between atoms: N3_15  and  C10_16 
REMARK    8  A    between atoms: C10_16  and  C11_17 
REMARK    9  A    between atoms: C11_17  and  N4_18 
ROOT
HETATM    1  N2  UNL     1       0.467   4.761  83.697  1.00  0.00     0.122 N 
HETATM    2  C8  UNL     1       0.023   4.121  82.485  1.00  0.00     0.305 C 
HETATM    3  C9  UNL     1       0.577   4.888  81.300  1.00  0.00     0.302 C 
HETATM    4  N3  UNL     1       1.999   4.825  81.338  1.00  0.00     0.093 N 
HETATM    5  C13 UNL     1       2.589   4.351  82.545  1.00  0.00     0.302 C 
HETATM    6  C14 UNL     1       1.893   4.784  83.813  1.00  0.00     0.305 C 
ENDROOT
BRANCH   1   7
HETATM    7  C7  UNL     1      -0.236   4.164  84.809  1.00  0.00     0.417 C 
BRANCH   7   8
HETATM    8  C6  UNL     1      -1.701   4.332  84.763  1.00  0.00     0.065 C 
BRANCH   8   9
HETATM    9  C5  UNL     1      -2.466   3.118  85.149  1.00  0.00     0.004 C 
BRANCH   9  10
HETATM   10  C4  UNL     1      -3.105   3.016  86.468  1.00  0.00     0.004 C 
BRANCH  10  11
HETATM   11  C2  UNL     1      -3.008   1.752  87.227  1.00  0.00    -0.023 C 
HETATM   12  C1  UNL     1      -2.603   2.031  88.693  1.00  0.00     0.009 C 
HETATM   13  C3  UNL     1      -2.218   0.617  86.745  1.00  0.00     0.009 C 
ENDBRANCH  10  11
ENDBRANCH   9  10
ENDBRANCH   8   9
ENDBRANCH   7   8
BRANCH   7  14
HETATM   14  N1  UNL     1       0.204   2.809  84.897  1.00  0.00    -0.048 N 
ATOM     15  H13 UNL     1       1.176   2.731  84.600  1.00  0.00     0.276 HD
ATOM     16  H12 UNL     1       0.296   2.528  85.874  1.00  0.00     0.276 HD
ATOM     17  H11 UNL     1      -0.376   2.142  84.389  1.00  0.00     0.276 HD
ENDBRANCH   7  14
ENDBRANCH   1   7
BRANCH   4  18
HETATM   18  C10 UNL     1       2.462   4.016  80.205  1.00  0.00     0.292 C 
BRANCH  18  19
HETATM   19  C11 UNL     1       2.866   2.625  80.659  1.00  0.00     0.152 C 
BRANCH  19  20
HETATM   20  N4  UNL     1       1.977   1.681  80.024  1.00  0.00    -0.365 N 
HETATM   21  C12 UNL     1       1.165   0.969  80.710  1.00  0.00     0.197 C 
HETATM   22  N5  UNL     1       0.286   0.038  80.107  1.00  0.00    -0.067 NA
HETATM   23  N6  UNL     1       1.138   1.111  82.123  1.00  0.00    -0.067 NA
ATOM     24  H4  UNL     1       1.997   1.580  79.009  1.00  0.00     0.161 HD
ENDBRANCH  19  20
ENDBRANCH  18  19
ENDBRANCH   4  18
TORSDOF 9
ENDMDL
MODEL 4
REMARK VINA RESULT: -6.167516616      2.868      7.386
REMARK  9 active torsions:
REMARK  status: ('A' for Active; 'I' for Inactive)
REMARK    1  A    between atoms: C2_2  and  C4_4 
REMARK    2  A    between atoms: C4_4  and  C5_5 
REMARK    3  A    between atoms: C5_5  and  C6_6 
REMARK    4  A    between atoms: C6_6  and  C7_7 
REMARK    5  A    between atoms: C7_7  and  N1_8 
REMARK    6  A    between atoms: C7_7  and  N2_12 
REMARK    7  A    between atoms: N3_15  and  C10_16 
REMARK    8  A    between atoms: C10_16  and  C11_17 
REMARK    9  A    between atoms: C11_17  and  N4_18 
ROOT
HETATM    1  N2  UNL     1       0.590   1.482  82.526  1.00  0.00     0.122 N 
HETATM    2  C8  UNL     1       0.658   2.865  82.124  1.00  0.00     0.305 C 
HETATM    3  C9  UNL     1       2.086   3.185  81.726  1.00  0.00     0.302 C 
HETATM    4  N3  UNL     1       2.439   2.381  80.605  1.00  0.00     0.093 N 
HETATM    5  C13 UNL     1       1.564   1.303  80.286  1.00  0.00     0.302 C 
HETATM    6  C14 UNL     1       0.966   0.588  81.474  1.00  0.00     0.305 C 
ENDROOT
BRANCH   1   7
HETATM    7  C7  UNL     1      -0.710   1.242  83.109  1.00  0.00     0.417 C 
BRANCH   7   8
HETATM    8  C6  UNL     1      -0.674   0.545  84.408  1.00  0.00     0.065 C 
BRANCH   8   9
HETATM    9  C5  UNL     1      -0.327   1.418  85.560  1.00  0.00     0.004 C 
BRANCH   9  10
HETATM   10  C4  UNL     1      -1.256   1.588  86.685  1.00  0.00     0.004 C 
BRANCH  10  11
HETATM   11  C2  UNL     1      -2.700   1.744  86.417  1.00  0.00    -0.023 C 
HETATM   12  C1  UNL     1      -3.135   3.212  86.628  1.00  0.00     0.009 C 
HETATM   13  C3  UNL     1      -3.703   0.878  87.041  1.00  0.00     0.009 C 
ENDBRANCH  10  11
ENDBRANCH   9  10
ENDBRANCH   8   9
ENDBRANCH   7   8
BRANCH   7  14
HETATM   14  N1  UNL     1      -1.393   2.496  83.127  1.00  0.00    -0.048 N 
ATOM     15  H13 UNL     1      -0.731   3.263  83.012  1.00  0.00     0.276 HD
ATOM     16  H12 UNL     1      -1.945   2.612  82.276  1.00  0.00     0.276 HD
ATOM     17  H11 UNL     1      -1.974   2.650  83.951  1.00  0.00     0.276 HD
ENDBRANCH   7  14
ENDBRANCH   1   7
BRANCH   4  18
HETATM   18  C10 UNL     1       2.603   3.253  79.437  1.00  0.00     0.292 C 
BRANCH  18  19
HETATM   19  C11 UNL     1       3.673   4.301  79.687  1.00  0.00     0.152 C 
BRANCH  19  20
HETATM   20  N4  UNL     1       4.886   3.852  79.046  1.00  0.00    -0.365 N 
HETATM   21  C12 UNL     1       5.977   3.726  79.703  1.00  0.00     0.197 C 
HETATM   22  N5  UNL     1       7.176   3.287  79.093  1.00  0.00    -0.067 NA
HETATM   23  N6  UNL     1       5.993   4.034  81.089  1.00  0.00    -0.067 NA
ATOM     24  H4  UNL     1       4.873   3.631  78.051  1.00  0.00     0.161 HD
ENDBRANCH  19  20
ENDBRANCH  18  19
ENDBRANCH   4  18
TORSDOF 9
ENDMDL
MODEL 5
REMARK VINA RESULT: -6.143830666      2.428      5.914
REMARK  9 active torsions:
REMARK  status: ('A' for Active; 'I' for Inactive)
REMARK    1  A    between atoms: C2_2  and  C4_4 
REMARK    2  A    between atoms: C4_4  and  C5_5 
REMARK    3  A    between atoms: C5_5  and  C6_6 
REMARK    4  A    between atoms: C6_6  and  C7_7 
REMARK    5  A    between atoms: C7_7  and  N1_8 
REMARK    6  A    between atoms: C7_7  and  N2_12 
REMARK    7  A    between atoms: N3_15  and  C10_16 
REMARK    8  A    between atoms: C10_16  and  C11_17 
REMARK    9  A    between atoms: C11_17  and  N4_18 
ROOT
HETATM    1  N2  UNL     1      -0.362   4.407  82.767  1.00  0.00     0.122 N 
HETATM    2  C8  UNL     1      -0.789   3.063  82.469  1.00  0.00     0.305 C 
HETATM    3  C9  UNL     1      -0.329   2.707  81.068  1.00  0.00     0.302 C 
HETATM    4  N3  UNL     1       1.094   2.737  81.033  1.00  0.00     0.093 N 
HETATM    5  C13 UNL     1       1.753   3.339  82.143  1.00  0.00     0.302 C 
HETATM    6  C14 UNL     1       1.061   4.552  82.719  1.00  0.00     0.305 C 
ENDROOT
BRANCH   1   7
HETATM    7  C7  UNL     1      -0.985   4.817  84.004  1.00  0.00     0.417 C 
BRANCH   7   8
HETATM    8  C6  UNL     1      -1.367   3.702  84.892  1.00  0.00     0.065 C 
BRANCH   8   9
HETATM    9  C5  UNL     1      -2.786   3.731  85.332  1.00  0.00     0.004 C 
BRANCH   9  10
HETATM   10  C4  UNL     1      -3.160   3.348  86.700  1.00  0.00     0.004 C 
BRANCH  10  11
HETATM   11  C2  UNL     1      -2.769   2.019  87.215  1.00  0.00    -0.023 C 
HETATM   12  C1  UNL     1      -3.824   0.958  86.829  1.00  0.00     0.009 C 
HETATM   13  C3  UNL     1      -2.403   1.808  88.617  1.00  0.00     0.009 C 
ENDBRANCH  10  11
ENDBRANCH   9  10
ENDBRANCH   8   9
ENDBRANCH   7   8
BRANCH   7  14
HETATM   14  N1  UNL     1      -0.120   5.782  84.603  1.00  0.00    -0.048 N 
ATOM     15  H13 UNL     1      -0.349   6.719  84.271  1.00  0.00     0.276 HD
ATOM     16  H12 UNL     1      -0.339   5.889  85.594  1.00  0.00     0.276 HD
ATOM     17  H11 UNL     1       0.875   5.596  84.478  1.00  0.00     0.276 HD
ENDBRANCH   7  14
ENDBRANCH   1   7
BRANCH   4  18
HETATM   18  C10 UNL     1       1.586   1.368  80.843  1.00  0.00     0.292 C 
BRANCH  18  19
HETATM   19  C11 UNL     1       0.471   0.450  80.373  1.00  0.00     0.152 C 
BRANCH  19  20
HETATM   20  N4  UNL     1       0.915  -0.911  80.560  1.00  0.00    -0.365 N 
HETATM   21  C12 UNL     1       0.335  -1.691  81.391  1.00  0.00     0.197 C 
HETATM   22  N5  UNL     1       0.754  -3.027  81.589  1.00  0.00    -0.067 NA
HETATM   23  N6  UNL     1      -0.767  -1.206  82.145  1.00  0.00    -0.067 NA
ATOM     24  H4  UNL     1       1.706  -1.257  80.017  1.00  0.00     0.161 HD
ENDBRANCH  19  20
ENDBRANCH  18  19
ENDBRANCH   4  18
TORSDOF 9
ENDMDL
