MODEL 1
REMARK VINA RESULT: -7.774593162      0.000      0.000
REMARK  5 active torsions:
REMARK  status: ('A' for Active; 'I' for Inactive)
REMARK    1  A    between atoms: N1_1  and  C1_4 
REMARK    2  A    between atoms: C2_10  and  C3_11 
REMARK    3  A    between atoms: C3_11  and  C5_18 
REMARK    4  A    between atoms: N4_12  and  O2_14 
REMARK    5  A    between atoms: O2_14  and  C4_15 
ROOT
HETATM    1  C1  UNL     1     -40.889 -23.317  11.140  1.00  0.00     0.152 A 
HETATM    2  N2  UNL     1     -41.714 -23.521  12.208  1.00  0.00    -0.224 N 
ATOM      3  H2  UNL     1     -41.513 -24.103  13.022  1.00  0.00     0.198 HD
HETATM    4  O1  UNL     1     -42.796 -22.841  12.002  1.00  0.00    -0.155 OA
HETATM    5  N3  UNL     1     -42.729 -22.207  10.868  1.00  0.00    -0.235 N 
ATOM      6  H3  UNL     1     -43.461 -21.606  10.490  1.00  0.00     0.197 HD
HETATM    7  C2  UNL     1     -41.551 -22.460  10.266  1.00  0.00     0.137 A 
ENDROOT
BRANCH   7   8
HETATM    8  C3  UNL     1     -41.077 -21.951   8.987  1.00  0.00     0.163 C 
HETATM    9  N4  UNL     1     -41.682 -22.236   7.899  1.00  0.00    -0.247 N 
ATOM     10  H4  UNL     1     -42.509 -22.832   7.941  1.00  0.00     0.195 HD
BRANCH   9  11
HETATM   11  O2  UNL     1     -41.269 -21.779   6.686  1.00  0.00    -0.183 OA
BRANCH  11  12
HETATM   12  C4  UNL     1     -41.698 -22.428   5.524  1.00  0.00     0.394 C 
HETATM   13  N5  UNL     1     -41.582 -23.837   5.368  1.00  0.00    -0.031 NA
HETATM   14  O3  UNL     1     -42.203 -21.737   4.586  1.00  0.00    -0.240 OA
ENDBRANCH  11  12
ENDBRANCH   9  11
BRANCH   8  15
HETATM   15  C5  UNL     1     -39.898 -21.103   8.925  1.00  0.00     0.231 C 
HETATM   16  O4  UNL     1     -38.760 -21.586   9.137  1.00  0.00    -0.643 OA
HETATM   17  O5  UNL     1     -39.977 -19.749   8.636  1.00  0.00    -0.643 OA
ENDBRANCH   8  15
ENDBRANCH   7   8
BRANCH   1  18
HETATM   18  N1  UNL     1     -39.711 -23.802  10.932  1.00  0.00    -0.382 N 
ATOM     19  H12 UNL     1     -39.250 -24.478  11.543  1.00  0.00     0.157 HD
ATOM     20  H11 UNL     1     -39.072 -23.605  10.162  1.00  0.00     0.157 HD
ENDBRANCH   1  18
TORSDOF 5
ENDMDL
MODEL 2
REMARK VINA RESULT: -7.716127945      0.904      1.437
REMARK  5 active torsions:
REMARK  status: ('A' for Active; 'I' for Inactive)
REMARK    1  A    between atoms: N1_1  and  C1_4 
REMARK    2  A    between atoms: C2_10  and  C3_11 
REMARK    3  A    between atoms: C3_11  and  C5_18 
REMARK    4  A    between atoms: N4_12  and  O2_14 
REMARK    5  A    between atoms: O2_14  and  C4_15 
ROOT
HETATM    1  C1  UNL     1     -41.607 -22.069  11.543  1.00  0.00     0.152 A 
HETATM    2  N2  UNL     1     -41.577 -23.018  12.524  1.00  0.00    -0.224 N 
ATOM      3  H2  UNL     1     -41.951 -22.920  13.468  1.00  0.00     0.198 HD
HETATM    4  O1  UNL     1     -40.989 -24.064  12.038  1.00  0.00    -0.155 OA
HETATM    5  N3  UNL     1     -40.634 -23.857  10.804  1.00  0.00    -0.235 N 
ATOM      6  H3  UNL     1     -40.156 -24.536  10.212  1.00  0.00     0.197 HD
HETATM    7  C2  UNL     1     -40.992 -22.617  10.421  1.00  0.00     0.137 A 
ENDROOT
BRANCH   7   8
HETATM    8  C3  UNL     1     -40.783 -21.990   9.124  1.00  0.00     0.163 C 
HETATM    9  N4  UNL     1     -41.615 -22.158   8.169  1.00  0.00    -0.247 N 
ATOM     10  H4  UNL     1     -42.434 -22.743   8.332  1.00  0.00     0.195 HD
BRANCH   9  11
HETATM   11  O2  UNL     1     -41.453 -21.589   6.945  1.00  0.00    -0.183 OA
BRANCH  11  12
HETATM   12  C4  UNL     1     -41.489 -22.395   5.801  1.00  0.00     0.394 C 
HETATM   13  N5  UNL     1     -40.964 -23.716   5.801  1.00  0.00    -0.031 NA
HETATM   14  O3  UNL     1     -42.006 -21.929   4.740  1.00  0.00    -0.240 OA
ENDBRANCH  11  12
ENDBRANCH   9  11
BRANCH   8  15
HETATM   15  C5  UNL     1     -39.615 -21.157   8.890  1.00  0.00     0.231 C 
HETATM   16  O4  UNL     1     -38.464 -21.656   8.933  1.00  0.00    -0.643 OA
HETATM   17  O5  UNL     1     -39.718 -19.802   8.615  1.00  0.00    -0.643 OA
ENDBRANCH   8  15
ENDBRANCH   7   8
BRANCH   1  18
HETATM   18  N1  UNL     1     -42.099 -20.877  11.595  1.00  0.00    -0.382 N 
ATOM     19  H12 UNL     1     -43.069 -20.664  11.830  1.00  0.00     0.157 HD
ATOM     20  H11 UNL     1     -41.629 -19.989  11.420  1.00  0.00     0.157 HD
ENDBRANCH   1  18
TORSDOF 5
ENDMDL
MODEL 3
REMARK VINA RESULT: -7.536772668      2.309      2.972
REMARK  5 active torsions:
REMARK  status: ('A' for Active; 'I' for Inactive)
REMARK    1  A    between atoms: N1_1  and  C1_4 
REMARK    2  A    between atoms: C2_10  and  C3_11 
REMARK    3  A    between atoms: C3_11  and  C5_18 
REMARK    4  A    between atoms: N4_12  and  O2_14 
REMARK    5  A    between atoms: O2_14  and  C4_15 
ROOT
HETATM    1  C1  UNL     1     -40.954 -22.635  11.899  1.00  0.00     0.152 A 
HETATM    2  N2  UNL     1     -41.065 -23.903  12.393  1.00  0.00    -0.224 N 
ATOM      3  H2  UNL     1     -41.443 -24.164  13.303  1.00  0.00     0.198 HD
HETATM    4  O1  UNL     1     -40.605 -24.714  11.494  1.00  0.00    -0.155 OA
HETATM    5  N3  UNL     1     -40.203 -24.055  10.447  1.00  0.00    -0.235 N 
ATOM      6  H3  UNL     1     -39.802 -24.477   9.609  1.00  0.00     0.197 HD
HETATM    7  C2  UNL     1     -40.391 -22.735  10.631  1.00  0.00     0.137 A 
ENDROOT
BRANCH   7   8
HETATM    8  C3  UNL     1     -40.077 -21.653   9.707  1.00  0.00     0.163 C 
HETATM    9  N4  UNL     1     -38.866 -21.358   9.426  1.00  0.00    -0.247 N 
ATOM     10  H4  UNL     1     -38.118 -21.897   9.862  1.00  0.00     0.195 HD
BRANCH   9  11
HETATM   11  O2  UNL     1     -38.535 -20.355   8.569  1.00  0.00    -0.183 OA
BRANCH  11  12
HETATM   12  C4  UNL     1     -38.350 -20.644   7.212  1.00  0.00     0.394 C 
HETATM   13  N5  UNL     1     -38.152 -21.974   6.751  1.00  0.00    -0.031 NA
HETATM   14  O3  UNL     1     -38.359 -19.689   6.376  1.00  0.00    -0.240 OA
ENDBRANCH  11  12
ENDBRANCH   9  11
BRANCH   8  15
HETATM   15  C5  UNL     1     -41.143 -20.885   9.086  1.00  0.00     0.231 C 
HETATM   16  O4  UNL     1     -41.705 -19.958   9.719  1.00  0.00    -0.643 OA
HETATM   17  O5  UNL     1     -41.578 -21.135   7.794  1.00  0.00    -0.643 OA
ENDBRANCH   8  15
ENDBRANCH   7   8
BRANCH   1  18
HETATM   18  N1  UNL     1     -41.291 -21.524  12.462  1.00  0.00    -0.382 N 
ATOM     19  H12 UNL     1     -42.178 -21.367  12.941  1.00  0.00     0.157 HD
ATOM     20  H11 UNL     1     -40.757 -20.657  12.521  1.00  0.00     0.157 HD
ENDBRANCH   1  18
TORSDOF 5
ENDMDL
MODEL 4
REMARK VINA RESULT: -7.516200734      1.222      1.222
REMARK  5 active torsions:
REMARK  status: ('A' for Active; 'I' for Inactive)
REMARK    1  A    between atoms: N1_1  and  C1_4 
REMARK    2  A    between atoms: C2_10  and  C3_11 
REMARK    3  A    between atoms: C3_11  and  C5_18 
REMARK    4  A    between atoms: N4_12  and  O2_14 
REMARK    5  A    between atoms: O2_14  and  C4_15 
ROOT
HETATM    1  C1  UNL     1     -40.817 -22.407  11.178  1.00  0.00     0.152 A 
HETATM    2  N2  UNL     1     -41.309 -21.965  12.372  1.00  0.00    -0.224 N 
ATOM      3  H2  UNL     1     -41.220 -22.436  13.272  1.00  0.00     0.198 HD
HETATM    4  O1  UNL     1     -41.908 -20.837  12.154  1.00  0.00    -0.155 OA
HETATM    5  N3  UNL     1     -41.836 -20.517  10.895  1.00  0.00    -0.235 N 
ATOM      6  H3  UNL     1     -42.234 -19.673  10.483  1.00  0.00     0.197 HD
HETATM    7  C2  UNL     1     -41.161 -21.463  10.215  1.00  0.00     0.137 A 
ENDROOT
BRANCH   7   8
HETATM    8  C3  UNL     1     -40.858 -21.490   8.791  1.00  0.00     0.163 C 
HETATM    9  N4  UNL     1     -41.625 -22.093   7.966  1.00  0.00    -0.247 N 
ATOM     10  H4  UNL     1     -42.459 -22.557   8.324  1.00  0.00     0.195 HD
BRANCH   9  11
HETATM   11  O2  UNL     1     -41.374 -22.139   6.630  1.00  0.00    -0.183 OA
BRANCH  11  12
HETATM   12  C4  UNL     1     -41.638 -23.317   5.922  1.00  0.00     0.394 C 
HETATM   13  N5  UNL     1     -40.645 -24.320   5.742  1.00  0.00    -0.031 NA
HETATM   14  O3  UNL     1     -42.794 -23.490   5.429  1.00  0.00    -0.240 OA
ENDBRANCH  11  12
ENDBRANCH   9  11
BRANCH   8  15
HETATM   15  C5  UNL     1     -39.668 -20.830   8.280  1.00  0.00     0.231 C 
HETATM   16  O4  UNL     1     -38.592 -21.465   8.168  1.00  0.00    -0.643 OA
HETATM   17  O5  UNL     1     -39.669 -19.496   7.902  1.00  0.00    -0.643 OA
ENDBRANCH   8  15
ENDBRANCH   7   8
BRANCH   1  18
HETATM   18  N1  UNL     1     -40.152 -23.486  10.935  1.00  0.00    -0.382 N 
ATOM     19  H12 UNL     1     -39.434 -23.871  11.550  1.00  0.00     0.157 HD
ATOM     20  H11 UNL     1     -40.227 -24.108  10.130  1.00  0.00     0.157 HD
ENDBRANCH   1  18
TORSDOF 5
ENDMDL
MODEL 5
REMARK VINA RESULT: -7.369283202      1.843      5.165
REMARK  5 active torsions:
REMARK  status: ('A' for Active; 'I' for Inactive)
REMARK    1  A    between atoms: N1_1  and  C1_4 
REMARK    2  A    between atoms: C2_10  and  C3_11 
REMARK    3  A    between atoms: C3_11  and  C5_18 
REMARK    4  A    between atoms: N4_12  and  O2_14 
REMARK    5  A    between atoms: O2_14  and  C4_15 
ROOT
HETATM    1  C1  UNL     1     -40.189 -21.128   8.257  1.00  0.00     0.152 A 
HETATM    2  N2  UNL     1     -40.338 -20.922   6.916  1.00  0.00    -0.224 N 
ATOM      3  H2  UNL     1     -39.878 -20.199   6.363  1.00  0.00     0.198 HD
HETATM    4  O1  UNL     1     -41.170 -21.811   6.474  1.00  0.00    -0.155 OA
HETATM    5  N3  UNL     1     -41.570 -22.583   7.441  1.00  0.00    -0.235 N 
ATOM      6  H3  UNL     1     -42.226 -23.357   7.337  1.00  0.00     0.197 HD
HETATM    7  C2  UNL     1     -40.993 -22.212   8.599  1.00  0.00     0.137 A 
ENDROOT
BRANCH   7   8
HETATM    8  C3  UNL     1     -41.169 -22.811   9.914  1.00  0.00     0.163 C 
HETATM    9  N4  UNL     1     -42.233 -22.610  10.592  1.00  0.00    -0.247 N 
ATOM     10  H4  UNL     1     -42.963 -22.020  10.193  1.00  0.00     0.195 HD
BRANCH   9  11
HETATM   11  O2  UNL     1     -42.433 -23.153  11.823  1.00  0.00    -0.183 OA
BRANCH  11  12
HETATM   12  C4  UNL     1     -41.692 -22.679  12.911  1.00  0.00     0.394 C 
HETATM   13  N5  UNL     1     -41.253 -23.545  13.951  1.00  0.00    -0.031 NA
HETATM   14  O3  UNL     1     -41.408 -21.444  12.968  1.00  0.00    -0.240 OA
ENDBRANCH  11  12
ENDBRANCH   9  11
BRANCH   8  15
HETATM   15  C5  UNL     1     -40.130 -23.651  10.484  1.00  0.00     0.231 C 
HETATM   16  O4  UNL     1     -39.048 -23.145  10.869  1.00  0.00    -0.643 OA
HETATM   17  O5  UNL     1     -40.283 -25.023  10.625  1.00  0.00    -0.643 OA
ENDBRANCH   8  15
ENDBRANCH   7   8
BRANCH   1  18
HETATM   18  N1  UNL     1     -39.455 -20.473   9.092  1.00  0.00    -0.382 N 
ATOM     19  H12 UNL     1     -38.662 -19.889   8.827  1.00  0.00     0.157 HD
ATOM     20  H11 UNL     1     -39.537 -20.428  10.108  1.00  0.00     0.157 HD
ENDBRANCH   1  18
TORSDOF 5
ENDMDL
