MODEL 1
REMARK VINA RESULT: -7.129456950      0.000      0.000
REMARK  6 active torsions:
REMARK  status: ('A' for Active; 'I' for Inactive)
REMARK    1  A    between atoms: C2_2  and  O1_3 
REMARK    2  A    between atoms: O1_3  and  C3_4 
REMARK    3  A    between atoms: C3_4  and  C4_6 
REMARK    4  A    between atoms: C4_6  and  N1_8 
REMARK    5  A    between atoms: N1_8  and  N2_9 
REMARK    6  A    between atoms: N2_9  and  C6_11 
ROOT
HETATM    1  C6  UNL     1     -41.259 -21.918  10.007  1.00  0.00     0.133 C 
HETATM    2  N3  UNL     1     -41.520 -21.130  10.969  1.00  0.00    -0.290 N 
ATOM      3  H3  UNL     1     -41.854 -20.187  10.769  1.00  0.00     0.188 HD
HETATM    4  N4  UNL     1     -41.359 -21.532  12.285  1.00  0.00    -0.310 N 
ATOM      5  H4  UNL     1     -41.421 -20.842  13.035  1.00  0.00     0.182 HD
HETATM    6  C7  UNL     1     -41.105 -22.919  12.608  1.00  0.00     0.371 C 
HETATM    7  N5  UNL     1     -41.360 -23.803  11.515  1.00  0.00    -0.051 N 
ATOM      8  H51 UNL     1     -42.355 -23.997  11.408  1.00  0.00     0.279 HD
ATOM      9  H52 UNL     1     -41.042 -24.752  11.713  1.00  0.00     0.279 HD
HETATM   10  C8  UNL     1     -40.777 -23.283  10.294  1.00  0.00     0.312 C 
ENDROOT
BRANCH   1  11
HETATM   11  N2  UNL     1     -41.419 -21.518   8.629  1.00  0.00    -0.290 N 
ATOM     12  H2  UNL     1     -42.079 -22.010   8.027  1.00  0.00     0.183 HD
BRANCH  11  13
HETATM   13  N1  UNL     1     -40.671 -20.463   8.124  1.00  0.00    -0.125 NA
BRANCH  13  14
HETATM   14  C4  UNL     1     -40.070 -20.850   6.885  1.00  0.00     0.195 C 
HETATM   15  C5  UNL     1     -38.651 -21.316   7.062  1.00  0.00     0.040 C 
BRANCH  14  16
HETATM   16  C3  UNL     1     -40.898 -21.841   6.143  1.00  0.00     0.284 C 
HETATM   17  O2  UNL     1     -41.770 -21.459   5.298  1.00  0.00    -0.263 OA
BRANCH  16  18
HETATM   18  O1  UNL     1     -40.766 -23.202   6.329  1.00  0.00    -0.291 OA
BRANCH  18  19
HETATM   19  C2  UNL     1     -41.492 -24.154   5.632  1.00  0.00     0.135 C 
HETATM   20  C1  UNL     1     -40.856 -25.184   5.132  1.00  0.00     0.038 C 
ENDBRANCH  18  19
ENDBRANCH  16  18
ENDBRANCH  14  16
ENDBRANCH  13  14
ENDBRANCH  11  13
ENDBRANCH   1  11
TORSDOF 6
ENDMDL
MODEL 2
REMARK VINA RESULT: -6.913305014      1.092      1.407
REMARK  6 active torsions:
REMARK  status: ('A' for Active; 'I' for Inactive)
REMARK    1  A    between atoms: C2_2  and  O1_3 
REMARK    2  A    between atoms: O1_3  and  C3_4 
REMARK    3  A    between atoms: C3_4  and  C4_6 
REMARK    4  A    between atoms: C4_6  and  N1_8 
REMARK    5  A    between atoms: N1_8  and  N2_9 
REMARK    6  A    between atoms: N2_9  and  C6_11 
ROOT
HETATM    1  C6  UNL     1     -41.079 -21.750  10.370  1.00  0.00     0.133 C 
HETATM    2  N3  UNL     1     -41.482 -21.140  11.408  1.00  0.00    -0.290 N 
ATOM      3  H3  UNL     1     -41.855 -20.194  11.322  1.00  0.00     0.188 HD
HETATM    4  N4  UNL     1     -41.425 -21.740  12.656  1.00  0.00    -0.310 N 
ATOM      5  H4  UNL     1     -41.603 -21.183  13.492  1.00  0.00     0.182 HD
HETATM    6  C7  UNL     1     -41.114 -23.147  12.786  1.00  0.00     0.371 C 
HETATM    7  N5  UNL     1     -41.204 -23.856  11.548  1.00  0.00    -0.051 N 
ATOM      8  H51 UNL     1     -42.171 -24.077  11.308  1.00  0.00     0.279 HD
ATOM      9  H52 UNL     1     -40.847 -24.807  11.630  1.00  0.00     0.279 HD
HETATM   10  C8  UNL     1     -40.541 -23.119  10.492  1.00  0.00     0.312 C 
ENDROOT
BRANCH   1  11
HETATM   11  N2  UNL     1     -41.130 -21.143   9.060  1.00  0.00    -0.290 N 
ATOM     12  H2  UNL     1     -41.799 -21.477   8.367  1.00  0.00     0.183 HD
BRANCH  11  13
HETATM   13  N1  UNL     1     -40.264 -20.103   8.747  1.00  0.00    -0.125 NA
BRANCH  13  14
HETATM   14  C4  UNL     1     -39.868 -20.205   7.376  1.00  0.00     0.195 C 
HETATM   15  C5  UNL     1     -38.812 -19.197   7.012  1.00  0.00     0.040 C 
BRANCH  14  16
HETATM   16  C3  UNL     1     -39.471 -21.593   7.006  1.00  0.00     0.284 C 
HETATM   17  O2  UNL     1     -38.254 -21.879   6.765  1.00  0.00    -0.263 OA
BRANCH  16  18
HETATM   18  O1  UNL     1     -40.384 -22.622   6.907  1.00  0.00    -0.291 OA
BRANCH  18  19
HETATM   19  C2  UNL     1     -41.299 -22.750   5.874  1.00  0.00     0.135 C 
HETATM   20  C1  UNL     1     -41.585 -23.950   5.438  1.00  0.00     0.038 C 
ENDBRANCH  18  19
ENDBRANCH  16  18
ENDBRANCH  14  16
ENDBRANCH  13  14
ENDBRANCH  11  13
ENDBRANCH   1  11
TORSDOF 6
ENDMDL
MODEL 3
REMARK VINA RESULT: -6.589468135      1.214      1.827
REMARK  6 active torsions:
REMARK  status: ('A' for Active; 'I' for Inactive)
REMARK    1  A    between atoms: C2_2  and  O1_3 
REMARK    2  A    between atoms: O1_3  and  C3_4 
REMARK    3  A    between atoms: C3_4  and  C4_6 
REMARK    4  A    between atoms: C4_6  and  N1_8 
REMARK    5  A    between atoms: N1_8  and  N2_9 
REMARK    6  A    between atoms: N2_9  and  C6_11 
ROOT
HETATM    1  C6  UNL     1     -41.303 -21.955  10.169  1.00  0.00     0.133 C 
HETATM    2  N3  UNL     1     -40.912 -23.163  10.211  1.00  0.00    -0.290 N 
ATOM      3  H3  UNL     1     -40.571 -23.611   9.360  1.00  0.00     0.188 HD
HETATM    4  N4  UNL     1     -40.940 -23.882  11.396  1.00  0.00    -0.310 N 
ATOM      5  H4  UNL     1     -40.774 -24.888  11.380  1.00  0.00     0.182 HD
HETATM    6  C7  UNL     1     -41.203 -23.220  12.655  1.00  0.00     0.371 C 
HETATM    7  N5  UNL     1     -41.100 -21.797  12.571  1.00  0.00    -0.051 N 
ATOM      8  H51 UNL     1     -40.129 -21.486  12.594  1.00  0.00     0.279 HD
ATOM      9  H52 UNL     1     -41.425 -21.342  13.424  1.00  0.00     0.279 HD
HETATM   10  C8  UNL     1     -41.796 -21.305  11.399  1.00  0.00     0.312 C 
ENDROOT
BRANCH   1  11
HETATM   11  N2  UNL     1     -41.283 -21.189   8.945  1.00  0.00    -0.290 N 
ATOM     12  H2  UNL     1     -41.982 -21.361   8.222  1.00  0.00     0.183 HD
BRANCH  11  13
HETATM   13  N1  UNL     1     -40.308 -20.219   8.754  1.00  0.00    -0.125 NA
BRANCH  13  14
HETATM   14  C4  UNL     1     -39.854 -20.255   7.398  1.00  0.00     0.195 C 
HETATM   15  C5  UNL     1     -38.763 -19.253   7.136  1.00  0.00     0.040 C 
BRANCH  14  16
HETATM   16  C3  UNL     1     -39.469 -21.628   6.969  1.00  0.00     0.284 C 
HETATM   17  O2  UNL     1     -38.269 -21.895   6.638  1.00  0.00    -0.263 OA
BRANCH  16  18
HETATM   18  O1  UNL     1     -40.376 -22.665   6.909  1.00  0.00    -0.291 OA
BRANCH  18  19
HETATM   19  C2  UNL     1     -41.263 -22.860   5.861  1.00  0.00     0.135 C 
HETATM   20  C1  UNL     1     -41.470 -24.081   5.436  1.00  0.00     0.038 C 
ENDBRANCH  18  19
ENDBRANCH  16  18
ENDBRANCH  14  16
ENDBRANCH  13  14
ENDBRANCH  11  13
ENDBRANCH   1  11
TORSDOF 6
ENDMDL
MODEL 4
REMARK VINA RESULT: -6.257643013      1.474      2.988
REMARK  6 active torsions:
REMARK  status: ('A' for Active; 'I' for Inactive)
REMARK    1  A    between atoms: C2_2  and  O1_3 
REMARK    2  A    between atoms: O1_3  and  C3_4 
REMARK    3  A    between atoms: C3_4  and  C4_6 
REMARK    4  A    between atoms: C4_6  and  N1_8 
REMARK    5  A    between atoms: N1_8  and  N2_9 
REMARK    6  A    between atoms: N2_9  and  C6_11 
ROOT
HETATM    1  C6  UNL     1     -41.312 -22.152   9.897  1.00  0.00     0.133 C 
HETATM    2  N3  UNL     1     -41.564 -21.221  10.723  1.00  0.00    -0.290 N 
ATOM      3  H3  UNL     1     -41.932 -20.333  10.383  1.00  0.00     0.188 HD
HETATM    4  N4  UNL     1     -41.348 -21.394  12.081  1.00  0.00    -0.310 N 
ATOM      5  H4  UNL     1     -41.404 -20.591  12.708  1.00  0.00     0.182 HD
HETATM    6  C7  UNL     1     -41.042 -22.702  12.620  1.00  0.00     0.371 C 
HETATM    7  N5  UNL     1     -41.308 -23.762  11.698  1.00  0.00    -0.051 N 
ATOM      8  H51 UNL     1     -42.301 -23.993  11.663  1.00  0.00     0.279 HD
ATOM      9  H52 UNL     1     -40.956 -24.657  12.038  1.00  0.00     0.279 HD
HETATM   10  C8  UNL     1     -40.782 -23.439  10.387  1.00  0.00     0.312 C 
ENDROOT
BRANCH   1  11
HETATM   11  N2  UNL     1     -41.530 -21.992   8.478  1.00  0.00    -0.290 N 
ATOM     12  H2  UNL     1     -41.838 -21.094   8.106  1.00  0.00     0.183 HD
BRANCH  11  13
HETATM   13  N1  UNL     1     -41.320 -23.065   7.621  1.00  0.00    -0.125 NA
BRANCH  13  14
HETATM   14  C4  UNL     1     -40.761 -22.594   6.391  1.00  0.00     0.195 C 
HETATM   15  C5  UNL     1     -41.810 -22.042   5.465  1.00  0.00     0.040 C 
BRANCH  14  16
HETATM   16  C3  UNL     1     -39.644 -21.634   6.611  1.00  0.00     0.284 C 
HETATM   17  O2  UNL     1     -38.437 -22.036   6.650  1.00  0.00    -0.263 OA
BRANCH  16  18
HETATM   18  O1  UNL     1     -39.855 -20.281   6.781  1.00  0.00    -0.291 OA
BRANCH  18  19
HETATM   19  C2  UNL     1     -39.241 -19.518   7.762  1.00  0.00     0.135 C 
HETATM   20  C1  UNL     1     -38.218 -18.774   7.427  1.00  0.00     0.038 C 
ENDBRANCH  18  19
ENDBRANCH  16  18
ENDBRANCH  14  16
ENDBRANCH  13  14
ENDBRANCH  11  13
ENDBRANCH   1  11
TORSDOF 6
ENDMDL
MODEL 5
REMARK VINA RESULT: -6.250157527      1.664      2.076
REMARK  6 active torsions:
REMARK  status: ('A' for Active; 'I' for Inactive)
REMARK    1  A    between atoms: C2_2  and  O1_3 
REMARK    2  A    between atoms: O1_3  and  C3_4 
REMARK    3  A    between atoms: C3_4  and  C4_6 
REMARK    4  A    between atoms: C4_6  and  N1_8 
REMARK    5  A    between atoms: N1_8  and  N2_9 
REMARK    6  A    between atoms: N2_9  and  C6_11 
ROOT
HETATM    1  C6  UNL     1     -41.316 -22.181   9.746  1.00  0.00     0.133 C 
HETATM    2  N3  UNL     1     -41.597 -21.244  10.556  1.00  0.00    -0.290 N 
ATOM      3  H3  UNL     1     -41.987 -20.372  10.198  1.00  0.00     0.188 HD
HETATM    4  N4  UNL     1     -41.381 -21.388  11.917  1.00  0.00    -0.310 N 
ATOM      5  H4  UNL     1     -41.463 -20.576  12.530  1.00  0.00     0.182 HD
HETATM    6  C7  UNL     1     -41.043 -22.677  12.479  1.00  0.00     0.371 C 
HETATM    7  N5  UNL     1     -41.276 -23.760  11.575  1.00  0.00    -0.051 N 
ATOM      8  H51 UNL     1     -42.262 -24.018  11.540  1.00  0.00     0.279 HD
ATOM      9  H52 UNL     1     -40.901 -24.639  11.932  1.00  0.00     0.279 HD
HETATM   10  C8  UNL     1     -40.753 -23.445  10.261  1.00  0.00     0.312 C 
ENDROOT
BRANCH   1  11
HETATM   11  N2  UNL     1     -41.532 -22.052   8.324  1.00  0.00    -0.290 N 
ATOM     12  H2  UNL     1     -42.096 -21.284   7.960  1.00  0.00     0.183 HD
BRANCH  11  13
HETATM   13  N1  UNL     1     -40.970 -22.976   7.453  1.00  0.00    -0.125 NA
BRANCH  13  14
HETATM   14  C4  UNL     1     -41.778 -23.079   6.277  1.00  0.00     0.195 C 
HETATM   15  C5  UNL     1     -41.564 -21.925   5.336  1.00  0.00     0.040 C 
BRANCH  14  16
HETATM   16  C3  UNL     1     -41.617 -24.395   5.597  1.00  0.00     0.284 C 
HETATM   17  O2  UNL     1     -42.586 -24.924   4.964  1.00  0.00    -0.263 OA
BRANCH  16  18
HETATM   18  O1  UNL     1     -40.430 -25.097   5.617  1.00  0.00    -0.291 OA
BRANCH  18  19
HETATM   19  C2  UNL     1     -40.261 -26.352   5.055  1.00  0.00     0.135 C 
HETATM   20  C1  UNL     1     -40.293 -27.399   5.840  1.00  0.00     0.038 C 
ENDBRANCH  18  19
ENDBRANCH  16  18
ENDBRANCH  14  16
ENDBRANCH  13  14
ENDBRANCH  11  13
ENDBRANCH   1  11
TORSDOF 6
ENDMDL
