MODEL 1
REMARK VINA RESULT: -8.141980027      0.000      0.000
REMARK  3 active torsions:
REMARK  status: ('A' for Active; 'I' for Inactive)
REMARK    1  A    between atoms: C8_8  and  C9_9 
REMARK       I    between atoms: C9_9  and  N1_11 
REMARK    2  A    between atoms: C10_13  and  N3_16 
REMARK    3  A    between atoms: N3_16  and  N4_18 
ROOT
HETATM    1  C1  UNL     1      18.028  77.977  55.258  1.00  0.00     0.013 C 
HETATM    2  C2  UNL     1      17.566  77.666  56.328  1.00  0.00    -0.107 C 
HETATM    3  C3  UNL     1      17.024  77.282  57.653  1.00  0.00     0.028 A 
HETATM    4  C4  UNL     1      15.588  77.663  57.875  1.00  0.00     0.023 C 
HETATM    5  C5  UNL     1      14.749  76.633  57.117  1.00  0.00     0.007 C 
HETATM    6  C6  UNL     1      14.920  75.241  57.665  1.00  0.00    -0.005 C 
HETATM    7  C7  UNL     1      13.593  74.754  58.245  1.00  0.00     0.011 C 
HETATM    8  C8  UNL     1      16.019  75.280  58.706  1.00  0.00     0.087 C 
HETATM    9  C12 UNL     1      17.262  75.836  58.069  1.00  0.00     0.021 A 
HETATM   10  C13 UNL     1      17.973  76.971  58.716  1.00  0.00     0.030 A 
ENDROOT
BRANCH   8  11
HETATM   11  C9  UNL     1      16.292  73.892  59.152  1.00  0.00     0.228 C 
HETATM   12  O1  UNL     1      16.779  73.086  58.306  1.00  0.00    -0.273 OA
HETATM   13  N1  UNL     1      16.015  73.487  60.478  1.00  0.00    -0.303 N 
HETATM   14  C10 UNL     1      16.850  72.766  61.111  1.00  0.00     0.206 C 
ATOM     15  H1  UNL     1      15.145  73.773  60.926  1.00  0.00     0.171 HD
HETATM   16  C11 UNL     1      18.061  72.368  60.483  1.00  0.00     0.138 C 
HETATM   17  N2  UNL     1      19.060  72.032  59.985  1.00  0.00    -0.188 NA
BRANCH  14  18
HETATM   18  N3  UNL     1      16.526  72.378  62.454  1.00  0.00    -0.262 N 
ATOM     19  H3  UNL     1      15.601  72.556  62.844  1.00  0.00     0.190 HD
BRANCH  18  20
HETATM   20  N4  UNL     1      17.513  71.755  63.206  1.00  0.00    -0.247 N 
HETATM   21  N5  UNL     1      17.169  71.060  64.205  1.00  0.00    -0.331 N 
ATOM     22  H52 UNL     1      16.180  70.970  64.441  1.00  0.00     0.178 HD
ATOM     23  H51 UNL     1      17.893  70.603  64.757  1.00  0.00     0.178 HD
ATOM     24  H4  UNL     1      18.498  71.856  62.957  1.00  0.00     0.207 HD
ENDBRANCH  18  20
ENDBRANCH  14  18
ENDBRANCH   8  11
TORSDOF 3
ENDMDL
MODEL 2
REMARK VINA RESULT: -8.137767762      3.836      6.193
REMARK  3 active torsions:
REMARK  status: ('A' for Active; 'I' for Inactive)
REMARK    1  A    between atoms: C8_8  and  C9_9 
REMARK       I    between atoms: C9_9  and  N1_11 
REMARK    2  A    between atoms: C10_13  and  N3_16 
REMARK    3  A    between atoms: N3_16  and  N4_18 
ROOT
HETATM    1  C1  UNL     1      19.337  74.101  62.756  1.00  0.00     0.013 C 
HETATM    2  C2  UNL     1      18.543  74.327  61.877  1.00  0.00    -0.107 C 
HETATM    3  C3  UNL     1      17.561  74.578  60.795  1.00  0.00     0.028 A 
HETATM    4  C4  UNL     1      17.063  75.993  60.718  1.00  0.00     0.023 C 
HETATM    5  C5  UNL     1      18.172  76.801  60.042  1.00  0.00     0.007 C 
HETATM    6  C6  UNL     1      18.425  76.350  58.627  1.00  0.00    -0.005 C 
HETATM    7  C7  UNL     1      18.072  77.480  57.661  1.00  0.00     0.011 C 
HETATM    8  C8  UNL     1      17.599  75.106  58.378  1.00  0.00     0.087 C 
HETATM    9  C12 UNL     1      17.959  74.077  59.413  1.00  0.00     0.021 A 
HETATM   10  C13 UNL     1      16.882  73.428  60.208  1.00  0.00     0.030 A 
ENDROOT
BRANCH   8  11
HETATM   11  C9  UNL     1      17.945  74.574  57.037  1.00  0.00     0.228 C 
HETATM   12  O1  UNL     1      16.995  74.314  56.242  1.00  0.00    -0.273 OA
HETATM   13  N1  UNL     1      19.293  74.366  56.663  1.00  0.00    -0.303 N 
HETATM   14  C10 UNL     1      19.692  74.706  55.504  1.00  0.00     0.206 C 
ATOM     15  H1  UNL     1      19.944  73.943  57.323  1.00  0.00     0.171 HD
HETATM   16  C11 UNL     1      18.782  75.295  54.586  1.00  0.00     0.138 C 
HETATM   17  N2  UNL     1      18.050  75.781  53.819  1.00  0.00    -0.188 NA
BRANCH  14  18
HETATM   18  N3  UNL     1      21.068  74.475  55.169  1.00  0.00    -0.262 N 
ATOM     19  H3  UNL     1      21.353  73.637  54.663  1.00  0.00     0.190 HD
BRANCH  18  20
HETATM   20  N4  UNL     1      22.000  75.430  55.556  1.00  0.00    -0.247 N 
HETATM   21  N5  UNL     1      22.749  75.940  54.675  1.00  0.00    -0.331 N 
ATOM     22  H52 UNL     1      22.658  75.646  53.702  1.00  0.00     0.178 HD
ATOM     23  H51 UNL     1      23.433  76.641  54.959  1.00  0.00     0.178 HD
ATOM     24  H4  UNL     1      22.078  75.713  56.533  1.00  0.00     0.207 HD
ENDBRANCH  18  20
ENDBRANCH  14  18
ENDBRANCH   8  11
TORSDOF 3
ENDMDL
MODEL 3
REMARK VINA RESULT: -8.121872764      3.038      6.100
REMARK  3 active torsions:
REMARK  status: ('A' for Active; 'I' for Inactive)
REMARK    1  A    between atoms: C8_8  and  C9_9 
REMARK       I    between atoms: C9_9  and  N1_11 
REMARK    2  A    between atoms: C10_13  and  N3_16 
REMARK    3  A    between atoms: N3_16  and  N4_18 
ROOT
HETATM    1  C1  UNL     1      17.453  71.352  63.909  1.00  0.00     0.013 C 
HETATM    2  C2  UNL     1      18.057  72.094  63.175  1.00  0.00    -0.107 C 
HETATM    3  C3  UNL     1      18.798  73.026  62.291  1.00  0.00     0.028 A 
HETATM    4  C4  UNL     1      19.537  72.364  61.163  1.00  0.00     0.023 C 
HETATM    5  C5  UNL     1      18.487  72.029  60.102  1.00  0.00     0.007 C 
HETATM    6  C6  UNL     1      17.836  73.262  59.533  1.00  0.00    -0.005 C 
HETATM    7  C7  UNL     1      18.178  73.381  58.049  1.00  0.00     0.011 C 
HETATM    8  C8  UNL     1      18.319  74.456  60.329  1.00  0.00     0.087 C 
HETATM    9  C12 UNL     1      18.006  74.222  61.781  1.00  0.00     0.021 A 
HETATM   10  C13 UNL     1      19.084  74.364  62.796  1.00  0.00     0.030 A 
ENDROOT
BRANCH   8  11
HETATM   11  C9  UNL     1      17.580  75.657  59.869  1.00  0.00     0.228 C 
HETATM   12  O1  UNL     1      18.203  76.759  59.844  1.00  0.00    -0.273 OA
HETATM   13  N1  UNL     1      16.226  75.569  59.472  1.00  0.00    -0.303 N 
HETATM   14  C10 UNL     1      15.826  76.183  58.432  1.00  0.00     0.206 C 
ATOM     15  H1  UNL     1      15.570  75.014  60.020  1.00  0.00     0.171 HD
HETATM   16  C11 UNL     1      16.742  76.957  57.670  1.00  0.00     0.138 C 
HETATM   17  N2  UNL     1      17.479  77.596  57.032  1.00  0.00    -0.188 NA
BRANCH  14  18
HETATM   18  N3  UNL     1      14.443  76.065  58.068  1.00  0.00    -0.262 N 
ATOM     19  H3  UNL     1      13.939  76.850  57.656  1.00  0.00     0.190 HD
BRANCH  18  20
HETATM   20  N4  UNL     1      13.813  74.849  58.295  1.00  0.00    -0.247 N 
HETATM   21  N5  UNL     1      12.611  74.709  57.928  1.00  0.00    -0.331 N 
ATOM     22  H52 UNL     1      12.128  75.485  57.474  1.00  0.00     0.178 HD
ATOM     23  H51 UNL     1      12.148  73.816  58.094  1.00  0.00     0.178 HD
ATOM     24  H4  UNL     1      14.310  74.083  58.750  1.00  0.00     0.207 HD
ENDBRANCH  18  20
ENDBRANCH  14  18
ENDBRANCH   8  11
TORSDOF 3
ENDMDL
MODEL 4
REMARK VINA RESULT: -8.076733791      3.436      5.127
REMARK  3 active torsions:
REMARK  status: ('A' for Active; 'I' for Inactive)
REMARK    1  A    between atoms: C8_8  and  C9_9 
REMARK       I    between atoms: C9_9  and  N1_11 
REMARK    2  A    between atoms: C10_13  and  N3_16 
REMARK    3  A    between atoms: N3_16  and  N4_18 
ROOT
HETATM    1  C1  UNL     1      19.367  74.186  62.751  1.00  0.00     0.013 C 
HETATM    2  C2  UNL     1      18.478  74.581  62.039  1.00  0.00    -0.107 C 
HETATM    3  C3  UNL     1      17.372  75.044  61.167  1.00  0.00     0.028 A 
HETATM    4  C4  UNL     1      17.310  76.532  60.971  1.00  0.00     0.023 C 
HETATM    5  C5  UNL     1      18.397  76.876  59.951  1.00  0.00     0.007 C 
HETATM    6  C6  UNL     1      18.138  76.248  58.607  1.00  0.00    -0.005 C 
HETATM    7  C7  UNL     1      17.899  77.345  57.570  1.00  0.00     0.011 C 
HETATM    8  C8  UNL     1      16.947  75.322  58.744  1.00  0.00     0.087 C 
HETATM    9  C12 UNL     1      17.240  74.325  59.831  1.00  0.00     0.021 A 
HETATM   10  C13 UNL     1      16.259  74.131  60.932  1.00  0.00     0.030 A 
ENDROOT
BRANCH   8  11
HETATM   11  C9  UNL     1      16.769  74.595  57.464  1.00  0.00     0.228 C 
HETATM   12  O1  UNL     1      17.810  74.212  56.853  1.00  0.00    -0.273 OA
HETATM   13  N1  UNL     1      15.478  74.339  56.947  1.00  0.00    -0.303 N 
HETATM   14  C10 UNL     1      15.205  73.199  56.453  1.00  0.00     0.206 C 
ATOM     15  H1  UNL     1      14.767  75.068  56.971  1.00  0.00     0.171 HD
HETATM   16  C11 UNL     1      16.198  72.184  56.420  1.00  0.00     0.138 C 
HETATM   17  N2  UNL     1      17.001  71.338  56.386  1.00  0.00    -0.188 NA
BRANCH  14  18
HETATM   18  N3  UNL     1      13.882  72.985  55.940  1.00  0.00    -0.262 N 
ATOM     19  H3  UNL     1      13.633  73.268  54.992  1.00  0.00     0.190 HD
BRANCH  18  20
HETATM   20  N4  UNL     1      12.951  72.380  56.775  1.00  0.00    -0.247 N 
HETATM   21  N5  UNL     1      12.804  71.126  56.714  1.00  0.00    -0.331 N 
ATOM     22  H52 UNL     1      13.366  70.583  56.058  1.00  0.00     0.178 HD
ATOM     23  H51 UNL     1      12.121  70.682  57.327  1.00  0.00     0.178 HD
ATOM     24  H4  UNL     1      12.397  72.938  57.425  1.00  0.00     0.207 HD
ENDBRANCH  18  20
ENDBRANCH  14  18
ENDBRANCH   8  11
TORSDOF 3
ENDMDL
MODEL 5
REMARK VINA RESULT: -7.996296792      3.431      6.001
REMARK  3 active torsions:
REMARK  status: ('A' for Active; 'I' for Inactive)
REMARK    1  A    between atoms: C8_8  and  C9_9 
REMARK       I    between atoms: C9_9  and  N1_11 
REMARK    2  A    between atoms: C10_13  and  N3_16 
REMARK    3  A    between atoms: N3_16  and  N4_18 
ROOT
HETATM    1  C1  UNL     1      17.526  71.728  63.863  1.00  0.00     0.013 C 
HETATM    2  C2  UNL     1      18.032  72.339  62.955  1.00  0.00    -0.107 C 
HETATM    3  C3  UNL     1      18.643  73.113  61.848  1.00  0.00     0.028 A 
HETATM    4  C4  UNL     1      19.794  72.430  61.167  1.00  0.00     0.023 C 
HETATM    5  C5  UNL     1      19.181  71.384  60.235  1.00  0.00     0.007 C 
HETATM    6  C6  UNL     1      18.341  72.007  59.151  1.00  0.00    -0.005 C 
HETATM    7  C7  UNL     1      18.975  71.725  57.790  1.00  0.00     0.011 C 
HETATM    8  C8  UNL     1      18.234  73.490  59.436  1.00  0.00     0.087 C 
HETATM    9  C12 UNL     1      17.670  73.672  60.818  1.00  0.00     0.021 A 
HETATM   10  C13 UNL     1      18.379  74.547  61.790  1.00  0.00     0.030 A 
ENDROOT
BRANCH   8  11
HETATM   11  C9  UNL     1      17.296  74.089  58.455  1.00  0.00     0.228 C 
HETATM   12  O1  UNL     1      17.672  75.130  57.841  1.00  0.00    -0.273 OA
HETATM   13  N1  UNL     1      16.027  73.514  58.218  1.00  0.00    -0.303 N 
HETATM   14  C10 UNL     1      15.589  73.405  57.029  1.00  0.00     0.206 C 
ATOM     15  H1  UNL     1      15.462  73.187  59.001  1.00  0.00     0.171 HD
HETATM   16  C11 UNL     1      16.379  73.862  55.939  1.00  0.00     0.138 C 
HETATM   17  N2  UNL     1      17.012  74.231  55.032  1.00  0.00    -0.188 NA
BRANCH  14  18
HETATM   18  N3  UNL     1      14.296  72.815  56.836  1.00  0.00    -0.262 N 
ATOM     19  H3  UNL     1      13.468  73.396  56.701  1.00  0.00     0.190 HD
BRANCH  18  20
HETATM   20  N4  UNL     1      14.206  71.430  56.840  1.00  0.00    -0.247 N 
HETATM   21  N5  UNL     1      13.061  70.895  56.880  1.00  0.00    -0.331 N 
ATOM     22  H52 UNL     1      12.228  71.484  56.907  1.00  0.00     0.178 HD
ATOM     23  H51 UNL     1      12.995  69.877  56.883  1.00  0.00     0.178 HD
ATOM     24  H4  UNL     1      15.048  70.854  56.813  1.00  0.00     0.207 HD
ENDBRANCH  18  20
ENDBRANCH  14  18
ENDBRANCH   8  11
TORSDOF 3
ENDMDL
