MODEL 1
REMARK VINA RESULT: -5.752056676      0.000      0.000
REMARK  2 active torsions:
REMARK  status: ('A' for Active; 'I' for Inactive)
REMARK    1  A    between atoms: C3_3  and  C4_4 
REMARK    2  A    between atoms: N1_18  and  O2_20 
ROOT
HETATM    1  C1  UNL     1      33.520   2.642  13.812  1.00  0.00     0.112 C 
HETATM    2  C2  UNL     1      34.414   1.563  13.341  1.00  0.00    -0.110 C 
HETATM    3  C3  UNL     1      35.157   0.697  12.958  1.00  0.00    -0.091 C 
ENDROOT
BRANCH   3   4
HETATM    4  C4  UNL     1      36.067  -0.336  12.516  1.00  0.00     0.061 C 
HETATM    5  C5  UNL     1      36.250  -0.189  10.998  1.00  0.00     0.036 C 
HETATM    6  C6  UNL     1      37.404  -0.320  13.170  1.00  0.00     0.029 C 
HETATM    7  C7  UNL     1      38.084  -1.671  13.102  1.00  0.00     0.011 C 
HETATM    8  C8  UNL     1      37.253  -2.789  13.636  1.00  0.00     0.033 C 
HETATM    9  C9  UNL     1      37.804  -3.454  14.851  1.00  0.00     0.058 C 
HETATM   10  C14 UNL     1      35.784  -2.503  13.792  1.00  0.00     0.007 C 
HETATM   11  C10 UNL     1      38.512  -2.542  15.810  1.00  0.00     0.046 C 
HETATM   12  C11 UNL     1      38.786  -4.543  14.396  1.00  0.00     0.046 C 
HETATM   13  O1  UNL     1      36.809  -4.102  15.541  1.00  0.00    -0.380 OA
HETATM   14  C12 UNL     1      35.864  -4.751  14.809  1.00  0.00     0.170 C 
HETATM   15  C13 UNL     1      35.124  -3.885  13.799  1.00  0.00     0.042 C 
HETATM   16  C15 UNL     1      35.395  -1.873  15.086  1.00  0.00     0.022 C 
HETATM   17  C16 UNL     1      35.354  -1.649  12.691  1.00  0.00     0.039 C 
HETATM   18  N1  UNL     1      34.440  -1.929  11.894  1.00  0.00    -0.275 N 
ATOM     19  H1  UNL     1      34.284  -1.205  11.193  1.00  0.00     0.193 HD
BRANCH  18  20
HETATM   20  O2  UNL     1      33.620  -2.977  11.759  1.00  0.00    -0.290 OA
ATOM     21  H2  UNL     1      32.908  -3.325  12.282  1.00  0.00     0.244 HD
ENDBRANCH  18  20
ENDBRANCH   3   4
TORSDOF 2
ENDMDL
MODEL 2
REMARK VINA RESULT: -5.483446616      1.888      5.208
REMARK  2 active torsions:
REMARK  status: ('A' for Active; 'I' for Inactive)
REMARK    1  A    between atoms: C3_3  and  C4_4 
REMARK    2  A    between atoms: N1_18  and  O2_20 
ROOT
HETATM    1  C1  UNL     1      38.059  -7.116  14.817  1.00  0.00     0.112 C 
HETATM    2  C2  UNL     1      38.120  -5.638  14.803  1.00  0.00    -0.110 C 
HETATM    3  C3  UNL     1      38.150  -4.435  14.795  1.00  0.00    -0.091 C 
ENDROOT
BRANCH   3   4
HETATM    4  C4  UNL     1      38.171  -2.990  14.807  1.00  0.00     0.061 C 
HETATM    5  C5  UNL     1      39.184  -2.539  15.870  1.00  0.00     0.036 C 
HETATM    6  C6  UNL     1      38.517  -2.354  13.507  1.00  0.00     0.029 C 
HETATM    7  C7  UNL     1      38.007  -0.932  13.417  1.00  0.00     0.011 C 
HETATM    8  C8  UNL     1      36.547  -0.800  13.692  1.00  0.00     0.033 C 
HETATM    9  C9  UNL     1      35.731  -0.328  12.537  1.00  0.00     0.058 C 
HETATM   10  C14 UNL     1      35.895  -1.973  14.374  1.00  0.00     0.007 C 
HETATM   11  C10 UNL     1      36.184  -0.823  11.195  1.00  0.00     0.046 C 
HETATM   12  C11 UNL     1      35.760   1.206  12.527  1.00  0.00     0.046 C 
HETATM   13  O1  UNL     1      34.414  -0.684  12.696  1.00  0.00    -0.380 OA
HETATM   14  C12 UNL     1      33.892  -0.594  13.948  1.00  0.00     0.170 C 
HETATM   15  C13 UNL     1      34.633  -1.389  15.015  1.00  0.00     0.042 C 
HETATM   16  C15 UNL     1      35.413  -3.049  13.462  1.00  0.00     0.022 C 
HETATM   17  C16 UNL     1      36.836  -2.538  15.333  1.00  0.00     0.039 C 
HETATM   18  N1  UNL     1      36.610  -2.676  16.549  1.00  0.00    -0.275 N 
ATOM     19  H1  UNL     1      37.390  -3.094  17.057  1.00  0.00     0.193 HD
BRANCH  18  20
HETATM   20  O2  UNL     1      35.563  -2.393  17.332  1.00  0.00    -0.290 OA
ATOM     21  H2  UNL     1      35.476  -2.046  18.212  1.00  0.00     0.244 HD
ENDBRANCH  18  20
ENDBRANCH   3   4
TORSDOF 2
ENDMDL
MODEL 3
REMARK VINA RESULT: -5.219787144      2.306      5.237
REMARK  2 active torsions:
REMARK  status: ('A' for Active; 'I' for Inactive)
REMARK    1  A    between atoms: C3_3  and  C4_4 
REMARK    2  A    between atoms: N1_18  and  O2_20 
ROOT
HETATM    1  C1  UNL     1      37.850  -3.531  19.622  1.00  0.00     0.112 C 
HETATM    2  C2  UNL     1      37.941  -3.651  18.151  1.00  0.00    -0.110 C 
HETATM    3  C3  UNL     1      38.009  -3.730  16.952  1.00  0.00    -0.091 C 
ENDROOT
BRANCH   3   4
HETATM    4  C4  UNL     1      38.104  -3.802  15.511  1.00  0.00     0.061 C 
HETATM    5  C5  UNL     1      39.492  -4.353  15.154  1.00  0.00     0.036 C 
HETATM    6  C6  UNL     1      37.065  -4.639  14.853  1.00  0.00     0.029 C 
HETATM    7  C7  UNL     1      36.864  -4.256  13.402  1.00  0.00     0.011 C 
HETATM    8  C8  UNL     1      36.576  -2.807  13.197  1.00  0.00     0.033 C 
HETATM    9  C9  UNL     1      35.225  -2.509  12.642  1.00  0.00     0.058 C 
HETATM   10  C14 UNL     1      36.899  -1.901  14.354  1.00  0.00     0.007 C 
HETATM   11  C10 UNL     1      34.128  -3.417  13.116  1.00  0.00     0.046 C 
HETATM   12  C11 UNL     1      35.307  -2.600  11.112  1.00  0.00     0.046 C 
HETATM   13  O1  UNL     1      34.857  -1.217  12.929  1.00  0.00    -0.380 OA
HETATM   14  C12 UNL     1      35.824  -0.264  12.852  1.00  0.00     0.170 C 
HETATM   15  C13 UNL     1      37.048  -0.513  13.723  1.00  0.00     0.042 C 
HETATM   16  C15 UNL     1      35.818  -1.758  15.370  1.00  0.00     0.022 C 
HETATM   17  C16 UNL     1      38.111  -2.386  15.004  1.00  0.00     0.039 C 
HETATM   18  N1  UNL     1      39.144  -1.710  15.169  1.00  0.00    -0.275 N 
ATOM     19  H1  UNL     1      39.885  -2.223  15.647  1.00  0.00     0.193 HD
BRANCH  18  20
HETATM   20  O2  UNL     1      39.489  -0.457  14.855  1.00  0.00    -0.290 OA
ATOM     21  H2  UNL     1      39.607   0.338  15.360  1.00  0.00     0.244 HD
ENDBRANCH  18  20
ENDBRANCH   3   4
TORSDOF 2
ENDMDL
MODEL 4
REMARK VINA RESULT: -5.184283192      2.158      5.156
REMARK  2 active torsions:
REMARK  status: ('A' for Active; 'I' for Inactive)
REMARK    1  A    between atoms: C3_3  and  C4_4 
REMARK    2  A    between atoms: N1_18  and  O2_20 
ROOT
HETATM    1  C1  UNL     1      35.009  -6.155  17.655  1.00  0.00     0.112 C 
HETATM    2  C2  UNL     1      35.185  -5.687  16.264  1.00  0.00    -0.110 C 
HETATM    3  C3  UNL     1      35.324  -5.286  15.137  1.00  0.00    -0.091 C 
ENDROOT
BRANCH   3   4
HETATM    4  C4  UNL     1      35.507  -4.786  13.793  1.00  0.00     0.061 C 
HETATM    5  C5  UNL     1      35.585  -5.992  12.845  1.00  0.00     0.036 C 
HETATM    6  C6  UNL     1      34.443  -3.862  13.315  1.00  0.00     0.029 C 
HETATM    7  C7  UNL     1      34.929  -2.971  12.192  1.00  0.00     0.011 C 
HETATM    8  C8  UNL     1      36.172  -2.214  12.521  1.00  0.00     0.033 C 
HETATM    9  C9  UNL     1      36.010  -0.733  12.565  1.00  0.00     0.058 C 
HETATM   10  C14 UNL     1      36.952  -2.711  13.707  1.00  0.00     0.007 C 
HETATM   11  C10 UNL     1      34.694  -0.253  13.103  1.00  0.00     0.046 C 
HETATM   12  C11 UNL     1      36.184  -0.190  11.141  1.00  0.00     0.046 C 
HETATM   13  O1  UNL     1      37.007  -0.159  13.317  1.00  0.00    -0.380 OA
HETATM   14  C12 UNL     1      38.257  -0.680  13.193  1.00  0.00     0.170 C 
HETATM   15  C13 UNL     1      38.368  -2.170  13.488  1.00  0.00     0.042 C 
HETATM   16  C15 UNL     1      36.520  -2.164  15.025  1.00  0.00     0.022 C 
HETATM   17  C16 UNL     1      36.876  -4.167  13.741  1.00  0.00     0.039 C 
HETATM   18  N1  UNL     1      37.862  -4.927  13.733  1.00  0.00    -0.275 N 
ATOM     19  H1  UNL     1      37.607  -5.914  13.763  1.00  0.00     0.193 HD
BRANCH  18  20
HETATM   20  O2  UNL     1      39.184  -4.726  13.692  1.00  0.00    -0.290 OA
ATOM     21  H2  UNL     1      39.931  -5.296  13.554  1.00  0.00     0.244 HD
ENDBRANCH  18  20
ENDBRANCH   3   4
TORSDOF 2
ENDMDL
MODEL 5
REMARK VINA RESULT: -5.050176462      2.294      2.928
REMARK  2 active torsions:
REMARK  status: ('A' for Active; 'I' for Inactive)
REMARK    1  A    between atoms: C3_3  and  C4_4 
REMARK    2  A    between atoms: N1_18  and  O2_20 
ROOT
HETATM    1  C1  UNL     1      31.288  -3.125  13.247  1.00  0.00     0.112 C 
HETATM    2  C2  UNL     1      32.747  -2.941  13.096  1.00  0.00    -0.110 C 
HETATM    3  C3  UNL     1      33.938  -2.805  12.987  1.00  0.00    -0.091 C 
ENDROOT
BRANCH   3   4
HETATM    4  C4  UNL     1      35.371  -2.668  12.856  1.00  0.00     0.061 C 
HETATM    5  C5  UNL     1      35.667  -2.080  11.469  1.00  0.00     0.036 C 
HETATM    6  C6  UNL     1      36.020  -1.818  13.892  1.00  0.00     0.029 C 
HETATM    7  C7  UNL     1      37.491  -2.139  14.049  1.00  0.00     0.011 C 
HETATM    8  C8  UNL     1      37.767  -3.582  14.307  1.00  0.00     0.033 C 
HETATM    9  C9  UNL     1      38.370  -3.876  15.638  1.00  0.00     0.058 C 
HETATM   10  C14 UNL     1      36.643  -4.534  13.998  1.00  0.00     0.007 C 
HETATM   11  C10 UNL     1      37.886  -3.007  16.762  1.00  0.00     0.046 C 
HETATM   12  C11 UNL     1      39.892  -3.716  15.518  1.00  0.00     0.046 C 
HETATM   13  O1  UNL     1      38.151  -5.185  15.991  1.00  0.00    -0.380 OA
HETATM   14  C12 UNL     1      38.244  -6.119  15.007  1.00  0.00     0.170 C 
HETATM   15  C13 UNL     1      37.330  -5.890  13.811  1.00  0.00     0.042 C 
HETATM   16  C15 UNL     1      35.663  -4.738  15.103  1.00  0.00     0.022 C 
HETATM   17  C16 UNL     1      35.940  -4.060  12.812  1.00  0.00     0.039 C 
HETATM   18  N1  UNL     1      35.777  -4.726  11.773  1.00  0.00    -0.275 N 
ATOM     19  H1  UNL     1      35.258  -4.224  11.053  1.00  0.00     0.193 HD
BRANCH  18  20
HETATM   20  O2  UNL     1      36.138  -5.958  11.400  1.00  0.00    -0.290 OA
ATOM     21  H2  UNL     1      36.975  -6.395  11.296  1.00  0.00     0.244 HD
ENDBRANCH  18  20
ENDBRANCH   3   4
TORSDOF 2
ENDMDL
