MODEL 1
REMARK VINA RESULT: -4.978928761      0.000      0.000
REMARK  2 active torsions:
REMARK  status: ('A' for Active; 'I' for Inactive)
REMARK    1  A    between atoms: N1_1  and  C1_5 
REMARK    2  A    between atoms: C1_5  and  C2_6 
ROOT
HETATM    1  C2  UNL     1      10.144 -12.524   8.294  1.00  0.00    -0.016 C 
HETATM    2  C3  UNL     1       9.444 -11.912   9.461  1.00  0.00     0.011 C 
HETATM    3  C4  UNL     1       9.106 -10.499   9.379  1.00  0.00     0.005 C 
HETATM    4  C5  UNL     1       8.957  -9.886   8.028  1.00  0.00    -0.014 C 
HETATM    5  C6  UNL     1       8.118 -10.660   7.074  1.00  0.00     0.009 C 
HETATM    6  C7  UNL     1       8.845 -11.719   6.310  1.00  0.00    -0.013 C 
HETATM    7  C8  UNL     1      10.124 -11.247   5.684  1.00  0.00     0.009 C 
HETATM    8  C9  UNL     1      10.991 -10.687   6.802  1.00  0.00    -0.013 C 
HETATM    9  C10 UNL     1      10.265  -9.513   7.385  1.00  0.00     0.009 C 
HETATM   10  C11 UNL     1      11.312 -11.743   7.801  1.00  0.00     0.015 C 
HETATM   11  C12 UNL     1       9.165 -12.896   7.193  1.00  0.00     0.015 C 
ENDROOT
BRANCH   1  12
HETATM   12  C1  UNL     1      10.690 -13.880   8.770  1.00  0.00     0.239 C 
BRANCH  12  13
HETATM   13  N1  UNL     1      12.055 -14.070   8.408  1.00  0.00    -0.079 N 
ATOM     14  H13 UNL     1      12.484 -13.192   8.115  1.00  0.00     0.274 HD
ATOM     15  H12 UNL     1      12.630 -14.267   9.227  1.00  0.00     0.274 HD
ATOM     16  H11 UNL     1      12.170 -14.792   7.695  1.00  0.00     0.274 HD
ENDBRANCH  12  13
ENDBRANCH   1  12
TORSDOF 2
ENDMDL
MODEL 2
REMARK VINA RESULT: -4.883086325      0.886      2.472
REMARK  2 active torsions:
REMARK  status: ('A' for Active; 'I' for Inactive)
REMARK    1  A    between atoms: N1_1  and  C1_5 
REMARK    2  A    between atoms: C1_5  and  C2_6 
ROOT
HETATM    1  C2  UNL     1       9.921 -12.333   8.236  1.00  0.00    -0.016 C 
HETATM    2  C3  UNL     1       9.295 -13.353   7.346  1.00  0.00     0.011 C 
HETATM    3  C4  UNL     1       8.465 -12.873   6.251  1.00  0.00     0.005 C 
HETATM    4  C5  UNL     1       8.704 -11.494   5.736  1.00  0.00    -0.014 C 
HETATM    5  C6  UNL     1      10.130 -11.158   5.472  1.00  0.00     0.009 C 
HETATM    6  C7  UNL     1      10.886 -10.648   6.655  1.00  0.00    -0.013 C 
HETATM    7  C8  UNL     1      10.178  -9.560   7.407  1.00  0.00     0.009 C 
HETATM    8  C9  UNL     1       8.822 -10.110   7.822  1.00  0.00    -0.013 C 
HETATM    9  C10 UNL     1       8.062 -10.418   6.568  1.00  0.00     0.009 C 
HETATM   10  C11 UNL     1       8.981 -11.285   8.723  1.00  0.00     0.015 C 
HETATM   11  C12 UNL     1      11.188 -11.762   7.622  1.00  0.00     0.015 C 
ENDROOT
BRANCH   1  12
HETATM   12  C1  UNL     1      10.425 -13.084   9.481  1.00  0.00     0.239 C 
BRANCH  12  13
HETATM   13  N1  UNL     1      10.061 -14.461   9.466  1.00  0.00    -0.079 N 
ATOM     14  H13 UNL     1      10.513 -14.969  10.226  1.00  0.00     0.274 HD
ATOM     15  H12 UNL     1       9.087 -14.587   9.742  1.00  0.00     0.274 HD
ATOM     16  H11 UNL     1      10.249 -14.902   8.565  1.00  0.00     0.274 HD
ENDBRANCH  12  13
ENDBRANCH   1  12
TORSDOF 2
ENDMDL
MODEL 3
REMARK VINA RESULT: -4.854696340      1.671      3.086
REMARK  2 active torsions:
REMARK  status: ('A' for Active; 'I' for Inactive)
REMARK    1  A    between atoms: N1_1  and  C1_5 
REMARK    2  A    between atoms: C1_5  and  C2_6 
ROOT
HETATM    1  C2  UNL     1       8.905 -11.902   5.847  1.00  0.00    -0.016 C 
HETATM    2  C3  UNL     1       7.742 -10.974   5.953  1.00  0.00     0.011 C 
HETATM    3  C4  UNL     1       7.576 -10.241   7.199  1.00  0.00     0.005 C 
HETATM    4  C5  UNL     1       8.780 -10.012   8.049  1.00  0.00    -0.014 C 
HETATM    5  C6  UNL     1       9.976  -9.506   7.323  1.00  0.00     0.009 C 
HETATM    6  C7  UNL     1      10.837 -10.563   6.712  1.00  0.00    -0.013 C 
HETATM    7  C8  UNL     1      11.176 -11.687   7.647  1.00  0.00     0.009 C 
HETATM    8  C9  UNL     1       9.861 -12.271   8.142  1.00  0.00    -0.013 C 
HETATM    9  C10 UNL     1       9.151 -11.193   8.903  1.00  0.00     0.009 C 
HETATM   10  C11 UNL     1       9.066 -12.819   7.008  1.00  0.00     0.015 C 
HETATM   11  C12 UNL     1      10.180 -11.154   5.493  1.00  0.00     0.015 C 
ENDROOT
BRANCH   1  12
HETATM   12  C1  UNL     1       8.649 -12.790   4.617  1.00  0.00     0.239 C 
BRANCH  12  13
HETATM   13  N1  UNL     1       9.760 -12.810   3.725  1.00  0.00    -0.079 N 
ATOM     14  H13 UNL     1       9.994 -13.765   3.451  1.00  0.00     0.274 HD
ATOM     15  H12 UNL     1       9.504 -12.437   2.810  1.00  0.00     0.274 HD
ATOM     16  H11 UNL     1      10.573 -12.325   4.106  1.00  0.00     0.274 HD
ENDBRANCH  12  13
ENDBRANCH   1  12
TORSDOF 2
ENDMDL
MODEL 4
REMARK VINA RESULT: -4.749050311      1.853      3.237
REMARK  2 active torsions:
REMARK  status: ('A' for Active; 'I' for Inactive)
REMARK    1  A    between atoms: N1_1  and  C1_5 
REMARK    2  A    between atoms: C1_5  and  C2_6 
ROOT
HETATM    1  C2  UNL     1       8.744 -11.761   5.958  1.00  0.00    -0.016 C 
HETATM    2  C3  UNL     1       8.703 -13.102   6.611  1.00  0.00     0.011 C 
HETATM    3  C4  UNL     1       9.638 -13.350   7.699  1.00  0.00     0.005 C 
HETATM    4  C5  UNL     1      10.169 -12.179   8.454  1.00  0.00    -0.014 C 
HETATM    5  C6  UNL     1       9.144 -11.191   8.887  1.00  0.00     0.009 C 
HETATM    6  C7  UNL     1       8.805 -10.149   7.873  1.00  0.00    -0.013 C 
HETATM    7  C8  UNL     1      10.003  -9.488   7.257  1.00  0.00     0.009 C 
HETATM    8  C9  UNL     1      10.858 -10.587   6.645  1.00  0.00    -0.013 C 
HETATM    9  C10 UNL     1      11.307 -11.479   7.763  1.00  0.00     0.009 C 
HETATM   10  C11 UNL     1      10.110 -11.306   5.577  1.00  0.00     0.015 C 
HETATM   11  C12 UNL     1       7.971 -10.729   6.762  1.00  0.00     0.015 C 
ENDROOT
BRANCH   1  12
HETATM   12  C1  UNL     1       7.941 -11.883   4.652  1.00  0.00     0.239 C 
BRANCH  12  13
HETATM   13  N1  UNL     1       8.775 -12.139   3.526  1.00  0.00    -0.079 N 
ATOM     14  H13 UNL     1       8.516 -11.550   2.734  1.00  0.00     0.274 HD
ATOM     15  H12 UNL     1       9.722 -11.794   3.683  1.00  0.00     0.274 HD
ATOM     16  H11 UNL     1       8.781 -13.126   3.265  1.00  0.00     0.274 HD
ENDBRANCH  12  13
ENDBRANCH   1  12
TORSDOF 2
ENDMDL
MODEL 5
REMARK VINA RESULT: -4.643571937      0.940      2.328
REMARK  2 active torsions:
REMARK  status: ('A' for Active; 'I' for Inactive)
REMARK    1  A    between atoms: N1_1  and  C1_5 
REMARK    2  A    between atoms: C1_5  and  C2_6 
ROOT
HETATM    1  C2  UNL     1       9.938 -12.112   8.733  1.00  0.00    -0.016 C 
HETATM    2  C3  UNL     1      11.390 -11.772   8.757  1.00  0.00     0.011 C 
HETATM    3  C4  UNL     1      11.938 -11.074   7.603  1.00  0.00     0.005 C 
HETATM    4  C5  UNL     1      11.009 -10.272   6.757  1.00  0.00    -0.014 C 
HETATM    5  C6  UNL     1      10.096  -9.367   7.506  1.00  0.00     0.009 C 
HETATM    6  C7  UNL     1       8.827  -9.999   7.976  1.00  0.00    -0.013 C 
HETATM    7  C8  UNL     1       8.106 -10.777   6.915  1.00  0.00     0.009 C 
HETATM    8  C9  UNL     1       9.076 -11.825   6.389  1.00  0.00    -0.013 C 
HETATM    9  C10 UNL     1      10.228 -11.096   5.768  1.00  0.00     0.009 C 
HETATM   10  C11 UNL     1       9.481 -12.761   7.473  1.00  0.00     0.015 C 
HETATM   11  C12 UNL     1       9.083 -10.922   9.137  1.00  0.00     0.015 C 
ENDROOT
BRANCH   1  12
HETATM   12  C1  UNL     1       9.705 -13.129   9.862  1.00  0.00     0.239 C 
BRANCH  12  13
HETATM   13  N1  UNL     1       9.915 -14.471   9.433  1.00  0.00    -0.079 N 
ATOM     14  H13 UNL     1       9.029 -14.965   9.322  1.00  0.00     0.274 HD
ATOM     15  H12 UNL     1      10.241 -14.502   8.467  1.00  0.00     0.274 HD
ATOM     16  H11 UNL     1      10.546 -14.982  10.052  1.00  0.00     0.274 HD
ENDBRANCH  12  13
ENDBRANCH   1  12
TORSDOF 2
ENDMDL
