MODEL 1
REMARK VINA RESULT: -5.931019572      0.000      0.000
REMARK  1 active torsions:
REMARK  status: ('A' for Active; 'I' for Inactive)
REMARK    1  A    between atoms: C4_4  and  N1_5 
ROOT
HETATM    1  C1  UNL     1       8.354 -14.911   1.983  1.00  0.00     0.000 C 
HETATM    2  C2  UNL     1       9.323 -13.833   2.415  1.00  0.00     0.002 C 
HETATM    3  C3  UNL     1       8.653 -12.448   2.363  1.00  0.00     0.036 C 
HETATM    4  C4  UNL     1       7.372 -12.592   3.117  1.00  0.00     0.223 C 
HETATM    5  C10 UNL     1       6.426 -13.321   2.173  1.00  0.00     0.036 C 
HETATM    6  C11 UNL     1       7.168 -14.305   1.300  1.00  0.00     0.002 C 
ENDROOT
BRANCH   4   7
HETATM    7  N1  UNL     1       6.803 -11.398   3.646  1.00  0.00     0.093 N 
HETATM    8  C5  UNL     1       6.731 -11.280   5.055  1.00  0.00     0.273 C 
HETATM    9  C6  UNL     1       5.995 -10.070   5.519  1.00  0.00     0.030 C 
HETATM   10  C7  UNL     1       4.764  -9.728   4.771  1.00  0.00     0.003 C 
HETATM   11  C8  UNL     1       4.981  -9.769   3.271  1.00  0.00     0.030 C 
HETATM   12  C9  UNL     1       5.578 -11.108   2.949  1.00  0.00     0.273 C 
ENDBRANCH   4   7
TORSDOF 1
ENDMDL
MODEL 2
REMARK VINA RESULT: -5.879802121      2.652      3.603
REMARK  1 active torsions:
REMARK  status: ('A' for Active; 'I' for Inactive)
REMARK    1  A    between atoms: C4_4  and  N1_5 
ROOT
HETATM    1  C1  UNL     1       8.020 -13.412   2.182  1.00  0.00     0.000 C 
HETATM    2  C2  UNL     1       9.467 -13.179   2.554  1.00  0.00     0.002 C 
HETATM    3  C3  UNL     1       9.591 -12.012   3.551  1.00  0.00     0.036 C 
HETATM    4  C4  UNL     1       8.618 -12.311   4.644  1.00  0.00     0.223 C 
HETATM    5  C10 UNL     1       7.250 -11.962   4.075  1.00  0.00     0.036 C 
HETATM    6  C11 UNL     1       7.180 -12.244   2.593  1.00  0.00     0.002 C 
ENDROOT
BRANCH   4   7
HETATM    7  N1  UNL     1       8.860 -11.694   5.903  1.00  0.00     0.093 N 
HETATM    8  C5  UNL     1       7.872 -10.807   6.395  1.00  0.00     0.273 C 
HETATM    9  C6  UNL     1       8.269 -10.098   7.644  1.00  0.00     0.030 C 
HETATM   10  C7  UNL     1       9.669  -9.617   7.705  1.00  0.00     0.003 C 
HETATM   11  C8  UNL     1      10.655 -10.682   7.271  1.00  0.00     0.030 C 
HETATM   12  C9  UNL     1      10.204 -11.180   5.928  1.00  0.00     0.273 C 
ENDBRANCH   4   7
TORSDOF 1
ENDMDL
MODEL 3
REMARK VINA RESULT: -5.733642732      0.793      4.820
REMARK  1 active torsions:
REMARK  status: ('A' for Active; 'I' for Inactive)
REMARK    1  A    between atoms: C4_4  and  N1_5 
ROOT
HETATM    1  C1  UNL     1       5.273  -9.503   5.008  1.00  0.00     0.000 C 
HETATM    2  C2  UNL     1       6.359 -10.297   5.699  1.00  0.00     0.002 C 
HETATM    3  C3  UNL     1       6.574 -11.649   4.995  1.00  0.00     0.036 C 
HETATM    4  C4  UNL     1       6.746 -11.326   3.547  1.00  0.00     0.223 C 
HETATM    5  C10 UNL     1       5.345 -11.037   3.028  1.00  0.00     0.036 C 
HETATM    6  C11 UNL     1       4.489 -10.382   4.086  1.00  0.00     0.002 C 
ENDROOT
BRANCH   4   7
HETATM    7  N1  UNL     1       7.435 -12.288   2.754  1.00  0.00     0.093 N 
HETATM    8  C5  UNL     1       6.663 -13.313   2.155  1.00  0.00     0.273 C 
HETATM    9  C6  UNL     1       7.478 -14.352   1.466  1.00  0.00     0.030 C 
HETATM   10  C7  UNL     1       8.711 -14.785   2.163  1.00  0.00     0.003 C 
HETATM   11  C8  UNL     1       9.525 -13.607   2.660  1.00  0.00     0.030 C 
HETATM   12  C9  UNL     1       8.600 -12.742   3.466  1.00  0.00     0.273 C 
ENDBRANCH   4   7
TORSDOF 1
ENDMDL
MODEL 4
REMARK VINA RESULT: -5.714846006      2.310      3.609
REMARK  1 active torsions:
REMARK  status: ('A' for Active; 'I' for Inactive)
REMARK    1  A    between atoms: C4_4  and  N1_5 
ROOT
HETATM    1  C1  UNL     1       5.910 -12.768   2.315  1.00  0.00     0.000 C 
HETATM    2  C2  UNL     1       7.385 -13.103   2.350  1.00  0.00     0.002 C 
HETATM    3  C3  UNL     1       8.146 -12.106   3.243  1.00  0.00     0.036 C 
HETATM    4  C4  UNL     1       7.398 -12.069   4.535  1.00  0.00     0.223 C 
HETATM    5  C10 UNL     1       6.168 -11.215   4.265  1.00  0.00     0.036 C 
HETATM    6  C11 UNL     1       5.674 -11.390   2.848  1.00  0.00     0.002 C 
ENDROOT
BRANCH   4   7
HETATM    7  N1  UNL     1       8.123 -11.637   5.682  1.00  0.00     0.093 N 
HETATM    8  C5  UNL     1       7.599 -10.539   6.408  1.00  0.00     0.273 C 
HETATM    9  C6  UNL     1       8.491 -10.064   7.503  1.00  0.00     0.030 C 
HETATM   10  C7  UNL     1       9.938 -10.012   7.192  1.00  0.00     0.003 C 
HETATM   11  C8  UNL     1      10.421 -11.284   6.524  1.00  0.00     0.030 C 
HETATM   12  C9  UNL     1       9.519 -11.535   5.350  1.00  0.00     0.273 C 
ENDBRANCH   4   7
TORSDOF 1
ENDMDL
MODEL 5
REMARK VINA RESULT: -5.680526781      0.538      1.506
REMARK  1 active torsions:
REMARK  status: ('A' for Active; 'I' for Inactive)
REMARK    1  A    between atoms: C4_4  and  N1_5 
ROOT
HETATM    1  C1  UNL     1       8.578 -14.524   2.036  1.00  0.00     0.000 C 
HETATM    2  C2  UNL     1       9.248 -13.324   2.669  1.00  0.00     0.002 C 
HETATM    3  C3  UNL     1       8.279 -12.130   2.729  1.00  0.00     0.036 C 
HETATM    4  C4  UNL     1       7.029 -12.655   3.356  1.00  0.00     0.223 C 
HETATM    5  C10 UNL     1       6.328 -13.444   2.259  1.00  0.00     0.036 C 
HETATM    6  C11 UNL     1       7.321 -14.112   1.338  1.00  0.00     0.002 C 
ENDROOT
BRANCH   4   7
HETATM    7  N1  UNL     1       6.174 -11.701   3.976  1.00  0.00     0.093 N 
HETATM    8  C5  UNL     1       5.523 -10.765   3.135  1.00  0.00     0.273 C 
HETATM    9  C6  UNL     1       4.765  -9.718   3.875  1.00  0.00     0.030 C 
HETATM   10  C7  UNL     1       5.422  -9.166   5.082  1.00  0.00     0.003 C 
HETATM   11  C8  UNL     1       5.980 -10.257   5.974  1.00  0.00     0.030 C 
HETATM   12  C9  UNL     1       6.846 -11.131   5.113  1.00  0.00     0.273 C 
ENDBRANCH   4   7
TORSDOF 1
ENDMDL
