MODEL 1
REMARK VINA RESULT: -7.196473677      0.000      0.000
REMARK  8 active torsions:
REMARK  status: ('A' for Active; 'I' for Inactive)
REMARK    1  A    between atoms: N1_2  and  C2_4 
REMARK    2  A    between atoms: C2_4  and  N2_6 
REMARK    3  A    between atoms: N2_6  and  N3_8 
REMARK    4  A    between atoms: N3_8  and  C4_10 
REMARK    5  A    between atoms: C4_10  and  N4_12 
REMARK    6  A    between atoms: N4_12  and  N5_14 
REMARK       I    between atoms: C5_16  and  N7_18 
REMARK    7  A    between atoms: N7_18  and  N8_20 
REMARK    8  A    between atoms: N8_20  and  O1_24 
ROOT
HETATM    1  N4  UNL     1      43.227  -5.137  58.838  1.00  0.00    -0.273 N 
ATOM      2  H4  UNL     1      43.702  -4.237  58.912  1.00  0.00     0.189 HD
ENDROOT
BRANCH   1   3
HETATM    3  C4  UNL     1      42.842  -5.803  60.023  1.00  0.00     0.207 C 
HETATM    4  S2  UNL     1      42.026  -4.974  61.185  1.00  0.00    -0.038 SA
BRANCH   3   5
HETATM    5  N3  UNL     1      43.133  -7.158  60.250  1.00  0.00    -0.268 N 
HETATM    6  C3  UNL     1      44.267  -7.680  60.951  1.00  0.00     0.180 C 
BRANCH   5   7
HETATM    7  N2  UNL     1      42.221  -8.118  59.740  1.00  0.00    -0.272 N 
ATOM      8  H2  UNL     1      42.336  -8.508  58.805  1.00  0.00     0.189 HD
BRANCH   7   9
HETATM    9  C2  UNL     1      41.144  -8.518  60.571  1.00  0.00     0.186 C 
HETATM   10  S1  UNL     1      39.620  -8.225  60.110  1.00  0.00    -0.040 SA
BRANCH   9  11
HETATM   11  N1  UNL     1      41.426  -9.173  61.802  1.00  0.00    -0.370 N 
HETATM   12  C1  UNL     1      40.598 -10.306  62.194  1.00  0.00     0.148 C 
ATOM     13  H1  UNL     1      42.191  -8.857  62.397  1.00  0.00     0.161 HD
ENDBRANCH   9  11
ENDBRANCH   7   9
ENDBRANCH   5   7
ENDBRANCH   3   5
ENDBRANCH   1   3
BRANCH   1  14
HETATM   14  N5  UNL     1      42.980  -5.665  57.573  1.00  0.00    -0.270 N 
HETATM   15  C5  UNL     1      43.122  -5.003  56.489  1.00  0.00     0.225 C 
HETATM   16  N6  UNL     1      42.850  -5.616  55.246  1.00  0.00    -0.060 NA
HETATM   17  N7  UNL     1      43.551  -3.656  56.518  1.00  0.00    -0.231 N 
ATOM     18  H7  UNL     1      42.843  -2.925  56.443  1.00  0.00     0.194 HD
ATOM     19  H5  UNL     1      42.669  -6.634  57.508  1.00  0.00     0.189 HD
BRANCH  17  20
HETATM   20  N8  UNL     1      44.879  -3.271  56.642  1.00  0.00    -0.099 N 
HETATM   21  N9  UNL     1      45.241  -2.117  56.280  1.00  0.00    -0.303 N 
ATOM     22  H92 UNL     1      44.553  -1.468  55.898  1.00  0.00     0.181 HD
ATOM     23  H91 UNL     1      46.218  -1.835  56.371  1.00  0.00     0.181 HD
BRANCH  20  24
HETATM   24  O1  UNL     1      45.798  -4.138  57.152  1.00  0.00    -0.254 OA
ATOM     25  H1  UNL     1      46.704  -3.869  57.253  1.00  0.00     0.248 HD
ENDBRANCH  20  24
ENDBRANCH  17  20
ENDBRANCH   1  14
TORSDOF 8
ENDMDL
MODEL 2
REMARK VINA RESULT: -7.156615297      1.102      1.292
REMARK  8 active torsions:
REMARK  status: ('A' for Active; 'I' for Inactive)
REMARK    1  A    between atoms: N1_2  and  C2_4 
REMARK    2  A    between atoms: C2_4  and  N2_6 
REMARK    3  A    between atoms: N2_6  and  N3_8 
REMARK    4  A    between atoms: N3_8  and  C4_10 
REMARK    5  A    between atoms: C4_10  and  N4_12 
REMARK    6  A    between atoms: N4_12  and  N5_14 
REMARK       I    between atoms: C5_16  and  N7_18 
REMARK    7  A    between atoms: N7_18  and  N8_20 
REMARK    8  A    between atoms: N8_20  and  O1_24 
ROOT
HETATM    1  N4  UNL     1      43.166  -4.999  58.888  1.00  0.00    -0.273 N 
ATOM      2  H4  UNL     1      43.500  -4.035  58.918  1.00  0.00     0.189 HD
ENDROOT
BRANCH   1   3
HETATM    3  C4  UNL     1      42.953  -5.685  60.104  1.00  0.00     0.207 C 
HETATM    4  S2  UNL     1      42.335  -4.869  61.391  1.00  0.00    -0.038 SA
BRANCH   3   5
HETATM    5  N3  UNL     1      43.251  -7.049  60.259  1.00  0.00    -0.268 N 
HETATM    6  C3  UNL     1      44.370  -7.601  60.960  1.00  0.00     0.180 C 
BRANCH   5   7
HETATM    7  N2  UNL     1      42.362  -7.984  59.669  1.00  0.00    -0.272 N 
ATOM      8  H2  UNL     1      42.601  -8.458  58.797  1.00  0.00     0.189 HD
BRANCH   7   9
HETATM    9  C2  UNL     1      41.134  -8.241  60.327  1.00  0.00     0.186 C 
HETATM   10  S1  UNL     1      41.071  -9.336  61.517  1.00  0.00    -0.040 SA
BRANCH   9  11
HETATM   11  N1  UNL     1      39.971  -7.526  59.925  1.00  0.00    -0.370 N 
HETATM   12  C1  UNL     1      38.772  -8.280  59.586  1.00  0.00     0.148 C 
ATOM     13  H1  UNL     1      39.977  -6.507  59.875  1.00  0.00     0.161 HD
ENDBRANCH   9  11
ENDBRANCH   7   9
ENDBRANCH   5   7
ENDBRANCH   3   5
ENDBRANCH   1   3
BRANCH   1  14
HETATM   14  N5  UNL     1      42.937  -5.592  57.648  1.00  0.00    -0.270 N 
HETATM   15  C5  UNL     1      43.112  -4.993  56.533  1.00  0.00     0.225 C 
HETATM   16  N6  UNL     1      42.856  -5.669  55.320  1.00  0.00    -0.060 NA
HETATM   17  N7  UNL     1      43.563  -3.653  56.498  1.00  0.00    -0.231 N 
ATOM     18  H7  UNL     1      42.869  -2.916  56.368  1.00  0.00     0.194 HD
ATOM     19  H5  UNL     1      42.611  -6.558  57.629  1.00  0.00     0.189 HD
BRANCH  17  20
HETATM   20  N8  UNL     1      44.895  -3.283  56.629  1.00  0.00    -0.099 N 
HETATM   21  N9  UNL     1      45.271  -2.133  56.271  1.00  0.00    -0.303 N 
ATOM     22  H92 UNL     1      44.592  -1.476  55.884  1.00  0.00     0.181 HD
ATOM     23  H91 UNL     1      46.250  -1.861  56.367  1.00  0.00     0.181 HD
BRANCH  20  24
HETATM   24  O1  UNL     1      45.802  -4.160  57.145  1.00  0.00    -0.254 OA
ATOM     25  H1  UNL     1      46.401  -4.620  56.570  1.00  0.00     0.248 HD
ENDBRANCH  20  24
ENDBRANCH  17  20
ENDBRANCH   1  14
TORSDOF 8
ENDMDL
MODEL 3
REMARK VINA RESULT: -7.081333875      1.312      1.498
REMARK  8 active torsions:
REMARK  status: ('A' for Active; 'I' for Inactive)
REMARK    1  A    between atoms: N1_2  and  C2_4 
REMARK    2  A    between atoms: C2_4  and  N2_6 
REMARK    3  A    between atoms: N2_6  and  N3_8 
REMARK    4  A    between atoms: N3_8  and  C4_10 
REMARK    5  A    between atoms: C4_10  and  N4_12 
REMARK    6  A    between atoms: N4_12  and  N5_14 
REMARK       I    between atoms: C5_16  and  N7_18 
REMARK    7  A    between atoms: N7_18  and  N8_20 
REMARK    8  A    between atoms: N8_20  and  O1_24 
ROOT
HETATM    1  N4  UNL     1      44.007  -4.992  58.976  1.00  0.00    -0.273 N 
ATOM      2  H4  UNL     1      45.024  -4.910  59.015  1.00  0.00     0.189 HD
ENDROOT
BRANCH   1   3
HETATM    3  C4  UNL     1      43.251  -4.631  60.113  1.00  0.00     0.207 C 
HETATM    4  S2  UNL     1      42.280  -3.305  60.047  1.00  0.00    -0.038 SA
BRANCH   3   5
HETATM    5  N3  UNL     1      43.294  -5.367  61.308  1.00  0.00    -0.268 N 
HETATM    6  C3  UNL     1      43.109  -4.853  62.632  1.00  0.00     0.180 C 
BRANCH   5   7
HETATM    7  N2  UNL     1      43.546  -6.760  61.211  1.00  0.00    -0.272 N 
ATOM      8  H2  UNL     1      44.499  -7.119  61.149  1.00  0.00     0.189 HD
BRANCH   7   9
HETATM    9  C2  UNL     1      42.433  -7.637  61.203  1.00  0.00     0.186 C 
HETATM   10  S1  UNL     1      41.168  -7.324  60.242  1.00  0.00    -0.040 SA
BRANCH   9  11
HETATM   11  N1  UNL     1      42.449  -8.784  62.045  1.00  0.00    -0.370 N 
HETATM   12  C1  UNL     1      41.258  -9.621  62.106  1.00  0.00     0.148 C 
ATOM     13  H1  UNL     1      43.276  -9.015  62.595  1.00  0.00     0.161 HD
ENDBRANCH   9  11
ENDBRANCH   7   9
ENDBRANCH   5   7
ENDBRANCH   3   5
ENDBRANCH   1   3
BRANCH   1  14
HETATM   14  N5  UNL     1      43.415  -5.456  57.803  1.00  0.00    -0.270 N 
HETATM   15  C5  UNL     1      43.280  -4.746  56.749  1.00  0.00     0.225 C 
HETATM   16  N6  UNL     1      42.668  -5.295  55.602  1.00  0.00    -0.060 NA
HETATM   17  N7  UNL     1      43.741  -3.409  56.716  1.00  0.00    -0.231 N 
ATOM     18  H7  UNL     1      43.061  -2.663  56.865  1.00  0.00     0.194 HD
ATOM     19  H5  UNL     1      43.069  -6.415  57.785  1.00  0.00     0.189 HD
BRANCH  17  20
HETATM   20  N8  UNL     1      45.065  -3.054  56.494  1.00  0.00    -0.099 N 
HETATM   21  N9  UNL     1      45.347  -1.909  56.045  1.00  0.00    -0.303 N 
ATOM     22  H92 UNL     1      44.598  -1.245  55.847  1.00  0.00     0.181 HD
ATOM     23  H91 UNL     1      46.320  -1.648  55.881  1.00  0.00     0.181 HD
BRANCH  20  24
HETATM   24  O1  UNL     1      46.065  -3.942  56.758  1.00  0.00    -0.254 OA
ATOM     25  H1  UNL     1      46.596  -3.844  57.540  1.00  0.00     0.248 HD
ENDBRANCH  20  24
ENDBRANCH  17  20
ENDBRANCH   1  14
TORSDOF 8
ENDMDL
MODEL 4
REMARK VINA RESULT: -7.025973826      1.700      1.960
REMARK  8 active torsions:
REMARK  status: ('A' for Active; 'I' for Inactive)
REMARK    1  A    between atoms: N1_2  and  C2_4 
REMARK    2  A    between atoms: C2_4  and  N2_6 
REMARK    3  A    between atoms: N2_6  and  N3_8 
REMARK    4  A    between atoms: N3_8  and  C4_10 
REMARK    5  A    between atoms: C4_10  and  N4_12 
REMARK    6  A    between atoms: N4_12  and  N5_14 
REMARK       I    between atoms: C5_16  and  N7_18 
REMARK    7  A    between atoms: N7_18  and  N8_20 
REMARK    8  A    between atoms: N8_20  and  O1_24 
ROOT
HETATM    1  N4  UNL     1      43.617  -4.798  58.946  1.00  0.00    -0.273 N 
ATOM      2  H4  UNL     1      44.613  -4.654  59.115  1.00  0.00     0.189 HD
ENDROOT
BRANCH   1   3
HETATM    3  C4  UNL     1      42.692  -4.376  59.925  1.00  0.00     0.207 C 
HETATM    4  S2  UNL     1      41.772  -3.042  59.644  1.00  0.00    -0.038 SA
BRANCH   3   5
HETATM    5  N3  UNL     1      42.523  -5.058  61.142  1.00  0.00    -0.268 N 
HETATM    6  C3  UNL     1      43.110  -4.711  62.401  1.00  0.00     0.180 C 
BRANCH   5   7
HETATM    7  N2  UNL     1      41.690  -6.207  61.139  1.00  0.00    -0.272 N 
ATOM      8  H2  UNL     1      40.727  -6.158  61.472  1.00  0.00     0.189 HD
BRANCH   7   9
HETATM    9  C2  UNL     1      42.237  -7.423  60.661  1.00  0.00     0.186 C 
HETATM   10  S1  UNL     1      43.754  -7.832  61.050  1.00  0.00    -0.040 SA
BRANCH   9  11
HETATM   11  N1  UNL     1      41.437  -8.267  59.841  1.00  0.00    -0.370 N 
HETATM   12  C1  UNL     1      40.064  -8.535  60.247  1.00  0.00     0.148 C 
ATOM     13  H1  UNL     1      41.816  -8.676  58.987  1.00  0.00     0.161 HD
ENDBRANCH   9  11
ENDBRANCH   7   9
ENDBRANCH   5   7
ENDBRANCH   3   5
ENDBRANCH   1   3
BRANCH   1  14
HETATM   14  N5  UNL     1      43.219  -5.404  57.756  1.00  0.00    -0.270 N 
HETATM   15  C5  UNL     1      43.243  -4.819  56.621  1.00  0.00     0.225 C 
HETATM   16  N6  UNL     1      42.822  -5.508  55.462  1.00  0.00    -0.060 NA
HETATM   17  N7  UNL     1      43.690  -3.482  56.507  1.00  0.00    -0.231 N 
ATOM     18  H7  UNL     1      42.987  -2.743  56.465  1.00  0.00     0.194 HD
ATOM     19  H5  UNL     1      42.891  -6.369  57.794  1.00  0.00     0.189 HD
BRANCH  17  20
HETATM   20  N8  UNL     1      45.028  -3.117  56.452  1.00  0.00    -0.099 N 
HETATM   21  N9  UNL     1      45.356  -1.968  56.046  1.00  0.00    -0.303 N 
ATOM     22  H92 UNL     1      44.632  -1.308  55.761  1.00  0.00     0.181 HD
ATOM     23  H91 UNL     1      46.339  -1.700  56.005  1.00  0.00     0.181 HD
BRANCH  20  24
HETATM   24  O1  UNL     1      45.995  -4.000  56.833  1.00  0.00    -0.254 OA
ATOM     25  H1  UNL     1      46.884  -3.699  56.981  1.00  0.00     0.248 HD
ENDBRANCH  20  24
ENDBRANCH  17  20
ENDBRANCH   1  14
TORSDOF 8
ENDMDL
MODEL 5
REMARK VINA RESULT: -6.910306348      1.542      2.005
REMARK  8 active torsions:
REMARK  status: ('A' for Active; 'I' for Inactive)
REMARK    1  A    between atoms: N1_2  and  C2_4 
REMARK    2  A    between atoms: C2_4  and  N2_6 
REMARK    3  A    between atoms: N2_6  and  N3_8 
REMARK    4  A    between atoms: N3_8  and  C4_10 
REMARK    5  A    between atoms: C4_10  and  N4_12 
REMARK    6  A    between atoms: N4_12  and  N5_14 
REMARK       I    between atoms: C5_16  and  N7_18 
REMARK    7  A    between atoms: N7_18  and  N8_20 
REMARK    8  A    between atoms: N8_20  and  O1_24 
ROOT
HETATM    1  N4  UNL     1      41.977  -5.052  59.538  1.00  0.00    -0.273 N 
ATOM      2  H4  UNL     1      41.399  -5.553  58.863  1.00  0.00     0.189 HD
ENDROOT
BRANCH   1   3
HETATM    3  C4  UNL     1      42.625  -5.784  60.557  1.00  0.00     0.207 C 
HETATM    4  S2  UNL     1      42.945  -5.055  61.995  1.00  0.00    -0.038 SA
BRANCH   3   5
HETATM    5  N3  UNL     1      43.011  -7.125  60.388  1.00  0.00    -0.268 N 
HETATM    6  C3  UNL     1      44.257  -7.708  60.785  1.00  0.00     0.180 C 
BRANCH   5   7
HETATM    7  N2  UNL     1      42.085  -7.999  59.764  1.00  0.00    -0.272 N 
ATOM      8  H2  UNL     1      42.164  -8.229  58.773  1.00  0.00     0.189 HD
BRANCH   7   9
HETATM    9  C2  UNL     1      41.046  -8.545  60.559  1.00  0.00     0.186 C 
HETATM   10  S1  UNL     1      39.506  -8.401  60.081  1.00  0.00    -0.040 SA
BRANCH   9  11
HETATM   11  N1  UNL     1      41.379  -9.211  61.771  1.00  0.00    -0.370 N 
HETATM   12  C1  UNL     1      40.546 -10.323  62.207  1.00  0.00     0.148 C 
ATOM     13  H1  UNL     1      42.185  -8.917  62.323  1.00  0.00     0.161 HD
ENDBRANCH   9  11
ENDBRANCH   7   9
ENDBRANCH   5   7
ENDBRANCH   3   5
ENDBRANCH   1   3
BRANCH   1  14
HETATM   14  N5  UNL     1      42.098  -3.669  59.423  1.00  0.00    -0.270 N 
HETATM   15  C5  UNL     1      43.019  -3.093  58.749  1.00  0.00     0.225 C 
HETATM   16  N6  UNL     1      43.069  -1.683  58.684  1.00  0.00    -0.060 NA
HETATM   17  N7  UNL     1      43.994  -3.853  58.063  1.00  0.00    -0.231 N 
ATOM     18  H7  UNL     1      44.904  -3.980  58.508  1.00  0.00     0.194 HD
ATOM     19  H5  UNL     1      41.414  -3.083  59.902  1.00  0.00     0.189 HD
BRANCH  17  20
HETATM   20  N8  UNL     1      43.785  -4.435  56.820  1.00  0.00    -0.099 N 
HETATM   21  N9  UNL     1      44.389  -3.994  55.804  1.00  0.00    -0.303 N 
ATOM     22  H92 UNL     1      45.032  -3.208  55.900  1.00  0.00     0.181 HD
ATOM     23  H91 UNL     1      44.235  -4.422  54.891  1.00  0.00     0.181 HD
BRANCH  20  24
HETATM   24  O1  UNL     1      42.926  -5.486  56.692  1.00  0.00    -0.254 OA
ATOM     25  H1  UNL     1      43.254  -6.377  56.715  1.00  0.00     0.248 HD
ENDBRANCH  20  24
ENDBRANCH  17  20
ENDBRANCH   1  14
TORSDOF 8
ENDMDL
