MODEL 1
REMARK VINA RESULT: -7.208555898      0.000      0.000
REMARK  5 active torsions:
REMARK  status: ('A' for Active; 'I' for Inactive)
REMARK    1  A    between atoms: C2_2  and  C3_3 
REMARK       I    between atoms: C3_3  and  N1_5 
REMARK       I    between atoms: N1_5  and  C4_7 
REMARK    2  A    between atoms: C4_7  and  C5_9 
REMARK    3  A    between atoms: C5_9  and  N2_10 
REMARK    4  A    between atoms: N3_16  and  C11_17 
REMARK    5  A    between atoms: C11_17  and  C12_18 
ROOT
HETATM    1  N2  UNL     1       5.008  -1.430   8.023  1.00  0.00     0.100 N 
HETATM    2  C6  UNL     1       6.402  -1.183   8.446  1.00  0.00     0.276 C 
HETATM    3  C7  UNL     1       6.999  -0.947   7.051  1.00  0.00     0.072 C 
HETATM    4  C8  UNL     1       6.487  -2.216   6.358  1.00  0.00     0.115 C 
HETATM    5  C9  UNL     1       5.230  -2.557   7.101  1.00  0.00     0.312 C 
HETATM    6  C10 UNL     1       7.548  -3.249   6.525  1.00  0.00     0.312 C 
HETATM    7  N3  UNL     1       8.056  -3.797   5.257  1.00  0.00     0.093 N 
HETATM    8  C18 UNL     1       6.926  -4.139   4.490  1.00  0.00     0.298 C 
HETATM    9  C19 UNL     1       6.011  -2.948   4.229  1.00  0.00     0.199 C 
HETATM   10  O3  UNL     1       6.204  -1.889   5.062  1.00  0.00    -0.375 OA
ENDROOT
BRANCH   1  11
HETATM   11  C5  UNL     1       4.285  -2.031   9.136  1.00  0.00     0.375 C 
BRANCH  11  12
HETATM   12  C4  UNL     1       3.330  -1.069   9.686  1.00  0.00     0.252 C 
HETATM   13  N1  UNL     1       3.486  -0.424  10.943  1.00  0.00    -0.296 N 
HETATM   14  C3  UNL     1       2.471   0.494  11.409  1.00  0.00     0.223 C 
ATOM     15  H1  UNL     1       4.311  -0.608  11.513  1.00  0.00     0.171 HD
HETATM   16  O1  UNL     1       1.477   0.742  10.690  1.00  0.00    -0.273 OA
HETATM   17  O2  UNL     1       2.281  -0.769   9.032  1.00  0.00    -0.271 OA
BRANCH  14  18
HETATM   18  C2  UNL     1       2.596   1.141  12.731  1.00  0.00     0.099 C 
HETATM   19  C1  UNL     1       1.770   2.412  12.726  1.00  0.00     0.014 C 
ENDBRANCH  14  18
ENDBRANCH  11  12
ENDBRANCH   1  11
BRANCH   7  20
HETATM   20  C11 UNL     1       9.096  -3.007   4.757  1.00  0.00     0.277 C 
BRANCH  20  21
HETATM   21  C12 UNL     1      10.509  -3.322   5.085  1.00  0.00     0.014 C 
HETATM   22  C13 UNL     1      10.827  -4.746   5.096  1.00  0.00     0.006 C 
HETATM   23  C14 UNL     1      12.259  -5.042   4.614  1.00  0.00     0.000 C 
HETATM   24  C15 UNL     1      13.108  -3.992   5.284  1.00  0.00     0.000 C 
HETATM   25  C16 UNL     1      12.875  -2.709   4.508  1.00  0.00     0.000 C 
HETATM   26  C17 UNL     1      11.424  -2.450   4.263  1.00  0.00     0.006 C 
ENDBRANCH  20  21
ENDBRANCH   7  20
TORSDOF 5
ENDMDL
MODEL 2
REMARK VINA RESULT: -7.204373804      1.089      1.131
REMARK  5 active torsions:
REMARK  status: ('A' for Active; 'I' for Inactive)
REMARK    1  A    between atoms: C2_2  and  C3_3 
REMARK       I    between atoms: C3_3  and  N1_5 
REMARK       I    between atoms: N1_5  and  C4_7 
REMARK    2  A    between atoms: C4_7  and  C5_9 
REMARK    3  A    between atoms: C5_9  and  N2_10 
REMARK    4  A    between atoms: N3_16  and  C11_17 
REMARK    5  A    between atoms: C11_17  and  C12_18 
ROOT
HETATM    1  N2  UNL     1       5.347  -1.940   8.172  1.00  0.00     0.100 N 
HETATM    2  C6  UNL     1       6.739  -1.609   8.546  1.00  0.00     0.276 C 
HETATM    3  C7  UNL     1       7.242  -1.232   7.144  1.00  0.00     0.072 C 
HETATM    4  C8  UNL     1       6.793  -2.489   6.387  1.00  0.00     0.115 C 
HETATM    5  C9  UNL     1       5.607  -2.980   7.162  1.00  0.00     0.312 C 
HETATM    6  C10 UNL     1       7.938  -3.441   6.430  1.00  0.00     0.312 C 
HETATM    7  N3  UNL     1       8.419  -3.859   5.103  1.00  0.00     0.093 N 
HETATM    8  C18 UNL     1       7.281  -4.239   4.367  1.00  0.00     0.298 C 
HETATM    9  C19 UNL     1       6.264  -3.111   4.236  1.00  0.00     0.199 C 
HETATM   10  O3  UNL     1       6.418  -2.098   5.133  1.00  0.00    -0.375 OA
ENDROOT
BRANCH   1  11
HETATM   11  C5  UNL     1       4.733  -2.671   9.273  1.00  0.00     0.375 C 
BRANCH  11  12
HETATM   12  C4  UNL     1       4.301  -1.736  10.312  1.00  0.00     0.252 C 
HETATM   13  N1  UNL     1       3.183  -0.870  10.187  1.00  0.00    -0.296 N 
HETATM   14  C3  UNL     1       2.854   0.038  11.263  1.00  0.00     0.223 C 
ATOM     15  H1  UNL     1       2.613  -0.888   9.341  1.00  0.00     0.171 HD
HETATM   16  O1  UNL     1       3.536   0.033  12.314  1.00  0.00    -0.273 OA
HETATM   17  O2  UNL     1       4.946  -1.660  11.406  1.00  0.00    -0.271 OA
BRANCH  14  18
HETATM   18  C2  UNL     1       1.719   0.975  11.133  1.00  0.00     0.099 C 
HETATM   19  C1  UNL     1       1.752   1.936  12.305  1.00  0.00     0.014 C 
ENDBRANCH  14  18
ENDBRANCH  11  12
ENDBRANCH   1  11
BRANCH   7  20
HETATM   20  C11 UNL     1       9.368  -2.955   4.613  1.00  0.00     0.277 C 
BRANCH  20  21
HETATM   21  C12 UNL     1      10.802  -3.099   4.966  1.00  0.00     0.014 C 
HETATM   22  C13 UNL     1      11.266  -4.478   5.073  1.00  0.00     0.006 C 
HETATM   23  C14 UNL     1      12.727  -4.654   4.618  1.00  0.00     0.000 C 
HETATM   24  C15 UNL     1      13.454  -3.479   5.220  1.00  0.00     0.000 C 
HETATM   25  C16 UNL     1      13.098  -2.281   4.360  1.00  0.00     0.000 C 
HETATM   26  C17 UNL     1      11.630  -2.192   4.092  1.00  0.00     0.006 C 
ENDBRANCH  20  21
ENDBRANCH   7  20
TORSDOF 5
ENDMDL
MODEL 3
REMARK VINA RESULT: -7.192553745      2.214      9.253
REMARK  5 active torsions:
REMARK  status: ('A' for Active; 'I' for Inactive)
REMARK    1  A    between atoms: C2_2  and  C3_3 
REMARK       I    between atoms: C3_3  and  N1_5 
REMARK       I    between atoms: N1_5  and  C4_7 
REMARK    2  A    between atoms: C4_7  and  C5_9 
REMARK    3  A    between atoms: C5_9  and  N2_10 
REMARK    4  A    between atoms: N3_16  and  C11_17 
REMARK    5  A    between atoms: C11_17  and  C12_18 
ROOT
HETATM    1  N2  UNL     1       7.839  -3.403   6.017  1.00  0.00     0.100 N 
HETATM    2  C6  UNL     1       8.293  -2.558   7.142  1.00  0.00     0.276 C 
HETATM    3  C7  UNL     1       7.195  -2.947   8.144  1.00  0.00     0.072 C 
HETATM    4  C8  UNL     1       5.968  -2.680   7.263  1.00  0.00     0.115 C 
HETATM    5  C9  UNL     1       6.468  -2.889   5.865  1.00  0.00     0.312 C 
HETATM    6  C10 UNL     1       5.560  -1.270   7.519  1.00  0.00     0.312 C 
HETATM    7  N3  UNL     1       4.176  -1.125   8.000  1.00  0.00     0.093 N 
HETATM    8  C18 UNL     1       3.371  -1.890   7.135  1.00  0.00     0.298 C 
HETATM    9  C19 UNL     1       3.775  -3.360   7.106  1.00  0.00     0.199 C 
HETATM   10  O3  UNL     1       5.026  -3.617   7.580  1.00  0.00    -0.375 OA
ENDROOT
BRANCH   1  11
HETATM   11  C5  UNL     1       8.513  -2.959   4.803  1.00  0.00     0.375 C 
BRANCH  11  12
HETATM   12  C4  UNL     1       9.878  -3.483   4.772  1.00  0.00     0.252 C 
HETATM   13  N1  UNL     1      11.040  -2.670   4.685  1.00  0.00    -0.296 N 
HETATM   14  C3  UNL     1      12.346  -3.288   4.635  1.00  0.00     0.223 C 
ATOM     15  H1  UNL     1      10.952  -1.655   4.657  1.00  0.00     0.171 HD
HETATM   16  O1  UNL     1      12.450  -4.534   4.703  1.00  0.00    -0.273 OA
HETATM   17  O2  UNL     1      10.079  -4.738   4.819  1.00  0.00    -0.271 OA
BRANCH  14  18
HETATM   18  C2  UNL     1      13.562  -2.459   4.501  1.00  0.00     0.099 C 
HETATM   19  C1  UNL     1      14.342  -2.535   5.799  1.00  0.00     0.014 C 
ENDBRANCH  14  18
ENDBRANCH  11  12
ENDBRANCH   1  11
BRANCH   7  20
HETATM   20  C11 UNL     1       4.120  -1.249   9.392  1.00  0.00     0.277 C 
BRANCH  20  21
HETATM   21  C12 UNL     1       3.421  -0.231  10.215  1.00  0.00     0.014 C 
HETATM   22  C13 UNL     1       2.046   0.038   9.809  1.00  0.00     0.006 C 
HETATM   23  C14 UNL     1       1.125   0.370  10.998  1.00  0.00     0.000 C 
HETATM   24  C15 UNL     1       1.940   1.303  11.858  1.00  0.00     0.000 C 
HETATM   25  C16 UNL     1       2.942   0.429  12.590  1.00  0.00     0.000 C 
HETATM   26  C17 UNL     1       3.628  -0.535  11.677  1.00  0.00     0.006 C 
ENDBRANCH  20  21
ENDBRANCH   7  20
TORSDOF 5
ENDMDL
MODEL 4
REMARK VINA RESULT: -7.149407225      3.308      3.812
REMARK  5 active torsions:
REMARK  status: ('A' for Active; 'I' for Inactive)
REMARK    1  A    between atoms: C2_2  and  C3_3 
REMARK       I    between atoms: C3_3  and  N1_5 
REMARK       I    between atoms: N1_5  and  C4_7 
REMARK    2  A    between atoms: C4_7  and  C5_9 
REMARK    3  A    between atoms: C5_9  and  N2_10 
REMARK    4  A    between atoms: N3_16  and  C11_17 
REMARK    5  A    between atoms: C11_17  and  C12_18 
ROOT
HETATM    1  N2  UNL     1       4.074  -2.533   4.688  1.00  0.00     0.100 N 
HETATM    2  C6  UNL     1       4.598  -3.484   3.685  1.00  0.00     0.276 C 
HETATM    3  C7  UNL     1       5.475  -4.317   4.632  1.00  0.00     0.072 C 
HETATM    4  C8  UNL     1       6.268  -3.176   5.283  1.00  0.00     0.115 C 
HETATM    5  C9  UNL     1       5.347  -1.996   5.201  1.00  0.00     0.312 C 
HETATM    6  C10 UNL     1       7.500  -2.996   4.465  1.00  0.00     0.312 C 
HETATM    7  N3  UNL     1       8.751  -3.148   5.227  1.00  0.00     0.093 N 
HETATM    8  C18 UNL     1       8.613  -2.357   6.382  1.00  0.00     0.298 C 
HETATM    9  C19 UNL     1       7.417  -2.766   7.234  1.00  0.00     0.199 C 
HETATM   10  O3  UNL     1       6.489  -3.523   6.585  1.00  0.00    -0.375 OA
ENDROOT
BRANCH   1  11
HETATM   11  C5  UNL     1       3.478  -1.402   3.989  1.00  0.00     0.375 C 
BRANCH  11  12
HETATM   12  C4  UNL     1       2.968  -0.431   4.957  1.00  0.00     0.252 C 
HETATM   13  N1  UNL     1       3.087   0.976   4.809  1.00  0.00    -0.296 N 
HETATM   14  C3  UNL     1       2.571   1.853   5.837  1.00  0.00     0.223 C 
ATOM     15  H1  UNL     1       3.534   1.367   3.980  1.00  0.00     0.171 HD
HETATM   16  O1  UNL     1       1.993   1.368   6.836  1.00  0.00    -0.273 OA
HETATM   17  O2  UNL     1       2.381  -0.833   6.011  1.00  0.00    -0.271 OA
BRANCH  14  18
HETATM   18  C2  UNL     1       2.724   3.317   5.720  1.00  0.00     0.099 C 
HETATM   19  C1  UNL     1       1.483   3.978   6.285  1.00  0.00     0.014 C 
ENDBRANCH  14  18
ENDBRANCH  11  12
ENDBRANCH   1  11
BRANCH   7  20
HETATM   20  C11 UNL     1       9.143  -4.490   5.272  1.00  0.00     0.277 C 
BRANCH  20  21
HETATM   21  C12 UNL     1      10.562  -4.856   5.506  1.00  0.00     0.014 C 
HETATM   22  C13 UNL     1      10.867  -6.268   5.302  1.00  0.00     0.006 C 
HETATM   23  C14 UNL     1      12.281  -6.499   4.737  1.00  0.00     0.000 C 
HETATM   24  C15 UNL     1      13.160  -5.560   5.524  1.00  0.00     0.000 C 
HETATM   25  C16 UNL     1      12.915  -4.177   4.948  1.00  0.00     0.000 C 
HETATM   26  C17 UNL     1      11.459  -3.879   4.789  1.00  0.00     0.006 C 
ENDBRANCH  20  21
ENDBRANCH   7  20
TORSDOF 5
ENDMDL
MODEL 5
REMARK VINA RESULT: -7.066893431      2.054      9.244
REMARK  5 active torsions:
REMARK  status: ('A' for Active; 'I' for Inactive)
REMARK    1  A    between atoms: C2_2  and  C3_3 
REMARK       I    between atoms: C3_3  and  N1_5 
REMARK       I    between atoms: N1_5  and  C4_7 
REMARK    2  A    between atoms: C4_7  and  C5_9 
REMARK    3  A    between atoms: C5_9  and  N2_10 
REMARK    4  A    between atoms: N3_16  and  C11_17 
REMARK    5  A    between atoms: C11_17  and  C12_18 
ROOT
HETATM    1  N2  UNL     1       6.879  -3.222   6.312  1.00  0.00     0.100 N 
HETATM    2  C6  UNL     1       7.337  -2.417   7.465  1.00  0.00     0.276 C 
HETATM    3  C7  UNL     1       6.224  -2.815   8.446  1.00  0.00     0.072 C 
HETATM    4  C8  UNL     1       5.009  -2.502   7.563  1.00  0.00     0.115 C 
HETATM    5  C9  UNL     1       5.517  -2.679   6.164  1.00  0.00     0.312 C 
HETATM    6  C10 UNL     1       4.624  -1.093   7.857  1.00  0.00     0.312 C 
HETATM    7  N3  UNL     1       3.238  -0.937   8.330  1.00  0.00     0.093 N 
HETATM    8  C18 UNL     1       2.428  -1.663   7.437  1.00  0.00     0.298 C 
HETATM    9  C19 UNL     1       2.807  -3.139   7.369  1.00  0.00     0.199 C 
HETATM   10  O3  UNL     1       4.048  -3.431   7.846  1.00  0.00    -0.375 OA
ENDROOT
BRANCH   1  11
HETATM   11  C5  UNL     1       7.570  -2.755   5.117  1.00  0.00     0.375 C 
BRANCH  11  12
HETATM   12  C4  UNL     1       8.785  -3.542   4.907  1.00  0.00     0.252 C 
HETATM   13  N1  UNL     1      10.100  -3.013   4.999  1.00  0.00    -0.296 N 
HETATM   14  C3  UNL     1      11.238  -3.870   4.747  1.00  0.00     0.223 C 
ATOM     15  H1  UNL     1      10.241  -2.033   5.241  1.00  0.00     0.171 HD
HETATM   16  O1  UNL     1      11.060  -5.080   4.483  1.00  0.00    -0.273 OA
HETATM   17  O2  UNL     1       8.700  -4.778   4.617  1.00  0.00    -0.271 OA
BRANCH  14  18
HETATM   18  C2  UNL     1      12.610  -3.326   4.797  1.00  0.00     0.099 C 
HETATM   19  C1  UNL     1      12.571  -1.877   4.353  1.00  0.00     0.014 C 
ENDBRANCH  14  18
ENDBRANCH  11  12
ENDBRANCH   1  11
BRANCH   7  20
HETATM   20  C11 UNL     1       3.168  -1.100   9.718  1.00  0.00     0.277 C 
BRANCH  20  21
HETATM   21  C12 UNL     1       2.854   0.051  10.600  1.00  0.00     0.014 C 
HETATM   22  C13 UNL     1       1.494   0.562  10.471  1.00  0.00     0.006 C 
HETATM   23  C14 UNL     1       0.925   1.090  11.801  1.00  0.00     0.000 C 
HETATM   24  C15 UNL     1       2.058   1.876  12.411  1.00  0.00     0.000 C 
HETATM   25  C16 UNL     1       3.023   0.849  12.975  1.00  0.00     0.000 C 
HETATM   26  C17 UNL     1       3.315  -0.249  12.004  1.00  0.00     0.006 C 
ENDBRANCH  20  21
ENDBRANCH   7  20
TORSDOF 5
ENDMDL
