MODEL 1
REMARK VINA RESULT: -6.692717511      0.000      0.000
REMARK  6 active torsions:
REMARK  status: ('A' for Active; 'I' for Inactive)
REMARK    1  A    between atoms: O1_1  and  C1_3 
REMARK    2  A    between atoms: C1_3  and  C2_4 
REMARK    3  A    between atoms: C7_11  and  C8_12 
REMARK    4  A    between atoms: C8_12  and  C9_13 
REMARK    5  A    between atoms: N1_17  and  C13_18 
REMARK    6  A    between atoms: C13_18  and  C14_19 
ROOT
HETATM    1  C9  UNL     1       5.761  -2.168   7.023  1.00  0.00    -0.036 C 
HETATM    2  C10 UNL     1       6.710  -1.804   8.115  1.00  0.00     0.014 C 
HETATM    3  C11 UNL     1       8.146  -1.892   7.817  1.00  0.00     0.045 C 
HETATM    4  C12 UNL     1       8.619  -3.140   7.101  1.00  0.00     0.063 C 
HETATM    5  N1  UNL     1       8.222  -3.229   5.759  1.00  0.00    -0.369 N 
HETATM    6  C18 UNL     1       6.885  -2.970   5.413  1.00  0.00     0.089 C 
HETATM    7  C19 UNL     1       6.391  -1.596   5.730  1.00  0.00     0.035 C 
HETATM    8  C20 UNL     1       5.928  -3.510   6.419  1.00  0.00     0.035 C 
ENDROOT
BRANCH   1   9
HETATM    9  C8  UNL     1       4.355  -1.752   7.210  1.00  0.00     0.019 C 
BRANCH   9  10
HETATM   10  C7  UNL     1       4.042  -0.732   8.231  1.00  0.00     0.049 C 
HETATM   11  C2  UNL     1       2.917   0.198   7.794  1.00  0.00     0.152 C 
HETATM   12  O2  UNL     1       1.739  -0.426   8.130  1.00  0.00    -0.375 OA
HETATM   13  C3  UNL     1       1.983  -1.404   9.077  1.00  0.00     0.153 C 
HETATM   14  C4  UNL     1       1.270  -1.060  10.392  1.00  0.00     0.061 C 
HETATM   15  C6  UNL     1       3.424  -1.253   9.506  1.00  0.00     0.157 C 
HETATM   16  C5  UNL     1       2.190  -0.005  10.924  1.00  0.00     0.171 C 
HETATM   17  O3  UNL     1       3.449  -0.230  10.450  1.00  0.00    -0.383 OA
BRANCH  11  18
HETATM   18  C1  UNL     1       2.998   0.552   6.346  1.00  0.00     0.196 C 
BRANCH  18  19
HETATM   19  O1  UNL     1       3.755   1.721   6.241  1.00  0.00    -0.398 OA
ATOM     20  H1  UNL     1       3.535   2.130   5.413  1.00  0.00     0.209 HD
ENDBRANCH  18  19
ENDBRANCH  11  18
ENDBRANCH   9  10
ENDBRANCH   1   9
BRANCH   5  21
HETATM   21  C13 UNL     1       9.182  -3.335   4.740  1.00  0.00     0.070 C 
BRANCH  21  22
HETATM   22  C14 UNL     1      10.589  -3.589   5.095  1.00  0.00     0.050 C 
HETATM   23  C15 UNL     1      11.596  -2.627   4.485  1.00  0.00     0.038 C 
HETATM   24  C16 UNL     1      12.879  -3.390   4.818  1.00  0.00     0.168 C 
HETATM   25  O4  UNL     1      12.524  -4.703   5.088  1.00  0.00    -0.390 OA
HETATM   26  C17 UNL     1      11.197  -4.884   4.679  1.00  0.00     0.177 C 
ENDBRANCH  21  22
ENDBRANCH   5  21
TORSDOF 6
ENDMDL
MODEL 2
REMARK VINA RESULT: -6.684726229      0.998      1.037
REMARK  6 active torsions:
REMARK  status: ('A' for Active; 'I' for Inactive)
REMARK    1  A    between atoms: O1_1  and  C1_3 
REMARK    2  A    between atoms: C1_3  and  C2_4 
REMARK    3  A    between atoms: C7_11  and  C8_12 
REMARK    4  A    between atoms: C8_12  and  C9_13 
REMARK    5  A    between atoms: N1_17  and  C13_18 
REMARK    6  A    between atoms: C13_18  and  C14_19 
ROOT
HETATM    1  C9  UNL     1       5.926  -2.782   6.559  1.00  0.00    -0.036 C 
HETATM    2  C10 UNL     1       6.729  -2.669   7.810  1.00  0.00     0.014 C 
HETATM    3  C11 UNL     1       8.189  -2.579   7.668  1.00  0.00     0.045 C 
HETATM    4  C12 UNL     1       8.842  -3.551   6.708  1.00  0.00     0.063 C 
HETATM    5  N1  UNL     1       8.583  -3.296   5.353  1.00  0.00    -0.369 N 
HETATM    6  C18 UNL     1       7.266  -3.041   4.935  1.00  0.00     0.089 C 
HETATM    7  C19 UNL     1       6.618  -1.840   5.544  1.00  0.00     0.035 C 
HETATM    8  C20 UNL     1       6.274  -3.896   5.645  1.00  0.00     0.035 C 
ENDROOT
BRANCH   1   9
HETATM    9  C8  UNL     1       4.476  -2.526   6.685  1.00  0.00     0.019 C 
BRANCH   9  10
HETATM   10  C7  UNL     1       4.025  -1.272   7.321  1.00  0.00     0.049 C 
HETATM   11  C2  UNL     1       2.890  -0.608   6.552  1.00  0.00     0.152 C 
HETATM   12  O2  UNL     1       1.725  -1.189   6.993  1.00  0.00    -0.375 OA
HETATM   13  C3  UNL     1       1.944  -1.813   8.207  1.00  0.00     0.153 C 
HETATM   14  C4  UNL     1       1.109  -1.143   9.307  1.00  0.00     0.061 C 
HETATM   15  C6  UNL     1       3.335  -1.429   8.655  1.00  0.00     0.157 C 
HETATM   16  C5  UNL     1       1.923   0.091   9.543  1.00  0.00     0.171 C 
HETATM   17  O3  UNL     1       3.227  -0.169   9.238  1.00  0.00    -0.383 OA
BRANCH  11  18
HETATM   18  C1  UNL     1       3.069  -0.703   5.074  1.00  0.00     0.196 C 
BRANCH  18  19
HETATM   19  O1  UNL     1       3.374   0.576   4.603  1.00  0.00    -0.398 OA
ATOM     20  H1  UNL     1       3.008   0.655   3.731  1.00  0.00     0.209 HD
ENDBRANCH  18  19
ENDBRANCH  11  18
ENDBRANCH   9  10
ENDBRANCH   1   9
BRANCH   5  21
HETATM   21  C13 UNL     1       9.640  -3.059   4.461  1.00  0.00     0.070 C 
BRANCH  21  22
HETATM   22  C14 UNL     1      11.030  -3.147   4.944  1.00  0.00     0.050 C 
HETATM   23  C15 UNL     1      11.996  -2.149   4.328  1.00  0.00     0.038 C 
HETATM   24  C16 UNL     1      13.308  -2.756   4.827  1.00  0.00     0.168 C 
HETATM   25  O4  UNL     1      13.048  -4.069   5.188  1.00  0.00    -0.390 OA
HETATM   26  C17 UNL     1      11.782  -4.409   4.696  1.00  0.00     0.177 C 
ENDBRANCH  21  22
ENDBRANCH   5  21
TORSDOF 6
ENDMDL
MODEL 3
REMARK VINA RESULT: -6.683105672      1.610      2.102
REMARK  6 active torsions:
REMARK  status: ('A' for Active; 'I' for Inactive)
REMARK    1  A    between atoms: O1_1  and  C1_3 
REMARK    2  A    between atoms: C1_3  and  C2_4 
REMARK    3  A    between atoms: C7_11  and  C8_12 
REMARK    4  A    between atoms: C8_12  and  C9_13 
REMARK    5  A    between atoms: N1_17  and  C13_18 
REMARK    6  A    between atoms: C13_18  and  C14_19 
ROOT
HETATM    1  C9  UNL     1       5.816  -2.339   6.674  1.00  0.00    -0.036 C 
HETATM    2  C10 UNL     1       6.662  -2.105   7.879  1.00  0.00     0.014 C 
HETATM    3  C11 UNL     1       8.120  -2.166   7.702  1.00  0.00     0.045 C 
HETATM    4  C12 UNL     1       8.660  -3.329   6.896  1.00  0.00     0.063 C 
HETATM    5  N1  UNL     1       8.384  -3.266   5.523  1.00  0.00    -0.369 N 
HETATM    6  C18 UNL     1       7.082  -2.964   5.091  1.00  0.00     0.089 C 
HETATM    7  C19 UNL     1       6.556  -1.630   5.513  1.00  0.00     0.035 C 
HETATM    8  C20 UNL     1       6.042  -3.607   5.941  1.00  0.00     0.035 C 
ENDROOT
BRANCH   1   9
HETATM    9  C8  UNL     1       4.397  -1.940   6.780  1.00  0.00     0.019 C 
BRANCH   9  10
HETATM   10  C7  UNL     1       3.988  -0.615   6.272  1.00  0.00     0.049 C 
HETATM   11  C2  UNL     1       2.861  -0.709   5.252  1.00  0.00     0.152 C 
HETATM   12  O2  UNL     1       1.687  -0.739   5.967  1.00  0.00    -0.375 OA
HETATM   13  C3  UNL     1       1.907  -0.261   7.246  1.00  0.00     0.153 C 
HETATM   14  C4  UNL     1       1.105   1.027   7.478  1.00  0.00     0.061 C 
HETATM   15  C6  UNL     1       3.313   0.289   7.275  1.00  0.00     0.157 C 
HETATM   16  C5  UNL     1       1.954   2.005   6.728  1.00  0.00     0.171 C 
HETATM   17  O3  UNL     1       3.246   1.568   6.730  1.00  0.00    -0.383 OA
BRANCH  11  18
HETATM   18  C1  UNL     1       3.015  -1.876   4.334  1.00  0.00     0.196 C 
BRANCH  18  19
HETATM   19  O1  UNL     1       3.775  -1.452   3.241  1.00  0.00    -0.398 OA
ATOM     20  H1  UNL     1       4.688  -1.602   3.453  1.00  0.00     0.209 HD
ENDBRANCH  18  19
ENDBRANCH  11  18
ENDBRANCH   9  10
ENDBRANCH   1   9
BRANCH   5  21
HETATM   21  C13 UNL     1       9.431  -3.264   4.588  1.00  0.00     0.070 C 
BRANCH  21  22
HETATM   22  C14 UNL     1      10.814  -3.478   5.049  1.00  0.00     0.050 C 
HETATM   23  C15 UNL     1      11.840  -2.501   4.501  1.00  0.00     0.038 C 
HETATM   24  C16 UNL     1      13.113  -3.227   4.939  1.00  0.00     0.168 C 
HETATM   25  O4  UNL     1      12.770  -4.545   5.202  1.00  0.00    -0.390 OA
HETATM   26  C17 UNL     1      11.482  -4.764   4.699  1.00  0.00     0.177 C 
ENDBRANCH  21  22
ENDBRANCH   5  21
TORSDOF 6
ENDMDL
MODEL 4
REMARK VINA RESULT: -6.508102346      1.670      2.396
REMARK  6 active torsions:
REMARK  status: ('A' for Active; 'I' for Inactive)
REMARK    1  A    between atoms: O1_1  and  C1_3 
REMARK    2  A    between atoms: C1_3  and  C2_4 
REMARK    3  A    between atoms: C7_11  and  C8_12 
REMARK    4  A    between atoms: C8_12  and  C9_13 
REMARK    5  A    between atoms: N1_17  and  C13_18 
REMARK    6  A    between atoms: C13_18  and  C14_19 
ROOT
HETATM    1  C9  UNL     1       5.578  -3.012   6.185  1.00  0.00    -0.036 C 
HETATM    2  C10 UNL     1       5.221  -4.263   5.456  1.00  0.00     0.014 C 
HETATM    3  C11 UNL     1       6.284  -4.922   4.686  1.00  0.00     0.045 C 
HETATM    4  C12 UNL     1       7.147  -4.033   3.815  1.00  0.00     0.063 C 
HETATM    5  N1  UNL     1       8.023  -3.196   4.521  1.00  0.00    -0.369 N 
HETATM    6  C18 UNL     1       7.544  -2.456   5.615  1.00  0.00     0.089 C 
HETATM    7  C19 UNL     1       6.998  -3.262   6.749  1.00  0.00     0.035 C 
HETATM    8  C20 UNL     1       6.174  -1.922   5.378  1.00  0.00     0.035 C 
ENDROOT
BRANCH   1   9
HETATM    9  C8  UNL     1       4.622  -2.557   7.215  1.00  0.00     0.019 C 
BRANCH   9  10
HETATM   10  C7  UNL     1       5.126  -2.234   8.565  1.00  0.00     0.049 C 
HETATM   11  C2  UNL     1       4.856  -0.786   8.953  1.00  0.00     0.152 C 
HETATM   12  O2  UNL     1       3.585  -0.751   9.476  1.00  0.00    -0.375 OA
HETATM   13  C3  UNL     1       3.197  -2.025   9.847  1.00  0.00     0.153 C 
HETATM   14  C4  UNL     1       2.979  -2.094  11.364  1.00  0.00     0.061 C 
HETATM   15  C6  UNL     1       4.411  -2.913   9.708  1.00  0.00     0.157 C 
HETATM   16  C5  UNL     1       4.400  -2.153  11.833  1.00  0.00     0.171 C 
HETATM   17  O3  UNL     1       5.167  -2.729  10.863  1.00  0.00    -0.383 OA
BRANCH  11  18
HETATM   18  C1  UNL     1       5.044   0.157   7.812  1.00  0.00     0.196 C 
BRANCH  18  19
HETATM   19  O1  UNL     1       6.400   0.489   7.759  1.00  0.00    -0.398 OA
ATOM     20  H1  UNL     1       6.519   1.090   7.034  1.00  0.00     0.209 HD
ENDBRANCH  18  19
ENDBRANCH  11  18
ENDBRANCH   9  10
ENDBRANCH   1   9
BRANCH   5  21
HETATM   21  C13 UNL     1       9.408  -3.273   4.302  1.00  0.00     0.070 C 
BRANCH  21  22
HETATM   22  C14 UNL     1      10.202  -4.276   5.032  1.00  0.00     0.050 C 
HETATM   23  C15 UNL     1      11.703  -4.206   4.805  1.00  0.00     0.038 C 
HETATM   24  C16 UNL     1      12.099  -5.538   5.445  1.00  0.00     0.168 C 
HETATM   25  O4  UNL     1      10.956  -6.322   5.514  1.00  0.00    -0.390 OA
HETATM   26  C17 UNL     1       9.970  -5.716   4.727  1.00  0.00     0.177 C 
ENDBRANCH  21  22
ENDBRANCH   5  21
TORSDOF 6
ENDMDL
MODEL 5
REMARK VINA RESULT: -6.445332972      1.057      1.102
REMARK  6 active torsions:
REMARK  status: ('A' for Active; 'I' for Inactive)
REMARK    1  A    between atoms: O1_1  and  C1_3 
REMARK    2  A    between atoms: C1_3  and  C2_4 
REMARK    3  A    between atoms: C7_11  and  C8_12 
REMARK    4  A    between atoms: C8_12  and  C9_13 
REMARK    5  A    between atoms: N1_17  and  C13_18 
REMARK    6  A    between atoms: C13_18  and  C14_19 
ROOT
HETATM    1  C9  UNL     1       5.645  -2.374   6.624  1.00  0.00    -0.036 C 
HETATM    2  C10 UNL     1       6.403  -1.879   7.809  1.00  0.00     0.014 C 
HETATM    3  C11 UNL     1       7.870  -1.870   7.717  1.00  0.00     0.045 C 
HETATM    4  C12 UNL     1       8.525  -3.114   7.154  1.00  0.00     0.063 C 
HETATM    5  N1  UNL     1       8.328  -3.306   5.779  1.00  0.00    -0.369 N 
HETATM    6  C18 UNL     1       7.038  -3.172   5.238  1.00  0.00     0.089 C 
HETATM    7  C19 UNL     1       6.410  -1.825   5.395  1.00  0.00     0.035 C 
HETATM    8  C20 UNL     1       5.989  -3.730   6.136  1.00  0.00     0.035 C 
ENDROOT
BRANCH   1   9
HETATM    9  C8  UNL     1       4.202  -2.060   6.590  1.00  0.00     0.019 C 
BRANCH   9  10
HETATM   10  C7  UNL     1       3.715  -0.861   7.300  1.00  0.00     0.049 C 
HETATM   11  C2  UNL     1       2.702  -0.073   6.479  1.00  0.00     0.152 C 
HETATM   12  O2  UNL     1       1.475  -0.647   6.715  1.00  0.00    -0.375 OA
HETATM   13  C3  UNL     1       1.527  -1.401   7.873  1.00  0.00     0.153 C 
HETATM   14  C4  UNL     1       0.585  -0.813   8.933  1.00  0.00     0.061 C 
HETATM   15  C6  UNL     1       2.864  -1.125   8.519  1.00  0.00     0.157 C 
HETATM   16  C5  UNL     1       1.401   0.354   9.394  1.00  0.00     0.171 C 
HETATM   17  O3  UNL     1       2.724   0.072   9.218  1.00  0.00    -0.383 OA
BRANCH  11  18
HETATM   18  C1  UNL     1       3.054  -0.023   5.030  1.00  0.00     0.196 C 
BRANCH  18  19
HETATM   19  O1  UNL     1       3.090   1.321   4.652  1.00  0.00    -0.398 OA
ATOM     20  H1  UNL     1       2.195   1.635   4.629  1.00  0.00     0.209 HD
ENDBRANCH  18  19
ENDBRANCH  11  18
ENDBRANCH   9  10
ENDBRANCH   1   9
BRANCH   5  21
HETATM   21  C13 UNL     1       9.427  -3.392   4.910  1.00  0.00     0.070 C 
BRANCH  21  22
HETATM   22  C14 UNL     1      10.581  -4.230   5.283  1.00  0.00     0.050 C 
HETATM   23  C15 UNL     1      11.922  -3.764   4.742  1.00  0.00     0.038 C 
HETATM   24  C16 UNL     1      12.750  -5.010   5.066  1.00  0.00     0.168 C 
HETATM   25  O4  UNL     1      11.863  -6.058   5.264  1.00  0.00    -0.390 OA
HETATM   26  C17 UNL     1      10.601  -5.646   4.817  1.00  0.00     0.177 C 
ENDBRANCH  21  22
ENDBRANCH   5  21
TORSDOF 6
ENDMDL
