MODEL 1
REMARK VINA RESULT: -5.566287950      0.000      0.000
REMARK  6 active torsions:
REMARK  status: ('A' for Active; 'I' for Inactive)
REMARK    1  A    between atoms: N1_2  and  C3_4 
REMARK    2  A    between atoms: C3_4  and  C4_5 
REMARK    3  A    between atoms: C4_5  and  N2_6 
REMARK    4  A    between atoms: N2_6  and  C5_8 
REMARK    5  A    between atoms: C6_11  and  C7_12 
REMARK    6  A    between atoms: C11_18  and  N5_19 
ROOT
HETATM    1  C5  UNL     1      -5.665  -3.161  43.554  1.00  0.00     0.694 A 
HETATM    2  N3  UNL     1      -5.079  -4.047  42.750  1.00  0.00    -0.179 N 
ATOM      3  H3  UNL     1      -4.666  -3.700  41.884  1.00  0.00     0.185 HD
HETATM    4  C6  UNL     1      -4.994  -5.349  42.994  1.00  0.00     0.121 A 
HETATM    5  N4  UNL     1      -5.536  -5.822  44.156  1.00  0.00    -0.179 N 
ATOM      6  H4  UNL     1      -5.482  -6.818  44.375  1.00  0.00     0.185 HD
HETATM    7  C11 UNL     1      -6.146  -4.972  45.018  1.00  0.00     0.691 A 
HETATM    8  N6  UNL     1      -6.194  -3.686  44.707  1.00  0.00    -0.023 N 
ATOM      9  H6  UNL     1      -6.650  -3.050  45.362  1.00  0.00     0.203 HD
ENDROOT
BRANCH   1  10
HETATM   10  N2  UNL     1      -5.758  -1.895  43.370  1.00  0.00    -0.221 N 
ATOM     11  H2  UNL     1      -6.097  -1.561  42.468  1.00  0.00     0.178 HD
BRANCH  10  12
HETATM   12  C4  UNL     1      -5.415  -0.936  44.355  1.00  0.00     0.182 C 
BRANCH  12  13
HETATM   13  C3  UNL     1      -6.496   0.076  44.655  1.00  0.00     0.077 C 
BRANCH  13  14
HETATM   14  N1  UNL     1      -7.821  -0.404  44.668  1.00  0.00    -0.400 N 
HETATM   15  C1  UNL     1      -8.263  -0.911  45.930  1.00  0.00     0.148 C 
HETATM   16  C2  UNL     1      -8.839   0.275  43.961  1.00  0.00     0.148 C 
ENDBRANCH  13  14
ENDBRANCH  12  13
ENDBRANCH  10  12
ENDBRANCH   1  10
BRANCH   4  17
HETATM   17  C7  UNL     1      -4.347  -6.318  42.095  1.00  0.00     0.009 C 
HETATM   18  C8  UNL     1      -5.196  -6.486  40.844  1.00  0.00     0.022 C 
HETATM   19  C9  UNL     1      -3.003  -5.745  41.698  1.00  0.00     0.022 C 
HETATM   20  C10 UNL     1      -4.138  -7.680  42.718  1.00  0.00     0.022 C 
ENDBRANCH   4  17
BRANCH   7  21
HETATM   21  N5  UNL     1      -6.670  -5.438  46.118  1.00  0.00    -0.234 N 
ATOM     22  H52 UNL     1      -7.551  -5.951  46.121  1.00  0.00     0.174 HD
ATOM     23  H51 UNL     1      -6.188  -5.293  47.005  1.00  0.00     0.174 HD
ENDBRANCH   7  21
TORSDOF 6
ENDMDL
MODEL 2
REMARK VINA RESULT: -5.537098341      0.058      1.027
REMARK  6 active torsions:
REMARK  status: ('A' for Active; 'I' for Inactive)
REMARK    1  A    between atoms: N1_2  and  C3_4 
REMARK    2  A    between atoms: C3_4  and  C4_5 
REMARK    3  A    between atoms: C4_5  and  N2_6 
REMARK    4  A    between atoms: N2_6  and  C5_8 
REMARK    5  A    between atoms: C6_11  and  C7_12 
REMARK    6  A    between atoms: C11_18  and  N5_19 
ROOT
HETATM    1  C5  UNL     1      -5.648  -3.173  43.535  1.00  0.00     0.694 A 
HETATM    2  N3  UNL     1      -5.051  -4.051  42.729  1.00  0.00    -0.179 N 
ATOM      3  H3  UNL     1      -4.636  -3.696  41.867  1.00  0.00     0.185 HD
HETATM    4  C6  UNL     1      -4.958  -5.353  42.967  1.00  0.00     0.121 A 
HETATM    5  N4  UNL     1      -5.503  -5.837  44.123  1.00  0.00    -0.179 N 
ATOM      6  H4  UNL     1      -5.443  -6.833  44.337  1.00  0.00     0.185 HD
HETATM    7  C11 UNL     1      -6.123  -4.996  44.987  1.00  0.00     0.691 A 
HETATM    8  N6  UNL     1      -6.179  -3.709  44.683  1.00  0.00    -0.023 N 
ATOM      9  H6  UNL     1      -6.643  -3.079  45.339  1.00  0.00     0.203 HD
ENDROOT
BRANCH   1  10
HETATM   10  N2  UNL     1      -5.749  -1.907  43.358  1.00  0.00    -0.221 N 
ATOM     11  H2  UNL     1      -6.095  -1.571  42.459  1.00  0.00     0.178 HD
BRANCH  10  12
HETATM   12  C4  UNL     1      -5.406  -0.951  44.345  1.00  0.00     0.182 C 
BRANCH  12  13
HETATM   13  C3  UNL     1      -6.483   0.065  44.643  1.00  0.00     0.077 C 
BRANCH  13  14
HETATM   14  N1  UNL     1      -7.810  -0.410  44.657  1.00  0.00    -0.400 N 
HETATM   15  C1  UNL     1      -8.247  -0.930  45.915  1.00  0.00     0.148 C 
HETATM   16  C2  UNL     1      -8.828   0.279  43.962  1.00  0.00     0.148 C 
ENDBRANCH  13  14
ENDBRANCH  12  13
ENDBRANCH  10  12
ENDBRANCH   1  10
BRANCH   4  17
HETATM   17  C7  UNL     1      -4.300  -6.313  42.066  1.00  0.00     0.009 C 
HETATM   18  C8  UNL     1      -4.194  -7.662  42.762  1.00  0.00     0.022 C 
HETATM   19  C9  UNL     1      -5.176  -6.464  40.841  1.00  0.00     0.022 C 
HETATM   20  C10 UNL     1      -2.915  -5.888  41.633  1.00  0.00     0.022 C 
ENDBRANCH   4  17
BRANCH   7  21
HETATM   21  N5  UNL     1      -6.649  -5.471  46.081  1.00  0.00    -0.234 N 
ATOM     22  H52 UNL     1      -6.113  -6.040  46.736  1.00  0.00     0.174 HD
ATOM     23  H51 UNL     1      -7.624  -5.268  46.300  1.00  0.00     0.174 HD
ENDBRANCH   7  21
TORSDOF 6
ENDMDL
MODEL 3
REMARK VINA RESULT: -5.432222932      0.792      1.024
REMARK  6 active torsions:
REMARK  status: ('A' for Active; 'I' for Inactive)
REMARK    1  A    between atoms: N1_2  and  C3_4 
REMARK    2  A    between atoms: C3_4  and  C4_5 
REMARK    3  A    between atoms: C4_5  and  N2_6 
REMARK    4  A    between atoms: N2_6  and  C5_8 
REMARK    5  A    between atoms: C6_11  and  C7_12 
REMARK    6  A    between atoms: C11_18  and  N5_19 
ROOT
HETATM    1  C5  UNL     1      -5.601  -3.185  43.659  1.00  0.00     0.694 A 
HETATM    2  N3  UNL     1      -5.028  -4.053  42.826  1.00  0.00    -0.179 N 
ATOM      3  H3  UNL     1      -4.605  -3.683  41.974  1.00  0.00     0.185 HD
HETATM    4  C6  UNL     1      -4.968  -5.364  43.024  1.00  0.00     0.121 A 
HETATM    5  N4  UNL     1      -5.524  -5.868  44.166  1.00  0.00    -0.179 N 
ATOM      6  H4  UNL     1      -5.489  -6.872  44.350  1.00  0.00     0.185 HD
HETATM    7  C11 UNL     1      -6.121  -5.038  45.057  1.00  0.00     0.691 A 
HETATM    8  N6  UNL     1      -6.144  -3.741  44.792  1.00  0.00    -0.023 N 
ATOM      9  H6  UNL     1      -6.591  -3.120  45.467  1.00  0.00     0.203 HD
ENDROOT
BRANCH   1  10
HETATM   10  N2  UNL     1      -5.670  -1.912  43.521  1.00  0.00    -0.221 N 
ATOM     11  H2  UNL     1      -4.879  -1.429  43.094  1.00  0.00     0.178 HD
BRANCH  10  12
HETATM   12  C4  UNL     1      -6.786  -1.142  43.928  1.00  0.00     0.182 C 
BRANCH  12  13
HETATM   13  C3  UNL     1      -6.443   0.105  44.709  1.00  0.00     0.077 C 
BRANCH  13  14
HETATM   14  N1  UNL     1      -7.525   0.823  45.256  1.00  0.00    -0.400 N 
HETATM   15  C1  UNL     1      -7.747   2.110  44.674  1.00  0.00     0.148 C 
HETATM   16  C2  UNL     1      -8.725   0.162  45.603  1.00  0.00     0.148 C 
ENDBRANCH  13  14
ENDBRANCH  12  13
ENDBRANCH  10  12
ENDBRANCH   1  10
BRANCH   4  17
HETATM   17  C7  UNL     1      -4.335  -6.312  42.093  1.00  0.00     0.009 C 
HETATM   18  C8  UNL     1      -5.212  -6.462  40.858  1.00  0.00     0.022 C 
HETATM   19  C9  UNL     1      -3.004  -5.724  41.677  1.00  0.00     0.022 C 
HETATM   20  C10 UNL     1      -4.106  -7.684  42.686  1.00  0.00     0.022 C 
ENDBRANCH   4  17
BRANCH   7  21
HETATM   21  N5  UNL     1      -6.657  -5.533  46.137  1.00  0.00    -0.234 N 
ATOM     22  H52 UNL     1      -7.648  -5.769  46.189  1.00  0.00     0.174 HD
ATOM     23  H51 UNL     1      -6.075  -5.696  46.958  1.00  0.00     0.174 HD
ENDBRANCH   7  21
TORSDOF 6
ENDMDL
MODEL 4
REMARK VINA RESULT: -5.283162620      2.570      6.482
REMARK  6 active torsions:
REMARK  status: ('A' for Active; 'I' for Inactive)
REMARK    1  A    between atoms: N1_2  and  C3_4 
REMARK    2  A    between atoms: C3_4  and  C4_5 
REMARK    3  A    between atoms: C4_5  and  N2_6 
REMARK    4  A    between atoms: N2_6  and  C5_8 
REMARK    5  A    between atoms: C6_11  and  C7_12 
REMARK    6  A    between atoms: C11_18  and  N5_19 
ROOT
HETATM    1  C5  UNL     1      -4.494  -6.299  42.862  1.00  0.00     0.694 A 
HETATM    2  N3  UNL     1      -5.158  -6.136  44.005  1.00  0.00    -0.179 N 
ATOM      3  H3  UNL     1      -5.299  -6.958  44.593  1.00  0.00     0.185 HD
HETATM    4  C6  UNL     1      -5.649  -4.980  44.435  1.00  0.00     0.121 A 
HETATM    5  N4  UNL     1      -5.458  -3.871  43.660  1.00  0.00    -0.179 N 
ATOM      6  H4  UNL     1      -5.819  -2.967  43.967  1.00  0.00     0.185 HD
HETATM    7  C11 UNL     1      -4.789  -3.969  42.485  1.00  0.00     0.691 A 
HETATM    8  N6  UNL     1      -4.328  -5.155  42.119  1.00  0.00    -0.023 N 
ATOM      9  H6  UNL     1      -3.822  -5.223  41.236  1.00  0.00     0.203 HD
ENDROOT
BRANCH   1  10
HETATM   10  N2  UNL     1      -3.988  -7.388  42.412  1.00  0.00    -0.221 N 
ATOM     11  H2  UNL     1      -3.018  -7.603  42.646  1.00  0.00     0.178 HD
BRANCH  10  12
HETATM   12  C4  UNL     1      -4.704  -8.309  41.608  1.00  0.00     0.182 C 
BRANCH  12  13
HETATM   13  C3  UNL     1      -4.055  -8.628  40.282  1.00  0.00     0.077 C 
BRANCH  13  14
HETATM   14  N1  UNL     1      -3.607  -7.531  39.520  1.00  0.00    -0.400 N 
HETATM   15  C1  UNL     1      -2.354  -7.730  38.860  1.00  0.00     0.148 C 
HETATM   16  C2  UNL     1      -4.517  -6.766  38.756  1.00  0.00     0.148 C 
ENDBRANCH  13  14
ENDBRANCH  12  13
ENDBRANCH  10  12
ENDBRANCH   1  10
BRANCH   4  17
HETATM   17  C7  UNL     1      -6.385  -4.813  45.700  1.00  0.00     0.009 C 
HETATM   18  C8  UNL     1      -5.944  -5.890  46.680  1.00  0.00     0.022 C 
HETATM   19  C9  UNL     1      -6.017  -3.459  46.267  1.00  0.00     0.022 C 
HETATM   20  C10 UNL     1      -7.886  -4.893  45.545  1.00  0.00     0.022 C 
ENDBRANCH   4  17
BRANCH   7  21
HETATM   21  N5  UNL     1      -4.623  -2.906  41.749  1.00  0.00    -0.234 N 
ATOM     22  H52 UNL     1      -5.399  -2.460  41.260  1.00  0.00     0.174 HD
ATOM     23  H51 UNL     1      -3.693  -2.498  41.657  1.00  0.00     0.174 HD
ENDBRANCH   7  21
TORSDOF 6
ENDMDL
MODEL 5
REMARK VINA RESULT: -5.273323913      2.600      6.373
REMARK  6 active torsions:
REMARK  status: ('A' for Active; 'I' for Inactive)
REMARK    1  A    between atoms: N1_2  and  C3_4 
REMARK    2  A    between atoms: C3_4  and  C4_5 
REMARK    3  A    between atoms: C4_5  and  N2_6 
REMARK    4  A    between atoms: N2_6  and  C5_8 
REMARK    5  A    between atoms: C6_11  and  C7_12 
REMARK    6  A    between atoms: C11_18  and  N5_19 
ROOT
HETATM    1  C5  UNL     1      -4.554  -6.225  42.863  1.00  0.00     0.694 A 
HETATM    2  N3  UNL     1      -5.184  -6.118  44.032  1.00  0.00    -0.179 N 
ATOM      3  H3  UNL     1      -5.321  -6.970  44.577  1.00  0.00     0.185 HD
HETATM    4  C6  UNL     1      -5.647  -4.982  44.540  1.00  0.00     0.121 A 
HETATM    5  N4  UNL     1      -5.462  -3.834  43.823  1.00  0.00    -0.179 N 
ATOM      6  H4  UNL     1      -5.802  -2.944  44.189  1.00  0.00     0.185 HD
HETATM    7  C11 UNL     1      -4.826  -3.875  42.625  1.00  0.00     0.691 A 
HETATM    8  N6  UNL     1      -4.393  -5.044  42.181  1.00  0.00    -0.023 N 
ATOM      9  H6  UNL     1      -3.911  -5.069  41.282  1.00  0.00     0.203 HD
ENDROOT
BRANCH   1  10
HETATM   10  N2  UNL     1      -4.075  -7.293  42.339  1.00  0.00    -0.221 N 
ATOM     11  H2  UNL     1      -4.604  -8.160  42.439  1.00  0.00     0.178 HD
BRANCH  10  12
HETATM   12  C4  UNL     1      -2.850  -7.333  41.629  1.00  0.00     0.182 C 
BRANCH  12  13
HETATM   13  C3  UNL     1      -2.967  -7.786  40.193  1.00  0.00     0.077 C 
BRANCH  13  14
HETATM   14  N1  UNL     1      -3.253  -6.788  39.240  1.00  0.00    -0.400 N 
HETATM   15  C1  UNL     1      -2.209  -6.546  38.293  1.00  0.00     0.148 C 
HETATM   16  C2  UNL     1      -4.544  -6.681  38.675  1.00  0.00     0.148 C 
ENDBRANCH  13  14
ENDBRANCH  12  13
ENDBRANCH  10  12
ENDBRANCH   1  10
BRANCH   4  17
HETATM   17  C7  UNL     1      -6.346  -4.878  45.831  1.00  0.00     0.009 C 
HETATM   18  C8  UNL     1      -6.013  -3.540  46.474  1.00  0.00     0.022 C 
HETATM   19  C9  UNL     1      -7.832  -4.928  45.552  1.00  0.00     0.022 C 
HETATM   20  C10 UNL     1      -5.989  -5.978  46.805  1.00  0.00     0.022 C 
ENDBRANCH   4  17
BRANCH   7  21
HETATM   21  N5  UNL     1      -4.665  -2.774  41.945  1.00  0.00    -0.234 N 
ATOM     22  H52 UNL     1      -5.421  -2.361  41.399  1.00  0.00     0.174 HD
ATOM     23  H51 UNL     1      -3.761  -2.302  41.958  1.00  0.00     0.174 HD
ENDBRANCH   7  21
TORSDOF 6
ENDMDL
