MODEL 1
REMARK VINA RESULT: -6.580041432      0.000      0.000
REMARK  2 active torsions:
REMARK  status: ('A' for Active; 'I' for Inactive)
REMARK    1  A    between atoms: C5_7  and  C6_8 
REMARK    2  A    between atoms: C6_8  and  N2_10 
ROOT
HETATM    1  N2  UNL     1     -18.147  25.111  -0.595  1.00  0.00    -0.229 N 
HETATM    2  N3  UNL     1     -18.633  25.993  -1.478  1.00  0.00    -0.255 N 
ATOM      3  H3  UNL     1     -18.072  26.248  -2.291  1.00  0.00     0.191 HD
HETATM    4  C8  UNL     1     -19.844  26.548  -1.310  1.00  0.00     0.328 A 
HETATM    5  O1  UNL     1     -20.260  27.384  -2.181  1.00  0.00    -0.261 OA
HETATM    6  C9  UNL     1     -20.637  26.233  -0.222  1.00  0.00     0.319 A 
HETATM    7  O2  UNL     1     -21.775  26.738  -0.043  1.00  0.00    -0.262 OA
HETATM    8  N4  UNL     1     -20.133  25.341   0.658  1.00  0.00    -0.269 N 
ATOM      9  H4  UNL     1     -20.680  25.075   1.477  1.00  0.00     0.174 HD
HETATM   10  C10 UNL     1     -18.902  24.795   0.462  1.00  0.00     0.344 A 
HETATM   11  O3  UNL     1     -18.446  23.973   1.282  1.00  0.00    -0.245 OA
ENDROOT
BRANCH   1  12
HETATM   12  C6  UNL     1     -16.844  24.578  -0.876  1.00  0.00     0.159 C 
HETATM   13  C7  UNL     1     -15.992  25.755  -1.352  1.00  0.00     0.041 C 
BRANCH  12  14
HETATM   14  C5  UNL     1     -16.799  23.455  -1.811  1.00  0.00     0.040 A 
HETATM   15  C2  UNL     1     -16.609  22.132  -1.475  1.00  0.00    -0.036 A 
HETATM   16  C1  UNL     1     -16.413  21.543  -0.110  1.00  0.00     0.050 C 
HETATM   17  C3  UNL     1     -16.620  21.346  -2.634  1.00  0.00     0.025 A 
HETATM   18  C4  UNL     1     -16.820  22.232  -3.667  1.00  0.00     0.089 A 
HETATM   19  N1  UNL     1     -16.923  23.467  -3.161  1.00  0.00    -0.367 N 
ATOM     20  H1  UNL     1     -17.074  24.307  -3.719  1.00  0.00     0.165 HD
ENDBRANCH  12  14
ENDBRANCH   1  12
TORSDOF 2
ENDMDL
MODEL 2
REMARK VINA RESULT: -6.569354158      1.677      2.561
REMARK  2 active torsions:
REMARK  status: ('A' for Active; 'I' for Inactive)
REMARK    1  A    between atoms: C5_7  and  C6_8 
REMARK    2  A    between atoms: C6_8  and  N2_10 
ROOT
HETATM    1  N2  UNL     1     -19.116  26.048  -0.703  1.00  0.00    -0.229 N 
HETATM    2  N3  UNL     1     -20.363  26.532  -0.771  1.00  0.00    -0.255 N 
ATOM      3  H3  UNL     1     -20.664  27.026  -1.610  1.00  0.00     0.191 HD
HETATM    4  C8  UNL     1     -21.224  26.376   0.248  1.00  0.00     0.328 A 
HETATM    5  O1  UNL     1     -22.402  26.856   0.133  1.00  0.00    -0.261 OA
HETATM    6  C9  UNL     1     -20.860  25.714   1.406  1.00  0.00     0.319 A 
HETATM    7  O2  UNL     1     -21.647  25.555   2.373  1.00  0.00    -0.262 OA
HETATM    8  N4  UNL     1     -19.599  25.232   1.458  1.00  0.00    -0.269 N 
ATOM      9  H4  UNL     1     -19.281  24.734   2.290  1.00  0.00     0.174 HD
HETATM   10  C10 UNL     1     -18.748  25.404   0.409  1.00  0.00     0.344 A 
HETATM   11  O3  UNL     1     -17.586  24.955   0.468  1.00  0.00    -0.245 OA
ENDROOT
BRANCH   1  12
HETATM   12  C6  UNL     1     -18.284  26.268  -1.852  1.00  0.00     0.159 C 
HETATM   13  C7  UNL     1     -19.178  26.907  -2.915  1.00  0.00     0.041 C 
BRANCH  12  14
HETATM   14  C5  UNL     1     -17.576  25.096  -2.364  1.00  0.00     0.040 A 
HETATM   15  C2  UNL     1     -16.333  25.101  -2.959  1.00  0.00    -0.036 A 
HETATM   16  C1  UNL     1     -15.433  26.273  -3.214  1.00  0.00     0.050 C 
HETATM   17  C3  UNL     1     -15.982  23.796  -3.326  1.00  0.00     0.025 A 
HETATM   18  C4  UNL     1     -17.045  23.015  -2.936  1.00  0.00     0.089 A 
HETATM   19  N1  UNL     1     -17.971  23.799  -2.372  1.00  0.00    -0.367 N 
ATOM     20  H1  UNL     1     -18.859  23.465  -1.997  1.00  0.00     0.165 HD
ENDBRANCH  12  14
ENDBRANCH   1  12
TORSDOF 2
ENDMDL
MODEL 3
REMARK VINA RESULT: -6.423858147      2.593      3.292
REMARK  2 active torsions:
REMARK  status: ('A' for Active; 'I' for Inactive)
REMARK    1  A    between atoms: C5_7  and  C6_8 
REMARK    2  A    between atoms: C6_8  and  N2_10 
ROOT
HETATM    1  N2  UNL     1     -17.097  25.513  -2.021  1.00  0.00    -0.229 N 
HETATM    2  N3  UNL     1     -17.307  26.750  -1.554  1.00  0.00    -0.255 N 
ATOM      3  H3  UNL     1     -16.511  27.317  -1.262  1.00  0.00     0.191 HD
HETATM    4  C8  UNL     1     -18.547  27.257  -1.464  1.00  0.00     0.328 A 
HETATM    5  O1  UNL     1     -18.694  28.442  -1.013  1.00  0.00    -0.261 OA
HETATM    6  C9  UNL     1     -19.656  26.524  -1.848  1.00  0.00     0.319 A 
HETATM    7  O2  UNL     1     -20.827  26.976  -1.774  1.00  0.00    -0.262 OA
HETATM    8  N4  UNL     1     -19.426  25.278  -2.317  1.00  0.00    -0.269 N 
ATOM      9  H4  UNL     1     -20.211  24.697  -2.613  1.00  0.00     0.174 HD
HETATM   10  C10 UNL     1     -18.158  24.791  -2.396  1.00  0.00     0.344 A 
HETATM   11  O3  UNL     1     -17.957  23.639  -2.830  1.00  0.00    -0.245 OA
ENDROOT
BRANCH   1  12
HETATM   12  C6  UNL     1     -15.731  25.076  -2.077  1.00  0.00     0.159 C 
HETATM   13  C7  UNL     1     -15.059  25.600  -0.807  1.00  0.00     0.041 C 
BRANCH  12  14
HETATM   14  C5  UNL     1     -14.989  25.444  -3.282  1.00  0.00     0.040 A 
HETATM   15  C2  UNL     1     -14.429  24.566  -4.184  1.00  0.00    -0.036 A 
HETATM   16  C1  UNL     1     -14.450  23.067  -4.152  1.00  0.00     0.050 C 
HETATM   17  C3  UNL     1     -13.795  25.283  -5.207  1.00  0.00     0.025 A 
HETATM   18  C4  UNL     1     -13.990  26.608  -4.890  1.00  0.00     0.089 A 
HETATM   19  N1  UNL     1     -14.694  26.679  -3.755  1.00  0.00    -0.367 N 
ATOM     20  H1  UNL     1     -14.973  27.551  -3.304  1.00  0.00     0.165 HD
ENDBRANCH  12  14
ENDBRANCH   1  12
TORSDOF 2
ENDMDL
MODEL 4
REMARK VINA RESULT: -6.373273194      2.174      4.061
REMARK  2 active torsions:
REMARK  status: ('A' for Active; 'I' for Inactive)
REMARK    1  A    between atoms: C5_7  and  C6_8 
REMARK    2  A    between atoms: C6_8  and  N2_10 
ROOT
HETATM    1  N2  UNL     1     -19.974  25.007  -0.485  1.00  0.00    -0.229 N 
HETATM    2  N3  UNL     1     -19.757  24.095   0.473  1.00  0.00    -0.255 N 
ATOM      3  H3  UNL     1     -19.155  23.296   0.277  1.00  0.00     0.191 HD
HETATM    4  C8  UNL     1     -20.320  24.216   1.686  1.00  0.00     0.328 A 
HETATM    5  O1  UNL     1     -20.082  23.320   2.564  1.00  0.00    -0.261 OA
HETATM    6  C9  UNL     1     -21.144  25.283   1.996  1.00  0.00     0.319 A 
HETATM    7  O2  UNL     1     -21.682  25.420   3.124  1.00  0.00    -0.262 OA
HETATM    8  N4  UNL     1     -21.351  26.193   1.020  1.00  0.00    -0.269 N 
ATOM      9  H4  UNL     1     -21.951  26.999   1.199  1.00  0.00     0.174 HD
HETATM   10  C10 UNL     1     -20.767  26.044  -0.201  1.00  0.00     0.344 A 
HETATM   11  O3  UNL     1     -20.966  26.890  -1.096  1.00  0.00    -0.245 OA
ENDROOT
BRANCH   1  12
HETATM   12  C6  UNL     1     -19.319  24.779  -1.741  1.00  0.00     0.159 C 
HETATM   13  C7  UNL     1     -18.137  23.853  -1.449  1.00  0.00     0.041 C 
BRANCH  12  14
HETATM   14  C5  UNL     1     -18.909  25.975  -2.476  1.00  0.00     0.040 A 
HETATM   15  C2  UNL     1     -17.767  26.711  -2.247  1.00  0.00    -0.036 A 
HETATM   16  C1  UNL     1     -16.699  26.469  -1.221  1.00  0.00     0.050 C 
HETATM   17  C3  UNL     1     -17.713  27.787  -3.141  1.00  0.00     0.025 A 
HETATM   18  C4  UNL     1     -18.850  27.674  -3.908  1.00  0.00     0.089 A 
HETATM   19  N1  UNL     1     -19.538  26.602  -3.500  1.00  0.00    -0.367 N 
ATOM     20  H1  UNL     1     -20.422  26.296  -3.907  1.00  0.00     0.165 HD
ENDBRANCH  12  14
ENDBRANCH   1  12
TORSDOF 2
ENDMDL
MODEL 5
REMARK VINA RESULT: -6.321139868      1.516      1.832
REMARK  2 active torsions:
REMARK  status: ('A' for Active; 'I' for Inactive)
REMARK    1  A    between atoms: C5_7  and  C6_8 
REMARK    2  A    between atoms: C6_8  and  N2_10 
ROOT
HETATM    1  N2  UNL     1     -17.542  25.620  -1.736  1.00  0.00    -0.229 N 
HETATM    2  N3  UNL     1     -18.376  26.399  -2.437  1.00  0.00    -0.255 N 
ATOM      3  H3  UNL     1     -18.100  26.719  -3.366  1.00  0.00     0.191 HD
HETATM    4  C8  UNL     1     -19.567  26.767  -1.938  1.00  0.00     0.328 A 
HETATM    5  O1  UNL     1     -20.324  27.511  -2.648  1.00  0.00    -0.261 OA
HETATM    6  C9  UNL     1     -19.981  26.359  -0.684  1.00  0.00     0.319 A 
HETATM    7  O2  UNL     1     -21.091  26.689  -0.194  1.00  0.00    -0.262 OA
HETATM    8  N4  UNL     1     -19.129  25.573   0.010  1.00  0.00    -0.269 N 
ATOM      9  H4  UNL     1     -19.388  25.244   0.941  1.00  0.00     0.174 HD
HETATM   10  C10 UNL     1     -17.927  25.217  -0.521  1.00  0.00     0.344 A 
HETATM   11  O3  UNL     1     -17.148  24.491   0.129  1.00  0.00    -0.245 OA
ENDROOT
BRANCH   1  12
HETATM   12  C6  UNL     1     -16.298  25.286  -2.368  1.00  0.00     0.159 C 
HETATM   13  C7  UNL     1     -15.997  26.419  -3.351  1.00  0.00     0.041 C 
BRANCH  12  14
HETATM   14  C5  UNL     1     -16.236  23.973  -3.009  1.00  0.00     0.040 A 
HETATM   15  C2  UNL     1     -15.095  23.351  -3.466  1.00  0.00    -0.036 A 
HETATM   16  C1  UNL     1     -13.683  23.853  -3.414  1.00  0.00     0.050 C 
HETATM   17  C3  UNL     1     -15.427  22.110  -4.025  1.00  0.00     0.025 A 
HETATM   18  C4  UNL     1     -16.792  22.010  -3.890  1.00  0.00     0.089 A 
HETATM   19  N1  UNL     1     -17.248  23.116  -3.291  1.00  0.00    -0.367 N 
ATOM     20  H1  UNL     1     -18.229  23.291  -3.073  1.00  0.00     0.165 HD
ENDBRANCH  12  14
ENDBRANCH   1  12
TORSDOF 2
ENDMDL
