MODEL 1
REMARK VINA RESULT: -7.098344690      0.000      0.000
REMARK  3 active torsions:
REMARK  status: ('A' for Active; 'I' for Inactive)
REMARK    1  A    between atoms: C3_9  and  N3_10 
REMARK    2  A    between atoms: N3_10  and  N4_12 
REMARK    3  A    between atoms: C4_14  and  C5_15 
ROOT
HETATM    1  O1  UNL     1      86.607  96.280  16.118  1.00  0.00    -0.246 OA
HETATM    2  C1  UNL     1      85.478  95.724  16.053  1.00  0.00     0.342 A 
HETATM    3  N1  UNL     1      84.868  95.347  17.205  1.00  0.00    -0.260 N 
ATOM      4  H1  UNL     1      85.306  95.505  18.113  1.00  0.00     0.175 HD
HETATM    5  C2  UNL     1      83.667  94.758  17.102  1.00  0.00     0.342 A 
HETATM    6  O2  UNL     1      83.058  94.387  18.152  1.00  0.00    -0.246 OA
HETATM    7  N2  UNL     1      83.063  94.535  15.921  1.00  0.00    -0.139 N 
ATOM      8  H2  UNL     1      82.150  94.084  15.873  1.00  0.00     0.189 HD
HETATM    9  C3  UNL     1      83.705  94.925  14.806  1.00  0.00     0.704 A 
HETATM   10  N5  UNL     1      84.903  95.516  14.876  1.00  0.00    -0.139 N 
ATOM     11  H5  UNL     1      85.377  95.807  14.021  1.00  0.00     0.189 HD
ENDROOT
BRANCH   9  12
HETATM   12  N3  UNL     1      83.187  94.745  13.643  1.00  0.00    -0.132 N 
ATOM     13  H3  UNL     1      83.224  95.512  12.972  1.00  0.00     0.205 HD
BRANCH  12  14
HETATM   14  N4  UNL     1      82.602  93.602  13.270  1.00  0.00    -0.297 N 
HETATM   15  C4  UNL     1      81.419  93.314  13.032  1.00  0.00     0.119 C 
ATOM     16  H4  UNL     1      83.249  92.821  13.160  1.00  0.00     0.186 HD
BRANCH  15  17
HETATM   17  C5  UNL     1      80.241  94.181  13.089  1.00  0.00    -0.019 A 
HETATM   18  C6  UNL     1      79.701  94.808  12.009  1.00  0.00     0.013 A 
HETATM   19  C7  UNL     1      78.575  95.612  12.184  1.00  0.00     0.001 A 
HETATM   20  C8  UNL     1      77.995  95.790  13.415  1.00  0.00     0.000 A 
HETATM   21  C9  UNL     1      78.567  95.141  14.484  1.00  0.00     0.001 A 
HETATM   22  C10 UNL     1      79.671  94.349  14.333  1.00  0.00     0.013 A 
ENDBRANCH  15  17
ENDBRANCH  12  14
ENDBRANCH   9  12
TORSDOF 3
ENDMDL
MODEL 2
REMARK VINA RESULT: -7.073417846      0.079      1.145
REMARK  3 active torsions:
REMARK  status: ('A' for Active; 'I' for Inactive)
REMARK    1  A    between atoms: C3_9  and  N3_10 
REMARK    2  A    between atoms: N3_10  and  N4_12 
REMARK    3  A    between atoms: C4_14  and  C5_15 
ROOT
HETATM    1  O1  UNL     1      86.622  96.284  16.125  1.00  0.00    -0.246 OA
HETATM    2  C1  UNL     1      85.490  95.735  16.060  1.00  0.00     0.342 A 
HETATM    3  N1  UNL     1      84.880  95.360  17.212  1.00  0.00    -0.260 N 
ATOM      4  H1  UNL     1      85.319  95.514  18.120  1.00  0.00     0.175 HD
HETATM    5  C2  UNL     1      83.675  94.778  17.110  1.00  0.00     0.342 A 
HETATM    6  O2  UNL     1      83.065  94.409  18.160  1.00  0.00    -0.246 OA
HETATM    7  N2  UNL     1      83.068  94.559  15.930  1.00  0.00    -0.139 N 
ATOM      8  H2  UNL     1      82.152  94.114  15.882  1.00  0.00     0.189 HD
HETATM    9  C3  UNL     1      83.711  94.947  14.815  1.00  0.00     0.704 A 
HETATM   10  N5  UNL     1      84.913  95.531  14.884  1.00  0.00    -0.139 N 
ATOM     11  H5  UNL     1      85.387  95.820  14.028  1.00  0.00     0.189 HD
ENDROOT
BRANCH   9  12
HETATM   12  N3  UNL     1      83.190  94.771  13.652  1.00  0.00    -0.132 N 
ATOM     13  H3  UNL     1      83.225  95.541  12.984  1.00  0.00     0.205 HD
BRANCH  12  14
HETATM   14  N4  UNL     1      82.606  93.629  13.275  1.00  0.00    -0.297 N 
HETATM   15  C4  UNL     1      81.417  93.327  13.091  1.00  0.00     0.119 C 
ATOM     16  H4  UNL     1      83.259  92.864  13.107  1.00  0.00     0.186 HD
BRANCH  15  17
HETATM   17  C5  UNL     1      80.229  94.170  13.236  1.00  0.00    -0.019 A 
HETATM   18  C6  UNL     1      79.605  94.412  14.421  1.00  0.00     0.013 A 
HETATM   19  C7  UNL     1      78.477  95.233  14.438  1.00  0.00     0.001 A 
HETATM   20  C8  UNL     1      77.980  95.805  13.295  1.00  0.00     0.000 A 
HETATM   21  C9  UNL     1      78.636  95.539  12.116  1.00  0.00     0.001 A 
HETATM   22  C10 UNL     1      79.742  94.736  12.079  1.00  0.00     0.013 A 
ENDBRANCH  15  17
ENDBRANCH  12  14
ENDBRANCH   9  12
TORSDOF 3
ENDMDL
MODEL 3
REMARK VINA RESULT: -7.056197229      0.077      1.913
REMARK  3 active torsions:
REMARK  status: ('A' for Active; 'I' for Inactive)
REMARK    1  A    between atoms: C3_9  and  N3_10 
REMARK    2  A    between atoms: N3_10  and  N4_12 
REMARK    3  A    between atoms: C4_14  and  C5_15 
ROOT
HETATM    1  O1  UNL     1      83.014  94.428  18.066  1.00  0.00    -0.246 OA
HETATM    2  C1  UNL     1      83.625  94.772  17.019  1.00  0.00     0.342 A 
HETATM    3  N1  UNL     1      84.852  95.337  17.135  1.00  0.00    -0.260 N 
ATOM      4  H1  UNL     1      85.284  95.487  18.047  1.00  0.00     0.175 HD
HETATM    5  C2  UNL     1      85.477  95.692  16.001  1.00  0.00     0.342 A 
HETATM    6  O2  UNL     1      86.626  96.226  16.058  1.00  0.00    -0.246 OA
HETATM    7  N2  UNL     1      84.936  95.509  14.783  1.00  0.00    -0.139 N 
ATOM      8  H2  UNL     1      85.433  95.789  13.938  1.00  0.00     0.189 HD
HETATM    9  C3  UNL     1      83.718  94.945  14.717  1.00  0.00     0.704 A 
HETATM   10  N5  UNL     1      83.070  94.580  15.830  1.00  0.00    -0.139 N 
ATOM     11  H5  UNL     1      82.147  94.153  15.763  1.00  0.00     0.189 HD
ENDROOT
BRANCH   9  12
HETATM   12  N3  UNL     1      83.141  94.739  13.587  1.00  0.00    -0.132 N 
ATOM     13  H3  UNL     1      83.140  95.491  12.899  1.00  0.00     0.205 HD
BRANCH  12  14
HETATM   14  N4  UNL     1      82.541  93.586  13.269  1.00  0.00    -0.297 N 
HETATM   15  C4  UNL     1      81.353  93.299  13.059  1.00  0.00     0.119 C 
ATOM     16  H4  UNL     1      83.180  92.796  13.183  1.00  0.00     0.186 HD
BRANCH  15  17
HETATM   17  C5  UNL     1      80.183  94.178  13.095  1.00  0.00    -0.019 A 
HETATM   18  C6  UNL     1      79.656  94.794  12.002  1.00  0.00     0.013 A 
HETATM   19  C7  UNL     1      78.537  95.612  12.157  1.00  0.00     0.001 A 
HETATM   20  C8  UNL     1      77.951  95.813  13.381  1.00  0.00     0.000 A 
HETATM   21  C9  UNL     1      78.509  95.175  14.464  1.00  0.00     0.001 A 
HETATM   22  C10 UNL     1      79.607  94.370  14.332  1.00  0.00     0.013 A 
ENDBRANCH  15  17
ENDBRANCH  12  14
ENDBRANCH   9  12
TORSDOF 3
ENDMDL
MODEL 4
REMARK VINA RESULT: -7.039365465      0.117      2.229
REMARK  3 active torsions:
REMARK  status: ('A' for Active; 'I' for Inactive)
REMARK    1  A    between atoms: C3_9  and  N3_10 
REMARK    2  A    between atoms: N3_10  and  N4_12 
REMARK    3  A    between atoms: C4_14  and  C5_15 
ROOT
HETATM    1  O1  UNL     1      83.000  94.430  18.043  1.00  0.00    -0.246 OA
HETATM    2  C1  UNL     1      83.616  94.777  17.001  1.00  0.00     0.342 A 
HETATM    3  N1  UNL     1      84.842  95.343  17.125  1.00  0.00    -0.260 N 
ATOM      4  H1  UNL     1      85.268  95.491  18.040  1.00  0.00     0.175 HD
HETATM    5  C2  UNL     1      85.472  95.702  15.996  1.00  0.00     0.342 A 
HETATM    6  O2  UNL     1      86.621  96.237  16.061  1.00  0.00    -0.246 OA
HETATM    7  N2  UNL     1      84.939  95.523  14.774  1.00  0.00    -0.139 N 
ATOM      8  H2  UNL     1      85.441  95.805  13.933  1.00  0.00     0.189 HD
HETATM    9  C3  UNL     1      83.722  94.958  14.700  1.00  0.00     0.704 A 
HETATM   10  N5  UNL     1      83.068  94.589  15.808  1.00  0.00    -0.139 N 
ATOM     11  H5  UNL     1      82.145  94.161  15.734  1.00  0.00     0.189 HD
ENDROOT
BRANCH   9  12
HETATM   12  N3  UNL     1      83.151  94.754  13.565  1.00  0.00    -0.132 N 
ATOM     13  H3  UNL     1      83.158  95.507  12.877  1.00  0.00     0.205 HD
BRANCH  12  14
HETATM   14  N4  UNL     1      82.548  93.605  13.243  1.00  0.00    -0.297 N 
HETATM   15  C4  UNL     1      81.353  93.307  13.095  1.00  0.00     0.119 C 
ATOM     16  H4  UNL     1      83.191  92.827  13.091  1.00  0.00     0.186 HD
BRANCH  15  17
HETATM   17  C5  UNL     1      80.176  94.166  13.234  1.00  0.00    -0.019 A 
HETATM   18  C6  UNL     1      79.549  94.418  14.414  1.00  0.00     0.013 A 
HETATM   19  C7  UNL     1      78.433  95.254  14.425  1.00  0.00     0.001 A 
HETATM   20  C8  UNL     1      77.949  95.832  13.279  1.00  0.00     0.000 A 
HETATM   21  C9  UNL     1      78.608  95.556  12.103  1.00  0.00     0.001 A 
HETATM   22  C10 UNL     1      79.703  94.738  12.073  1.00  0.00     0.013 A 
ENDBRANCH  15  17
ENDBRANCH  12  14
ENDBRANCH   9  12
TORSDOF 3
ENDMDL
MODEL 5
REMARK VINA RESULT: -6.987184481      1.750      2.690
REMARK  3 active torsions:
REMARK  status: ('A' for Active; 'I' for Inactive)
REMARK    1  A    between atoms: C3_9  and  N3_10 
REMARK    2  A    between atoms: N3_10  and  N4_12 
REMARK    3  A    between atoms: C4_14  and  C5_15 
ROOT
HETATM    1  O1  UNL     1      86.119  93.295  11.971  1.00  0.00    -0.246 OA
HETATM    2  C1  UNL     1      85.496  93.873  12.901  1.00  0.00     0.342 A 
HETATM    3  N1  UNL     1      86.205  94.496  13.874  1.00  0.00    -0.260 N 
ATOM      4  H1  UNL     1      87.225  94.504  13.865  1.00  0.00     0.175 HD
HETATM    5  C2  UNL     1      85.512  95.102  14.850  1.00  0.00     0.342 A 
HETATM    6  O2  UNL     1      86.132  95.698  15.783  1.00  0.00    -0.246 OA
HETATM    7  N2  UNL     1      84.167  95.110  14.893  1.00  0.00    -0.139 N 
ATOM      8  H2  UNL     1      83.666  95.578  15.647  1.00  0.00     0.189 HD
HETATM    9  C3  UNL     1      83.506  94.479  13.907  1.00  0.00     0.704 A 
HETATM   10  N5  UNL     1      84.169  93.866  12.919  1.00  0.00    -0.139 N 
ATOM     11  H5  UNL     1      83.653  93.393  12.178  1.00  0.00     0.189 HD
ENDROOT
BRANCH   9  12
HETATM   12  N3  UNL     1      82.221  94.448  13.882  1.00  0.00    -0.132 N 
ATOM     13  H3  UNL     1      81.710  94.927  14.623  1.00  0.00     0.205 HD
BRANCH  12  14
HETATM   14  N4  UNL     1      81.521  93.817  12.933  1.00  0.00    -0.297 N 
HETATM   15  C4  UNL     1      80.324  93.869  12.611  1.00  0.00     0.119 C 
ATOM     16  H4  UNL     1      82.074  93.172  12.369  1.00  0.00     0.186 HD
BRANCH  15  17
HETATM   17  C5  UNL     1      79.257  94.680  13.200  1.00  0.00    -0.019 A 
HETATM   18  C6  UNL     1      78.854  94.587  14.497  1.00  0.00     0.013 A 
HETATM   19  C7  UNL     1      77.824  95.412  14.948  1.00  0.00     0.001 A 
HETATM   20  C8  UNL     1      77.204  96.315  14.122  1.00  0.00     0.000 A 
HETATM   21  C9  UNL     1      77.637  96.383  12.819  1.00  0.00     0.001 A 
HETATM   22  C10 UNL     1      78.645  95.582  12.358  1.00  0.00     0.013 A 
ENDBRANCH  15  17
ENDBRANCH  12  14
ENDBRANCH   9  12
TORSDOF 3
ENDMDL
