MODEL 1
REMARK VINA RESULT: -7.356851830      0.000      0.000
REMARK  3 active torsions:
REMARK  status: ('A' for Active; 'I' for Inactive)
REMARK    1  A    between atoms: N1_1  and  C1_5 
REMARK    2  A    between atoms: C1_5  and  C2_6 
REMARK    3  A    between atoms: C1_5  and  C7_18 
ROOT
HETATM    1  C2  UNL     1      83.444  94.531  16.025  1.00  0.00     0.033 C 
HETATM    2  C3  UNL     1      83.966  95.262  16.978  1.00  0.00     0.099 A 
HETATM    3  C4  UNL     1      83.177  95.547  18.203  1.00  0.00     0.264 A 
HETATM    4  O1  UNL     1      82.004  95.083  18.323  1.00  0.00    -0.267 OA
HETATM    5  N2  UNL     1      83.691  96.331  19.269  1.00  0.00    -0.275 N 
ATOM      6  H2  UNL     1      83.119  96.504  20.096  1.00  0.00     0.173 HD
HETATM    7  C5  UNL     1      84.986  96.867  19.185  1.00  0.00     0.329 A 
HETATM    8  O2  UNL     1      85.432  97.562  20.139  1.00  0.00    -0.246 OA
HETATM    9  N3  UNL     1      85.785  96.634  18.049  1.00  0.00    -0.275 N 
ATOM     10  H3  UNL     1      86.725  97.026  17.993  1.00  0.00     0.173 HD
HETATM   11  C6  UNL     1      85.278  95.855  16.989  1.00  0.00     0.264 A 
HETATM   12  O3  UNL     1      86.025  95.678  16.005  1.00  0.00    -0.267 OA
ENDROOT
BRANCH   1  13
HETATM   13  C1  UNL     1      83.955  94.100  14.757  1.00  0.00     0.240 C 
BRANCH  13  14
HETATM   14  N1  UNL     1      83.785  95.191  13.774  1.00  0.00    -0.068 N 
ATOM     15  H13 UNL     1      82.809  95.472  13.669  1.00  0.00     0.275 HD
ATOM     16  H12 UNL     1      84.153  96.080  14.112  1.00  0.00     0.275 HD
ATOM     17  H11 UNL     1      84.204  94.908  12.888  1.00  0.00     0.275 HD
ENDBRANCH  13  14
BRANCH  13  18
HETATM   18  C7  UNL     1      83.049  93.010  14.236  1.00  0.00    -0.024 A 
HETATM   19  C8  UNL     1      82.109  93.266  13.260  1.00  0.00     0.009 A 
HETATM   20  C9  UNL     1      81.305  92.243  12.815  1.00  0.00     0.001 A 
HETATM   21  C10 UNL     1      81.423  90.976  13.327  1.00  0.00     0.000 A 
HETATM   22  C11 UNL     1      82.359  90.706  14.304  1.00  0.00     0.001 A 
HETATM   23  C12 UNL     1      83.164  91.723  14.751  1.00  0.00     0.009 A 
ENDBRANCH  13  18
ENDBRANCH   1  13
TORSDOF 3
ENDMDL
MODEL 2
REMARK VINA RESULT: -7.351729091      2.452      6.002
REMARK  3 active torsions:
REMARK  status: ('A' for Active; 'I' for Inactive)
REMARK    1  A    between atoms: N1_1  and  C1_5 
REMARK    2  A    between atoms: C1_5  and  C2_6 
REMARK    3  A    between atoms: C1_5  and  C7_18 
ROOT
HETATM    1  C2  UNL     1      83.314  95.341  16.682  1.00  0.00     0.033 C 
HETATM    2  C3  UNL     1      83.884  95.001  15.553  1.00  0.00     0.099 A 
HETATM    3  C4  UNL     1      83.077  94.360  14.484  1.00  0.00     0.264 A 
HETATM    4  O1  UNL     1      81.841  94.144  14.666  1.00  0.00    -0.267 OA
HETATM    5  N2  UNL     1      83.640  93.972  13.240  1.00  0.00    -0.275 N 
ATOM      6  H2  UNL     1      83.053  93.535  12.529  1.00  0.00     0.173 HD
HETATM    7  C5  UNL     1      85.004  94.191  12.988  1.00  0.00     0.329 A 
HETATM    8  O2  UNL     1      85.493  93.841  11.878  1.00  0.00    -0.246 OA
HETATM    9  N3  UNL     1      85.824  94.793  13.962  1.00  0.00    -0.275 N 
ATOM     10  H3  UNL     1      86.814  94.949  13.774  1.00  0.00     0.173 HD
HETATM   11  C6  UNL     1      85.268  95.180  15.198  1.00  0.00     0.264 A 
HETATM   12  O3  UNL     1      86.036  95.710  16.027  1.00  0.00    -0.267 OA
ENDROOT
BRANCH   1  13
HETATM   13  C1  UNL     1      83.827  95.960  17.868  1.00  0.00     0.240 C 
BRANCH  13  14
HETATM   14  N1  UNL     1      83.800  94.978  18.973  1.00  0.00    -0.068 N 
ATOM     15  H13 UNL     1      83.153  95.245  19.715  1.00  0.00     0.275 HD
ATOM     16  H12 UNL     1      83.355  94.101  18.704  1.00  0.00     0.275 HD
ATOM     17  H11 UNL     1      84.751  94.841  19.318  1.00  0.00     0.275 HD
ENDBRANCH  13  14
BRANCH  13  18
HETATM   18  C7  UNL     1      82.840  97.014  18.307  1.00  0.00    -0.024 A 
HETATM   19  C8  UNL     1      81.710  97.290  17.565  1.00  0.00     0.009 A 
HETATM   20  C9  UNL     1      80.836  98.258  18.003  1.00  0.00     0.001 A 
HETATM   21  C10 UNL     1      81.072  98.952  19.163  1.00  0.00     0.000 A 
HETATM   22  C11 UNL     1      82.197  98.686  19.914  1.00  0.00     0.001 A 
HETATM   23  C12 UNL     1      83.072  97.721  19.482  1.00  0.00     0.009 A 
ENDBRANCH  13  18
ENDBRANCH   1  13
TORSDOF 3
ENDMDL
MODEL 3
REMARK VINA RESULT: -7.346148407      0.028      1.126
REMARK  3 active torsions:
REMARK  status: ('A' for Active; 'I' for Inactive)
REMARK    1  A    between atoms: N1_1  and  C1_5 
REMARK    2  A    between atoms: C1_5  and  C2_6 
REMARK    3  A    between atoms: C1_5  and  C7_18 
ROOT
HETATM    1  C2  UNL     1      83.450  94.535  16.045  1.00  0.00     0.033 C 
HETATM    2  C3  UNL     1      83.973  95.268  16.996  1.00  0.00     0.099 A 
HETATM    3  C4  UNL     1      83.185  95.556  18.221  1.00  0.00     0.264 A 
HETATM    4  O1  UNL     1      82.011  95.093  18.343  1.00  0.00    -0.267 OA
HETATM    5  N2  UNL     1      83.699  96.343  19.284  1.00  0.00    -0.275 N 
ATOM      6  H2  UNL     1      83.128  96.519  20.111  1.00  0.00     0.173 HD
HETATM    7  C5  UNL     1      84.994  96.878  19.198  1.00  0.00     0.329 A 
HETATM    8  O2  UNL     1      85.441  97.577  20.151  1.00  0.00    -0.246 OA
HETATM    9  N3  UNL     1      85.793  96.642  18.062  1.00  0.00    -0.275 N 
ATOM     10  H3  UNL     1      86.732  97.034  18.005  1.00  0.00     0.173 HD
HETATM   11  C6  UNL     1      85.284  95.861  17.005  1.00  0.00     0.264 A 
HETATM   12  O3  UNL     1      86.031  95.681  16.021  1.00  0.00    -0.267 OA
ENDROOT
BRANCH   1  13
HETATM   13  C1  UNL     1      83.960  94.100  14.778  1.00  0.00     0.240 C 
BRANCH  13  14
HETATM   14  N1  UNL     1      83.765  95.179  13.786  1.00  0.00    -0.068 N 
ATOM     15  H13 UNL     1      82.870  95.654  13.899  1.00  0.00     0.275 HD
ATOM     16  H12 UNL     1      84.374  95.979  13.957  1.00  0.00     0.275 HD
ATOM     17  H11 UNL     1      83.884  94.793  12.849  1.00  0.00     0.275 HD
ENDBRANCH  13  14
BRANCH  13  18
HETATM   18  C7  UNL     1      83.070  92.990  14.274  1.00  0.00    -0.024 A 
HETATM   19  C8  UNL     1      83.176  91.707  14.769  1.00  0.00     0.009 A 
HETATM   20  C9  UNL     1      82.343  90.726  14.281  1.00  0.00     0.001 A 
HETATM   21  C10 UNL     1      81.413  91.005  13.312  1.00  0.00     0.000 A 
HETATM   22  C11 UNL     1      81.296  92.284  12.809  1.00  0.00     0.001 A 
HETATM   23  C12 UNL     1      82.123  93.266  13.293  1.00  0.00     0.009 A 
ENDBRANCH  13  18
ENDBRANCH   1  13
TORSDOF 3
ENDMDL
MODEL 4
REMARK VINA RESULT: -7.237249804      2.728      4.299
REMARK  3 active torsions:
REMARK  status: ('A' for Active; 'I' for Inactive)
REMARK    1  A    between atoms: N1_1  and  C1_5 
REMARK    2  A    between atoms: C1_5  and  C2_6 
REMARK    3  A    between atoms: C1_5  and  C7_18 
ROOT
HETATM    1  C2  UNL     1      82.558  93.287  13.703  1.00  0.00     0.033 C 
HETATM    2  C3  UNL     1      83.489  93.989  14.300  1.00  0.00     0.099 A 
HETATM    3  C4  UNL     1      84.753  94.296  13.584  1.00  0.00     0.264 A 
HETATM    4  O1  UNL     1      84.928  93.879  12.399  1.00  0.00    -0.267 OA
HETATM    5  N2  UNL     1      85.796  95.053  14.179  1.00  0.00    -0.275 N 
ATOM      6  H2  UNL     1      86.650  95.245  13.656  1.00  0.00     0.173 HD
HETATM    7  C5  UNL     1      85.651  95.539  15.489  1.00  0.00     0.329 A 
HETATM    8  O2  UNL     1      86.585  96.210  16.008  1.00  0.00    -0.246 OA
HETATM    9  N3  UNL     1      84.476  95.280  16.222  1.00  0.00    -0.275 N 
ATOM     10  H3  UNL     1      84.376  95.635  17.173  1.00  0.00     0.173 HD
HETATM   11  C6  UNL     1      83.439  94.530  15.633  1.00  0.00     0.264 A 
HETATM   12  O3  UNL     1      82.419  94.329  16.324  1.00  0.00    -0.267 OA
ENDROOT
BRANCH   1  13
HETATM   13  C1  UNL     1      81.265  92.845  14.133  1.00  0.00     0.240 C 
BRANCH  13  14
HETATM   14  N1  UNL     1      80.914  91.606  13.404  1.00  0.00    -0.068 N 
ATOM     15  H13 UNL     1      80.453  90.921  14.002  1.00  0.00     0.275 HD
ATOM     16  H12 UNL     1      80.155  91.749  12.738  1.00  0.00     0.275 HD
ATOM     17  H11 UNL     1      81.754  91.233  12.961  1.00  0.00     0.275 HD
ENDBRANCH  13  14
BRANCH  13  18
HETATM   18  C7  UNL     1      80.245  93.844  13.645  1.00  0.00    -0.024 A 
HETATM   19  C8  UNL     1      80.178  94.208  12.316  1.00  0.00     0.009 A 
HETATM   20  C9  UNL     1      79.232  95.123  11.915  1.00  0.00     0.001 A 
HETATM   21  C10 UNL     1      78.357  95.677  12.814  1.00  0.00     0.000 A 
HETATM   22  C11 UNL     1      78.412  95.321  14.146  1.00  0.00     0.001 A 
HETATM   23  C12 UNL     1      79.354  94.409  14.552  1.00  0.00     0.009 A 
ENDBRANCH  13  18
ENDBRANCH   1  13
TORSDOF 3
ENDMDL
MODEL 5
REMARK VINA RESULT: -7.229634030      2.721      4.346
REMARK  3 active torsions:
REMARK  status: ('A' for Active; 'I' for Inactive)
REMARK    1  A    between atoms: N1_1  and  C1_5 
REMARK    2  A    between atoms: C1_5  and  C2_6 
REMARK    3  A    between atoms: C1_5  and  C7_18 
ROOT
HETATM    1  C2  UNL     1      82.553  93.231  13.739  1.00  0.00     0.033 C 
HETATM    2  C3  UNL     1      83.488  93.942  14.317  1.00  0.00     0.099 A 
HETATM    3  C4  UNL     1      84.741  94.249  13.582  1.00  0.00     0.264 A 
HETATM    4  O1  UNL     1      84.902  93.822  12.399  1.00  0.00    -0.267 OA
HETATM    5  N2  UNL     1      85.788  95.016  14.158  1.00  0.00    -0.275 N 
ATOM      6  H2  UNL     1      86.634  95.207  13.621  1.00  0.00     0.173 HD
HETATM    7  C5  UNL     1      85.658  95.512  15.465  1.00  0.00     0.329 A 
HETATM    8  O2  UNL     1      86.595  96.192  15.966  1.00  0.00    -0.246 OA
HETATM    9  N3  UNL     1      84.494  95.255  16.215  1.00  0.00    -0.275 N 
ATOM     10  H3  UNL     1      84.405  95.617  17.164  1.00  0.00     0.173 HD
HETATM   11  C6  UNL     1      83.453  94.494  15.646  1.00  0.00     0.264 A 
HETATM   12  O3  UNL     1      82.442  94.295  16.352  1.00  0.00    -0.267 OA
ENDROOT
BRANCH   1  13
HETATM   13  C1  UNL     1      81.267  92.787  14.190  1.00  0.00     0.240 C 
BRANCH  13  14
HETATM   14  N1  UNL     1      80.905  91.549  13.465  1.00  0.00    -0.068 N 
ATOM     15  H13 UNL     1      80.206  91.713  12.741  1.00  0.00     0.275 HD
ATOM     16  H12 UNL     1      81.659  91.217  12.863  1.00  0.00     0.275 HD
ATOM     17  H11 UNL     1      80.607  90.845  14.140  1.00  0.00     0.275 HD
ENDBRANCH  13  14
BRANCH  13  18
HETATM   18  C7  UNL     1      80.238  93.786  13.720  1.00  0.00    -0.024 A 
HETATM   19  C8  UNL     1      79.323  94.337  14.593  1.00  0.00     0.009 A 
HETATM   20  C9  UNL     1      78.403  95.244  14.122  1.00  0.00     0.001 A 
HETATM   21  C10 UNL     1      78.382  95.607  12.799  1.00  0.00     0.000 A 
HETATM   22  C11 UNL     1      79.291  95.065  11.915  1.00  0.00     0.001 A 
HETATM   23  C12 UNL     1      80.211  94.159  12.380  1.00  0.00     0.009 A 
ENDBRANCH  13  18
ENDBRANCH   1  13
TORSDOF 3
ENDMDL
