MODEL 1
REMARK VINA RESULT: -9.804662340      0.000      0.000
REMARK  8 active torsions:
REMARK  status: ('A' for Active; 'I' for Inactive)
REMARK    1  A    between atoms: N1_1  and  C1_4 
REMARK    2  A    between atoms: C3_12  and  N5_13 
REMARK    3  A    between atoms: C4_20  and  N9_21 
REMARK    4  A    between atoms: C5_27  and  S1_28 
REMARK    5  A    between atoms: S1_28  and  C6_29 
REMARK    6  A    between atoms: C6_29  and  C7_30 
REMARK    7  A    between atoms: C7_30  and  C8_31 
REMARK    8  A    between atoms: C8_31  and  N12_32 
ROOT
HETATM    1  C1  UNL     1      14.230 -11.033   4.477  1.00  0.00     0.131 A 
HETATM    2  N2  UNL     1      13.785 -12.242   4.076  1.00  0.00    -0.283 N 
ATOM      3  H2  UNL     1      12.925 -12.681   4.403  1.00  0.00     0.188 HD
HETATM    4  N3  UNL     1      14.619 -12.777   3.203  1.00  0.00    -0.283 N 
ATOM      5  H3  UNL     1      14.496 -13.686   2.758  1.00  0.00     0.188 HD
HETATM    6  C2  UNL     1      15.656 -11.942   2.989  1.00  0.00     0.153 A 
HETATM    7  N4  UNL     1      16.764 -11.987   2.215  1.00  0.00    -0.170 N 
ATOM      8  H4  UNL     1      16.920 -12.810   1.632  1.00  0.00     0.186 HD
HETATM    9  C3  UNL     1      17.670 -10.989   2.182  1.00  0.00     0.744 A 
HETATM   10  N10 UNL     1      17.447  -9.911   2.959  1.00  0.00    -0.064 N 
HETATM   11  N11 UNL     1      18.147  -8.794   3.134  1.00  0.00    -0.257 N 
ATOM     12  H11 UNL     1      19.026  -8.581   2.663  1.00  0.00     0.190 HD
HETATM   13  C5  UNL     1      17.538  -7.983   4.016  1.00  0.00     0.161 A 
HETATM   14  N17 UNL     1      16.413  -8.651   4.386  1.00  0.00    -0.319 N 
ATOM     15  H17 UNL     1      15.719  -8.311   5.051  1.00  0.00     0.169 HD
HETATM   16  C11 UNL     1      16.355  -9.830   3.741  1.00  0.00     0.165 A 
HETATM   17  C12 UNL     1      15.418 -10.841   3.787  1.00  0.00     0.101 A 
ENDROOT
BRANCH   9  18
HETATM   18  N5  UNL     1      18.833 -11.072   1.351  1.00  0.00     0.109 N 
HETATM   19  N6  UNL     1      18.852 -10.869   0.054  1.00  0.00    -0.191 N 
HETATM   20  N7  UNL     1      20.075 -11.028  -0.372  1.00  0.00    -0.212 N 
ATOM     21  H6  UNL     1      18.047 -10.626  -0.522  1.00  0.00     0.211 HD
HETATM   22  N8  UNL     1      20.845 -11.335   0.648  1.00  0.00    -0.114 N 
ATOM     23  H7  UNL     1      20.383 -10.931  -1.340  1.00  0.00     0.210 HD
HETATM   24  C4  UNL     1      20.067 -11.365   1.742  1.00  0.00     0.729 A 
ATOM     25  H8  UNL     1      21.848 -11.516   0.615  1.00  0.00     0.207 HD
BRANCH  24  26
HETATM   26  N9  UNL     1      20.454 -11.632   2.965  1.00  0.00    -0.231 N 
ATOM     27  H92 UNL     1      19.949 -11.408   3.822  1.00  0.00     0.174 HD
ATOM     28  H91 UNL     1      21.316 -12.103   3.239  1.00  0.00     0.174 HD
ENDBRANCH  24  26
ENDBRANCH   9  18
BRANCH  13  29
HETATM   29  S1  UNL     1      18.057  -6.367   4.602  1.00  0.00    -0.092 SA
BRANCH  29  30
HETATM   30  C6  UNL     1      19.497  -5.876   3.598  1.00  0.00     0.083 C 
BRANCH  30  31
HETATM   31  C7  UNL     1      19.172  -4.756   2.665  1.00  0.00     0.026 C 
BRANCH  31  32
HETATM   32  C8  UNL     1      19.246  -3.406   3.345  1.00  0.00     0.114 C 
BRANCH  32  33
HETATM   33  N12 UNL     1      20.311  -2.618   2.739  1.00  0.00    -0.198 NA
HETATM   34  N13 UNL     1      20.298  -2.741   1.367  1.00  0.00    -0.146 NA
HETATM   35  C9  UNL     1      19.920  -1.468   0.812  1.00  0.00     0.243 C 
HETATM   36  N14 UNL     1      19.708  -0.551   1.889  1.00  0.00    -0.166 NA
HETATM   37  N15 UNL     1      20.810   0.327   2.023  1.00  0.00    -0.050 NA
HETATM   38  C10 UNL     1      20.173  -1.236   3.077  1.00  0.00     0.280 C 
HETATM   39  N16 UNL     1      21.352  -0.430   3.057  1.00  0.00    -0.092 NA
ENDBRANCH  32  33
ENDBRANCH  31  32
ENDBRANCH  30  31
ENDBRANCH  29  30
ENDBRANCH  13  29
BRANCH   1  40
HETATM   40  N1  UNL     1      13.699 -10.204   5.316  1.00  0.00    -0.384 N 
ATOM     41  H12 UNL     1      12.821 -10.341   5.816  1.00  0.00     0.157 HD
ATOM     42  H11 UNL     1      14.039  -9.293   5.626  1.00  0.00     0.157 HD
ENDBRANCH   1  40
TORSDOF 8
ENDMDL
MODEL 2
REMARK VINA RESULT: -9.783675452      0.756      1.168
REMARK  8 active torsions:
REMARK  status: ('A' for Active; 'I' for Inactive)
REMARK    1  A    between atoms: N1_1  and  C1_4 
REMARK    2  A    between atoms: C3_12  and  N5_13 
REMARK    3  A    between atoms: C4_20  and  N9_21 
REMARK    4  A    between atoms: C5_27  and  S1_28 
REMARK    5  A    between atoms: S1_28  and  C6_29 
REMARK    6  A    between atoms: C6_29  and  C7_30 
REMARK    7  A    between atoms: C7_30  and  C8_31 
REMARK    8  A    between atoms: C8_31  and  N12_32 
ROOT
HETATM    1  C1  UNL     1      14.174 -11.103   4.499  1.00  0.00     0.131 A 
HETATM    2  N2  UNL     1      13.741 -12.322   4.114  1.00  0.00    -0.283 N 
ATOM      3  H2  UNL     1      12.890 -12.770   4.453  1.00  0.00     0.188 HD
HETATM    4  N3  UNL     1      14.573 -12.854   3.238  1.00  0.00    -0.283 N 
ATOM      5  H3  UNL     1      14.459 -13.769   2.802  1.00  0.00     0.188 HD
HETATM    6  C2  UNL     1      15.598 -12.008   3.005  1.00  0.00     0.153 A 
HETATM    7  N4  UNL     1      16.698 -12.046   2.221  1.00  0.00    -0.170 N 
ATOM      8  H4  UNL     1      16.859 -12.872   1.645  1.00  0.00     0.186 HD
HETATM    9  C3  UNL     1      17.590 -11.036   2.170  1.00  0.00     0.744 A 
HETATM   10  N10 UNL     1      17.361  -9.954   2.938  1.00  0.00    -0.064 N 
HETATM   11  N11 UNL     1      18.047  -8.826   3.096  1.00  0.00    -0.257 N 
ATOM     12  H11 UNL     1      18.919  -8.606   2.615  1.00  0.00     0.190 HD
HETATM   13  C5  UNL     1      17.436  -8.015   3.977  1.00  0.00     0.161 A 
HETATM   14  N17 UNL     1      16.324  -8.694   4.364  1.00  0.00    -0.319 N 
ATOM     15  H17 UNL     1      15.632  -8.357   5.033  1.00  0.00     0.169 HD
HETATM   16  C11 UNL     1      16.275  -9.880   3.731  1.00  0.00     0.165 A 
HETATM   17  C12 UNL     1      15.352 -10.903   3.796  1.00  0.00     0.101 A 
ENDROOT
BRANCH   9  18
HETATM   18  N5  UNL     1      18.746 -11.111   1.328  1.00  0.00     0.109 N 
HETATM   19  N6  UNL     1      18.755 -10.894   0.034  1.00  0.00    -0.191 N 
HETATM   20  N7  UNL     1      19.973 -11.051  -0.405  1.00  0.00    -0.212 N 
ATOM     21  H6  UNL     1      17.945 -10.644  -0.534  1.00  0.00     0.211 HD
HETATM   22  N8  UNL     1      20.751 -11.369   0.605  1.00  0.00    -0.114 N 
ATOM     23  H7  UNL     1      20.274 -10.943  -1.374  1.00  0.00     0.210 HD
HETATM   24  C4  UNL     1      19.983 -11.410   1.705  1.00  0.00     0.729 A 
ATOM     25  H8  UNL     1      21.754 -11.551   0.562  1.00  0.00     0.207 HD
BRANCH  24  26
HETATM   26  N9  UNL     1      20.380 -11.691   2.922  1.00  0.00    -0.231 N 
ATOM     27  H92 UNL     1      21.116 -12.348   3.181  1.00  0.00     0.174 HD
ATOM     28  H91 UNL     1      20.015 -11.293   3.787  1.00  0.00     0.174 HD
ENDBRANCH  24  26
ENDBRANCH   9  18
BRANCH  13  29
HETATM   29  S1  UNL     1      17.940  -6.387   4.543  1.00  0.00    -0.092 SA
BRANCH  29  30
HETATM   30  C6  UNL     1      19.514  -5.999   3.710  1.00  0.00     0.083 C 
BRANCH  30  31
HETATM   31  C7  UNL     1      19.453  -4.699   2.976  1.00  0.00     0.026 C 
BRANCH  31  32
HETATM   32  C8  UNL     1      19.424  -3.514   3.917  1.00  0.00     0.114 C 
BRANCH  32  33
HETATM   33  N12 UNL     1      19.052  -2.317   3.175  1.00  0.00    -0.198 NA
HETATM   34  N13 UNL     1      19.791  -1.230   3.586  1.00  0.00    -0.146 NA
HETATM   35  C9  UNL     1      20.658  -0.849   2.502  1.00  0.00     0.243 C 
HETATM   36  N14 UNL     1      20.423  -1.735   1.403  1.00  0.00    -0.166 NA
HETATM   37  N15 UNL     1      19.632  -1.105   0.413  1.00  0.00    -0.050 NA
HETATM   38  C10 UNL     1      19.255  -2.508   1.773  1.00  0.00     0.280 C 
HETATM   39  N16 UNL     1      18.472  -1.717   0.877  1.00  0.00    -0.092 NA
ENDBRANCH  32  33
ENDBRANCH  31  32
ENDBRANCH  30  31
ENDBRANCH  29  30
ENDBRANCH  13  29
BRANCH   1  40
HETATM   40  N1  UNL     1      13.640 -10.273   5.336  1.00  0.00    -0.384 N 
ATOM     41  H12 UNL     1      12.954  -9.554   5.108  1.00  0.00     0.157 HD
ATOM     42  H11 UNL     1      13.795 -10.181   6.340  1.00  0.00     0.157 HD
ENDBRANCH   1  40
TORSDOF 8
ENDMDL
MODEL 3
REMARK VINA RESULT: -9.782571848      1.546      2.485
REMARK  8 active torsions:
REMARK  status: ('A' for Active; 'I' for Inactive)
REMARK    1  A    between atoms: N1_1  and  C1_4 
REMARK    2  A    between atoms: C3_12  and  N5_13 
REMARK    3  A    between atoms: C4_20  and  N9_21 
REMARK    4  A    between atoms: C5_27  and  S1_28 
REMARK    5  A    between atoms: S1_28  and  C6_29 
REMARK    6  A    between atoms: C6_29  and  C7_30 
REMARK    7  A    between atoms: C7_30  and  C8_31 
REMARK    8  A    between atoms: C8_31  and  N12_32 
ROOT
HETATM    1  C1  UNL     1      14.003  -8.527   6.588  1.00  0.00     0.131 A 
HETATM    2  N2  UNL     1      13.154  -9.574   6.513  1.00  0.00    -0.283 N 
ATOM      3  H2  UNL     1      12.317  -9.684   7.084  1.00  0.00     0.188 HD
HETATM    4  N3  UNL     1      13.560 -10.435   5.599  1.00  0.00    -0.283 N 
ATOM      5  H3  UNL     1      13.083 -11.304   5.360  1.00  0.00     0.188 HD
HETATM    6  C2  UNL     1      14.700  -9.995   5.027  1.00  0.00     0.153 A 
HETATM    7  N4  UNL     1      15.520 -10.468   4.063  1.00  0.00    -0.170 N 
ATOM      8  H4  UNL     1      15.291 -11.358   3.619  1.00  0.00     0.186 HD
HETATM    9  C3  UNL     1      16.629  -9.813   3.664  1.00  0.00     0.744 A 
HETATM   10  N10 UNL     1      16.916  -8.640   4.262  1.00  0.00    -0.064 N 
HETATM   11  N11 UNL     1      17.919  -7.785   4.084  1.00  0.00    -0.257 N 
ATOM     12  H11 UNL     1      18.675  -7.910   3.411  1.00  0.00     0.190 HD
HETATM   13  C5  UNL     1      17.800  -6.732   4.911  1.00  0.00     0.161 A 
HETATM   14  N17 UNL     1      16.664  -6.971   5.620  1.00  0.00    -0.319 N 
ATOM     15  H17 UNL     1      16.282  -6.360   6.342  1.00  0.00     0.169 HD
HETATM   16  C11 UNL     1      16.122  -8.137   5.225  1.00  0.00     0.165 A 
HETATM   17  C12 UNL     1      14.984  -8.793   5.645  1.00  0.00     0.101 A 
ENDROOT
BRANCH   9  18
HETATM   18  N5  UNL     1      17.476 -10.345   2.640  1.00  0.00     0.109 N 
HETATM   19  N6  UNL     1      18.559  -9.767   2.176  1.00  0.00    -0.191 N 
HETATM   20  N7  UNL     1      19.075 -10.532   1.254  1.00  0.00    -0.212 N 
ATOM     21  H6  UNL     1      18.933  -8.869   2.484  1.00  0.00     0.211 HD
HETATM   22  N8  UNL     1      18.327 -11.604   1.122  1.00  0.00    -0.114 N 
ATOM     23  H7  UNL     1      19.923 -10.330   0.722  1.00  0.00     0.210 HD
HETATM   24  C4  UNL     1      17.313 -11.493   1.995  1.00  0.00     0.729 A 
ATOM     25  H8  UNL     1      18.487 -12.377   0.477  1.00  0.00     0.207 HD
BRANCH  24  26
HETATM   26  N9  UNL     1      16.345 -12.359   2.176  1.00  0.00    -0.231 N 
ATOM     27  H92 UNL     1      15.434 -12.168   2.591  1.00  0.00     0.174 HD
ATOM     28  H91 UNL     1      16.362 -13.348   1.928  1.00  0.00     0.174 HD
ENDBRANCH  24  26
ENDBRANCH   9  18
BRANCH  13  29
HETATM   29  S1  UNL     1      18.877  -5.304   5.076  1.00  0.00    -0.092 SA
BRANCH  29  30
HETATM   30  C6  UNL     1      19.128  -4.634   3.400  1.00  0.00     0.083 C 
BRANCH  30  31
HETATM   31  C7  UNL     1      19.568  -3.206   3.429  1.00  0.00     0.026 C 
BRANCH  31  32
HETATM   32  C8  UNL     1      18.820  -2.357   2.424  1.00  0.00     0.114 C 
BRANCH  32  33
HETATM   33  N12 UNL     1      19.546  -1.114   2.207  1.00  0.00    -0.198 NA
HETATM   34  N13 UNL     1      18.688  -0.036   2.188  1.00  0.00    -0.146 NA
HETATM   35  C9  UNL     1      18.957   0.765   3.354  1.00  0.00     0.243 C 
HETATM   36  N14 UNL     1      20.018   0.148   4.089  1.00  0.00    -0.166 NA
HETATM   37  N15 UNL     1      21.238   0.832   3.876  1.00  0.00    -0.050 NA
HETATM   38  C10 UNL     1      20.518  -0.909   3.234  1.00  0.00     0.280 C 
HETATM   39  N16 UNL     1      21.649  -0.094   2.922  1.00  0.00    -0.092 NA
ENDBRANCH  32  33
ENDBRANCH  31  32
ENDBRANCH  30  31
ENDBRANCH  29  30
ENDBRANCH  13  29
BRANCH   1  40
HETATM   40  N1  UNL     1      13.950  -7.487   7.355  1.00  0.00    -0.384 N 
ATOM     41  H12 UNL     1      13.460  -6.617   7.148  1.00  0.00     0.157 HD
ATOM     42  H11 UNL     1      14.370  -7.341   8.273  1.00  0.00     0.157 HD
ENDBRANCH   1  40
TORSDOF 8
ENDMDL
MODEL 4
REMARK VINA RESULT: -9.508303593      1.519      1.940
REMARK  8 active torsions:
REMARK  status: ('A' for Active; 'I' for Inactive)
REMARK    1  A    between atoms: N1_1  and  C1_4 
REMARK    2  A    between atoms: C3_12  and  N5_13 
REMARK    3  A    between atoms: C4_20  and  N9_21 
REMARK    4  A    between atoms: C5_27  and  S1_28 
REMARK    5  A    between atoms: S1_28  and  C6_29 
REMARK    6  A    between atoms: C6_29  and  C7_30 
REMARK    7  A    between atoms: C7_30  and  C8_31 
REMARK    8  A    between atoms: C8_31  and  N12_32 
ROOT
HETATM    1  C1  UNL     1      14.334  -8.878   5.944  1.00  0.00     0.131 A 
HETATM    2  N2  UNL     1      13.535  -9.948   5.753  1.00  0.00    -0.283 N 
ATOM      3  H2  UNL     1      12.653 -10.108   6.238  1.00  0.00     0.188 HD
HETATM    4  N3  UNL     1      14.056 -10.760   4.851  1.00  0.00    -0.283 N 
ATOM      5  H3  UNL     1      13.635 -11.634   4.537  1.00  0.00     0.188 HD
HETATM    6  C2  UNL     1      15.227 -10.260   4.405  1.00  0.00     0.153 A 
HETATM    7  N4  UNL     1      16.150 -10.669   3.506  1.00  0.00    -0.170 N 
ATOM      8  H4  UNL     1      15.996 -11.548   3.012  1.00  0.00     0.186 HD
HETATM    9  C3  UNL     1      17.266  -9.962   3.237  1.00  0.00     0.744 A 
HETATM   10  N10 UNL     1      17.453  -8.804   3.900  1.00  0.00    -0.064 N 
HETATM   11  N11 UNL     1      18.436  -7.910   3.847  1.00  0.00    -0.257 N 
ATOM     12  H11 UNL     1      19.255  -7.984   3.245  1.00  0.00     0.190 HD
HETATM   13  C5  UNL     1      18.202  -6.894   4.696  1.00  0.00     0.161 A 
HETATM   14  N17 UNL     1      17.015  -7.198   5.286  1.00  0.00    -0.319 N 
ATOM     15  H17 UNL     1      16.545  -6.628   5.989  1.00  0.00     0.169 HD
HETATM   16  C11 UNL     1      16.555  -8.365   4.801  1.00  0.00     0.165 A 
HETATM   17  C12 UNL     1      15.408  -9.075   5.088  1.00  0.00     0.101 A 
ENDROOT
BRANCH   9  18
HETATM   18  N5  UNL     1      18.224 -10.426   2.279  1.00  0.00     0.109 N 
HETATM   19  N6  UNL     1      17.972 -10.668   1.013  1.00  0.00    -0.191 N 
HETATM   20  N7  UNL     1      19.072 -11.076   0.442  1.00  0.00    -0.212 N 
ATOM     21  H6  UNL     1      17.068 -10.555   0.554  1.00  0.00     0.211 HD
HETATM   22  N8  UNL     1      20.033 -11.098   1.338  1.00  0.00    -0.114 N 
ATOM     23  H7  UNL     1      19.170 -11.335  -0.540  1.00  0.00     0.210 HD
HETATM   24  C4  UNL     1      19.505 -10.689   2.502  1.00  0.00     0.729 A 
ATOM     25  H8  UNL     1      21.002 -11.375   1.178  1.00  0.00     0.207 HD
BRANCH  24  26
HETATM   26  N9  UNL     1      20.137 -10.571   3.644  1.00  0.00    -0.231 N 
ATOM     27  H92 UNL     1      20.983 -10.026   3.814  1.00  0.00     0.174 HD
ATOM     28  H91 UNL     1      19.877 -11.004   4.530  1.00  0.00     0.174 HD
ENDBRANCH  24  26
ENDBRANCH   9  18
BRANCH  13  29
HETATM   29  S1  UNL     1      19.206  -5.439   5.011  1.00  0.00    -0.092 SA
BRANCH  29  30
HETATM   30  C6  UNL     1      18.459  -4.066   4.073  1.00  0.00     0.083 C 
BRANCH  30  31
HETATM   31  C7  UNL     1      19.379  -3.544   3.019  1.00  0.00     0.026 C 
BRANCH  31  32
HETATM   32  C8  UNL     1      19.040  -2.125   2.616  1.00  0.00     0.114 C 
BRANCH  32  33
HETATM   33  N12 UNL     1      19.781  -1.194   3.456  1.00  0.00    -0.198 NA
HETATM   34  N13 UNL     1      21.117  -1.180   3.121  1.00  0.00    -0.146 NA
HETATM   35  C9  UNL     1      21.416   0.107   2.549  1.00  0.00     0.243 C 
HETATM   36  N14 UNL     1      20.218   0.891   2.550  1.00  0.00    -0.166 NA
HETATM   37  N15 UNL     1      20.242   1.839   3.599  1.00  0.00    -0.050 NA
HETATM   38  C10 UNL     1      19.260   0.130   3.325  1.00  0.00     0.280 C 
HETATM   39  N16 UNL     1      19.459   1.030   4.417  1.00  0.00    -0.092 NA
ENDBRANCH  32  33
ENDBRANCH  31  32
ENDBRANCH  30  31
ENDBRANCH  29  30
ENDBRANCH  13  29
BRANCH   1  40
HETATM   40  N1  UNL     1      14.173  -7.870   6.738  1.00  0.00    -0.384 N 
ATOM     41  H12 UNL     1      13.436  -7.771   7.436  1.00  0.00     0.157 HD
ATOM     42  H11 UNL     1      14.726  -7.016   6.817  1.00  0.00     0.157 HD
ENDBRANCH   1  40
TORSDOF 8
ENDMDL
MODEL 5
REMARK VINA RESULT: -9.499788294      2.867      4.653
REMARK  8 active torsions:
REMARK  status: ('A' for Active; 'I' for Inactive)
REMARK    1  A    between atoms: N1_1  and  C1_4 
REMARK    2  A    between atoms: C3_12  and  N5_13 
REMARK    3  A    between atoms: C4_20  and  N9_21 
REMARK    4  A    between atoms: C5_27  and  S1_28 
REMARK    5  A    between atoms: S1_28  and  C6_29 
REMARK    6  A    between atoms: C6_29  and  C7_30 
REMARK    7  A    between atoms: C7_30  and  C8_31 
REMARK    8  A    between atoms: C8_31  and  N12_32 
ROOT
HETATM    1  C1  UNL     1      19.417 -11.524   1.850  1.00  0.00     0.131 A 
HETATM    2  N2  UNL     1      19.961 -12.668   1.386  1.00  0.00    -0.283 N 
ATOM      3  H2  UNL     1      19.566 -13.236   0.636  1.00  0.00     0.188 HD
HETATM    4  N3  UNL     1      21.075 -12.950   2.036  1.00  0.00    -0.283 N 
ATOM      5  H3  UNL     1      21.665 -13.763   1.863  1.00  0.00     0.188 HD
HETATM    6  C2  UNL     1      21.317 -12.001   2.964  1.00  0.00     0.153 A 
HETATM    7  N4  UNL     1      22.289 -11.799   3.881  1.00  0.00    -0.170 N 
ATOM      8  H4  UNL     1      23.049 -12.478   3.946  1.00  0.00     0.186 HD
HETATM    9  C3  UNL     1      22.297 -10.737   4.712  1.00  0.00     0.744 A 
HETATM   10  N10 UNL     1      21.286  -9.853   4.612  1.00  0.00    -0.064 N 
HETATM   11  N11 UNL     1      21.029  -8.733   5.281  1.00  0.00    -0.257 N 
ATOM     12  H11 UNL     1      21.613  -8.356   6.028  1.00  0.00     0.190 HD
HETATM   13  C5  UNL     1      19.895  -8.163   4.838  1.00  0.00     0.161 A 
HETATM   14  N17 UNL     1      19.452  -8.987   3.851  1.00  0.00    -0.319 N 
ATOM     15  H17 UNL     1      18.605  -8.843   3.301  1.00  0.00     0.169 HD
HETATM   16  C11 UNL     1      20.301 -10.020   3.710  1.00  0.00     0.165 A 
HETATM   17  C12 UNL     1      20.277 -11.100   2.852  1.00  0.00     0.101 A 
ENDROOT
BRANCH   9  18
HETATM   18  N5  UNL     1      23.344 -10.556   5.672  1.00  0.00     0.109 N 
HETATM   19  N6  UNL     1      23.179 -10.513   6.973  1.00  0.00    -0.191 N 
HETATM   20  N7  UNL     1      24.344 -10.336   7.533  1.00  0.00    -0.212 N 
ATOM     21  H6  UNL     1      22.289 -10.604   7.464  1.00  0.00     0.211 HD
HETATM   22  N8  UNL     1      25.261 -10.264   6.595  1.00  0.00    -0.114 N 
ATOM     23  H7  UNL     1      24.515 -10.264   8.537  1.00  0.00     0.210 HD
HETATM   24  C4  UNL     1      24.636 -10.402   5.414  1.00  0.00     0.729 A 
ATOM     25  H8  UNL     1      26.261 -10.128   6.737  1.00  0.00     0.207 HD
BRANCH  24  26
HETATM   26  N9  UNL     1      25.199 -10.388   4.231  1.00  0.00    -0.231 N 
ATOM     27  H92 UNL     1      25.430 -11.202   3.662  1.00  0.00     0.174 HD
ATOM     28  H91 UNL     1      25.488  -9.563   3.706  1.00  0.00     0.174 HD
ENDBRANCH  24  26
ENDBRANCH   9  18
BRANCH  13  29
HETATM   29  S1  UNL     1      19.104  -6.650   5.397  1.00  0.00    -0.092 SA
BRANCH  29  30
HETATM   30  C6  UNL     1      19.054  -5.519   3.968  1.00  0.00     0.083 C 
BRANCH  30  31
HETATM   31  C7  UNL     1      19.089  -4.087   4.389  1.00  0.00     0.026 C 
BRANCH  31  32
HETATM   32  C8  UNL     1      18.787  -3.147   3.241  1.00  0.00     0.114 C 
BRANCH  32  33
HETATM   33  N12 UNL     1      20.028  -2.557   2.759  1.00  0.00    -0.198 NA
HETATM   34  N13 UNL     1      20.181  -2.763   1.406  1.00  0.00    -0.146 NA
HETATM   35  C9  UNL     1      20.076  -1.485   0.750  1.00  0.00     0.243 C 
HETATM   36  N14 UNL     1      19.861  -0.482   1.747  1.00  0.00    -0.166 NA
HETATM   37  N15 UNL     1      21.053   0.236   1.999  1.00  0.00    -0.050 NA
HETATM   38  C10 UNL     1      20.055  -1.152   3.017  1.00  0.00     0.280 C 
HETATM   39  N16 UNL     1      21.333  -0.524   3.130  1.00  0.00    -0.092 NA
ENDBRANCH  32  33
ENDBRANCH  31  32
ENDBRANCH  30  31
ENDBRANCH  29  30
ENDBRANCH  13  29
BRANCH   1  40
HETATM   40  N1  UNL     1      18.336 -10.922   1.474  1.00  0.00    -0.384 N 
ATOM     41  H12 UNL     1      17.572 -11.342   0.946  1.00  0.00     0.157 HD
ATOM     42  H11 UNL     1      18.051  -9.954   1.625  1.00  0.00     0.157 HD
ENDBRANCH   1  40
TORSDOF 8
ENDMDL
