MODEL 1
REMARK VINA RESULT: -7.578830468      0.000      0.000
REMARK  2 active torsions:
REMARK  status: ('A' for Active; 'I' for Inactive)
REMARK    1  A    between atoms: C10_14  and  S1_15 
REMARK    2  A    between atoms: S1_15  and  N3_16 
ROOT
HETATM    1  N1  UNL     1       2.781  -3.817 -43.152  1.00  0.00    -0.101 NA
HETATM    2  C1  UNL     1       3.503  -4.233 -41.996  1.00  0.00     0.062 A 
HETATM    3  C2  UNL     1       4.051  -3.314 -41.127  1.00  0.00     0.118 A 
HETATM    4  N2  UNL     1       4.721  -3.769 -40.053  1.00  0.00    -0.331 N 
ATOM      5  H2  UNL     1       5.121  -3.077 -39.419  1.00  0.00     0.168 HD
HETATM    6  C3  UNL     1       4.902  -5.068 -39.754  1.00  0.00     0.256 A 
HETATM    7  O1  UNL     1       5.551  -5.384 -38.717  1.00  0.00    -0.267 OA
HETATM    8  C4  UNL     1       4.369  -6.012 -40.600  1.00  0.00     0.045 A 
HETATM    9  C5  UNL     1       4.609  -7.407 -40.331  1.00  0.00     0.003 A 
HETATM   10  C6  UNL     1       5.924  -7.900 -40.306  1.00  0.00     0.014 A 
HETATM   11  C7  UNL     1       6.246  -9.212 -40.110  1.00  0.00     0.001 A 
HETATM   12  C8  UNL     1       5.230 -10.104 -39.927  1.00  0.00     0.002 A 
HETATM   13  C9  UNL     1       3.944  -9.646 -39.945  1.00  0.00     0.026 A 
HETATM   14  C10 UNL     1       3.596  -8.303 -40.144  1.00  0.00     0.090 A 
HETATM   15  C11 UNL     1       3.684  -5.595 -41.696  1.00  0.00     0.045 A 
ENDROOT
BRANCH  14  16
HETATM   16  S1  UNL     1       1.918  -7.902 -40.093  1.00  0.00     0.257 S 
HETATM   17  O2  UNL     1       1.258  -7.582 -41.364  1.00  0.00    -0.201 OA
HETATM   18  O3  UNL     1       1.168  -9.153 -39.581  1.00  0.00    -0.201 OA
BRANCH  16  19
HETATM   19  N3  UNL     1       1.666  -6.727 -38.838  1.00  0.00    -0.324 N 
ATOM     20  H32 UNL     1       1.227  -6.920 -37.938  1.00  0.00     0.169 HD
ATOM     21  H31 UNL     1       2.029  -5.829 -39.156  1.00  0.00     0.169 HD
ENDBRANCH  16  19
ENDBRANCH  14  16
TORSDOF 2
ENDMDL
MODEL 2
REMARK VINA RESULT: -7.444847976      2.124      5.161
REMARK  2 active torsions:
REMARK  status: ('A' for Active; 'I' for Inactive)
REMARK    1  A    between atoms: C10_14  and  S1_15 
REMARK    2  A    between atoms: S1_15  and  N3_16 
ROOT
HETATM    1  N1  UNL     1       4.728 -10.158 -38.564  1.00  0.00    -0.101 NA
HETATM    2  C1  UNL     1       3.829  -9.423 -39.390  1.00  0.00     0.062 A 
HETATM    3  C2  UNL     1       2.485  -9.726 -39.430  1.00  0.00     0.118 A 
HETATM    4  N2  UNL     1       1.688  -8.994 -40.229  1.00  0.00    -0.331 N 
ATOM      5  H2  UNL     1       0.695  -9.230 -40.249  1.00  0.00     0.168 HD
HETATM    6  C3  UNL     1       2.101  -7.976 -41.004  1.00  0.00     0.256 A 
HETATM    7  O1  UNL     1       1.264  -7.355 -41.719  1.00  0.00    -0.267 OA
HETATM    8  C4  UNL     1       3.437  -7.647 -40.989  1.00  0.00     0.045 A 
HETATM    9  C5  UNL     1       3.910  -6.602 -41.862  1.00  0.00     0.003 A 
HETATM   10  C6  UNL     1       3.765  -6.732 -43.253  1.00  0.00     0.014 A 
HETATM   11  C7  UNL     1       4.226  -5.820 -44.159  1.00  0.00     0.001 A 
HETATM   12  C8  UNL     1       4.868  -4.712 -43.687  1.00  0.00     0.002 A 
HETATM   13  C9  UNL     1       5.017  -4.565 -42.339  1.00  0.00     0.026 A 
HETATM   14  C10 UNL     1       4.550  -5.490 -41.395  1.00  0.00     0.090 A 
HETATM   15  C11 UNL     1       4.277  -8.360 -40.196  1.00  0.00     0.045 A 
ENDROOT
BRANCH  14  16
HETATM   16  S1  UNL     1       4.793  -5.115 -39.728  1.00  0.00     0.257 S 
HETATM   17  O2  UNL     1       5.828  -5.866 -39.008  1.00  0.00    -0.201 OA
HETATM   18  O3  UNL     1       5.272  -3.647 -39.658  1.00  0.00    -0.201 OA
BRANCH  16  19
HETATM   19  N3  UNL     1       3.248  -5.084 -38.935  1.00  0.00    -0.324 N 
ATOM     20  H32 UNL     1       2.713  -5.910 -38.667  1.00  0.00     0.169 HD
ATOM     21  H31 UNL     1       2.977  -4.112 -38.788  1.00  0.00     0.169 HD
ENDBRANCH  16  19
ENDBRANCH  14  16
TORSDOF 2
ENDMDL
MODEL 3
REMARK VINA RESULT: -7.144012028      2.526      3.445
REMARK  2 active torsions:
REMARK  status: ('A' for Active; 'I' for Inactive)
REMARK    1  A    between atoms: C10_14  and  S1_15 
REMARK    2  A    between atoms: S1_15  and  N3_16 
ROOT
HETATM    1  N1  UNL     1       3.727  -2.545 -40.915  1.00  0.00    -0.101 NA
HETATM    2  C1  UNL     1       3.709  -3.858 -41.470  1.00  0.00     0.062 A 
HETATM    3  C2  UNL     1       4.157  -4.099 -42.751  1.00  0.00     0.118 A 
HETATM    4  N2  UNL     1       4.115  -5.360 -43.217  1.00  0.00    -0.331 N 
ATOM      5  H2  UNL     1       4.449  -5.523 -44.167  1.00  0.00     0.168 HD
HETATM    6  C3  UNL     1       3.665  -6.421 -42.524  1.00  0.00     0.256 A 
HETATM    7  O1  UNL     1       3.670  -7.565 -43.061  1.00  0.00    -0.267 OA
HETATM    8  C4  UNL     1       3.211  -6.217 -41.242  1.00  0.00     0.045 A 
HETATM    9  C5  UNL     1       2.664  -7.330 -40.508  1.00  0.00     0.003 A 
HETATM   10  C6  UNL     1       1.537  -8.008 -41.000  1.00  0.00     0.014 A 
HETATM   11  C7  UNL     1       0.920  -9.039 -40.351  1.00  0.00     0.001 A 
HETATM   12  C8  UNL     1       1.427  -9.438 -39.148  1.00  0.00     0.002 A 
HETATM   13  C9  UNL     1       2.524  -8.794 -38.653  1.00  0.00     0.026 A 
HETATM   14  C10 UNL     1       3.169  -7.735 -39.305  1.00  0.00     0.090 A 
HETATM   15  C11 UNL     1       3.236  -4.958 -40.732  1.00  0.00     0.045 A 
ENDROOT
BRANCH  14  16
HETATM   16  S1  UNL     1       4.569  -7.070 -38.547  1.00  0.00     0.257 S 
HETATM   17  O2  UNL     1       4.432  -5.760 -37.900  1.00  0.00    -0.201 OA
HETATM   18  O3  UNL     1       4.956  -8.023 -37.392  1.00  0.00    -0.201 OA
BRANCH  16  19
HETATM   19  N3  UNL     1       5.908  -7.190 -39.647  1.00  0.00    -0.324 N 
ATOM     20  H32 UNL     1       6.174  -8.035 -40.153  1.00  0.00     0.169 HD
ATOM     21  H31 UNL     1       6.371  -6.282 -39.697  1.00  0.00     0.169 HD
ENDBRANCH  16  19
ENDBRANCH  14  16
TORSDOF 2
ENDMDL
MODEL 4
REMARK VINA RESULT: -7.125888185      2.205      2.347
REMARK  2 active torsions:
REMARK  status: ('A' for Active; 'I' for Inactive)
REMARK    1  A    between atoms: C10_14  and  S1_15 
REMARK    2  A    between atoms: S1_15  and  N3_16 
ROOT
HETATM    1  N1  UNL     1       2.733  -5.590 -42.439  1.00  0.00    -0.101 NA
HETATM    2  C1  UNL     1       3.417  -5.611 -41.189  1.00  0.00     0.062 A 
HETATM    3  C2  UNL     1       4.225  -4.565 -40.799  1.00  0.00     0.118 A 
HETATM    4  N2  UNL     1       4.843  -4.644 -39.607  1.00  0.00    -0.331 N 
ATOM      5  H2  UNL     1       5.439  -3.863 -39.331  1.00  0.00     0.168 HD
HETATM    6  C3  UNL     1       4.735  -5.677 -38.752  1.00  0.00     0.256 A 
HETATM    7  O1  UNL     1       5.363  -5.648 -37.655  1.00  0.00    -0.267 OA
HETATM    8  C4  UNL     1       3.936  -6.738 -39.110  1.00  0.00     0.045 A 
HETATM    9  C5  UNL     1       3.860  -7.882 -38.236  1.00  0.00     0.003 A 
HETATM   10  C6  UNL     1       5.021  -8.614 -37.937  1.00  0.00     0.014 A 
HETATM   11  C7  UNL     1       5.039  -9.738 -37.162  1.00  0.00     0.001 A 
HETATM   12  C8  UNL     1       3.856 -10.182 -36.644  1.00  0.00     0.002 A 
HETATM   13  C9  UNL     1       2.717  -9.484 -36.921  1.00  0.00     0.026 A 
HETATM   14  C10 UNL     1       2.681  -8.328 -37.713  1.00  0.00     0.090 A 
HETATM   15  C11 UNL     1       3.294  -6.699 -40.305  1.00  0.00     0.045 A 
ENDROOT
BRANCH  14  16
HETATM   16  S1  UNL     1       1.152  -7.554 -37.919  1.00  0.00     0.257 S 
HETATM   17  O2  UNL     1       1.151  -6.103 -38.137  1.00  0.00    -0.201 OA
HETATM   18  O3  UNL     1       0.522  -8.130 -39.208  1.00  0.00    -0.201 OA
BRANCH  16  19
HETATM   19  N3  UNL     1       0.083  -8.090 -36.660  1.00  0.00    -0.324 N 
ATOM     20  H32 UNL     1      -0.885  -8.382 -36.800  1.00  0.00     0.169 HD
ATOM     21  H31 UNL     1       0.585  -8.064 -35.773  1.00  0.00     0.169 HD
ENDBRANCH  16  19
ENDBRANCH  14  16
TORSDOF 2
ENDMDL
MODEL 5
REMARK VINA RESULT: -6.949634668      2.207      5.133
REMARK  2 active torsions:
REMARK  status: ('A' for Active; 'I' for Inactive)
REMARK    1  A    between atoms: C10_14  and  S1_15 
REMARK    2  A    between atoms: S1_15  and  N3_16 
ROOT
HETATM    1  N1  UNL     1       5.590  -9.700 -37.373  1.00  0.00    -0.101 NA
HETATM    2  C1  UNL     1       4.541  -9.361 -38.277  1.00  0.00     0.062 A 
HETATM    3  C2  UNL     1       3.297  -9.945 -38.179  1.00  0.00     0.118 A 
HETATM    4  N2  UNL     1       2.348  -9.583 -39.062  1.00  0.00    -0.331 N 
ATOM      5  H2  UNL     1       1.432 -10.023 -38.977  1.00  0.00     0.168 HD
HETATM    6  C3  UNL     1       2.518  -8.683 -40.047  1.00  0.00     0.256 A 
HETATM    7  O1  UNL     1       1.557  -8.418 -40.823  1.00  0.00    -0.267 OA
HETATM    8  C4  UNL     1       3.749  -8.081 -40.174  1.00  0.00     0.045 A 
HETATM    9  C5  UNL     1       3.969  -7.164 -41.264  1.00  0.00     0.003 A 
HETATM   10  C6  UNL     1       3.840  -7.608 -42.590  1.00  0.00     0.014 A 
HETATM   11  C7  UNL     1       4.078  -6.827 -43.685  1.00  0.00     0.001 A 
HETATM   12  C8  UNL     1       4.466  -5.534 -43.482  1.00  0.00     0.002 A 
HETATM   13  C9  UNL     1       4.595  -5.082 -42.200  1.00  0.00     0.026 A 
HETATM   14  C10 UNL     1       4.354  -5.869 -41.066  1.00  0.00     0.090 A 
HETATM   15  C11 UNL     1       4.734  -8.418 -39.303  1.00  0.00     0.045 A 
ENDROOT
BRANCH  14  16
HETATM   16  S1  UNL     1       4.528  -5.113 -39.524  1.00  0.00     0.257 S 
HETATM   17  O2  UNL     1       5.714  -5.455 -38.731  1.00  0.00    -0.201 OA
HETATM   18  O3  UNL     1       4.666  -3.594 -39.776  1.00  0.00    -0.201 OA
BRANCH  16  19
HETATM   19  N3  UNL     1       3.025  -5.255 -38.664  1.00  0.00    -0.324 N 
ATOM     20  H32 UNL     1       2.838  -5.932 -37.925  1.00  0.00     0.169 HD
ATOM     21  H31 UNL     1       2.378  -4.553 -39.022  1.00  0.00     0.169 HD
ENDBRANCH  16  19
ENDBRANCH  14  16
TORSDOF 2
ENDMDL
