MODEL 1
REMARK VINA RESULT: -6.895011063      0.000      0.000
REMARK  3 active torsions:
REMARK  status: ('A' for Active; 'I' for Inactive)
REMARK    1  A    between atoms: C4_4  and  C5_5 
REMARK    2  A    between atoms: N1_6  and  N2_8 
REMARK       I    between atoms: N2_8  and  C6_10 
REMARK       I    between atoms: N4_12  and  C7_14 
REMARK       I    between atoms: N6_16  and  C8_18 
REMARK    3  A    between atoms: C8_18  and  C9_20 
ROOT
HETATM    1  N2  UNL     1      19.894  31.217  18.578  1.00  0.00    -0.274 N 
ATOM      2  H2  UNL     1      20.289  30.573  19.263  1.00  0.00     0.189 HD
HETATM    3  C6  UNL     1      20.506  32.469  18.329  1.00  0.00     0.209 C 
HETATM    4  N3  UNL     1      21.075  32.832  17.082  1.00  0.00    -0.062 NA
HETATM    5  N4  UNL     1      20.549  33.325  19.289  1.00  0.00    -0.303 N 
ATOM      6  H4  UNL     1      20.991  34.226  19.104  1.00  0.00     0.171 HD
HETATM    7  C7  UNL     1      20.025  33.100  20.580  1.00  0.00     0.197 C 
HETATM    8  N5  UNL     1      18.939  32.223  20.776  1.00  0.00    -0.063 NA
HETATM    9  N6  UNL     1      20.539  33.699  21.589  1.00  0.00    -0.301 N 
ATOM     10  H6  UNL     1      20.161  33.537  22.523  1.00  0.00     0.171 HD
HETATM   11  C8  UNL     1      21.629  34.585  21.414  1.00  0.00     0.228 C 
HETATM   12  O1  UNL     1      22.455  34.423  20.488  1.00  0.00    -0.273 OA
ENDROOT
BRANCH   1  13
HETATM   13  N1  UNL     1      18.742  30.880  17.869  1.00  0.00    -0.313 N 
HETATM   14  C5  UNL     1      18.522  29.731  17.373  1.00  0.00     0.085 C 
ATOM     15  H1  UNL     1      18.032  31.601  17.740  1.00  0.00     0.185 HD
BRANCH  14  16
HETATM   16  C4  UNL     1      19.506  28.634  17.517  1.00  0.00     0.030 A 
HETATM   17  C2  UNL     1      19.203  27.259  17.070  1.00  0.00    -0.009 A 
HETATM   18  C1  UNL     1      17.870  26.956  16.421  1.00  0.00     0.011 C 
HETATM   19  C3  UNL     1      19.173  27.593  18.527  1.00  0.00     0.015 A 
ENDBRANCH  14  16
ENDBRANCH   1  13
BRANCH  11  20
HETATM   20  C9  UNL     1      21.813  35.747  22.352  1.00  0.00     0.078 C 
HETATM   21  C10 UNL     1      20.895  35.532  23.505  1.00  0.00     0.014 C 
HETATM   22  C11 UNL     1      21.204  36.323  24.721  1.00  0.00     0.001 C 
HETATM   23  C12 UNL     1      22.233  37.403  24.517  1.00  0.00     0.000 C 
HETATM   24  C13 UNL     1      21.835  38.457  23.554  1.00  0.00     0.000 C 
HETATM   25  C14 UNL     1      20.840  38.027  22.527  1.00  0.00     0.001 C 
HETATM   26  C15 UNL     1      21.357  36.972  21.597  1.00  0.00     0.014 C 
ENDBRANCH  11  20
TORSDOF 3
ENDMDL
MODEL 2
REMARK VINA RESULT: -6.740949199      5.713      6.984
REMARK  3 active torsions:
REMARK  status: ('A' for Active; 'I' for Inactive)
REMARK    1  A    between atoms: C4_4  and  C5_5 
REMARK    2  A    between atoms: N1_6  and  N2_8 
REMARK       I    between atoms: N2_8  and  C6_10 
REMARK       I    between atoms: N4_12  and  C7_14 
REMARK       I    between atoms: N6_16  and  C8_18 
REMARK    3  A    between atoms: C8_18  and  C9_20 
ROOT
HETATM    1  N2  UNL     1      21.072  29.487  23.936  1.00  0.00    -0.274 N 
ATOM      2  H2  UNL     1      21.443  28.655  23.476  1.00  0.00     0.189 HD
HETATM    3  C6  UNL     1      21.013  30.723  23.249  1.00  0.00     0.209 C 
HETATM    4  N3  UNL     1      19.802  31.393  22.940  1.00  0.00    -0.062 NA
HETATM    5  N4  UNL     1      22.119  31.270  22.886  1.00  0.00    -0.303 N 
ATOM      6  H4  UNL     1      22.070  32.161  22.392  1.00  0.00     0.171 HD
HETATM    7  C7  UNL     1      23.396  30.718  23.125  1.00  0.00     0.197 C 
HETATM    8  N5  UNL     1      23.625  29.881  24.236  1.00  0.00    -0.063 NA
HETATM    9  N6  UNL     1      24.363  30.979  22.326  1.00  0.00    -0.301 N 
ATOM     10  H6  UNL     1      25.286  30.581  22.498  1.00  0.00     0.171 HD
HETATM   11  C8  UNL     1      24.155  31.819  21.205  1.00  0.00     0.228 C 
HETATM   12  O1  UNL     1      23.042  31.881  20.638  1.00  0.00    -0.273 OA
ENDROOT
BRANCH   1  13
HETATM   13  N1  UNL     1      20.615  29.427  25.251  1.00  0.00    -0.313 N 
HETATM   14  C5  UNL     1      20.837  28.453  26.038  1.00  0.00     0.085 C 
ATOM     15  H1  UNL     1      20.068  30.212  25.604  1.00  0.00     0.185 HD
BRANCH  14  16
HETATM   16  C4  UNL     1      21.621  27.277  25.598  1.00  0.00     0.030 A 
HETATM   17  C2  UNL     1      21.920  26.158  26.515  1.00  0.00    -0.009 A 
HETATM   18  C1  UNL     1      21.394  26.189  27.934  1.00  0.00     0.011 C 
HETATM   19  C3  UNL     1      22.985  27.152  26.179  1.00  0.00     0.015 A 
ENDBRANCH  14  16
ENDBRANCH   1  13
BRANCH  11  20
HETATM   20  C9  UNL     1      25.286  32.657  20.673  1.00  0.00     0.078 C 
HETATM   21  C10 UNL     1      26.467  32.409  21.545  1.00  0.00     0.014 C 
HETATM   22  C11 UNL     1      27.777  32.802  20.971  1.00  0.00     0.001 C 
HETATM   23  C12 UNL     1      27.684  33.624  19.713  1.00  0.00     0.000 C 
HETATM   24  C13 UNL     1      27.012  34.935  19.883  1.00  0.00     0.000 C 
HETATM   25  C14 UNL     1      26.040  35.000  21.015  1.00  0.00     0.001 C 
HETATM   26  C15 UNL     1      24.859  34.095  20.843  1.00  0.00     0.014 C 
ENDBRANCH  11  20
TORSDOF 3
ENDMDL
MODEL 3
REMARK VINA RESULT: -6.664873417      1.680      2.159
REMARK  3 active torsions:
REMARK  status: ('A' for Active; 'I' for Inactive)
REMARK    1  A    between atoms: C4_4  and  C5_5 
REMARK    2  A    between atoms: N1_6  and  N2_8 
REMARK       I    between atoms: N2_8  and  C6_10 
REMARK       I    between atoms: N4_12  and  C7_14 
REMARK       I    between atoms: N6_16  and  C8_18 
REMARK    3  A    between atoms: C8_18  and  C9_20 
ROOT
HETATM    1  N2  UNL     1      20.182  32.088  19.043  1.00  0.00    -0.274 N 
ATOM      2  H2  UNL     1      21.127  32.157  18.666  1.00  0.00     0.189 HD
HETATM    3  C6  UNL     1      19.526  33.232  19.558  1.00  0.00     0.209 C 
HETATM    4  N3  UNL     1      18.347  33.782  18.993  1.00  0.00    -0.062 NA
HETATM    5  N4  UNL     1      20.027  33.805  20.594  1.00  0.00    -0.303 N 
ATOM      6  H4  UNL     1      19.550  34.629  20.960  1.00  0.00     0.171 HD
HETATM    7  C7  UNL     1      21.194  33.370  21.258  1.00  0.00     0.197 C 
HETATM    8  N5  UNL     1      21.572  32.012  21.239  1.00  0.00    -0.063 NA
HETATM    9  N6  UNL     1      21.922  34.215  21.888  1.00  0.00    -0.301 N 
ATOM     10  H6  UNL     1      22.765  33.902  22.368  1.00  0.00     0.171 HD
HETATM   11  C8  UNL     1      21.560  35.584  21.921  1.00  0.00     0.228 C 
HETATM   12  O1  UNL     1      20.929  36.111  20.978  1.00  0.00    -0.273 OA
ENDROOT
BRANCH   1  13
HETATM   13  N1  UNL     1      19.513  30.865  19.062  1.00  0.00    -0.313 N 
HETATM   14  C5  UNL     1      19.000  30.319  18.035  1.00  0.00     0.085 C 
ATOM     15  H1  UNL     1      19.430  30.378  19.955  1.00  0.00     0.185 HD
BRANCH  14  16
HETATM   16  C4  UNL     1      19.079  30.965  16.705  1.00  0.00     0.030 A 
HETATM   17  C2  UNL     1      19.845  30.361  15.596  1.00  0.00    -0.009 A 
HETATM   18  C1  UNL     1      20.549  29.037  15.801  1.00  0.00     0.011 C 
HETATM   19  C3  UNL     1      20.404  31.533  16.337  1.00  0.00     0.015 A 
ENDBRANCH  14  16
ENDBRANCH   1  13
BRANCH  11  20
HETATM   20  C9  UNL     1      21.934  36.433  23.105  1.00  0.00     0.078 C 
HETATM   21  C10 UNL     1      20.952  36.141  24.185  1.00  0.00     0.014 C 
HETATM   22  C11 UNL     1      21.367  36.545  25.551  1.00  0.00     0.001 C 
HETATM   23  C12 UNL     1      22.593  37.417  25.596  1.00  0.00     0.000 C 
HETATM   24  C13 UNL     1      22.443  38.725  24.916  1.00  0.00     0.000 C 
HETATM   25  C14 UNL     1      21.421  38.755  23.828  1.00  0.00     0.001 C 
HETATM   26  C15 UNL     1      21.753  37.866  22.668  1.00  0.00     0.014 C 
ENDBRANCH  11  20
TORSDOF 3
ENDMDL
MODEL 4
REMARK VINA RESULT: -6.629403653      1.722      8.609
REMARK  3 active torsions:
REMARK  status: ('A' for Active; 'I' for Inactive)
REMARK    1  A    between atoms: C4_4  and  C5_5 
REMARK    2  A    between atoms: N1_6  and  N2_8 
REMARK       I    between atoms: N2_8  and  C6_10 
REMARK       I    between atoms: N4_12  and  C7_14 
REMARK       I    between atoms: N6_16  and  C8_18 
REMARK    3  A    between atoms: C8_18  and  C9_20 
ROOT
HETATM    1  N2  UNL     1      20.776  34.518  20.713  1.00  0.00    -0.274 N 
ATOM      2  H2  UNL     1      20.033  35.036  20.243  1.00  0.00     0.189 HD
HETATM    3  C6  UNL     1      21.503  33.518  20.024  1.00  0.00     0.209 C 
HETATM    4  N3  UNL     1      22.893  33.601  19.756  1.00  0.00    -0.062 NA
HETATM    5  N4  UNL     1      20.868  32.476  19.617  1.00  0.00    -0.303 N 
ATOM      6  H4  UNL     1      21.397  31.759  19.122  1.00  0.00     0.171 HD
HETATM    7  C7  UNL     1      19.487  32.259  19.812  1.00  0.00     0.197 C 
HETATM    8  N5  UNL     1      18.816  32.822  20.917  1.00  0.00    -0.063 NA
HETATM    9  N6  UNL     1      18.830  31.543  18.977  1.00  0.00    -0.301 N 
ATOM     10  H6  UNL     1      17.832  31.387  19.117  1.00  0.00     0.171 HD
HETATM   11  C8  UNL     1      19.484  30.969  17.861  1.00  0.00     0.228 C 
HETATM   12  O1  UNL     1      20.476  31.521  17.334  1.00  0.00    -0.273 OA
ENDROOT
BRANCH   1  13
HETATM   13  N1  UNL     1      21.093  34.782  22.044  1.00  0.00    -0.313 N 
HETATM   14  C5  UNL     1      21.448  35.923  22.479  1.00  0.00     0.085 C 
ATOM     15  H1  UNL     1      21.037  34.011  22.711  1.00  0.00     0.185 HD
BRANCH  14  16
HETATM   16  C4  UNL     1      21.553  37.088  21.572  1.00  0.00     0.030 A 
HETATM   17  C2  UNL     1      22.849  37.511  21.003  1.00  0.00    -0.009 A 
HETATM   18  C1  UNL     1      24.104  36.728  21.326  1.00  0.00     0.011 C 
HETATM   19  C3  UNL     1      22.240  38.284  22.129  1.00  0.00     0.015 A 
ENDBRANCH  14  16
ENDBRANCH   1  13
BRANCH  11  20
HETATM   20  C9  UNL     1      18.989  29.671  17.284  1.00  0.00     0.078 C 
HETATM   21  C10 UNL     1      18.787  28.731  18.422  1.00  0.00     0.014 C 
HETATM   22  C11 UNL     1      17.926  27.557  18.135  1.00  0.00     0.001 C 
HETATM   23  C12 UNL     1      17.606  27.362  16.677  1.00  0.00     0.000 C 
HETATM   24  C13 UNL     1      18.786  27.101  15.818  1.00  0.00     0.000 C 
HETATM   25  C14 UNL     1      20.075  27.645  16.339  1.00  0.00     0.001 C 
HETATM   26  C15 UNL     1      20.106  29.141  16.418  1.00  0.00     0.014 C 
ENDBRANCH  11  20
TORSDOF 3
ENDMDL
MODEL 5
REMARK VINA RESULT: -6.604673100      2.092      3.394
REMARK  3 active torsions:
REMARK  status: ('A' for Active; 'I' for Inactive)
REMARK    1  A    between atoms: C4_4  and  C5_5 
REMARK    2  A    between atoms: N1_6  and  N2_8 
REMARK       I    between atoms: N2_8  and  C6_10 
REMARK       I    between atoms: N4_12  and  C7_14 
REMARK       I    between atoms: N6_16  and  C8_18 
REMARK    3  A    between atoms: C8_18  and  C9_20 
ROOT
HETATM    1  N2  UNL     1      20.209  33.453  19.675  1.00  0.00    -0.274 N 
ATOM      2  H2  UNL     1      19.466  34.149  19.602  1.00  0.00     0.189 HD
HETATM    3  C6  UNL     1      20.503  32.839  20.916  1.00  0.00     0.209 C 
HETATM    4  N3  UNL     1      20.344  31.452  21.163  1.00  0.00    -0.062 NA
HETATM    5  N4  UNL     1      20.938  33.581  21.873  1.00  0.00    -0.303 N 
ATOM      6  H4  UNL     1      21.148  33.132  22.765  1.00  0.00     0.171 HD
HETATM    7  C7  UNL     1      21.144  34.974  21.770  1.00  0.00     0.197 C 
HETATM    8  N5  UNL     1      21.457  35.568  20.531  1.00  0.00    -0.063 NA
HETATM    9  N6  UNL     1      21.047  35.710  22.813  1.00  0.00    -0.301 N 
ATOM     10  H6  UNL     1      21.195  36.717  22.740  1.00  0.00     0.171 HD
HETATM   11  C8  UNL     1      20.735  35.133  24.068  1.00  0.00     0.228 C 
HETATM   12  O1  UNL     1      20.034  34.100  24.151  1.00  0.00    -0.273 OA
ENDROOT
BRANCH   1  13
HETATM   13  N1  UNL     1      20.954  33.092  18.554  1.00  0.00    -0.313 N 
HETATM   14  C5  UNL     1      20.514  32.358  17.613  1.00  0.00     0.085 C 
ATOM     15  H1  UNL     1      21.912  33.437  18.483  1.00  0.00     0.185 HD
BRANCH  14  16
HETATM   16  C4  UNL     1      19.136  31.819  17.645  1.00  0.00     0.030 A 
HETATM   17  C2  UNL     1      18.773  30.577  16.931  1.00  0.00    -0.009 A 
HETATM   18  C1  UNL     1      19.833  29.813  16.167  1.00  0.00     0.011 C 
HETATM   19  C3  UNL     1      18.376  31.904  16.368  1.00  0.00     0.015 A 
ENDBRANCH  14  16
ENDBRANCH   1  13
BRANCH  11  20
HETATM   20  C9  UNL     1      21.247  35.764  25.335  1.00  0.00     0.078 C 
HETATM   21  C10 UNL     1      20.071  36.332  26.050  1.00  0.00     0.014 C 
HETATM   22  C11 UNL     1      20.282  36.627  27.489  1.00  0.00     0.001 C 
HETATM   23  C12 UNL     1      21.718  36.551  27.936  1.00  0.00     0.000 C 
HETATM   24  C13 UNL     1      22.618  37.530  27.281  1.00  0.00     0.000 C 
HETATM   25  C14 UNL     1      22.172  37.991  25.933  1.00  0.00     0.001 C 
HETATM   26  C15 UNL     1      22.143  36.900  24.906  1.00  0.00     0.014 C 
ENDBRANCH  11  20
TORSDOF 3
ENDMDL
