MODEL 1
REMARK VINA RESULT: -7.742121252      0.000      0.000
REMARK  5 active torsions:
REMARK  status: ('A' for Active; 'I' for Inactive)
REMARK    1  A    between atoms: N1_4  and  C3_5 
REMARK    2  A    between atoms: C3_5  and  C4_6 
REMARK    3  A    between atoms: C4_6  and  N2_7 
REMARK    4  A    between atoms: N2_7  and  C5_9 
REMARK    5  A    between atoms: C6_12  and  C7_13 
ROOT
HETATM    1  C5  UNL     1      23.078  37.450  21.572  1.00  0.00     0.144 A 
HETATM    2  N3  UNL     1      22.915  37.632  22.884  1.00  0.00    -0.340 N 
ATOM      3  H3  UNL     1      23.714  37.600  23.517  1.00  0.00     0.168 HD
HETATM    4  C6  UNL     1      21.712  37.852  23.341  1.00  0.00     0.022 A 
HETATM    5  C12 UNL     1      20.680  37.881  22.428  1.00  0.00     0.078 A 
HETATM    6  S1  UNL     1      21.498  37.592  20.963  1.00  0.00    -0.064 SA
ENDROOT
BRANCH   1   7
HETATM    7  N2  UNL     1      24.148  37.217  20.878  1.00  0.00    -0.369 N 
ATOM      8  H2  UNL     1      24.164  37.579  19.925  1.00  0.00     0.161 HD
BRANCH   7   9
HETATM    9  C4  UNL     1      25.301  36.507  21.308  1.00  0.00     0.152 C 
BRANCH   9  10
HETATM   10  C3  UNL     1      26.185  36.156  20.156  1.00  0.00     0.292 C 
BRANCH  10  11
HETATM   11  N1  UNL     1      26.547  34.766  20.095  1.00  0.00     0.097 N 
HETATM   12  C2  UNL     1      27.914  34.472  20.358  1.00  0.00     0.338 C 
HETATM   13  C1  UNL     1      28.091  33.089  20.963  1.00  0.00     0.335 C 
HETATM   14  F1  UNL     1      29.388  32.671  20.696  1.00  0.00    -0.218 F 
HETATM   15  O1  UNL     1      27.238  32.153  20.410  1.00  0.00    -0.353 OA
HETATM   16  C14 UNL     1      25.900  32.503  20.499  1.00  0.00     0.201 C 
HETATM   17  C13 UNL     1      25.723  33.939  20.956  1.00  0.00     0.298 C 
ENDBRANCH  10  11
ENDBRANCH   9  10
ENDBRANCH   7   9
ENDBRANCH   1   7
BRANCH   4  18
HETATM   18  C7  UNL     1      21.460  38.069  24.832  1.00  0.00     0.036 C 
HETATM   19  C8  UNL     1      20.706  36.905  25.363  1.00  0.00     0.011 C 
HETATM   20  C9  UNL     1      21.349  36.533  26.696  1.00  0.00     0.001 C 
HETATM   21  C10 UNL     1      22.321  37.686  26.984  1.00  0.00     0.001 C 
HETATM   22  C11 UNL     1      22.792  37.978  25.570  1.00  0.00     0.011 C 
ENDBRANCH   4  18
TORSDOF 5
ENDMDL
MODEL 2
REMARK VINA RESULT: -7.580959513      1.347      1.685
REMARK  5 active torsions:
REMARK  status: ('A' for Active; 'I' for Inactive)
REMARK    1  A    between atoms: N1_4  and  C3_5 
REMARK    2  A    between atoms: C3_5  and  C4_6 
REMARK    3  A    between atoms: C4_6  and  N2_7 
REMARK    4  A    between atoms: N2_7  and  C5_9 
REMARK    5  A    between atoms: C6_12  and  C7_13 
ROOT
HETATM    1  C5  UNL     1      23.522  36.781  21.408  1.00  0.00     0.144 A 
HETATM    2  N3  UNL     1      23.077  37.406  22.500  1.00  0.00    -0.340 N 
ATOM      3  H3  UNL     1      23.545  38.244  22.847  1.00  0.00     0.168 HD
HETATM    4  C6  UNL     1      22.031  36.925  23.115  1.00  0.00     0.022 A 
HETATM    5  C12 UNL     1      21.451  35.791  22.591  1.00  0.00     0.078 A 
HETATM    6  S1  UNL     1      22.442  35.480  21.241  1.00  0.00    -0.064 SA
ENDROOT
BRANCH   1   7
HETATM    7  N2  UNL     1      24.524  37.050  20.630  1.00  0.00    -0.369 N 
ATOM      8  H2  UNL     1      24.299  37.357  19.684  1.00  0.00     0.161 HD
BRANCH   7   9
HETATM    9  C4  UNL     1      25.903  36.959  20.960  1.00  0.00     0.152 C 
BRANCH   9  10
HETATM   10  C3  UNL     1      26.607  35.974  20.084  1.00  0.00     0.292 C 
BRANCH  10  11
HETATM   11  N1  UNL     1      26.995  34.763  20.756  1.00  0.00     0.097 N 
HETATM   12  C2  UNL     1      25.928  33.923  21.181  1.00  0.00     0.338 C 
HETATM   13  C1  UNL     1      26.335  32.459  21.210  1.00  0.00     0.335 C 
HETATM   14  F1  UNL     1      25.496  31.803  22.100  1.00  0.00    -0.218 F 
HETATM   15  O1  UNL     1      27.630  32.275  21.658  1.00  0.00    -0.353 OA
HETATM   16  C14 UNL     1      28.573  32.979  20.927  1.00  0.00     0.201 C 
HETATM   17  C13 UNL     1      27.925  33.968  19.977  1.00  0.00     0.298 C 
ENDBRANCH  10  11
ENDBRANCH   9  10
ENDBRANCH   7   9
ENDBRANCH   1   7
BRANCH   4  18
HETATM   18  C7  UNL     1      21.473  37.595  24.370  1.00  0.00     0.036 C 
HETATM   19  C8  UNL     1      20.729  36.583  25.162  1.00  0.00     0.011 C 
HETATM   20  C9  UNL     1      21.125  36.784  26.622  1.00  0.00     0.001 C 
HETATM   21  C10 UNL     1      21.922  38.097  26.620  1.00  0.00     0.001 C 
HETATM   22  C11 UNL     1      22.637  37.958  25.288  1.00  0.00     0.011 C 
ENDBRANCH   4  18
TORSDOF 5
ENDMDL
MODEL 3
REMARK VINA RESULT: -7.511577024      2.617      3.725
REMARK  5 active torsions:
REMARK  status: ('A' for Active; 'I' for Inactive)
REMARK    1  A    between atoms: N1_4  and  C3_5 
REMARK    2  A    between atoms: C3_5  and  C4_6 
REMARK    3  A    between atoms: C4_6  and  N2_7 
REMARK    4  A    between atoms: N2_7  and  C5_9 
REMARK    5  A    between atoms: C6_12  and  C7_13 
ROOT
HETATM    1  C5  UNL     1      23.360  36.942  21.130  1.00  0.00     0.144 A 
HETATM    2  N3  UNL     1      22.851  35.708  21.148  1.00  0.00    -0.340 N 
ATOM      3  H3  UNL     1      23.464  34.893  21.125  1.00  0.00     0.168 HD
HETATM    4  C6  UNL     1      21.555  35.565  21.196  1.00  0.00     0.022 A 
HETATM    5  C12 UNL     1      20.789  36.710  21.224  1.00  0.00     0.078 A 
HETATM    6  S1  UNL     1      21.977  37.929  21.181  1.00  0.00    -0.064 SA
ENDROOT
BRANCH   1   7
HETATM    7  N2  UNL     1      24.590  37.349  21.082  1.00  0.00    -0.369 N 
ATOM      8  H2  UNL     1      24.738  38.332  20.856  1.00  0.00     0.161 HD
BRANCH   7   9
HETATM    9  C4  UNL     1      25.752  36.565  21.311  1.00  0.00     0.152 C 
BRANCH   9  10
HETATM   10  C3  UNL     1      26.341  36.080  20.026  1.00  0.00     0.292 C 
BRANCH  10  11
HETATM   11  N1  UNL     1      26.683  34.684  20.027  1.00  0.00     0.097 N 
HETATM   12  C2  UNL     1      28.037  34.380  20.345  1.00  0.00     0.338 C 
HETATM   13  C1  UNL     1      28.173  33.017  21.005  1.00  0.00     0.335 C 
HETATM   14  F1  UNL     1      29.471  32.571  20.794  1.00  0.00    -0.218 F 
HETATM   15  O1  UNL     1      27.323  32.074  20.458  1.00  0.00    -0.353 OA
HETATM   16  C14 UNL     1      25.990  32.446  20.491  1.00  0.00     0.201 C 
HETATM   17  C13 UNL     1      25.820  33.900  20.890  1.00  0.00     0.298 C 
ENDBRANCH  10  11
ENDBRANCH   9  10
ENDBRANCH   7   9
ENDBRANCH   1   7
BRANCH   4  18
HETATM   18  C7  UNL     1      20.912  34.179  21.219  1.00  0.00     0.036 C 
HETATM   19  C8  UNL     1      19.504  34.298  20.762  1.00  0.00     0.011 C 
HETATM   20  C9  UNL     1      19.252  33.139  19.802  1.00  0.00     0.001 C 
HETATM   21  C10 UNL     1      20.497  32.251  19.944  1.00  0.00     0.001 C 
HETATM   22  C11 UNL     1      21.554  33.326  20.130  1.00  0.00     0.011 C 
ENDBRANCH   4  18
TORSDOF 5
ENDMDL
MODEL 4
REMARK VINA RESULT: -7.459322691      1.068      1.487
REMARK  5 active torsions:
REMARK  status: ('A' for Active; 'I' for Inactive)
REMARK    1  A    between atoms: N1_4  and  C3_5 
REMARK    2  A    between atoms: C3_5  and  C4_6 
REMARK    3  A    between atoms: C4_6  and  N2_7 
REMARK    4  A    between atoms: N2_7  and  C5_9 
REMARK    5  A    between atoms: C6_12  and  C7_13 
ROOT
HETATM    1  C5  UNL     1      23.028  37.599  21.896  1.00  0.00     0.144 A 
HETATM    2  N3  UNL     1      22.749  37.710  23.196  1.00  0.00    -0.340 N 
ATOM      3  H3  UNL     1      23.498  37.717  23.890  1.00  0.00     0.168 HD
HETATM    4  C6  UNL     1      21.501  37.809  23.564  1.00  0.00     0.022 A 
HETATM    5  C12 UNL     1      20.543  37.791  22.574  1.00  0.00     0.078 A 
HETATM    6  S1  UNL     1      21.492  37.635  21.169  1.00  0.00    -0.064 SA
ENDROOT
BRANCH   1   7
HETATM    7  N2  UNL     1      24.164  37.486  21.281  1.00  0.00    -0.369 N 
ATOM      8  H2  UNL     1      24.697  38.345  21.143  1.00  0.00     0.161 HD
BRANCH   7   9
HETATM    9  C4  UNL     1      24.742  36.290  20.780  1.00  0.00     0.152 C 
BRANCH   9  10
HETATM   10  C3  UNL     1      26.139  36.112  21.278  1.00  0.00     0.292 C 
BRANCH  10  11
HETATM   11  N1  UNL     1      26.626  34.761  21.194  1.00  0.00     0.097 N 
HETATM   12  C2  UNL     1      25.638  33.764  20.956  1.00  0.00     0.338 C 
HETATM   13  C1  UNL     1      26.208  32.571  20.204  1.00  0.00     0.335 C 
HETATM   14  F1  UNL     1      25.400  31.474  20.476  1.00  0.00    -0.218 F 
HETATM   15  O1  UNL     1      27.488  32.247  20.611  1.00  0.00    -0.353 OA
HETATM   16  C14 UNL     1      28.384  33.299  20.507  1.00  0.00     0.201 C 
HETATM   17  C13 UNL     1      27.681  34.610  20.211  1.00  0.00     0.298 C 
ENDBRANCH  10  11
ENDBRANCH   9  10
ENDBRANCH   7   9
ENDBRANCH   1   7
BRANCH   4  18
HETATM   18  C7  UNL     1      21.118  37.938  25.038  1.00  0.00     0.036 C 
HETATM   19  C8  UNL     1      20.558  36.644  25.501  1.00  0.00     0.011 C 
HETATM   20  C9  UNL     1      21.171  36.361  26.870  1.00  0.00     0.001 C 
HETATM   21  C10 UNL     1      21.894  37.664  27.237  1.00  0.00     0.001 C 
HETATM   22  C11 UNL     1      22.394  38.073  25.863  1.00  0.00     0.011 C 
ENDBRANCH   4  18
TORSDOF 5
ENDMDL
MODEL 5
REMARK VINA RESULT: -7.361272009      2.348      2.918
REMARK  5 active torsions:
REMARK  status: ('A' for Active; 'I' for Inactive)
REMARK    1  A    between atoms: N1_4  and  C3_5 
REMARK    2  A    between atoms: C3_5  and  C4_6 
REMARK    3  A    between atoms: C4_6  and  N2_7 
REMARK    4  A    between atoms: N2_7  and  C5_9 
REMARK    5  A    between atoms: C6_12  and  C7_13 
ROOT
HETATM    1  C5  UNL     1      23.298  37.026  21.156  1.00  0.00     0.144 A 
HETATM    2  N3  UNL     1      22.782  35.820  21.402  1.00  0.00    -0.340 N 
ATOM      3  H3  UNL     1      23.390  35.014  21.548  1.00  0.00     0.168 HD
HETATM    4  C6  UNL     1      21.484  35.693  21.453  1.00  0.00     0.022 A 
HETATM    5  C12 UNL     1      20.725  36.823  21.246  1.00  0.00     0.078 A 
HETATM    6  S1  UNL     1      21.921  38.008  20.991  1.00  0.00    -0.064 SA
ENDROOT
BRANCH   1   7
HETATM    7  N2  UNL     1      24.532  37.413  21.052  1.00  0.00    -0.369 N 
ATOM      8  H2  UNL     1      24.686  38.367  20.727  1.00  0.00     0.161 HD
BRANCH   7   9
HETATM    9  C4  UNL     1      25.689  36.643  21.345  1.00  0.00     0.152 C 
BRANCH   9  10
HETATM   10  C3  UNL     1      26.371  36.190  20.095  1.00  0.00     0.292 C 
BRANCH  10  11
HETATM   11  N1  UNL     1      26.701  34.791  20.080  1.00  0.00     0.097 N 
HETATM   12  C2  UNL     1      28.029  34.467  20.479  1.00  0.00     0.338 C 
HETATM   13  C1  UNL     1      28.110  33.085  21.109  1.00  0.00     0.335 C 
HETATM   14  F1  UNL     1      29.416  32.634  20.973  1.00  0.00    -0.218 F 
HETATM   15  O1  UNL     1      27.292  32.165  20.481  1.00  0.00    -0.353 OA
HETATM   16  C14 UNL     1      25.962  32.549  20.436  1.00  0.00     0.201 C 
HETATM   17  C13 UNL     1      25.777  33.992  20.863  1.00  0.00     0.298 C 
ENDBRANCH  10  11
ENDBRANCH   9  10
ENDBRANCH   7   9
ENDBRANCH   1   7
BRANCH   4  18
HETATM   18  C7  UNL     1      20.833  34.339  21.732  1.00  0.00     0.036 C 
HETATM   19  C8  UNL     1      21.848  33.272  21.541  1.00  0.00     0.011 C 
HETATM   20  C9  UNL     1      21.691  32.298  22.705  1.00  0.00     0.001 C 
HETATM   21  C10 UNL     1      20.397  32.744  23.400  1.00  0.00     0.001 C 
HETATM   22  C11 UNL     1      20.518  34.247  23.222  1.00  0.00     0.011 C 
ENDBRANCH   4  18
TORSDOF 5
ENDMDL
