MODEL 1
REMARK VINA RESULT: -6.822512749      0.000      0.000
REMARK  4 active torsions:
REMARK  status: ('A' for Active; 'I' for Inactive)
REMARK    1  A    between atoms: C2_2  and  C4_4 
REMARK    2  A    between atoms: C4_4  and  C7_7 
REMARK    3  A    between atoms: C8_12  and  C9_13 
REMARK    4  A    between atoms: C9_13  and  N3_14 
ROOT
HETATM    1  C7  UNL     1      19.833  37.543  25.254  1.00  0.00     0.058 A 
HETATM    2  N1  UNL     1      19.458  38.725  24.681  1.00  0.00    -0.302 N 
ATOM      3  H1  UNL     1      19.315  39.599  25.187  1.00  0.00     0.186 HD
HETATM    4  N2  UNL     1      19.308  38.573  23.377  1.00  0.00    -0.297 N 
ATOM      5  H2  UNL     1      19.031  39.311  22.730  1.00  0.00     0.187 HD
HETATM    6  C8  UNL     1      19.572  37.305  23.032  1.00  0.00     0.087 A 
HETATM    7  C15 UNL     1      19.902  36.660  24.216  1.00  0.00     0.088 A 
HETATM    8 CL1  UNL     1      20.338  34.972  24.330  1.00  0.00    -0.080 Cl
ENDROOT
BRANCH   6   9
HETATM    9  C9  UNL     1      19.530  36.647  21.695  1.00  0.00     0.122 C 
BRANCH   9  10
HETATM   10  N3  UNL     1      20.763  36.608  21.015  1.00  0.00    -0.364 N 
HETATM   11  C10 UNL     1      21.560  37.772  21.007  1.00  0.00     0.157 C 
HETATM   12  C11 UNL     1      22.579  37.687  22.133  1.00  0.00     0.292 C 
HETATM   13  N4  UNL     1      23.421  36.546  21.994  1.00  0.00     0.090 N 
HETATM   14  C12 UNL     1      24.499  36.691  21.066  1.00  0.00     0.310 C 
HETATM   15  C13 UNL     1      22.693  35.307  21.863  1.00  0.00     0.316 C 
HETATM   16  C14 UNL     1      21.496  35.412  20.979  1.00  0.00     0.093 C 
ENDBRANCH   9  10
ENDBRANCH   6   9
BRANCH   1  17
HETATM   17  C4  UNL     1      20.088  37.328  26.685  1.00  0.00     0.001 C 
HETATM   18  C5  UNL     1      19.051  36.363  27.226  1.00  0.00     0.022 C 
HETATM   19  C6  UNL     1      19.945  38.604  27.494  1.00  0.00     0.022 C 
BRANCH  17  20
HETATM   20  C2  UNL     1      21.457  36.763  26.942  1.00  0.00    -0.009 C 
HETATM   21  C1  UNL     1      22.522  37.765  26.556  1.00  0.00     0.011 C 
HETATM   22  C3  UNL     1      21.677  36.344  28.358  1.00  0.00     0.011 C 
ENDBRANCH  17  20
ENDBRANCH   1  17
TORSDOF 4
ENDMDL
MODEL 2
REMARK VINA RESULT: -6.468962926      2.560      4.161
REMARK  4 active torsions:
REMARK  status: ('A' for Active; 'I' for Inactive)
REMARK    1  A    between atoms: C2_2  and  C4_4 
REMARK    2  A    between atoms: C4_4  and  C7_7 
REMARK    3  A    between atoms: C8_12  and  C9_13 
REMARK    4  A    between atoms: C9_13  and  N3_14 
ROOT
HETATM    1  C7  UNL     1      21.929  37.312  23.207  1.00  0.00     0.058 A 
HETATM    2  N1  UNL     1      22.744  38.274  22.683  1.00  0.00    -0.302 N 
ATOM      3  H1  UNL     1      22.728  39.260  22.945  1.00  0.00     0.186 HD
HETATM    4  N2  UNL     1      23.556  37.745  21.785  1.00  0.00    -0.297 N 
ATOM      5  H2  UNL     1      24.257  38.261  21.254  1.00  0.00     0.187 HD
HETATM    6  C8  UNL     1      23.321  36.429  21.676  1.00  0.00     0.087 A 
HETATM    7  C15 UNL     1      22.295  36.161  22.573  1.00  0.00     0.088 A 
HETATM    8 CL1  UNL     1      21.602  34.578  22.832  1.00  0.00    -0.080 Cl
ENDROOT
BRANCH   6   9
HETATM    9  C9  UNL     1      23.964  35.410  20.798  1.00  0.00     0.122 C 
BRANCH   9  10
HETATM   10  N3  UNL     1      25.162  34.868  21.301  1.00  0.00    -0.364 N 
HETATM   11  C10 UNL     1      25.344  33.470  21.235  1.00  0.00     0.157 C 
HETATM   12  C11 UNL     1      26.131  33.129  19.978  1.00  0.00     0.292 C 
HETATM   13  N4  UNL     1      27.406  33.765  19.968  1.00  0.00     0.090 N 
HETATM   14  C12 UNL     1      28.417  33.119  20.744  1.00  0.00     0.310 C 
HETATM   15  C13 UNL     1      27.337  35.194  20.161  1.00  0.00     0.316 C 
HETATM   16  C14 UNL     1      26.352  35.605  21.203  1.00  0.00     0.093 C 
ENDBRANCH   9  10
ENDBRANCH   6   9
BRANCH   1  17
HETATM   17  C4  UNL     1      20.896  37.529  24.229  1.00  0.00     0.001 C 
HETATM   18  C5  UNL     1      20.648  36.223  24.959  1.00  0.00     0.022 C 
HETATM   19  C6  UNL     1      19.565  37.939  23.626  1.00  0.00     0.022 C 
BRANCH  17  20
HETATM   20  C2  UNL     1      21.295  38.576  25.232  1.00  0.00    -0.009 C 
HETATM   21  C1  UNL     1      20.116  38.951  26.101  1.00  0.00     0.011 C 
HETATM   22  C3  UNL     1      22.430  38.163  26.109  1.00  0.00     0.011 C 
ENDBRANCH  17  20
ENDBRANCH   1  17
TORSDOF 4
ENDMDL
MODEL 3
REMARK VINA RESULT: -6.378419717      3.191      4.759
REMARK  4 active torsions:
REMARK  status: ('A' for Active; 'I' for Inactive)
REMARK    1  A    between atoms: C2_2  and  C4_4 
REMARK    2  A    between atoms: C4_4  and  C7_7 
REMARK    3  A    between atoms: C8_12  and  C9_13 
REMARK    4  A    between atoms: C9_13  and  N3_14 
ROOT
HETATM    1  C7  UNL     1      21.604  35.828  22.775  1.00  0.00     0.058 A 
HETATM    2  N1  UNL     1      21.117  34.553  22.836  1.00  0.00    -0.302 N 
ATOM      3  H1  UNL     1      20.308  34.264  23.386  1.00  0.00     0.186 HD
HETATM    4  N2  UNL     1      21.844  33.749  22.082  1.00  0.00    -0.297 N 
ATOM      5  H2  UNL     1      21.680  32.750  21.964  1.00  0.00     0.187 HD
HETATM    6  C8  UNL     1      22.831  34.443  21.494  1.00  0.00     0.087 A 
HETATM    7  C15 UNL     1      22.676  35.750  21.934  1.00  0.00     0.088 A 
HETATM    8 CL1  UNL     1      23.711  37.077  21.462  1.00  0.00    -0.080 Cl
ENDROOT
BRANCH   6   9
HETATM    9  C9  UNL     1      23.907  33.983  20.571  1.00  0.00     0.122 C 
BRANCH   9  10
HETATM   10  N3  UNL     1      25.181  33.864  21.161  1.00  0.00    -0.364 N 
HETATM   11  C10 UNL     1      25.738  32.575  21.299  1.00  0.00     0.157 C 
HETATM   12  C11 UNL     1      26.650  32.297  20.113  1.00  0.00     0.292 C 
HETATM   13  N4  UNL     1      27.703  33.251  20.026  1.00  0.00     0.090 N 
HETATM   14  C12 UNL     1      28.812  33.020  20.898  1.00  0.00     0.310 C 
HETATM   15  C13 UNL     1      27.240  34.619  20.011  1.00  0.00     0.316 C 
HETATM   16  C14 UNL     1      26.130  34.880  20.971  1.00  0.00     0.093 C 
ENDBRANCH   9  10
ENDBRANCH   6   9
BRANCH   1  17
HETATM   17  C4  UNL     1      21.055  36.990  23.486  1.00  0.00     0.001 C 
HETATM   18  C5  UNL     1      19.745  36.589  24.138  1.00  0.00     0.022 C 
HETATM   19  C6  UNL     1      20.730  38.138  22.550  1.00  0.00     0.022 C 
BRANCH  17  20
HETATM   20  C2  UNL     1      21.987  37.503  24.548  1.00  0.00    -0.009 C 
HETATM   21  C1  UNL     1      22.281  38.970  24.327  1.00  0.00     0.011 C 
HETATM   22  C3  UNL     1      21.475  37.317  25.938  1.00  0.00     0.011 C 
ENDBRANCH  17  20
ENDBRANCH   1  17
TORSDOF 4
ENDMDL
MODEL 4
REMARK VINA RESULT: -6.363125614      1.875      6.145
REMARK  4 active torsions:
REMARK  status: ('A' for Active; 'I' for Inactive)
REMARK    1  A    between atoms: C2_2  and  C4_4 
REMARK    2  A    between atoms: C4_4  and  C7_7 
REMARK    3  A    between atoms: C8_12  and  C9_13 
REMARK    4  A    between atoms: C9_13  and  N3_14 
ROOT
HETATM    1  C7  UNL     1      21.768  37.633  23.134  1.00  0.00     0.058 A 
HETATM    2  N1  UNL     1      22.411  38.822  23.328  1.00  0.00    -0.302 N 
ATOM      3  H1  UNL     1      22.817  39.393  22.587  1.00  0.00     0.186 HD
HETATM    4  N2  UNL     1      22.431  39.126  24.613  1.00  0.00    -0.297 N 
ATOM      5  H2  UNL     1      22.856  39.964  25.010  1.00  0.00     0.187 HD
HETATM    6  C8  UNL     1      21.813  38.168  25.319  1.00  0.00     0.087 A 
HETATM    7  C15 UNL     1      21.397  37.230  24.385  1.00  0.00     0.088 A 
HETATM    8 CL1  UNL     1      20.528  35.766  24.778  1.00  0.00    -0.080 Cl
ENDROOT
BRANCH   6   9
HETATM    9  C9  UNL     1      21.591  38.053  26.789  1.00  0.00     0.122 C 
BRANCH   9  10
HETATM   10  N3  UNL     1      20.505  38.800  27.284  1.00  0.00    -0.364 N 
HETATM   11  C10 UNL     1      19.504  39.207  26.377  1.00  0.00     0.157 C 
HETATM   12  C11 UNL     1      18.365  38.198  26.405  1.00  0.00     0.292 C 
HETATM   13  N4  UNL     1      17.796  38.084  27.705  1.00  0.00     0.090 N 
HETATM   14  C12 UNL     1      16.861  39.108  28.055  1.00  0.00     0.310 C 
HETATM   15  C13 UNL     1      18.767  37.797  28.735  1.00  0.00     0.316 C 
HETATM   16  C14 UNL     1      20.036  38.564  28.585  1.00  0.00     0.093 C 
ENDBRANCH   9  10
ENDBRANCH   6   9
BRANCH   1  17
HETATM   17  C4  UNL     1      21.554  36.976  21.838  1.00  0.00     0.001 C 
HETATM   18  C5  UNL     1      22.081  37.880  20.740  1.00  0.00     0.022 C 
HETATM   19  C6  UNL     1      20.084  36.754  21.538  1.00  0.00     0.022 C 
BRANCH  17  20
HETATM   20  C2  UNL     1      22.254  35.648  21.748  1.00  0.00    -0.009 C 
HETATM   21  C1  UNL     1      21.527  34.732  20.790  1.00  0.00     0.011 C 
HETATM   22  C3  UNL     1      23.683  35.750  21.330  1.00  0.00     0.011 C 
ENDBRANCH  17  20
ENDBRANCH   1  17
TORSDOF 4
ENDMDL
MODEL 5
REMARK VINA RESULT: -6.326914866      5.663      7.027
REMARK  4 active torsions:
REMARK  status: ('A' for Active; 'I' for Inactive)
REMARK    1  A    between atoms: C2_2  and  C4_4 
REMARK    2  A    between atoms: C4_4  and  C7_7 
REMARK    3  A    between atoms: C8_12  and  C9_13 
REMARK    4  A    between atoms: C9_13  and  N3_14 
ROOT
HETATM    1  C7  UNL     1      23.323  30.609  23.276  1.00  0.00     0.058 A 
HETATM    2  N1  UNL     1      24.677  30.437  23.249  1.00  0.00    -0.302 N 
ATOM      3  H1  UNL     1      25.184  29.715  23.760  1.00  0.00     0.186 HD
HETATM    4  N2  UNL     1      25.237  31.341  22.465  1.00  0.00    -0.297 N 
ATOM      5  H2  UNL     1      26.237  31.420  22.283  1.00  0.00     0.187 HD
HETATM    6  C8  UNL     1      24.294  32.140  21.944  1.00  0.00     0.087 A 
HETATM    7  C15 UNL     1      23.091  31.677  22.458  1.00  0.00     0.088 A 
HETATM    8 CL1  UNL     1      21.530  32.372  22.092  1.00  0.00    -0.080 Cl
ENDROOT
BRANCH   6   9
HETATM    9  C9  UNL     1      24.427  33.304  21.021  1.00  0.00     0.122 C 
BRANCH   9  10
HETATM   10  N3  UNL     1      25.335  34.294  21.445  1.00  0.00    -0.364 N 
HETATM   11  C10 UNL     1      26.697  34.141  21.110  1.00  0.00     0.157 C 
HETATM   12  C11 UNL     1      26.988  34.921  19.836  1.00  0.00     0.292 C 
HETATM   13  N4  UNL     1      26.700  36.307  19.992  1.00  0.00     0.090 N 
HETATM   14  C12 UNL     1      27.709  37.070  20.656  1.00  0.00     0.310 C 
HETATM   15  C13 UNL     1      25.360  36.567  20.461  1.00  0.00     0.316 C 
HETATM   16  C14 UNL     1      24.914  35.629  21.532  1.00  0.00     0.093 C 
ENDBRANCH   9  10
ENDBRANCH   6   9
BRANCH   1  17
HETATM   17  C4  UNL     1      22.371  29.793  24.043  1.00  0.00     0.001 C 
HETATM   18  C5  UNL     1      21.497  29.023  23.072  1.00  0.00     0.022 C 
HETATM   19  C6  UNL     1      21.432  30.639  24.882  1.00  0.00     0.022 C 
BRANCH  17  20
HETATM   20  C2  UNL     1      23.061  28.817  24.954  1.00  0.00    -0.009 C 
HETATM   21  C1  UNL     1      22.935  29.260  26.394  1.00  0.00     0.011 C 
HETATM   22  C3  UNL     1      22.551  27.419  24.831  1.00  0.00     0.011 C 
ENDBRANCH  17  20
ENDBRANCH   1  17
TORSDOF 4
ENDMDL
