MODEL 1
REMARK VINA RESULT: -7.244369243      0.000      0.000
REMARK  9 active torsions:
REMARK  status: ('A' for Active; 'I' for Inactive)
REMARK    1  A    between atoms: C2_2  and  C3_3 
REMARK    2  A    between atoms: C2_2  and  C15_20 
REMARK    3  A    between atoms: C4_4  and  C5_5 
REMARK       I    between atoms: C5_5  and  N1_7 
REMARK    4  A    between atoms: N1_7  and  C6_9 
REMARK    5  A    between atoms: C13_16  and  O2_18 
REMARK    6  A    between atoms: C15_20  and  C16_21 
REMARK    7  A    between atoms: C16_21  and  N2_22 
REMARK    8  A    between atoms: C16_21  and  C17_26 
REMARK       I    between atoms: C17_26  and  N3_28 
REMARK    9  A    between atoms: N3_28  and  C18_30 
ROOT
HETATM    1  C15 UNL     1      41.734 -23.074  29.457  1.00  0.00     0.051 C 
ENDROOT
BRANCH   1   2
HETATM    2  C2  UNL     1      41.229 -24.226  28.703  1.00  0.00     0.006 C 
HETATM    3  C1  UNL     1      40.102 -24.843  29.666  1.00  0.00     0.014 C 
BRANCH   2   4
HETATM    4  C3  UNL     1      40.459 -24.043  27.471  1.00  0.00    -0.017 C 
HETATM    5  C4  UNL     1      39.540 -24.742  26.897  1.00  0.00     0.070 C 
BRANCH   5   6
HETATM    6  C5  UNL     1      38.882 -24.375  25.653  1.00  0.00     0.241 C 
HETATM    7  O1  UNL     1      38.928 -25.137  24.633  1.00  0.00    -0.269 OA
HETATM    8  N1  UNL     1      38.172 -23.171  25.528  1.00  0.00    -0.350 N 
ATOM      9  H1  UNL     1      38.107 -22.530  26.319  1.00  0.00     0.163 HD
BRANCH   8  10
HETATM   10  C6  UNL     1      37.525 -22.837  24.259  1.00  0.00     0.122 C 
HETATM   11  C7  UNL     1      38.045 -21.480  23.777  1.00  0.00     0.007 C 
HETATM   12  C8  UNL     1      39.531 -21.375  24.036  1.00  0.00     0.012 C 
HETATM   13  C9  UNL     1      37.715 -21.391  22.314  1.00  0.00     0.007 C 
HETATM   14  C10 UNL     1      36.494 -22.198  21.956  1.00  0.00     0.007 C 
HETATM   15  C11 UNL     1      35.488 -22.253  23.069  1.00  0.00     0.018 C 
HETATM   16  C12 UNL     1      34.802 -20.918  23.238  1.00  0.00     0.013 C 
HETATM   17  C13 UNL     1      36.038 -22.754  24.364  1.00  0.00     0.078 C 
HETATM   18  C14 UNL     1      35.458 -24.084  24.788  1.00  0.00     0.048 C 
BRANCH  17  19
HETATM   19  O2  UNL     1      35.735 -21.842  25.389  1.00  0.00    -0.388 OA
ATOM     20  H2  UNL     1      34.856 -21.516  25.233  1.00  0.00     0.210 HD
ENDBRANCH  17  19
ENDBRANCH   8  10
ENDBRANCH   5   6
ENDBRANCH   2   4
ENDBRANCH   1   2
BRANCH   1  21
HETATM   21  C16 UNL     1      40.798 -22.173  30.159  1.00  0.00     0.275 C 
BRANCH  21  22
HETATM   22  N2  UNL     1      41.181 -21.789  31.461  1.00  0.00    -0.066 N 
ATOM     23  H23 UNL     1      40.829 -22.463  32.141  1.00  0.00     0.275 HD
ATOM     24  H22 UNL     1      42.186 -21.919  31.581  1.00  0.00     0.275 HD
ATOM     25  H21 UNL     1      40.917 -20.844  31.739  1.00  0.00     0.275 HD
ENDBRANCH  21  22
BRANCH  21  26
HETATM   26  C17 UNL     1      40.534 -20.918  29.360  1.00  0.00     0.248 C 
HETATM   27  O3  UNL     1      41.499 -20.131  29.235  1.00  0.00    -0.271 OA
HETATM   28  N3  UNL     1      39.302 -20.601  28.775  1.00  0.00    -0.350 N 
ATOM     29  H3  UNL     1      38.537 -21.265  28.898  1.00  0.00     0.163 HD
BRANCH  28  30
HETATM   30  C18 UNL     1      39.031 -19.412  28.015  1.00  0.00     0.034 C 
HETATM   31  C19 UNL     1      38.976 -18.167  28.871  1.00  0.00     0.035 C 
HETATM   32  C20 UNL     1      38.475 -17.004  28.061  1.00  0.00    -0.012 C 
HETATM   33  C21 UNL     1      39.548 -16.708  27.013  1.00  0.00     0.009 C 
HETATM   34  C25 UNL     1      37.147 -17.278  27.428  1.00  0.00     0.009 C 
HETATM   35  C22 UNL     1      39.682 -17.937  26.158  1.00  0.00    -0.012 C 
HETATM   36  C23 UNL     1      38.396 -18.148  25.428  1.00  0.00     0.009 C 
HETATM   37  C27 UNL     1      40.101 -19.161  26.966  1.00  0.00     0.035 C 
HETATM   38  C24 UNL     1      37.312 -18.422  26.454  1.00  0.00    -0.012 C 
HETATM   39  C26 UNL     1      37.744 -19.626  27.250  1.00  0.00     0.035 C 
ENDBRANCH  28  30
ENDBRANCH  21  26
ENDBRANCH   1  21
TORSDOF 9
ENDMDL
MODEL 2
REMARK VINA RESULT: -7.152676693      1.515      2.178
REMARK  9 active torsions:
REMARK  status: ('A' for Active; 'I' for Inactive)
REMARK    1  A    between atoms: C2_2  and  C3_3 
REMARK    2  A    between atoms: C2_2  and  C15_20 
REMARK    3  A    between atoms: C4_4  and  C5_5 
REMARK       I    between atoms: C5_5  and  N1_7 
REMARK    4  A    between atoms: N1_7  and  C6_9 
REMARK    5  A    between atoms: C13_16  and  O2_18 
REMARK    6  A    between atoms: C15_20  and  C16_21 
REMARK    7  A    between atoms: C16_21  and  N2_22 
REMARK    8  A    between atoms: C16_21  and  C17_26 
REMARK       I    between atoms: C17_26  and  N3_28 
REMARK    9  A    between atoms: N3_28  and  C18_30 
ROOT
HETATM    1  C15 UNL     1      41.728 -23.032  29.476  1.00  0.00     0.051 C 
ENDROOT
BRANCH   1   2
HETATM    2  C2  UNL     1      41.260 -24.299  28.905  1.00  0.00     0.006 C 
HETATM    3  C1  UNL     1      40.197 -24.830  29.986  1.00  0.00     0.014 C 
BRANCH   2   4
HETATM    4  C3  UNL     1      40.442 -24.323  27.690  1.00  0.00    -0.017 C 
HETATM    5  C4  UNL     1      40.257 -23.473  26.739  1.00  0.00     0.070 C 
BRANCH   5   6
HETATM    6  C5  UNL     1      39.390 -23.697  25.593  1.00  0.00     0.241 C 
HETATM    7  O1  UNL     1      39.732 -23.324  24.424  1.00  0.00    -0.269 OA
HETATM    8  N1  UNL     1      38.145 -24.331  25.729  1.00  0.00    -0.350 N 
ATOM      9  H1  UNL     1      37.830 -24.649  26.646  1.00  0.00     0.163 HD
BRANCH   8  10
HETATM   10  C6  UNL     1      37.302 -24.537  24.552  1.00  0.00     0.122 C 
HETATM   11  C7  UNL     1      35.950 -23.855  24.784  1.00  0.00     0.007 C 
HETATM   12  C8  UNL     1      36.154 -22.525  25.472  1.00  0.00     0.012 C 
HETATM   13  C9  UNL     1      35.309 -23.705  23.433  1.00  0.00     0.007 C 
HETATM   14  C10 UNL     1      35.758 -24.773  22.469  1.00  0.00     0.007 C 
HETATM   15  C11 UNL     1      36.056 -26.079  23.146  1.00  0.00     0.018 C 
HETATM   16  C12 UNL     1      34.780 -26.748  23.603  1.00  0.00     0.013 C 
HETATM   17  C13 UNL     1      37.050 -25.978  24.256  1.00  0.00     0.078 C 
HETATM   18  C14 UNL     1      38.347 -26.698  23.966  1.00  0.00     0.048 C 
BRANCH  17  19
HETATM   19  O2  UNL     1      36.520 -26.565  25.417  1.00  0.00    -0.388 OA
ATOM     20  H2  UNL     1      36.036 -25.894  25.884  1.00  0.00     0.210 HD
ENDBRANCH  17  19
ENDBRANCH   8  10
ENDBRANCH   5   6
ENDBRANCH   2   4
ENDBRANCH   1   2
BRANCH   1  21
HETATM   21  C16 UNL     1      40.786 -22.130  30.166  1.00  0.00     0.275 C 
BRANCH  21  22
HETATM   22  N2  UNL     1      41.155 -21.743  31.472  1.00  0.00    -0.066 N 
ATOM     23  H23 UNL     1      41.949 -21.105  31.434  1.00  0.00     0.275 HD
ATOM     24  H22 UNL     1      40.445 -21.127  31.866  1.00  0.00     0.275 HD
ATOM     25  H21 UNL     1      41.352 -22.506  32.120  1.00  0.00     0.275 HD
ENDBRANCH  21  22
BRANCH  21  26
HETATM   26  C17 UNL     1      40.529 -20.876  29.363  1.00  0.00     0.248 C 
HETATM   27  O3  UNL     1      41.504 -20.105  29.218  1.00  0.00    -0.271 OA
HETATM   28  N3  UNL     1      39.294 -20.545  28.792  1.00  0.00    -0.350 N 
ATOM     29  H3  UNL     1      38.521 -21.196  28.930  1.00  0.00     0.163 HD
BRANCH  28  30
HETATM   30  C18 UNL     1      39.031 -19.357  28.027  1.00  0.00     0.034 C 
HETATM   31  C19 UNL     1      39.047 -18.100  28.869  1.00  0.00     0.035 C 
HETATM   32  C20 UNL     1      38.551 -16.933  28.063  1.00  0.00    -0.012 C 
HETATM   33  C21 UNL     1      39.591 -16.683  26.972  1.00  0.00     0.009 C 
HETATM   34  C25 UNL     1      37.192 -17.172  27.484  1.00  0.00     0.009 C 
HETATM   35  C22 UNL     1      39.655 -17.925  26.128  1.00  0.00    -0.012 C 
HETATM   36  C23 UNL     1      38.336 -18.104  25.450  1.00  0.00     0.009 C 
HETATM   37  C27 UNL     1      40.067 -19.152  26.935  1.00  0.00     0.035 C 
HETATM   38  C24 UNL     1      37.284 -18.333  26.520  1.00  0.00    -0.012 C 
HETATM   39  C26 UNL     1      37.709 -19.540  27.314  1.00  0.00     0.035 C 
ENDBRANCH  28  30
ENDBRANCH  21  26
ENDBRANCH   1  21
TORSDOF 9
ENDMDL
MODEL 3
REMARK VINA RESULT: -7.134893245      1.087      1.258
REMARK  9 active torsions:
REMARK  status: ('A' for Active; 'I' for Inactive)
REMARK    1  A    between atoms: C2_2  and  C3_3 
REMARK    2  A    between atoms: C2_2  and  C15_20 
REMARK    3  A    between atoms: C4_4  and  C5_5 
REMARK       I    between atoms: C5_5  and  N1_7 
REMARK    4  A    between atoms: N1_7  and  C6_9 
REMARK    5  A    between atoms: C13_16  and  O2_18 
REMARK    6  A    between atoms: C15_20  and  C16_21 
REMARK    7  A    between atoms: C16_21  and  N2_22 
REMARK    8  A    between atoms: C16_21  and  C17_26 
REMARK       I    between atoms: C17_26  and  N3_28 
REMARK    9  A    between atoms: N3_28  and  C18_30 
ROOT
HETATM    1  C15 UNL     1      41.486 -23.085  28.978  1.00  0.00     0.051 C 
ENDROOT
BRANCH   1   2
HETATM    2  C2  UNL     1      40.914 -24.269  28.327  1.00  0.00     0.006 C 
HETATM    3  C1  UNL     1      40.255 -25.087  29.543  1.00  0.00     0.014 C 
BRANCH   2   4
HETATM    4  C3  UNL     1      39.765 -24.154  27.427  1.00  0.00    -0.017 C 
HETATM    5  C4  UNL     1      39.310 -24.904  26.482  1.00  0.00     0.070 C 
BRANCH   5   6
HETATM    6  C5  UNL     1      38.124 -24.609  25.694  1.00  0.00     0.241 C 
HETATM    7  O1  UNL     1      37.104 -25.370  25.727  1.00  0.00    -0.269 OA
HETATM    8  N1  UNL     1      38.056 -23.474  24.870  1.00  0.00    -0.350 N 
ATOM      9  H1  UNL     1      38.849 -22.834  24.814  1.00  0.00     0.163 HD
BRANCH   8  10
HETATM   10  C6  UNL     1      36.846 -23.212  24.093  1.00  0.00     0.122 C 
HETATM   11  C7  UNL     1      37.201 -23.209  22.603  1.00  0.00     0.007 C 
HETATM   12  C8  UNL     1      38.189 -24.315  22.307  1.00  0.00     0.012 C 
HETATM   13  C9  UNL     1      35.911 -23.384  21.855  1.00  0.00     0.007 C 
HETATM   14  C10 UNL     1      34.731 -22.840  22.620  1.00  0.00     0.007 C 
HETATM   15  C11 UNL     1      35.087 -21.655  23.469  1.00  0.00     0.018 C 
HETATM   16  C12 UNL     1      35.344 -20.438  22.609  1.00  0.00     0.013 C 
HETATM   17  C13 UNL     1      36.211 -21.901  24.420  1.00  0.00     0.078 C 
HETATM   18  C14 UNL     1      35.789 -21.860  25.872  1.00  0.00     0.048 C 
BRANCH  17  19
HETATM   19  O2  UNL     1      37.189 -20.904  24.263  1.00  0.00    -0.388 OA
ATOM     20  H2  UNL     1      37.344 -20.515  25.116  1.00  0.00     0.210 HD
ENDBRANCH  17  19
ENDBRANCH   8  10
ENDBRANCH   5   6
ENDBRANCH   2   4
ENDBRANCH   1   2
BRANCH   1  21
HETATM   21  C16 UNL     1      40.642 -22.217  29.822  1.00  0.00     0.275 C 
BRANCH  21  22
HETATM   22  N2  UNL     1      41.123 -21.980  31.127  1.00  0.00    -0.066 N 
ATOM     23  H23 UNL     1      41.066 -20.986  31.344  1.00  0.00     0.275 HD
ATOM     24  H22 UNL     1      40.466 -22.353  31.813  1.00  0.00     0.275 HD
ATOM     25  H21 UNL     1      42.062 -22.326  31.322  1.00  0.00     0.275 HD
ENDBRANCH  21  22
BRANCH  21  26
HETATM   26  C17 UNL     1      40.395 -20.878  29.166  1.00  0.00     0.248 C 
HETATM   27  O3  UNL     1      41.357 -20.078  29.166  1.00  0.00    -0.271 OA
HETATM   28  N3  UNL     1      39.182 -20.501  28.578  1.00  0.00    -0.350 N 
ATOM     29  H3  UNL     1      38.419 -21.178  28.595  1.00  0.00     0.163 HD
BRANCH  28  30
HETATM   30  C18 UNL     1      38.927 -19.233  27.952  1.00  0.00     0.034 C 
HETATM   31  C19 UNL     1      39.035 -18.070  28.913  1.00  0.00     0.035 C 
HETATM   32  C20 UNL     1      38.546 -16.810  28.257  1.00  0.00    -0.012 C 
HETATM   33  C21 UNL     1      39.539 -16.485  27.142  1.00  0.00     0.009 C 
HETATM   34  C25 UNL     1      37.151 -16.942  27.731  1.00  0.00     0.009 C 
HETATM   35  C22 UNL     1      39.511 -17.635  26.175  1.00  0.00    -0.012 C 
HETATM   36  C23 UNL     1      38.153 -17.699  25.555  1.00  0.00     0.009 C 
HETATM   37  C27 UNL     1      39.914 -18.952  26.831  1.00  0.00     0.035 C 
HETATM   38  C24 UNL     1      37.149 -18.000  26.651  1.00  0.00    -0.012 C 
HETATM   39  C26 UNL     1      37.565 -19.296  27.296  1.00  0.00     0.035 C 
ENDBRANCH  28  30
ENDBRANCH  21  26
ENDBRANCH   1  21
TORSDOF 9
ENDMDL
MODEL 4
REMARK VINA RESULT: -7.081451788      1.718      2.736
REMARK  9 active torsions:
REMARK  status: ('A' for Active; 'I' for Inactive)
REMARK    1  A    between atoms: C2_2  and  C3_3 
REMARK    2  A    between atoms: C2_2  and  C15_20 
REMARK    3  A    between atoms: C4_4  and  C5_5 
REMARK       I    between atoms: C5_5  and  N1_7 
REMARK    4  A    between atoms: N1_7  and  C6_9 
REMARK    5  A    between atoms: C13_16  and  O2_18 
REMARK    6  A    between atoms: C15_20  and  C16_21 
REMARK    7  A    between atoms: C16_21  and  N2_22 
REMARK    8  A    between atoms: C16_21  and  C17_26 
REMARK       I    between atoms: C17_26  and  N3_28 
REMARK    9  A    between atoms: N3_28  and  C18_30 
ROOT
HETATM    1  C15 UNL     1      40.697 -23.247  30.344  1.00  0.00     0.051 C 
ENDROOT
BRANCH   1   2
HETATM    2  C2  UNL     1      41.112 -24.209  29.317  1.00  0.00     0.006 C 
HETATM    3  C1  UNL     1      40.786 -25.635  29.981  1.00  0.00     0.014 C 
BRANCH   2   4
HETATM    4  C3  UNL     1      40.381 -24.328  28.054  1.00  0.00    -0.017 C 
HETATM    5  C4  UNL     1      40.321 -23.588  27.000  1.00  0.00     0.070 C 
BRANCH   5   6
HETATM    6  C5  UNL     1      39.521 -23.893  25.824  1.00  0.00     0.241 C 
HETATM    7  O1  UNL     1      39.941 -23.622  24.652  1.00  0.00    -0.269 OA
HETATM    8  N1  UNL     1      38.260 -24.498  25.933  1.00  0.00    -0.350 N 
ATOM      9  H1  UNL     1      37.883 -24.736  26.851  1.00  0.00     0.163 HD
BRANCH   8  10
HETATM   10  C6  UNL     1      37.486 -24.788  24.727  1.00  0.00     0.122 C 
HETATM   11  C7  UNL     1      36.106 -24.137  24.851  1.00  0.00     0.007 C 
HETATM   12  C8  UNL     1      36.237 -22.767  25.479  1.00  0.00     0.012 C 
HETATM   13  C9  UNL     1      35.535 -24.075  23.463  1.00  0.00     0.007 C 
HETATM   14  C10 UNL     1      36.063 -25.176  22.581  1.00  0.00     0.007 C 
HETATM   15  C11 UNL     1      36.359 -26.436  23.340  1.00  0.00     0.018 C 
HETATM   16  C12 UNL     1      35.080 -27.119  23.765  1.00  0.00     0.013 C 
HETATM   17  C13 UNL     1      37.289 -26.250  24.493  1.00  0.00     0.078 C 
HETATM   18  C14 UNL     1      38.620 -26.944  24.309  1.00  0.00     0.048 C 
BRANCH  17  19
HETATM   19  O2  UNL     1      36.715 -26.792  25.655  1.00  0.00    -0.388 OA
ATOM     20  H2  UNL     1      36.232 -27.570  25.401  1.00  0.00     0.210 HD
ENDBRANCH  17  19
ENDBRANCH   8  10
ENDBRANCH   5   6
ENDBRANCH   2   4
ENDBRANCH   1   2
BRANCH   1  21
HETATM   21  C16 UNL     1      41.436 -21.983  30.525  1.00  0.00     0.275 C 
BRANCH  21  22
HETATM   22  N2  UNL     1      42.841 -22.079  30.437  1.00  0.00    -0.066 N 
ATOM     23  H23 UNL     1      43.179 -22.813  31.058  1.00  0.00     0.275 HD
ATOM     24  H22 UNL     1      43.107 -22.468  29.532  1.00  0.00     0.275 HD
ATOM     25  H21 UNL     1      43.354 -21.214  30.608  1.00  0.00     0.275 HD
ENDBRANCH  21  22
BRANCH  21  26
HETATM   26  C17 UNL     1      40.977 -20.928  29.544  1.00  0.00     0.248 C 
HETATM   27  O3  UNL     1      41.847 -20.113  29.165  1.00  0.00    -0.271 OA
HETATM   28  N3  UNL     1      39.669 -20.822  29.056  1.00  0.00    -0.350 N 
ATOM     29  H3  UNL     1      38.986 -21.504  29.386  1.00  0.00     0.163 HD
BRANCH  28  30
HETATM   30  C18 UNL     1      39.214 -19.826  28.126  1.00  0.00     0.034 C 
HETATM   31  C19 UNL     1      40.059 -19.762  26.873  1.00  0.00     0.035 C 
HETATM   32  C20 UNL     1      39.673 -18.565  26.050  1.00  0.00    -0.012 C 
HETATM   33  C21 UNL     1      38.252 -18.822  25.548  1.00  0.00     0.009 C 
HETATM   34  C25 UNL     1      39.762 -17.286  26.821  1.00  0.00     0.009 C 
HETATM   35  C22 UNL     1      37.370 -18.944  26.758  1.00  0.00    -0.012 C 
HETATM   36  C23 UNL     1      37.358 -17.630  27.470  1.00  0.00     0.009 C 
HETATM   37  C27 UNL     1      37.791 -20.095  27.667  1.00  0.00     0.035 C 
HETATM   38  C24 UNL     1      38.766 -17.347  27.958  1.00  0.00    -0.012 C 
HETATM   39  C26 UNL     1      39.172 -18.495  28.845  1.00  0.00     0.035 C 
ENDBRANCH  28  30
ENDBRANCH  21  26
ENDBRANCH   1  21
TORSDOF 9
ENDMDL
MODEL 5
REMARK VINA RESULT: -7.065818251      2.256      6.635
REMARK  9 active torsions:
REMARK  status: ('A' for Active; 'I' for Inactive)
REMARK    1  A    between atoms: C2_2  and  C3_3 
REMARK    2  A    between atoms: C2_2  and  C15_20 
REMARK    3  A    between atoms: C4_4  and  C5_5 
REMARK       I    between atoms: C5_5  and  N1_7 
REMARK    4  A    between atoms: N1_7  and  C6_9 
REMARK    5  A    between atoms: C13_16  and  O2_18 
REMARK    6  A    between atoms: C15_20  and  C16_21 
REMARK    7  A    between atoms: C16_21  and  N2_22 
REMARK    8  A    between atoms: C16_21  and  C17_26 
REMARK       I    between atoms: C17_26  and  N3_28 
REMARK    9  A    between atoms: N3_28  and  C18_30 
ROOT
HETATM    1  C15 UNL     1      38.919 -16.169  27.058  1.00  0.00     0.051 C 
ENDROOT
BRANCH   1   2
HETATM    2  C2  UNL     1      38.795 -16.799  28.378  1.00  0.00     0.006 C 
HETATM    3  C1  UNL     1      37.247 -16.591  28.752  1.00  0.00     0.014 C 
BRANCH   2   4
HETATM    4  C3  UNL     1      38.917 -18.250  28.536  1.00  0.00    -0.017 C 
HETATM    5  C4  UNL     1      39.605 -19.147  27.916  1.00  0.00     0.070 C 
BRANCH   5   6
HETATM    6  C5  UNL     1      39.590 -20.565  28.239  1.00  0.00     0.241 C 
HETATM    7  O1  UNL     1      38.499 -21.174  28.483  1.00  0.00    -0.269 OA
HETATM    8  N1  UNL     1      40.775 -21.316  28.292  1.00  0.00    -0.350 N 
ATOM      9  H1  UNL     1      41.673 -20.871  28.102  1.00  0.00     0.163 HD
BRANCH   8  10
HETATM   10  C6  UNL     1      40.718 -22.740  28.621  1.00  0.00     0.122 C 
HETATM   11  C7  UNL     1      41.597 -23.003  29.848  1.00  0.00     0.007 C 
HETATM   12  C8  UNL     1      41.431 -21.883  30.850  1.00  0.00     0.012 C 
HETATM   13  C9  UNL     1      41.169 -24.331  30.403  1.00  0.00     0.007 C 
HETATM   14  C10 UNL     1      40.610 -25.240  29.339  1.00  0.00     0.007 C 
HETATM   15  C11 UNL     1      41.252 -25.028  27.999  1.00  0.00     0.018 C 
HETATM   16  C12 UNL     1      42.667 -25.560  27.992  1.00  0.00     0.013 C 
HETATM   17  C13 UNL     1      41.196 -23.617  27.512  1.00  0.00     0.078 C 
HETATM   18  C14 UNL     1      40.333 -23.441  26.283  1.00  0.00     0.048 C 
BRANCH  17  19
HETATM   19  O2  UNL     1      42.486 -23.189  27.157  1.00  0.00    -0.388 OA
ATOM     20  H2  UNL     1      42.399 -22.360  26.701  1.00  0.00     0.210 HD
ENDBRANCH  17  19
ENDBRANCH   8  10
ENDBRANCH   5   6
ENDBRANCH   2   4
ENDBRANCH   1   2
BRANCH   1  21
HETATM   21  C16 UNL     1      37.751 -16.081  26.161  1.00  0.00     0.275 C 
BRANCH  21  22
HETATM   22  N2  UNL     1      37.686 -14.926  25.353  1.00  0.00    -0.066 N 
ATOM     23  H23 UNL     1      38.553 -14.822  24.826  1.00  0.00     0.275 HD
ATOM     24  H22 UNL     1      37.026 -15.072  24.590  1.00  0.00     0.275 HD
ATOM     25  H21 UNL     1      37.469 -14.057  25.841  1.00  0.00     0.275 HD
ENDBRANCH  21  22
BRANCH  21  26
HETATM   26  C17 UNL     1      37.654 -17.289  25.258  1.00  0.00     0.248 C 
HETATM   27  O3  UNL     1      38.240 -17.201  24.156  1.00  0.00    -0.271 OA
HETATM   28  N3  UNL     1      36.961 -18.462  25.582  1.00  0.00    -0.350 N 
ATOM     29  H3  UNL     1      36.496 -18.499  26.489  1.00  0.00     0.163 HD
BRANCH  28  30
HETATM   30  C18 UNL     1      36.857 -19.619  24.737  1.00  0.00     0.034 C 
HETATM   31  C19 UNL     1      36.190 -19.320  23.412  1.00  0.00     0.035 C 
HETATM   32  C20 UNL     1      35.912 -20.599  22.673  1.00  0.00    -0.012 C 
HETATM   33  C21 UNL     1      37.271 -21.190  22.299  1.00  0.00     0.009 C 
HETATM   34  C25 UNL     1      35.096 -21.560  23.479  1.00  0.00     0.009 C 
HETATM   35  C22 UNL     1      38.003 -21.464  23.583  1.00  0.00    -0.012 C 
HETATM   36  C23 UNL     1      37.256 -22.513  24.340  1.00  0.00     0.009 C 
HETATM   37  C27 UNL     1      38.221 -20.197  24.405  1.00  0.00     0.035 C 
HETATM   38  C24 UNL     1      35.894 -21.952  24.702  1.00  0.00    -0.012 C 
HETATM   39  C26 UNL     1      36.125 -20.698  25.504  1.00  0.00     0.035 C 
ENDBRANCH  28  30
ENDBRANCH  21  26
ENDBRANCH   1  21
TORSDOF 9
ENDMDL
