MODEL 1
REMARK VINA RESULT: -7.979937626      0.000      0.000
REMARK  10 active torsions:
REMARK  status: ('A' for Active; 'I' for Inactive)
REMARK    1  A    between atoms: C2_2  and  C3_3 
REMARK       I    between atoms: C3_3  and  N1_5 
REMARK    2  A    between atoms: N1_5  and  C4_7 
REMARK    3  A    between atoms: C4_7  and  C5_8 
REMARK    4  A    between atoms: C5_8  and  C6_9 
REMARK    5  A    between atoms: C6_9  and  C7_10 
REMARK    6  A    between atoms: C7_10  and  N2_11 
REMARK    7  A    between atoms: N3_27  and  C20_28 
REMARK    8  A    between atoms: C20_28  and  C21_29 
REMARK    9  A    between atoms: C21_29  and  C22_30 
REMARK   10  A    between atoms: C22_30  and  N4_31 
ROOT
HETATM    1  C1  UNL     1      38.153 -26.654  23.318  1.00  0.00     0.030 C 
HETATM    2  C2  UNL     1      37.042 -26.249  24.275  1.00  0.00     0.056 C 
HETATM    3  C8  UNL     1      36.746 -24.807  24.194  1.00  0.00     0.000 C 
HETATM    4  C9  UNL     1      37.465 -23.940  24.884  1.00  0.00    -0.049 C 
HETATM    5  C10 UNL     1      38.553 -24.407  25.729  1.00  0.00    -0.055 C 
HETATM    6  C11 UNL     1      39.323 -23.395  26.090  1.00  0.00    -0.009 C 
HETATM    7  C12 UNL     1      38.830 -22.109  25.517  1.00  0.00    -0.014 C 
HETATM    8  C13 UNL     1      39.678 -21.855  24.275  1.00  0.00     0.021 C 
HETATM    9  C14 UNL     1      37.454 -22.464  25.041  1.00  0.00     0.031 C 
HETATM   10  C15 UNL     1      36.429 -21.967  26.013  1.00  0.00     0.011 C 
HETATM   11  C16 UNL     1      36.519 -20.451  25.970  1.00  0.00     0.006 C 
HETATM   12  C17 UNL     1      37.832 -20.032  26.598  1.00  0.00    -0.003 C 
HETATM   13  C18 UNL     1      38.157 -18.676  26.023  1.00  0.00     0.028 C 
HETATM   14  C19 UNL     1      37.088 -17.706  26.448  1.00  0.00     0.278 C 
HETATM   15  N3  UNL     1      37.703 -16.625  27.128  1.00  0.00     0.089 N 
HETATM   16  C23 UNL     1      39.077 -16.938  27.369  1.00  0.00     0.282 C 
HETATM   17  C24 UNL     1      39.447 -18.104  26.482  1.00  0.00    -0.012 C 
HETATM   18  C25 UNL     1      40.189 -17.510  25.287  1.00  0.00     0.017 C 
HETATM   19  C26 UNL     1      40.282 -19.123  27.184  1.00  0.00     0.012 C 
HETATM   20  C27 UNL     1      40.297 -20.359  26.310  1.00  0.00     0.007 C 
HETATM   21  C28 UNL     1      38.924 -21.025  26.518  1.00  0.00     0.002 C 
HETATM   22  C29 UNL     1      38.710 -25.843  26.094  1.00  0.00     0.040 C 
HETATM   23  C30 UNL     1      37.492 -26.612  25.677  1.00  0.00     0.027 C 
ENDROOT
BRANCH   2  24
HETATM   24  C3  UNL     1      35.825 -27.010  23.951  1.00  0.00     0.229 C 
HETATM   25  O1  UNL     1      34.743 -26.682  24.501  1.00  0.00    -0.272 OA
HETATM   26  N1  UNL     1      35.825 -28.107  23.038  1.00  0.00    -0.360 N 
ATOM     27  H1  UNL     1      36.693 -28.388  22.583  1.00  0.00     0.162 HD
BRANCH  26  28
HETATM   28  C4  UNL     1      34.613 -28.813  22.756  1.00  0.00     0.122 C 
BRANCH  28  29
HETATM   29  C5  UNL     1      34.597 -30.201  23.293  1.00  0.00     0.021 C 
BRANCH  29  30
HETATM   30  C6  UNL     1      33.936 -30.412  24.602  1.00  0.00     0.029 C 
BRANCH  30  31
HETATM   31  C7  UNL     1      34.813 -30.516  25.800  1.00  0.00     0.229 C 
BRANCH  31  32
HETATM   32  N2  UNL     1      35.107 -29.283  26.467  1.00  0.00    -0.079 N 
ATOM     33  H23 UNL     1      35.230 -28.538  25.782  1.00  0.00     0.274 HD
ATOM     34  H22 UNL     1      34.278 -28.947  26.956  1.00  0.00     0.274 HD
ATOM     35  H21 UNL     1      35.903 -29.301  27.106  1.00  0.00     0.274 HD
ENDBRANCH  31  32
ENDBRANCH  30  31
ENDBRANCH  29  30
ENDBRANCH  28  29
ENDBRANCH  26  28
ENDBRANCH   2  24
BRANCH  15  36
HETATM   36  C20 UNL     1      37.073 -16.293  28.390  1.00  0.00     0.274 C 
BRANCH  36  37
HETATM   37  C21 UNL     1      37.337 -14.812  28.694  1.00  0.00     0.057 C 
BRANCH  37  38
HETATM   38  C22 UNL     1      36.379 -13.956  27.881  1.00  0.00     0.231 C 
BRANCH  38  39
HETATM   39  N4  UNL     1      37.015 -12.718  27.528  1.00  0.00    -0.079 N 
ATOM     40  H43 UNL     1      36.346 -12.022  27.198  1.00  0.00     0.274 HD
ATOM     41  H42 UNL     1      37.359 -12.215  28.346  1.00  0.00     0.274 HD
ATOM     42  H41 UNL     1      37.754 -12.892  26.847  1.00  0.00     0.274 HD
ENDBRANCH  38  39
ENDBRANCH  37  38
ENDBRANCH  36  37
ENDBRANCH  15  36
TORSDOF 10
ENDMDL
MODEL 2
REMARK VINA RESULT: -7.478338040      5.981     11.443
REMARK  10 active torsions:
REMARK  status: ('A' for Active; 'I' for Inactive)
REMARK    1  A    between atoms: C2_2  and  C3_3 
REMARK       I    between atoms: C3_3  and  N1_5 
REMARK    2  A    between atoms: N1_5  and  C4_7 
REMARK    3  A    between atoms: C4_7  and  C5_8 
REMARK    4  A    between atoms: C5_8  and  C6_9 
REMARK    5  A    between atoms: C6_9  and  C7_10 
REMARK    6  A    between atoms: C7_10  and  N2_11 
REMARK    7  A    between atoms: N3_27  and  C20_28 
REMARK    8  A    between atoms: C20_28  and  C21_29 
REMARK    9  A    between atoms: C21_29  and  C22_30 
REMARK   10  A    between atoms: C22_30  and  N4_31 
ROOT
HETATM    1  C1  UNL     1      40.185 -18.946  27.114  1.00  0.00     0.030 C 
HETATM    2  C2  UNL     1      39.908 -19.619  28.449  1.00  0.00     0.056 C 
HETATM    3  C8  UNL     1      41.130 -20.202  29.034  1.00  0.00     0.000 C 
HETATM    4  C9  UNL     1      41.533 -21.406  28.670  1.00  0.00    -0.049 C 
HETATM    5  C10 UNL     1      40.771 -22.163  27.689  1.00  0.00    -0.055 C 
HETATM    6  C11 UNL     1      41.480 -23.186  27.246  1.00  0.00    -0.009 C 
HETATM    7  C12 UNL     1      42.824 -23.234  27.890  1.00  0.00    -0.014 C 
HETATM    8  C13 UNL     1      43.784 -22.589  26.896  1.00  0.00     0.021 C 
HETATM    9  C14 UNL     1      42.677 -22.279  29.036  1.00  0.00     0.031 C 
HETATM   10  C15 UNL     1      42.475 -23.036  30.313  1.00  0.00     0.011 C 
HETATM   11  C16 UNL     1      43.769 -23.795  30.552  1.00  0.00     0.006 C 
HETATM   12  C17 UNL     1      43.881 -24.888  29.510  1.00  0.00    -0.003 C 
HETATM   13  C18 UNL     1      45.352 -25.199  29.387  1.00  0.00     0.028 C 
HETATM   14  C19 UNL     1      45.840 -25.737  30.705  1.00  0.00     0.278 C 
HETATM   15  N3  UNL     1      46.419 -27.012  30.486  1.00  0.00     0.089 N 
HETATM   16  C23 UNL     1      46.139 -27.435  29.149  1.00  0.00     0.282 C 
HETATM   17  C24 UNL     1      45.683 -26.225  28.367  1.00  0.00    -0.012 C 
HETATM   18  C25 UNL     1      46.892 -25.761  27.559  1.00  0.00     0.017 C 
HETATM   19  C26 UNL     1      44.519 -26.514  27.480  1.00  0.00     0.012 C 
HETATM   20  C27 UNL     1      43.969 -25.179  27.025  1.00  0.00     0.007 C 
HETATM   21  C28 UNL     1      43.187 -24.625  28.231  1.00  0.00     0.002 C 
HETATM   22  C29 UNL     1      39.388 -21.775  27.294  1.00  0.00     0.040 C 
HETATM   23  C30 UNL     1      38.876 -20.703  28.209  1.00  0.00     0.027 C 
ENDROOT
BRANCH   2  24
HETATM   24  C3  UNL     1      39.352 -18.628  29.383  1.00  0.00     0.229 C 
HETATM   25  O1  UNL     1      39.758 -18.624  30.573  1.00  0.00    -0.272 OA
HETATM   26  N1  UNL     1      38.368 -17.670  28.991  1.00  0.00    -0.360 N 
ATOM     27  H1  UNL     1      38.026 -17.659  28.031  1.00  0.00     0.162 HD
BRANCH  26  28
HETATM   28  C4  UNL     1      37.860 -16.726  29.938  1.00  0.00     0.122 C 
BRANCH  28  29
HETATM   29  C5  UNL     1      37.580 -15.387  29.349  1.00  0.00     0.021 C 
BRANCH  29  30
HETATM   30  C6  UNL     1      36.308 -15.228  28.607  1.00  0.00     0.029 C 
BRANCH  30  31
HETATM   31  C7  UNL     1      35.586 -13.936  28.763  1.00  0.00     0.229 C 
BRANCH  31  32
HETATM   32  N2  UNL     1      36.249 -12.782  28.233  1.00  0.00    -0.079 N 
ATOM     33  H23 UNL     1      36.505 -12.151  28.992  1.00  0.00     0.274 HD
ATOM     34  H22 UNL     1      37.173 -13.040  27.890  1.00  0.00     0.274 HD
ATOM     35  H21 UNL     1      35.741 -12.270  27.512  1.00  0.00     0.274 HD
ENDBRANCH  31  32
ENDBRANCH  30  31
ENDBRANCH  29  30
ENDBRANCH  28  29
ENDBRANCH  26  28
ENDBRANCH   2  24
BRANCH  15  36
HETATM   36  C20 UNL     1      45.954 -28.032  31.404  1.00  0.00     0.274 C 
BRANCH  36  37
HETATM   37  C21 UNL     1      45.542 -29.268  30.594  1.00  0.00     0.057 C 
BRANCH  37  38
HETATM   38  C22 UNL     1      44.638 -30.146  31.445  1.00  0.00     0.231 C 
BRANCH  38  39
HETATM   39  N4  UNL     1      45.371 -31.290  31.909  1.00  0.00    -0.079 N 
ATOM     40  H43 UNL     1      45.550 -31.961  31.161  1.00  0.00     0.274 HD
ATOM     41  H42 UNL     1      46.339 -31.061  32.136  1.00  0.00     0.274 HD
ATOM     42  H41 UNL     1      44.883 -31.716  32.697  1.00  0.00     0.274 HD
ENDBRANCH  38  39
ENDBRANCH  37  38
ENDBRANCH  36  37
ENDBRANCH  15  36
TORSDOF 10
ENDMDL
MODEL 3
REMARK VINA RESULT: -7.402369756      0.989      1.599
REMARK  10 active torsions:
REMARK  status: ('A' for Active; 'I' for Inactive)
REMARK    1  A    between atoms: C2_2  and  C3_3 
REMARK       I    between atoms: C3_3  and  N1_5 
REMARK    2  A    between atoms: N1_5  and  C4_7 
REMARK    3  A    between atoms: C4_7  and  C5_8 
REMARK    4  A    between atoms: C5_8  and  C6_9 
REMARK    5  A    between atoms: C6_9  and  C7_10 
REMARK    6  A    between atoms: C7_10  and  N2_11 
REMARK    7  A    between atoms: N3_27  and  C20_28 
REMARK    8  A    between atoms: C20_28  and  C21_29 
REMARK    9  A    between atoms: C21_29  and  C22_30 
REMARK   10  A    between atoms: C22_30  and  N4_31 
ROOT
HETATM    1  C1  UNL     1      37.972 -26.400  23.408  1.00  0.00     0.030 C 
HETATM    2  C2  UNL     1      36.957 -26.019  24.474  1.00  0.00     0.056 C 
HETATM    3  C8  UNL     1      36.652 -24.576  24.453  1.00  0.00     0.000 C 
HETATM    4  C9  UNL     1      37.433 -23.722  25.089  1.00  0.00    -0.049 C 
HETATM    5  C10 UNL     1      38.597 -24.202  25.816  1.00  0.00    -0.055 C 
HETATM    6  C11 UNL     1      39.396 -23.195  26.124  1.00  0.00    -0.009 C 
HETATM    7  C12 UNL     1      38.849 -21.899  25.627  1.00  0.00    -0.014 C 
HETATM    8  C13 UNL     1      39.574 -21.617  24.316  1.00  0.00     0.021 C 
HETATM    9  C14 UNL     1      37.434 -22.249  25.276  1.00  0.00     0.031 C 
HETATM   10  C15 UNL     1      36.505 -21.775  26.352  1.00  0.00     0.011 C 
HETATM   11  C16 UNL     1      36.589 -20.259  26.332  1.00  0.00     0.006 C 
HETATM   12  C17 UNL     1      37.955 -19.848  26.841  1.00  0.00    -0.003 C 
HETATM   13  C18 UNL     1      38.222 -18.480  26.266  1.00  0.00     0.028 C 
HETATM   14  C19 UNL     1      37.196 -17.522  26.811  1.00  0.00     0.278 C 
HETATM   15  N3  UNL     1      37.871 -16.454  27.451  1.00  0.00     0.089 N 
HETATM   16  C23 UNL     1      39.262 -16.766  27.554  1.00  0.00     0.282 C 
HETATM   17  C24 UNL     1      39.549 -17.913  26.612  1.00  0.00    -0.012 C 
HETATM   18  C25 UNL     1      40.173 -17.292  25.365  1.00  0.00     0.017 C 
HETATM   19  C26 UNL     1      40.448 -18.943  27.210  1.00  0.00     0.012 C 
HETATM   20  C27 UNL     1      40.382 -20.160  26.313  1.00  0.00     0.007 C 
HETATM   21  C28 UNL     1      39.036 -20.836  26.637  1.00  0.00     0.002 C 
HETATM   22  C29 UNL     1      38.790 -25.644  26.135  1.00  0.00     0.040 C 
HETATM   23  C30 UNL     1      37.539 -26.409  25.819  1.00  0.00     0.027 C 
ENDROOT
BRANCH   2  24
HETATM   24  C3  UNL     1      35.716 -26.777  24.253  1.00  0.00     0.229 C 
HETATM   25  O1  UNL     1      34.635 -26.146  24.133  1.00  0.00    -0.272 OA
HETATM   26  N1  UNL     1      35.691 -28.202  24.168  1.00  0.00    -0.360 N 
ATOM     27  H1  UNL     1      36.557 -28.731  24.264  1.00  0.00     0.162 HD
BRANCH  26  28
HETATM   28  C4  UNL     1      34.457 -28.892  23.949  1.00  0.00     0.122 C 
BRANCH  28  29
HETATM   29  C5  UNL     1      34.546 -29.951  22.906  1.00  0.00     0.021 C 
BRANCH  29  30
HETATM   30  C6  UNL     1      35.004 -29.536  21.559  1.00  0.00     0.029 C 
BRANCH  30  31
HETATM   31  C7  UNL     1      34.053 -29.724  20.430  1.00  0.00     0.229 C 
BRANCH  31  32
HETATM   32  N2  UNL     1      32.709 -29.290  20.666  1.00  0.00    -0.079 N 
ATOM     33  H23 UNL     1      32.060 -29.859  20.122  1.00  0.00     0.274 HD
ATOM     34  H22 UNL     1      32.424 -29.544  21.612  1.00  0.00     0.274 HD
ATOM     35  H21 UNL     1      32.524 -28.301  20.502  1.00  0.00     0.274 HD
ENDBRANCH  31  32
ENDBRANCH  30  31
ENDBRANCH  29  30
ENDBRANCH  28  29
ENDBRANCH  26  28
ENDBRANCH   2  24
BRANCH  15  36
HETATM   36  C20 UNL     1      37.364 -16.150  28.774  1.00  0.00     0.274 C 
BRANCH  36  37
HETATM   37  C21 UNL     1      36.203 -15.156  28.636  1.00  0.00     0.057 C 
BRANCH  37  38
HETATM   38  C22 UNL     1      36.639 -13.995  27.756  1.00  0.00     0.231 C 
BRANCH  38  39
HETATM   39  N4  UNL     1      36.113 -12.765  28.280  1.00  0.00    -0.079 N 
ATOM     40  H43 UNL     1      35.765 -12.152  27.542  1.00  0.00     0.274 HD
ATOM     41  H42 UNL     1      35.236 -12.905  28.781  1.00  0.00     0.274 HD
ATOM     42  H41 UNL     1      36.817 -12.308  28.858  1.00  0.00     0.274 HD
ENDBRANCH  38  39
ENDBRANCH  37  38
ENDBRANCH  36  37
ENDBRANCH  15  36
TORSDOF 10
ENDMDL
MODEL 4
REMARK VINA RESULT: -7.394126845      4.678     11.116
REMARK  10 active torsions:
REMARK  status: ('A' for Active; 'I' for Inactive)
REMARK    1  A    between atoms: C2_2  and  C3_3 
REMARK       I    between atoms: C3_3  and  N1_5 
REMARK    2  A    between atoms: N1_5  and  C4_7 
REMARK    3  A    between atoms: C4_7  and  C5_8 
REMARK    4  A    between atoms: C5_8  and  C6_9 
REMARK    5  A    between atoms: C6_9  and  C7_10 
REMARK    6  A    between atoms: C7_10  and  N2_11 
REMARK    7  A    between atoms: N3_27  and  C20_28 
REMARK    8  A    between atoms: C20_28  and  C21_29 
REMARK    9  A    between atoms: C21_29  and  C22_30 
REMARK   10  A    between atoms: C22_30  and  N4_31 
ROOT
HETATM    1  C1  UNL     1      39.383 -18.860  26.537  1.00  0.00     0.030 C 
HETATM    2  C2  UNL     1      39.058 -19.493  27.880  1.00  0.00     0.056 C 
HETATM    3  C8  UNL     1      40.116 -20.421  28.320  1.00  0.00     0.000 C 
HETATM    4  C9  UNL     1      40.126 -21.670  27.892  1.00  0.00    -0.049 C 
HETATM    5  C10 UNL     1      39.091 -22.136  26.984  1.00  0.00    -0.055 C 
HETATM    6  C11 UNL     1      39.435 -23.294  26.447  1.00  0.00    -0.009 C 
HETATM    7  C12 UNL     1      40.768 -23.745  26.943  1.00  0.00    -0.014 C 
HETATM    8  C13 UNL     1      41.769 -23.346  25.865  1.00  0.00     0.021 C 
HETATM    9  C14 UNL     1      41.007 -22.844  28.117  1.00  0.00     0.031 C 
HETATM   10  C15 UNL     1      40.725 -23.576  29.394  1.00  0.00     0.011 C 
HETATM   11  C16 UNL     1      41.769 -24.676  29.478  1.00  0.00     0.006 C 
HETATM   12  C17 UNL     1      41.468 -25.705  28.409  1.00  0.00    -0.003 C 
HETATM   13  C18 UNL     1      42.772 -26.406  28.123  1.00  0.00     0.028 C 
HETATM   14  C19 UNL     1      43.214 -27.123  29.371  1.00  0.00     0.278 C 
HETATM   15  N3  UNL     1      43.386 -28.496  29.066  1.00  0.00     0.089 N 
HETATM   16  C23 UNL     1      42.870 -28.759  27.760  1.00  0.00     0.282 C 
HETATM   17  C24 UNL     1      42.700 -27.434  27.055  1.00  0.00    -0.012 C 
HETATM   18  C25 UNL     1      43.906 -27.286  26.131  1.00  0.00     0.017 C 
HETATM   19  C26 UNL     1      41.421 -27.344  26.291  1.00  0.00     0.012 C 
HETATM   20  C27 UNL     1      41.228 -25.888  25.924  1.00  0.00     0.007 C 
HETATM   21  C28 UNL     1      40.755 -25.197  27.217  1.00  0.00     0.002 C 
HETATM   22  C29 UNL     1      37.841 -21.361  26.746  1.00  0.00     0.040 C 
HETATM   23  C30 UNL     1      37.744 -20.234  27.731  1.00  0.00     0.027 C 
ENDROOT
BRANCH   2  24
HETATM   24  C3  UNL     1      38.897 -18.433  28.888  1.00  0.00     0.229 C 
HETATM   25  O1  UNL     1      39.658 -18.429  29.888  1.00  0.00    -0.272 OA
HETATM   26  N1  UNL     1      37.910 -17.408  28.773  1.00  0.00    -0.360 N 
ATOM     27  H1  UNL     1      37.283 -17.395  27.969  1.00  0.00     0.162 HD
BRANCH  26  28
HETATM   28  C4  UNL     1      37.795 -16.398  29.779  1.00  0.00     0.122 C 
BRANCH  28  29
HETATM   29  C5  UNL     1      37.509 -15.044  29.231  1.00  0.00     0.021 C 
BRANCH  29  30
HETATM   30  C6  UNL     1      36.179 -14.832  28.613  1.00  0.00     0.029 C 
BRANCH  30  31
HETATM   31  C7  UNL     1      35.886 -13.475  28.078  1.00  0.00     0.229 C 
BRANCH  31  32
HETATM   32  N2  UNL     1      37.012 -12.744  27.578  1.00  0.00    -0.079 N 
ATOM     33  H23 UNL     1      37.562 -13.337  26.956  1.00  0.00     0.274 HD
ATOM     34  H22 UNL     1      36.698 -12.031  26.920  1.00  0.00     0.274 HD
ATOM     35  H21 UNL     1      37.618 -12.323  28.282  1.00  0.00     0.274 HD
ENDBRANCH  31  32
ENDBRANCH  30  31
ENDBRANCH  29  30
ENDBRANCH  28  29
ENDBRANCH  26  28
ENDBRANCH   2  24
BRANCH  15  36
HETATM   36  C20 UNL     1      42.744 -29.389  30.009  1.00  0.00     0.274 C 
BRANCH  36  37
HETATM   37  C21 UNL     1      43.694 -30.558  30.301  1.00  0.00     0.057 C 
BRANCH  37  38
HETATM   38  C22 UNL     1      44.437 -30.287  31.600  1.00  0.00     0.231 C 
BRANCH  38  39
HETATM   39  N4  UNL     1      45.202 -31.445  31.972  1.00  0.00    -0.079 N 
ATOM     40  H43 UNL     1      45.480 -31.422  32.953  1.00  0.00     0.274 HD
ATOM     41  H42 UNL     1      44.631 -32.290  32.000  1.00  0.00     0.274 HD
ATOM     42  H41 UNL     1      46.003 -31.544  31.348  1.00  0.00     0.274 HD
ENDBRANCH  38  39
ENDBRANCH  37  38
ENDBRANCH  36  37
ENDBRANCH  15  36
TORSDOF 10
ENDMDL
MODEL 5
REMARK VINA RESULT: -7.378416033      5.915      7.242
REMARK  10 active torsions:
REMARK  status: ('A' for Active; 'I' for Inactive)
REMARK    1  A    between atoms: C2_2  and  C3_3 
REMARK       I    between atoms: C3_3  and  N1_5 
REMARK    2  A    between atoms: N1_5  and  C4_7 
REMARK    3  A    between atoms: C4_7  and  C5_8 
REMARK    4  A    between atoms: C5_8  and  C6_9 
REMARK    5  A    between atoms: C6_9  and  C7_10 
REMARK    6  A    between atoms: C7_10  and  N2_11 
REMARK    7  A    between atoms: N3_27  and  C20_28 
REMARK    8  A    between atoms: C20_28  and  C21_29 
REMARK    9  A    between atoms: C21_29  and  C22_30 
REMARK   10  A    between atoms: C22_30  and  N4_31 
ROOT
HETATM    1  C1  UNL     1      43.962 -24.384  27.509  1.00  0.00     0.030 C 
HETATM    2  C2  UNL     1      43.912 -23.455  28.712  1.00  0.00     0.056 C 
HETATM    3  C8  UNL     1      42.576 -22.857  28.890  1.00  0.00     0.000 C 
HETATM    4  C9  UNL     1      42.237 -21.773  28.217  1.00  0.00    -0.049 C 
HETATM    5  C10 UNL     1      43.183 -21.163  27.295  1.00  0.00    -0.055 C 
HETATM    6  C11 UNL     1      42.569 -20.291  26.515  1.00  0.00    -0.009 C 
HETATM    7  C12 UNL     1      41.113 -20.215  26.829  1.00  0.00    -0.014 C 
HETATM    8  C13 UNL     1      40.419 -21.099  25.797  1.00  0.00     0.021 C 
HETATM    9  C14 UNL     1      41.019 -20.927  28.145  1.00  0.00     0.031 C 
HETATM   10  C15 UNL     1      40.908 -19.932  29.260  1.00  0.00     0.011 C 
HETATM   11  C16 UNL     1      39.576 -19.231  29.057  1.00  0.00     0.006 C 
HETATM   12  C17 UNL     1      39.676 -18.363  27.820  1.00  0.00    -0.003 C 
HETATM   13  C18 UNL     1      38.264 -18.182  27.321  1.00  0.00     0.028 C 
HETATM   14  C19 UNL     1      37.477 -17.440  28.368  1.00  0.00     0.278 C 
HETATM   15  N3  UNL     1      36.932 -16.272  27.781  1.00  0.00     0.089 N 
HETATM   16  C23 UNL     1      37.498 -16.088  26.481  1.00  0.00     0.282 C 
HETATM   17  C24 UNL     1      38.149 -17.389  26.072  1.00  0.00    -0.012 C 
HETATM   18  C25 UNL     1      37.166 -18.077  25.127  1.00  0.00     0.017 C 
HETATM   19  C26 UNL     1      39.476 -17.193  25.420  1.00  0.00     0.012 C 
HETATM   20  C27 UNL     1      40.147 -18.548  25.369  1.00  0.00     0.007 C 
HETATM   21  C28 UNL     1      40.648 -18.813  26.801  1.00  0.00     0.002 C 
HETATM   22  C29 UNL     1      44.628 -21.523  27.295  1.00  0.00     0.040 C 
HETATM   23  C30 UNL     1      44.945 -22.368  28.493  1.00  0.00     0.027 C 
ENDROOT
BRANCH   2  24
HETATM   24  C3  UNL     1      44.266 -24.214  29.922  1.00  0.00     0.229 C 
HETATM   25  O1  UNL     1      43.497 -24.162  30.915  1.00  0.00    -0.272 OA
HETATM   26  N1  UNL     1      45.450 -25.008  30.012  1.00  0.00    -0.360 N 
ATOM     27  H1  UNL     1      46.086 -25.061  29.218  1.00  0.00     0.162 HD
BRANCH  26  28
HETATM   28  C4  UNL     1      45.748 -25.728  31.211  1.00  0.00     0.122 C 
BRANCH  28  29
HETATM   29  C5  UNL     1      46.293 -27.091  30.964  1.00  0.00     0.021 C 
BRANCH  29  30
HETATM   30  C6  UNL     1      45.381 -28.083  30.348  1.00  0.00     0.029 C 
BRANCH  30  31
HETATM   31  C7  UNL     1      45.373 -29.453  30.929  1.00  0.00     0.229 C 
BRANCH  31  32
HETATM   32  N2  UNL     1      46.651 -29.980  31.305  1.00  0.00    -0.079 N 
ATOM     33  H23 UNL     1      46.527 -30.813  31.881  1.00  0.00     0.274 HD
ATOM     34  H22 UNL     1      47.110 -30.389  30.491  1.00  0.00     0.274 HD
ATOM     35  H21 UNL     1      47.283 -29.328  31.769  1.00  0.00     0.274 HD
ENDBRANCH  31  32
ENDBRANCH  30  31
ENDBRANCH  29  30
ENDBRANCH  28  29
ENDBRANCH  26  28
ENDBRANCH   2  24
BRANCH  15  36
HETATM   36  C20 UNL     1      37.153 -15.069  28.558  1.00  0.00     0.274 C 
BRANCH  36  37
HETATM   37  C21 UNL     1      35.807 -14.354  28.745  1.00  0.00     0.057 C 
BRANCH  37  38
HETATM   38  C22 UNL     1      35.780 -13.105  27.877  1.00  0.00     0.231 C 
BRANCH  38  39
HETATM   39  N4  UNL     1      37.122 -12.710  27.555  1.00  0.00    -0.079 N 
ATOM     40  H43 UNL     1      37.808 -13.130  28.183  1.00  0.00     0.274 HD
ATOM     41  H42 UNL     1      37.447 -13.127  26.682  1.00  0.00     0.274 HD
ATOM     42  H41 UNL     1      37.188 -11.692  27.541  1.00  0.00     0.274 HD
ENDBRANCH  38  39
ENDBRANCH  37  38
ENDBRANCH  36  37
ENDBRANCH  15  36
TORSDOF 10
ENDMDL
