MODEL 1
REMARK VINA RESULT: -8.673356728      0.000      0.000
REMARK  9 active torsions:
REMARK  status: ('A' for Active; 'I' for Inactive)
REMARK    1  A    between atoms: C4_7  and  C5_8 
REMARK    2  A    between atoms: C5_8  and  C6_9 
REMARK    3  A    between atoms: C6_9  and  C7_10 
REMARK    4  A    between atoms: C7_10  and  C8_11 
REMARK    5  A    between atoms: C8_11  and  N2_12 
REMARK    6  A    between atoms: N4_22  and  C15_23 
REMARK    7  A    between atoms: C15_23  and  C16_24 
REMARK    8  A    between atoms: C16_24  and  C17_25 
REMARK    9  A    between atoms: C22_30  and  O2_31 
ROOT
HETATM    1  C1  UNL     1      38.300 -21.443  24.589  1.00  0.00     0.070 C 
HETATM    2  C2  UNL     1      37.866 -21.785  26.024  1.00  0.00     0.192 C 
HETATM    3  C3  UNL     1      36.362 -21.861  25.965  1.00  0.00     0.070 C 
HETATM    4  N1  UNL     1      38.313 -23.150  26.304  1.00  0.00    -0.045 N 
ATOM      5  H11 UNL     1      38.189 -23.742  25.482  1.00  0.00     0.280 HD
ATOM      6  H12 UNL     1      37.670 -23.610  26.948  1.00  0.00     0.280 HD
HETATM    7  C4  UNL     1      39.656 -23.240  26.787  1.00  0.00     0.190 C 
HETATM    8  C13 UNL     1      40.476 -22.012  26.674  1.00  0.00     0.053 C 
HETATM    9  C14 UNL     1      39.717 -20.849  27.291  1.00  0.00     0.126 C 
HETATM   10  N4  UNL     1      38.331 -20.868  26.954  1.00  0.00    -0.362 N 
ENDROOT
BRANCH  10  11
HETATM   11  C15 UNL     1      37.533 -20.198  27.884  1.00  0.00     0.061 C 
BRANCH  11  12
HETATM   12  C16 UNL     1      38.184 -18.927  28.375  1.00  0.00     0.050 C 
BRANCH  12  13
HETATM   13  C17 UNL     1      37.316 -17.753  28.009  1.00  0.00     0.007 C 
HETATM   14  C18 UNL     1      36.834 -17.043  29.260  1.00  0.00     0.045 C 
HETATM   15  C19 UNL     1      36.506 -15.693  28.732  1.00  0.00    -0.051 A 
HETATM   16  C20 UNL     1      35.708 -14.709  29.325  1.00  0.00     0.010 A 
HETATM   17  C24 UNL     1      37.111 -15.501  27.524  1.00  0.00    -0.040 A 
HETATM   18  C21 UNL     1      35.554 -13.530  28.636  1.00  0.00     0.037 A 
HETATM   19  C22 UNL     1      36.152 -13.308  27.417  1.00  0.00     0.066 A 
HETATM   20  C23 UNL     1      36.933 -14.298  26.861  1.00  0.00     0.045 A 
HETATM   21  C25 UNL     1      37.906 -16.730  27.128  1.00  0.00    -0.008 C 
HETATM   22  C26 UNL     1      37.598 -16.927  25.660  1.00  0.00     0.015 C 
HETATM   23  C30 UNL     1      39.355 -16.439  27.274  1.00  0.00     0.015 C 
HETATM   24  C27 UNL     1      38.759 -16.566  24.776  1.00  0.00     0.001 C 
HETATM   25  C28 UNL     1      39.949 -17.467  25.059  1.00  0.00     0.000 C 
HETATM   26  C29 UNL     1      40.290 -17.324  26.509  1.00  0.00     0.001 C 
BRANCH  19  27
HETATM   27  O2  UNL     1      35.994 -12.131  26.737  1.00  0.00    -0.361 OA
ATOM     28  H2  UNL     1      35.380 -12.046  26.018  1.00  0.00     0.217 HD
ENDBRANCH  19  27
ENDBRANCH  12  13
ENDBRANCH  11  12
ENDBRANCH  10  11
BRANCH   7  29
HETATM   29  C5  UNL     1      40.340 -24.510  26.454  1.00  0.00     0.033 C 
BRANCH  29  30
HETATM   30  C6  UNL     1      40.519 -25.543  27.481  1.00  0.00     0.004 C 
BRANCH  30  31
HETATM   31  C7  UNL     1      40.015 -25.255  28.844  1.00  0.00     0.030 C 
BRANCH  31  32
HETATM   32  C8  UNL     1      40.964 -25.659  29.953  1.00  0.00     0.273 C 
BRANCH  32  33
HETATM   33  N2  UNL     1      41.523 -24.454  30.520  1.00  0.00     0.098 N 
HETATM   34  C9  UNL     1      42.887 -24.207  30.203  1.00  0.00     0.292 C 
HETATM   35  C10 UNL     1      43.151 -23.161  29.168  1.00  0.00     0.152 C 
HETATM   36  N3  UNL     1      42.580 -21.924  29.642  1.00  0.00    -0.358 N 
HETATM   37  C11 UNL     1      41.364 -22.039  30.374  1.00  0.00     0.246 C 
ATOM     38  H3  UNL     1      43.020 -21.022  29.464  1.00  0.00     0.162 HD
HETATM   39  O1  UNL     1      40.901 -21.092  31.018  1.00  0.00    -0.272 OA
HETATM   40  C12 UNL     1      40.629 -23.344  30.366  1.00  0.00     0.374 C 
ENDBRANCH  32  33
ENDBRANCH  31  32
ENDBRANCH  30  31
ENDBRANCH  29  30
ENDBRANCH   7  29
TORSDOF 9
ENDMDL
MODEL 2
REMARK VINA RESULT: -8.483428986      2.986      4.865
REMARK  9 active torsions:
REMARK  status: ('A' for Active; 'I' for Inactive)
REMARK    1  A    between atoms: C4_7  and  C5_8 
REMARK    2  A    between atoms: C5_8  and  C6_9 
REMARK    3  A    between atoms: C6_9  and  C7_10 
REMARK    4  A    between atoms: C7_10  and  C8_11 
REMARK    5  A    between atoms: C8_11  and  N2_12 
REMARK    6  A    between atoms: N4_22  and  C15_23 
REMARK    7  A    between atoms: C15_23  and  C16_24 
REMARK    8  A    between atoms: C16_24  and  C17_25 
REMARK    9  A    between atoms: C22_30  and  O2_31 
ROOT
HETATM    1  C1  UNL     1      38.148 -21.256  24.455  1.00  0.00     0.070 C 
HETATM    2  C2  UNL     1      37.576 -21.714  25.807  1.00  0.00     0.192 C 
HETATM    3  C3  UNL     1      36.109 -21.373  25.743  1.00  0.00     0.070 C 
HETATM    4  N1  UNL     1      37.633 -23.175  25.836  1.00  0.00    -0.045 N 
ATOM      5  H11 UNL     1      37.393 -23.559  24.921  1.00  0.00     0.280 HD
ATOM      6  H12 UNL     1      36.864 -23.551  26.389  1.00  0.00     0.280 HD
HETATM    7  C4  UNL     1      38.883 -23.704  26.289  1.00  0.00     0.190 C 
HETATM    8  C13 UNL     1      40.002 -22.741  26.394  1.00  0.00     0.053 C 
HETATM    9  C14 UNL     1      39.551 -21.543  27.213  1.00  0.00     0.126 C 
HETATM   10  N4  UNL     1      38.225 -21.131  26.885  1.00  0.00    -0.362 N 
ENDROOT
BRANCH  10  11
HETATM   11  C15 UNL     1      37.593 -20.444  27.924  1.00  0.00     0.061 C 
BRANCH  11  12
HETATM   12  C16 UNL     1      38.327 -19.177  28.293  1.00  0.00     0.050 C 
BRANCH  12  13
HETATM   13  C17 UNL     1      37.456 -17.991  27.979  1.00  0.00     0.007 C 
HETATM   14  C18 UNL     1      37.113 -17.238  29.250  1.00  0.00     0.045 C 
HETATM   15  C19 UNL     1      36.766 -15.893  28.718  1.00  0.00    -0.051 A 
HETATM   16  C20 UNL     1      36.052 -14.874  29.358  1.00  0.00     0.010 A 
HETATM   17  C24 UNL     1      37.256 -15.748  27.454  1.00  0.00    -0.040 A 
HETATM   18  C21 UNL     1      35.860 -13.710  28.654  1.00  0.00     0.037 A 
HETATM   19  C22 UNL     1      36.342 -13.535  27.378  1.00  0.00     0.066 A 
HETATM   20  C23 UNL     1      37.043 -14.558  26.777  1.00  0.00     0.045 A 
HETATM   21  C25 UNL     1      37.981 -17.006  27.018  1.00  0.00    -0.008 C 
HETATM   22  C26 UNL     1      37.528 -17.233  25.591  1.00  0.00     0.015 C 
HETATM   23  C30 UNL     1      39.444 -16.749  27.015  1.00  0.00     0.015 C 
HETATM   24  C27 UNL     1      38.607 -16.924  24.591  1.00  0.00     0.001 C 
HETATM   25  C28 UNL     1      39.797 -17.847  24.784  1.00  0.00     0.000 C 
HETATM   26  C29 UNL     1      40.280 -17.676  26.190  1.00  0.00     0.001 C 
BRANCH  19  27
HETATM   27  O2  UNL     1      36.146 -12.372  26.684  1.00  0.00    -0.361 OA
ATOM     28  H2  UNL     1      35.508 -12.306  25.984  1.00  0.00     0.217 HD
ENDBRANCH  19  27
ENDBRANCH  12  13
ENDBRANCH  11  12
ENDBRANCH  10  11
BRANCH   7  29
HETATM   29  C5  UNL     1      39.220 -25.033  25.729  1.00  0.00     0.033 C 
BRANCH  29  30
HETATM   30  C6  UNL     1      38.200 -26.087  25.668  1.00  0.00     0.004 C 
BRANCH  30  31
HETATM   31  C7  UNL     1      37.791 -26.573  24.330  1.00  0.00     0.030 C 
BRANCH  31  32
HETATM   32  C8  UNL     1      36.298 -26.516  24.081  1.00  0.00     0.273 C 
BRANCH  32  33
HETATM   33  N2  UNL     1      35.971 -25.179  23.646  1.00  0.00     0.098 N 
HETATM   34  C9  UNL     1      36.783 -24.663  22.598  1.00  0.00     0.292 C 
HETATM   35  C10 UNL     1      36.174 -24.642  21.232  1.00  0.00     0.152 C 
HETATM   36  N3  UNL     1      34.979 -23.835  21.301  1.00  0.00    -0.358 N 
HETATM   37  C11 UNL     1      34.234 -23.924  22.510  1.00  0.00     0.246 C 
ATOM     38  H3  UNL     1      34.687 -23.236  20.529  1.00  0.00     0.162 HD
HETATM   39  O1  UNL     1      33.331 -23.127  22.779  1.00  0.00    -0.272 OA
HETATM   40  C12 UNL     1      34.556 -25.015  23.486  1.00  0.00     0.374 C 
ENDBRANCH  32  33
ENDBRANCH  31  32
ENDBRANCH  30  31
ENDBRANCH  29  30
ENDBRANCH   7  29
TORSDOF 9
ENDMDL
MODEL 3
REMARK VINA RESULT: -8.372762398      2.935      4.530
REMARK  9 active torsions:
REMARK  status: ('A' for Active; 'I' for Inactive)
REMARK    1  A    between atoms: C4_7  and  C5_8 
REMARK    2  A    between atoms: C5_8  and  C6_9 
REMARK    3  A    between atoms: C6_9  and  C7_10 
REMARK    4  A    between atoms: C7_10  and  C8_11 
REMARK    5  A    between atoms: C8_11  and  N2_12 
REMARK    6  A    between atoms: N4_22  and  C15_23 
REMARK    7  A    between atoms: C15_23  and  C16_24 
REMARK    8  A    between atoms: C16_24  and  C17_25 
REMARK    9  A    between atoms: C22_30  and  O2_31 
ROOT
HETATM    1  C1  UNL     1      38.229 -20.965  24.473  1.00  0.00     0.070 C 
HETATM    2  C2  UNL     1      37.756 -21.505  25.833  1.00  0.00     0.192 C 
HETATM    3  C3  UNL     1      36.253 -21.399  25.790  1.00  0.00     0.070 C 
HETATM    4  N1  UNL     1      38.043 -22.938  25.861  1.00  0.00    -0.045 N 
ATOM      5  H11 UNL     1      37.853 -23.358  24.950  1.00  0.00     0.280 HD
ATOM      6  H12 UNL     1      37.350 -23.430  26.425  1.00  0.00     0.280 HD
HETATM    7  C4  UNL     1      39.366 -23.264  26.296  1.00  0.00     0.190 C 
HETATM    8  C13 UNL     1      40.321 -22.136  26.386  1.00  0.00     0.053 C 
HETATM    9  C14 UNL     1      39.699 -21.022  27.211  1.00  0.00     0.126 C 
HETATM   10  N4  UNL     1      38.320 -20.825  26.902  1.00  0.00    -0.362 N 
ENDROOT
BRANCH  10  11
HETATM   11  C15 UNL     1      37.603 -20.244  27.950  1.00  0.00     0.061 C 
BRANCH  11  12
HETATM   12  C16 UNL     1      38.245 -18.967  28.435  1.00  0.00     0.050 C 
BRANCH  12  13
HETATM   13  C17 UNL     1      37.369 -17.800  28.068  1.00  0.00     0.007 C 
HETATM   14  C18 UNL     1      36.926 -17.060  29.315  1.00  0.00     0.045 C 
HETATM   15  C19 UNL     1      36.583 -15.722  28.765  1.00  0.00    -0.051 A 
HETATM   16  C20 UNL     1      35.805 -14.722  29.358  1.00  0.00     0.010 A 
HETATM   17  C24 UNL     1      37.152 -15.560  27.535  1.00  0.00    -0.040 A 
HETATM   18  C21 UNL     1      35.632 -13.560  28.646  1.00  0.00     0.037 A 
HETATM   19  C22 UNL     1      36.192 -13.369  27.405  1.00  0.00     0.066 A 
HETATM   20  C23 UNL     1      36.955 -14.374  26.849  1.00  0.00     0.045 A 
HETATM   21  C25 UNL     1      37.932 -16.800  27.145  1.00  0.00    -0.008 C 
HETATM   22  C26 UNL     1      37.579 -17.032  25.691  1.00  0.00     0.015 C 
HETATM   23  C30 UNL     1      39.386 -16.508  27.239  1.00  0.00     0.015 C 
HETATM   24  C27 UNL     1      38.713 -16.694  24.765  1.00  0.00     0.001 C 
HETATM   25  C28 UNL     1      39.910 -17.590  25.033  1.00  0.00     0.000 C 
HETATM   26  C29 UNL     1      40.295 -17.413  26.468  1.00  0.00     0.001 C 
BRANCH  19  27
HETATM   27  O2  UNL     1      36.015 -12.208  26.702  1.00  0.00    -0.361 OA
ATOM     28  H2  UNL     1      36.605 -11.470  26.795  1.00  0.00     0.217 HD
ENDBRANCH  19  27
ENDBRANCH  12  13
ENDBRANCH  11  12
ENDBRANCH  10  11
BRANCH   7  29
HETATM   29  C5  UNL     1      39.900 -24.524  25.732  1.00  0.00     0.033 C 
BRANCH  29  30
HETATM   30  C6  UNL     1      39.472 -25.817  26.279  1.00  0.00     0.004 C 
BRANCH  30  31
HETATM   31  C7  UNL     1      38.367 -26.524  25.592  1.00  0.00     0.030 C 
BRANCH  31  32
HETATM   32  C8  UNL     1      38.537 -26.628  24.090  1.00  0.00     0.273 C 
BRANCH  32  33
HETATM   33  N2  UNL     1      37.243 -26.431  23.482  1.00  0.00     0.098 N 
HETATM   34  C9  UNL     1      36.623 -27.606  22.973  1.00  0.00     0.292 C 
HETATM   35  C10 UNL     1      35.515 -28.183  23.794  1.00  0.00     0.152 C 
HETATM   36  N3  UNL     1      34.496 -27.170  23.925  1.00  0.00    -0.358 N 
HETATM   37  C11 UNL     1      34.960 -25.829  24.034  1.00  0.00     0.246 C 
ATOM     38  H3  UNL     1      33.503 -27.401  23.938  1.00  0.00     0.162 HD
HETATM   39  O1  UNL     1      34.195 -24.865  23.925  1.00  0.00    -0.272 OA
HETATM   40  C12 UNL     1      36.416 -25.579  24.285  1.00  0.00     0.374 C 
ENDBRANCH  32  33
ENDBRANCH  31  32
ENDBRANCH  30  31
ENDBRANCH  29  30
ENDBRANCH   7  29
TORSDOF 9
ENDMDL
MODEL 4
REMARK VINA RESULT: -8.356435746      2.418      3.709
REMARK  9 active torsions:
REMARK  status: ('A' for Active; 'I' for Inactive)
REMARK    1  A    between atoms: C4_7  and  C5_8 
REMARK    2  A    between atoms: C5_8  and  C6_9 
REMARK    3  A    between atoms: C6_9  and  C7_10 
REMARK    4  A    between atoms: C7_10  and  C8_11 
REMARK    5  A    between atoms: C8_11  and  N2_12 
REMARK    6  A    between atoms: N4_22  and  C15_23 
REMARK    7  A    between atoms: C15_23  and  C16_24 
REMARK    8  A    between atoms: C16_24  and  C17_25 
REMARK    9  A    between atoms: C22_30  and  O2_31 
ROOT
HETATM    1  C1  UNL     1      41.099 -21.266  30.037  1.00  0.00     0.070 C 
HETATM    2  C2  UNL     1      40.526 -20.386  28.914  1.00  0.00     0.192 C 
HETATM    3  C3  UNL     1      40.044 -19.137  29.609  1.00  0.00     0.070 C 
HETATM    4  N1  UNL     1      41.646 -19.956  28.078  1.00  0.00    -0.045 N 
ATOM      5  H11 UNL     1      42.459 -19.739  28.655  1.00  0.00     0.280 HD
ATOM      6  H12 UNL     1      41.463 -19.034  27.683  1.00  0.00     0.280 HD
HETATM    7  C4  UNL     1      41.997 -20.882  27.046  1.00  0.00     0.190 C 
HETATM    8  C13 UNL     1      41.385 -22.228  27.138  1.00  0.00     0.053 C 
HETATM    9  C14 UNL     1      39.881 -22.079  27.295  1.00  0.00     0.126 C 
HETATM   10  N4  UNL     1      39.531 -21.025  28.189  1.00  0.00    -0.362 N 
ENDROOT
BRANCH  10  11
HETATM   11  C15 UNL     1      38.255 -20.508  27.953  1.00  0.00     0.061 C 
BRANCH  11  12
HETATM   12  C16 UNL     1      38.135 -19.908  26.573  1.00  0.00     0.050 C 
BRANCH  12  13
HETATM   13  C17 UNL     1      37.465 -18.564  26.674  1.00  0.00     0.007 C 
HETATM   14  C18 UNL     1      37.116 -18.256  28.118  1.00  0.00     0.045 C 
HETATM   15  C19 UNL     1      37.005 -16.773  28.091  1.00  0.00    -0.051 A 
HETATM   16  C20 UNL     1      36.382 -15.941  29.027  1.00  0.00     0.010 A 
HETATM   17  C24 UNL     1      37.622 -16.277  26.980  1.00  0.00    -0.040 A 
HETATM   18  C21 UNL     1      36.414 -14.590  28.780  1.00  0.00     0.037 A 
HETATM   19  C22 UNL     1      37.028 -14.061  27.670  1.00  0.00     0.066 A 
HETATM   20  C23 UNL     1      37.634 -14.909  26.767  1.00  0.00     0.045 A 
HETATM   21  C25 UNL     1      38.204 -17.403  26.148  1.00  0.00    -0.008 C 
HETATM   22  C26 UNL     1      37.854 -17.043  24.721  1.00  0.00     0.015 C 
HETATM   23  C30 UNL     1      39.683 -17.397  26.290  1.00  0.00     0.015 C 
HETATM   24  C27 UNL     1      39.050 -16.581  23.936  1.00  0.00     0.001 C 
HETATM   25  C28 UNL     1      40.082 -17.691  23.827  1.00  0.00     0.000 C 
HETATM   26  C29 UNL     1      40.455 -18.100  25.217  1.00  0.00     0.001 C 
BRANCH  19  27
HETATM   27  O2  UNL     1      37.056 -12.713  27.432  1.00  0.00    -0.361 OA
ATOM     28  H2  UNL     1      37.665 -12.325  26.816  1.00  0.00     0.217 HD
ENDBRANCH  19  27
ENDBRANCH  12  13
ENDBRANCH  11  12
ENDBRANCH  10  11
BRANCH   7  29
HETATM   29  C5  UNL     1      43.423 -20.844  26.652  1.00  0.00     0.033 C 
BRANCH  29  30
HETATM   30  C6  UNL     1      44.439 -20.380  27.605  1.00  0.00     0.004 C 
BRANCH  30  31
HETATM   31  C7  UNL     1      44.979 -21.364  28.570  1.00  0.00     0.030 C 
BRANCH  31  32
HETATM   32  C8  UNL     1      46.287 -20.949  29.212  1.00  0.00     0.273 C 
BRANCH  32  33
HETATM   33  N2  UNL     1      46.511 -21.802  30.355  1.00  0.00     0.098 N 
HETATM   34  C9  UNL     1      46.108 -21.263  31.608  1.00  0.00     0.292 C 
HETATM   35  C10 UNL     1      44.832 -21.793  32.181  1.00  0.00     0.152 C 
HETATM   36  N3  UNL     1      44.988 -23.218  32.346  1.00  0.00    -0.358 N 
HETATM   37  C11 UNL     1      45.755 -23.882  31.347  1.00  0.00     0.246 C 
ATOM     38  H3  UNL     1      44.573 -23.719  33.131  1.00  0.00     0.162 HD
HETATM   39  O1  UNL     1      46.145 -25.044  31.492  1.00  0.00    -0.272 OA
HETATM   40  C12 UNL     1      46.100 -23.149  30.087  1.00  0.00     0.374 C 
ENDBRANCH  32  33
ENDBRANCH  31  32
ENDBRANCH  30  31
ENDBRANCH  29  30
ENDBRANCH   7  29
TORSDOF 9
ENDMDL
MODEL 5
REMARK VINA RESULT: -8.198291014      1.165      1.578
REMARK  9 active torsions:
REMARK  status: ('A' for Active; 'I' for Inactive)
REMARK    1  A    between atoms: C4_7  and  C5_8 
REMARK    2  A    between atoms: C5_8  and  C6_9 
REMARK    3  A    between atoms: C6_9  and  C7_10 
REMARK    4  A    between atoms: C7_10  and  C8_11 
REMARK    5  A    between atoms: C8_11  and  N2_12 
REMARK    6  A    between atoms: N4_22  and  C15_23 
REMARK    7  A    between atoms: C15_23  and  C16_24 
REMARK    8  A    between atoms: C16_24  and  C17_25 
REMARK    9  A    between atoms: C22_30  and  O2_31 
ROOT
HETATM    1  C1  UNL     1      37.774 -20.590  23.922  1.00  0.00     0.070 C 
HETATM    2  C2  UNL     1      37.412 -21.360  25.203  1.00  0.00     0.192 C 
HETATM    3  C3  UNL     1      35.929 -21.150  25.374  1.00  0.00     0.070 C 
HETATM    4  N1  UNL     1      37.570 -22.786  24.918  1.00  0.00    -0.045 N 
ATOM      5  H11 UNL     1      37.242 -23.000  23.976  1.00  0.00     0.280 HD
ATOM      6  H12 UNL     1      36.905 -23.335  25.462  1.00  0.00     0.280 HD
HETATM    7  C4  UNL     1      38.900 -23.278  25.110  1.00  0.00     0.190 C 
HETATM    8  C13 UNL     1      39.956 -22.256  25.291  1.00  0.00     0.053 C 
HETATM    9  C14 UNL     1      39.533 -21.293  26.387  1.00  0.00     0.126 C 
HETATM   10  N4  UNL     1      38.152 -20.948  26.301  1.00  0.00    -0.362 N 
ENDROOT
BRANCH  10  11
HETATM   11  C15 UNL     1      37.612 -20.544  27.524  1.00  0.00     0.061 C 
BRANCH  11  12
HETATM   12  C16 UNL     1      38.296 -19.312  28.065  1.00  0.00     0.050 C 
BRANCH  12  13
HETATM   13  C17 UNL     1      37.438 -18.107  27.789  1.00  0.00     0.007 C 
HETATM   14  C18 UNL     1      37.031 -17.441  29.090  1.00  0.00     0.045 C 
HETATM   15  C19 UNL     1      36.707 -16.063  28.633  1.00  0.00    -0.051 A 
HETATM   16  C20 UNL     1      35.959 -15.090  29.304  1.00  0.00     0.010 A 
HETATM   17  C24 UNL     1      37.258 -15.833  27.407  1.00  0.00    -0.040 A 
HETATM   18  C21 UNL     1      35.798 -13.881  28.672  1.00  0.00     0.037 A 
HETATM   19  C22 UNL     1      36.341 -13.620  27.436  1.00  0.00     0.066 A 
HETATM   20  C23 UNL     1      37.074 -14.601  26.803  1.00  0.00     0.045 A 
HETATM   21  C25 UNL     1      38.006 -17.060  26.923  1.00  0.00    -0.008 C 
HETATM   22  C26 UNL     1      37.625 -17.189  25.465  1.00  0.00     0.015 C 
HETATM   23  C30 UNL     1      39.467 -16.803  27.010  1.00  0.00     0.015 C 
HETATM   24  C27 UNL     1      38.750 -16.814  24.541  1.00  0.00     0.001 C 
HETATM   25  C28 UNL     1      39.933 -17.748  24.729  1.00  0.00     0.000 C 
HETATM   26  C29 UNL     1      40.345 -17.673  26.166  1.00  0.00     0.001 C 
BRANCH  19  27
HETATM   27  O2  UNL     1      36.176 -12.412  26.814  1.00  0.00    -0.361 OA
ATOM     28  H2  UNL     1      35.416 -12.224  26.277  1.00  0.00     0.217 HD
ENDBRANCH  19  27
ENDBRANCH  12  13
ENDBRANCH  11  12
ENDBRANCH  10  11
BRANCH   7  29
HETATM   29  C5  UNL     1      39.252 -24.431  24.250  1.00  0.00     0.033 C 
BRANCH  29  30
HETATM   30  C6  UNL     1      39.442 -25.761  24.842  1.00  0.00     0.004 C 
BRANCH  30  31
HETATM   31  C7  UNL     1      39.149 -25.922  26.285  1.00  0.00     0.030 C 
BRANCH  31  32
HETATM   32  C8  UNL     1      40.350 -26.314  27.121  1.00  0.00     0.273 C 
BRANCH  32  33
HETATM   33  N2  UNL     1      40.170 -25.761  28.443  1.00  0.00     0.098 N 
HETATM   34  C9  UNL     1      41.086 -26.223  29.428  1.00  0.00     0.292 C 
HETATM   35  C10 UNL     1      42.186 -25.284  29.806  1.00  0.00     0.152 C 
HETATM   36  N3  UNL     1      41.576 -24.077  30.307  1.00  0.00    -0.358 N 
HETATM   37  C11 UNL     1      40.366 -23.679  29.671  1.00  0.00     0.246 C 
ATOM     38  H3  UNL     1      41.986 -23.540  31.071  1.00  0.00     0.162 HD
HETATM   39  O1  UNL     1      39.637 -22.804  30.148  1.00  0.00    -0.272 OA
HETATM   40  C12 UNL     1      39.964 -24.343  28.389  1.00  0.00     0.374 C 
ENDBRANCH  32  33
ENDBRANCH  31  32
ENDBRANCH  30  31
ENDBRANCH  29  30
ENDBRANCH   7  29
TORSDOF 9
ENDMDL
