MODEL 1
REMARK VINA RESULT: -8.910567011      0.000      0.000
REMARK  15 active torsions:
REMARK  status: ('A' for Active; 'I' for Inactive)
REMARK    1  A    between atoms: C2_2  and  O1_3 
REMARK    2  A    between atoms: C3_7  and  N2_8 
REMARK    3  A    between atoms: N2_8  and  C4_10 
REMARK    4  A    between atoms: C5_16  and  C6_17 
REMARK    5  A    between atoms: C7_20  and  C8_21 
REMARK    6  A    between atoms: C10_23  and  C11_24 
REMARK    7  A    between atoms: C11_24  and  N6_25 
REMARK    8  A    between atoms: N6_25  and  C12_27 
REMARK    9  A    between atoms: C12_27  and  C13_28 
REMARK   10  A    between atoms: C12_27  and  C14_31 
REMARK   11  A    between atoms: C13_28  and  O3_29 
REMARK   12  A    between atoms: C14_31  and  O4_32 
REMARK   13  A    between atoms: C16_37  and  C17_38 
REMARK   14  A    between atoms: C18_41  and  O6_42 
REMARK   15  A    between atoms: N9_44  and  N10_45 
ROOT
HETATM    1  C6  UNL     1      21.101  -9.967   4.339  1.00  0.00     0.162 A 
HETATM    2  N5  UNL     1      20.907  -8.647   4.642  1.00  0.00    -0.335 N 
ATOM      3  H5  UNL     1      21.545  -8.095   5.215  1.00  0.00     0.168 HD
HETATM    4  C7  UNL     1      19.800  -8.169   4.107  1.00  0.00     0.100 A 
HETATM    5  C18 UNL     1      19.241  -9.240   3.416  1.00  0.00     0.191 A 
HETATM    6  N9  UNL     1      20.073 -10.314   3.590  1.00  0.00    -0.220 N 
ENDROOT
BRANCH   4   7
HETATM    7  C8  UNL     1      19.193  -6.846   4.158  1.00  0.00     0.028 A 
HETATM    8  C9  UNL     1      19.652  -5.872   3.240  1.00  0.00     0.026 A 
HETATM    9  C10 UNL     1      19.182  -4.599   3.254  1.00  0.00    -0.025 A 
HETATM   10  C15 UNL     1      18.238  -4.268   4.193  1.00  0.00     0.097 A 
HETATM   11  N7  UNL     1      17.809  -5.179   5.049  1.00  0.00    -0.360 N 
HETATM   12  C16 UNL     1      18.263  -6.469   5.057  1.00  0.00     0.110 A 
ATOM     13  H7  UNL     1      17.106  -4.908   5.736  1.00  0.00     0.165 HD
BRANCH   9  14
HETATM   14  C11 UNL     1      19.662  -3.596   2.286  1.00  0.00     0.154 C 
BRANCH  14  15
HETATM   15  N6  UNL     1      19.845  -2.363   2.979  1.00  0.00    -0.409 N 
ATOM     16  H6  UNL     1      20.127  -2.334   3.959  1.00  0.00     0.154 HD
BRANCH  15  17
HETATM   17  C12 UNL     1      19.614  -1.173   2.228  1.00  0.00     0.124 C 
BRANCH  17  18
HETATM   18  C13 UNL     1      19.632  -1.415   0.733  1.00  0.00     0.191 C 
BRANCH  18  19
HETATM   19  O3  UNL     1      20.807  -0.873   0.211  1.00  0.00    -0.399 OA
ATOM     20  H3  UNL     1      21.116  -1.439  -0.486  1.00  0.00     0.209 HD
ENDBRANCH  18  19
ENDBRANCH  17  18
BRANCH  17  21
HETATM   21  C14 UNL     1      20.576  -0.103   2.636  1.00  0.00     0.191 C 
BRANCH  21  22
HETATM   22  O4  UNL     1      21.826  -0.671   2.847  1.00  0.00    -0.399 OA
ATOM     23  H4  UNL     1      22.481   0.017   2.865  1.00  0.00     0.209 HD
ENDBRANCH  21  22
ENDBRANCH  17  21
ENDBRANCH  15  17
ENDBRANCH  14  15
ENDBRANCH   9  14
BRANCH  12  24
HETATM   24  C17 UNL     1      17.678  -7.393   5.996  1.00  0.00     0.282 C 
HETATM   25  N8  UNL     1      16.646  -8.263   5.549  1.00  0.00    -0.056 NA
HETATM   26  O5  UNL     1      18.026  -7.473   7.172  1.00  0.00    -0.269 OA
ENDBRANCH  12  24
ENDBRANCH   4   7
BRANCH   5  27
HETATM   27  O6  UNL     1      18.060  -9.214   2.690  1.00  0.00    -0.343 OA
ATOM     28  H6  UNL     1      17.913  -9.628   1.847  1.00  0.00     0.219 HD
ENDBRANCH   5  27
BRANCH   1  29
HETATM   29  C5  UNL     1      22.257 -10.692   4.828  1.00  0.00     0.148 A 
HETATM   30  C4  UNL     1      23.254 -11.383   4.175  1.00  0.00     0.163 A 
HETATM   31  N3  UNL     1      24.079 -11.870   5.144  1.00  0.00    -0.223 N 
HETATM   32  O2  UNL     1      23.649 -11.520   6.313  1.00  0.00    -0.155 OA
ATOM     33  H3  UNL     1      24.914 -12.428   4.973  1.00  0.00     0.198 HD
HETATM   34  N4  UNL     1      22.585 -10.832   6.153  1.00  0.00    -0.234 N 
ATOM     35  H4  UNL     1      22.044 -10.433   6.920  1.00  0.00     0.197 HD
BRANCH  30  36
HETATM   36  N2  UNL     1      23.403 -11.557   2.949  1.00  0.00    -0.310 N 
ATOM     37  H2  UNL     1      24.084 -10.930   2.521  1.00  0.00     0.170 HD
BRANCH  36  38
HETATM   38  C3  UNL     1      22.806 -12.455   2.045  1.00  0.00     0.196 C 
HETATM   39  N1  UNL     1      22.597 -12.372   0.794  1.00  0.00    -0.314 N 
HETATM   40  C2  UNL     1      21.957 -13.528   0.267  1.00  0.00     0.226 C 
ATOM     41  H1  UNL     1      22.859 -11.564   0.229  1.00  0.00     0.167 HD
HETATM   42  C1  UNL     1      20.956 -13.254  -0.812  1.00  0.00     0.094 C 
HETATM   43  N12 UNL     1      21.337 -14.124   1.453  1.00  0.00    -0.078 NA
HETATM   44  N11 UNL     1      22.268 -13.754   2.430  1.00  0.00    -0.271 N 
ATOM     45  H11 UNL     1      22.522 -14.293   3.257  1.00  0.00     0.185 HD
BRANCH  40  46
HETATM   46  O1  UNL     1      22.979 -14.390  -0.199  1.00  0.00    -0.356 OA
ATOM     47  H1  UNL     1      23.469 -14.757   0.528  1.00  0.00     0.214 HD
ENDBRANCH  40  46
ENDBRANCH  36  38
ENDBRANCH  30  36
ENDBRANCH   1  29
BRANCH   6  48
HETATM   48  N10 UNL     1      19.756 -11.547   3.001  1.00  0.00    -0.335 N 
ATOM     49 2H10 UNL     1      20.183 -12.404   3.354  1.00  0.00     0.177 HD
ATOM     50 1H10 UNL     1      19.132 -11.766   2.225  1.00  0.00     0.177 HD
ENDBRANCH   6  48
TORSDOF 15
ENDMDL
MODEL 2
REMARK VINA RESULT: -8.873422793      0.860      1.097
REMARK  15 active torsions:
REMARK  status: ('A' for Active; 'I' for Inactive)
REMARK    1  A    between atoms: C2_2  and  O1_3 
REMARK    2  A    between atoms: C3_7  and  N2_8 
REMARK    3  A    between atoms: N2_8  and  C4_10 
REMARK    4  A    between atoms: C5_16  and  C6_17 
REMARK    5  A    between atoms: C7_20  and  C8_21 
REMARK    6  A    between atoms: C10_23  and  C11_24 
REMARK    7  A    between atoms: C11_24  and  N6_25 
REMARK    8  A    between atoms: N6_25  and  C12_27 
REMARK    9  A    between atoms: C12_27  and  C13_28 
REMARK   10  A    between atoms: C12_27  and  C14_31 
REMARK   11  A    between atoms: C13_28  and  O3_29 
REMARK   12  A    between atoms: C14_31  and  O4_32 
REMARK   13  A    between atoms: C16_37  and  C17_38 
REMARK   14  A    between atoms: C18_41  and  O6_42 
REMARK   15  A    between atoms: N9_44  and  N10_45 
ROOT
HETATM    1  C6  UNL     1      21.105 -10.123   4.295  1.00  0.00     0.162 A 
HETATM    2  N5  UNL     1      20.929  -8.812   4.647  1.00  0.00    -0.335 N 
ATOM      3  H5  UNL     1      21.576  -8.291   5.238  1.00  0.00     0.168 HD
HETATM    4  C7  UNL     1      19.828  -8.299   4.133  1.00  0.00     0.100 A 
HETATM    5  C18 UNL     1      19.252  -9.336   3.404  1.00  0.00     0.191 A 
HETATM    6  N9  UNL     1      20.070 -10.428   3.535  1.00  0.00    -0.220 N 
ENDROOT
BRANCH   4   7
HETATM    7  C8  UNL     1      19.240  -6.971   4.234  1.00  0.00     0.028 A 
HETATM    8  C9  UNL     1      19.557  -6.028   3.229  1.00  0.00     0.026 A 
HETATM    9  C10 UNL     1      19.099  -4.751   3.275  1.00  0.00    -0.025 A 
HETATM   10  C15 UNL     1      18.309  -4.386   4.335  1.00  0.00     0.097 A 
HETATM   11  N7  UNL     1      18.012  -5.268   5.274  1.00  0.00    -0.360 N 
HETATM   12  C16 UNL     1      18.458  -6.561   5.252  1.00  0.00     0.110 A 
ATOM     13  H7  UNL     1      17.422  -4.971   6.051  1.00  0.00     0.165 HD
BRANCH   9  14
HETATM   14  C11 UNL     1      19.430  -3.782   2.215  1.00  0.00     0.154 C 
BRANCH  14  15
HETATM   15  N6  UNL     1      19.800  -2.553   2.838  1.00  0.00    -0.409 N 
ATOM     16  H6  UNL     1      20.182  -2.524   3.783  1.00  0.00     0.154 HD
BRANCH  15  17
HETATM   17  C12 UNL     1      19.606  -1.368   2.070  1.00  0.00     0.124 C 
BRANCH  17  18
HETATM   18  C13 UNL     1      19.775  -1.604   0.583  1.00  0.00     0.191 C 
BRANCH  18  19
HETATM   19  O3  UNL     1      20.899  -0.899   0.148  1.00  0.00    -0.399 OA
ATOM     20  H3  UNL     1      20.645  -0.350  -0.584  1.00  0.00     0.209 HD
ENDBRANCH  18  19
ENDBRANCH  17  18
BRANCH  17  21
HETATM   21  C14 UNL     1      20.491  -0.271   2.569  1.00  0.00     0.191 C 
BRANCH  21  22
HETATM   22  O4  UNL     1      21.771  -0.774   2.768  1.00  0.00    -0.399 OA
ATOM     23  H4  UNL     1      21.845  -1.089   3.661  1.00  0.00     0.209 HD
ENDBRANCH  21  22
ENDBRANCH  17  21
ENDBRANCH  15  17
ENDBRANCH  14  15
ENDBRANCH   9  14
BRANCH  12  24
HETATM   24  C17 UNL     1      18.019  -7.452   6.296  1.00  0.00     0.282 C 
HETATM   25  N8  UNL     1      18.487  -7.239   7.622  1.00  0.00    -0.056 NA
HETATM   26  O5  UNL     1      17.255  -8.395   6.103  1.00  0.00    -0.269 OA
ENDBRANCH  12  24
ENDBRANCH   4   7
BRANCH   5  27
HETATM   27  O6  UNL     1      18.070  -9.267   2.683  1.00  0.00    -0.343 OA
ATOM     28  H6  UNL     1      17.794  -9.872   2.005  1.00  0.00     0.219 HD
ENDBRANCH   5  27
BRANCH   1  29
HETATM   29  C5  UNL     1      22.251 -10.881   4.753  1.00  0.00     0.148 A 
HETATM   30  C4  UNL     1      23.263 -11.522   4.072  1.00  0.00     0.163 A 
HETATM   31  N3  UNL     1      24.069 -12.078   5.020  1.00  0.00    -0.223 N 
HETATM   32  O2  UNL     1      23.614 -11.815   6.201  1.00  0.00    -0.155 OA
ATOM     33  H3  UNL     1      24.908 -12.623   4.826  1.00  0.00     0.198 HD
HETATM   34  N4  UNL     1      22.553 -11.117   6.071  1.00  0.00    -0.234 N 
ATOM     35  H4  UNL     1      21.995 -10.776   6.853  1.00  0.00     0.197 HD
BRANCH  30  36
HETATM   36  N2  UNL     1      23.437 -11.606   2.840  1.00  0.00    -0.310 N 
ATOM     37  H2  UNL     1      24.137 -10.960   2.475  1.00  0.00     0.170 HD
BRANCH  36  38
HETATM   38  C3  UNL     1      22.849 -12.424   1.858  1.00  0.00     0.196 C 
HETATM   39  N1  UNL     1      22.492 -13.645   1.886  1.00  0.00    -0.314 N 
HETATM   40  C2  UNL     1      21.930 -14.079   0.654  1.00  0.00     0.226 C 
ATOM     41  H1  UNL     1      22.598 -14.246   2.703  1.00  0.00     0.167 HD
HETATM   42  C1  UNL     1      22.272 -15.486   0.270  1.00  0.00     0.094 C 
HETATM   43  N12 UNL     1      22.456 -13.104  -0.304  1.00  0.00    -0.078 NA
HETATM   44  N11 UNL     1      22.526 -11.970   0.511  1.00  0.00    -0.271 N 
ATOM     45  H11 UNL     1      22.378 -11.005   0.217  1.00  0.00     0.185 HD
BRANCH  40  46
HETATM   46  O1  UNL     1      20.528 -13.911   0.757  1.00  0.00    -0.356 OA
ATOM     47  H1  UNL     1      20.282 -13.009   0.587  1.00  0.00     0.214 HD
ENDBRANCH  40  46
ENDBRANCH  36  38
ENDBRANCH  30  36
ENDBRANCH   1  29
BRANCH   6  48
HETATM   48  N10 UNL     1      19.735 -11.633   2.902  1.00  0.00    -0.335 N 
ATOM     49 2H10 UNL     1      20.180 -12.503   3.196  1.00  0.00     0.177 HD
ATOM     50 1H10 UNL     1      19.080 -11.819   2.144  1.00  0.00     0.177 HD
ENDBRANCH   6  48
TORSDOF 15
ENDMDL
MODEL 3
REMARK VINA RESULT: -8.804101209      1.154      1.286
REMARK  15 active torsions:
REMARK  status: ('A' for Active; 'I' for Inactive)
REMARK    1  A    between atoms: C2_2  and  O1_3 
REMARK    2  A    between atoms: C3_7  and  N2_8 
REMARK    3  A    between atoms: N2_8  and  C4_10 
REMARK    4  A    between atoms: C5_16  and  C6_17 
REMARK    5  A    between atoms: C7_20  and  C8_21 
REMARK    6  A    between atoms: C10_23  and  C11_24 
REMARK    7  A    between atoms: C11_24  and  N6_25 
REMARK    8  A    between atoms: N6_25  and  C12_27 
REMARK    9  A    between atoms: C12_27  and  C13_28 
REMARK   10  A    between atoms: C12_27  and  C14_31 
REMARK   11  A    between atoms: C13_28  and  O3_29 
REMARK   12  A    between atoms: C14_31  and  O4_32 
REMARK   13  A    between atoms: C16_37  and  C17_38 
REMARK   14  A    between atoms: C18_41  and  O6_42 
REMARK   15  A    between atoms: N9_44  and  N10_45 
ROOT
HETATM    1  C6  UNL     1      21.099 -10.005   4.327  1.00  0.00     0.162 A 
HETATM    2  N5  UNL     1      20.819  -8.726   4.728  1.00  0.00    -0.335 N 
ATOM      3  H5  UNL     1      21.420  -8.180   5.345  1.00  0.00     0.168 HD
HETATM    4  C7  UNL     1      19.685  -8.281   4.224  1.00  0.00     0.100 A 
HETATM    5  C18 UNL     1      19.196  -9.330   3.450  1.00  0.00     0.191 A 
HETATM    6  N9  UNL     1      20.096 -10.359   3.547  1.00  0.00    -0.220 N 
ENDROOT
BRANCH   4   7
HETATM    7  C8  UNL     1      18.994  -7.007   4.371  1.00  0.00     0.028 A 
HETATM    8  C9  UNL     1      19.505  -5.892   3.666  1.00  0.00     0.026 A 
HETATM    9  C10 UNL     1      18.957  -4.656   3.790  1.00  0.00    -0.025 A 
HETATM   10  C15 UNL     1      17.880  -4.506   4.626  1.00  0.00     0.097 A 
HETATM   11  N7  UNL     1      17.403  -5.549   5.283  1.00  0.00    -0.360 N 
HETATM   12  C16 UNL     1      17.933  -6.805   5.177  1.00  0.00     0.110 A 
ATOM     13  H7  UNL     1      16.601  -5.411   5.897  1.00  0.00     0.165 HD
BRANCH   9  14
HETATM   14  C11 UNL     1      19.495  -3.504   3.042  1.00  0.00     0.154 C 
BRANCH  14  15
HETATM   15  N6  UNL     1      18.963  -3.547   1.719  1.00  0.00    -0.409 N 
ATOM     16  H6  UNL     1      18.094  -4.038   1.506  1.00  0.00     0.154 HD
BRANCH  15  17
HETATM   17  C12 UNL     1      19.709  -2.869   0.713  1.00  0.00     0.124 C 
BRANCH  17  18
HETATM   18  C13 UNL     1      18.823  -2.164  -0.295  1.00  0.00     0.191 C 
BRANCH  18  19
HETATM   19  O3  UNL     1      19.412  -0.942  -0.623  1.00  0.00    -0.399 OA
ATOM     20  H3  UNL     1      19.166  -0.718  -1.513  1.00  0.00     0.209 HD
ENDBRANCH  18  19
ENDBRANCH  17  18
BRANCH  17  21
HETATM   21  C14 UNL     1      20.673  -3.805   0.055  1.00  0.00     0.191 C 
BRANCH  21  22
HETATM   22  O4  UNL     1      21.302  -3.147  -0.994  1.00  0.00    -0.399 OA
ATOM     23  H4  UNL     1      21.442  -2.239  -0.752  1.00  0.00     0.209 HD
ENDBRANCH  21  22
ENDBRANCH  17  21
ENDBRANCH  15  17
ENDBRANCH  14  15
ENDBRANCH   9  14
BRANCH  12  24
HETATM   24  C17 UNL     1      17.291  -7.880   5.891  1.00  0.00     0.282 C 
HETATM   25  N8  UNL     1      16.227  -8.583   5.262  1.00  0.00    -0.056 NA
HETATM   26  O5  UNL     1      17.616  -8.226   7.025  1.00  0.00    -0.269 OA
ENDBRANCH  12  24
ENDBRANCH   4   7
BRANCH   5  27
HETATM   27  O6  UNL     1      18.017  -9.325   2.721  1.00  0.00    -0.343 OA
ATOM     28  H6  UNL     1      17.390 -10.037   2.668  1.00  0.00     0.219 HD
ENDBRANCH   5  27
BRANCH   1  29
HETATM   29  C5  UNL     1      22.298 -10.688   4.767  1.00  0.00     0.148 A 
HETATM   30  C4  UNL     1      23.288 -11.348   4.072  1.00  0.00     0.163 A 
HETATM   31  N3  UNL     1      24.171 -11.803   5.006  1.00  0.00    -0.223 N 
HETATM   32  O2  UNL     1      23.780 -11.464   6.191  1.00  0.00    -0.155 OA
ATOM     33  H3  UNL     1      25.016 -12.335   4.800  1.00  0.00     0.198 HD
HETATM   34  N4  UNL     1      22.688 -10.812   6.076  1.00  0.00    -0.234 N 
ATOM     35  H4  UNL     1      22.168 -10.429   6.865  1.00  0.00     0.197 HD
BRANCH  30  36
HETATM   36  N2  UNL     1      23.389 -11.521   2.841  1.00  0.00    -0.310 N 
ATOM     37  H2  UNL     1      24.003 -10.852   2.377  1.00  0.00     0.170 HD
BRANCH  36  38
HETATM   38  C3  UNL     1      22.815 -12.467   1.972  1.00  0.00     0.196 C 
HETATM   39  N1  UNL     1      22.486 -12.390   0.746  1.00  0.00    -0.314 N 
HETATM   40  C2  UNL     1      21.931 -13.602   0.251  1.00  0.00     0.226 C 
ATOM     41  H1  UNL     1      22.608 -11.550   0.180  1.00  0.00     0.167 HD
HETATM   42  C1  UNL     1      20.813 -13.425  -0.730  1.00  0.00     0.094 C 
HETATM   43  N12 UNL     1      21.488 -14.279   1.472  1.00  0.00    -0.078 NA
HETATM   44  N11 UNL     1      22.457 -13.822   2.371  1.00  0.00    -0.271 N 
ATOM     45  H11 UNL     1      22.842 -14.342   3.160  1.00  0.00     0.185 HD
BRANCH  40  46
HETATM   46  O1  UNL     1      22.993 -14.340  -0.323  1.00  0.00    -0.356 OA
ATOM     47  H1  UNL     1      23.133 -15.154   0.147  1.00  0.00     0.214 HD
ENDBRANCH  40  46
ENDBRANCH  36  38
ENDBRANCH  30  36
ENDBRANCH   1  29
BRANCH   6  48
HETATM   48  N10 UNL     1      19.859 -11.561   2.865  1.00  0.00    -0.335 N 
ATOM     49 2H10 UNL     1      19.873 -12.445   3.374  1.00  0.00     0.177 HD
ATOM     50 1H10 UNL     1      19.662 -11.732   1.880  1.00  0.00     0.177 HD
ENDBRANCH   6  48
TORSDOF 15
ENDMDL
MODEL 4
REMARK VINA RESULT: -8.700662241      1.992      4.060
REMARK  15 active torsions:
REMARK  status: ('A' for Active; 'I' for Inactive)
REMARK    1  A    between atoms: C2_2  and  O1_3 
REMARK    2  A    between atoms: C3_7  and  N2_8 
REMARK    3  A    between atoms: N2_8  and  C4_10 
REMARK    4  A    between atoms: C5_16  and  C6_17 
REMARK    5  A    between atoms: C7_20  and  C8_21 
REMARK    6  A    between atoms: C10_23  and  C11_24 
REMARK    7  A    between atoms: C11_24  and  N6_25 
REMARK    8  A    between atoms: N6_25  and  C12_27 
REMARK    9  A    between atoms: C12_27  and  C13_28 
REMARK   10  A    between atoms: C12_27  and  C14_31 
REMARK   11  A    between atoms: C13_28  and  O3_29 
REMARK   12  A    between atoms: C14_31  and  O4_32 
REMARK   13  A    between atoms: C16_37  and  C17_38 
REMARK   14  A    between atoms: C18_41  and  O6_42 
REMARK   15  A    between atoms: N9_44  and  N10_45 
ROOT
HETATM    1  C6  UNL     1      20.300 -10.618   3.480  1.00  0.00     0.162 A 
HETATM    2  N5  UNL     1      20.325  -9.370   4.040  1.00  0.00    -0.335 N 
ATOM      3  H5  UNL     1      21.103  -9.010   4.592  1.00  0.00     0.168 HD
HETATM    4  C7  UNL     1      19.227  -8.685   3.785  1.00  0.00     0.100 A 
HETATM    5  C18 UNL     1      18.441  -9.536   3.013  1.00  0.00     0.191 A 
HETATM    6  N9  UNL     1      19.141 -10.704   2.856  1.00  0.00    -0.220 N 
ENDROOT
BRANCH   4   7
HETATM    7  C8  UNL     1      18.812  -7.342   4.168  1.00  0.00     0.028 A 
HETATM    8  C9  UNL     1      19.389  -6.250   3.479  1.00  0.00     0.026 A 
HETATM    9  C10 UNL     1      19.102  -4.965   3.809  1.00  0.00    -0.025 A 
HETATM   10  C15 UNL     1      18.227  -4.741   4.842  1.00  0.00     0.097 A 
HETATM   11  N7  UNL     1      17.688  -5.763   5.484  1.00  0.00    -0.360 N 
HETATM   12  C16 UNL     1      17.957  -7.068   5.172  1.00  0.00     0.110 A 
ATOM     13  H7  UNL     1      17.040  -5.570   6.247  1.00  0.00     0.165 HD
BRANCH   9  14
HETATM   14  C11 UNL     1      19.704  -3.836   3.076  1.00  0.00     0.154 C 
BRANCH  14  15
HETATM   15  N6  UNL     1      19.070  -3.747   1.801  1.00  0.00    -0.409 N 
ATOM     16  H6  UNL     1      18.170  -4.191   1.617  1.00  0.00     0.154 HD
BRANCH  15  17
HETATM   17  C12 UNL     1      19.761  -3.004   0.800  1.00  0.00     0.124 C 
BRANCH  17  18
HETATM   18  C13 UNL     1      18.820  -2.274  -0.137  1.00  0.00     0.191 C 
BRANCH  18  19
HETATM   19  O3  UNL     1      19.439  -1.094  -0.554  1.00  0.00    -0.399 OA
ATOM     20  H3  UNL     1      19.007  -0.362  -0.131  1.00  0.00     0.209 HD
ENDBRANCH  18  19
ENDBRANCH  17  18
BRANCH  17  21
HETATM   21  C14 UNL     1      20.717  -3.886   0.061  1.00  0.00     0.191 C 
BRANCH  21  22
HETATM   22  O4  UNL     1      21.290  -3.165  -0.979  1.00  0.00    -0.399 OA
ATOM     23  H4  UNL     1      21.931  -3.710  -1.419  1.00  0.00     0.209 HD
ENDBRANCH  21  22
ENDBRANCH  17  21
ENDBRANCH  15  17
ENDBRANCH  14  15
ENDBRANCH   9  14
BRANCH  12  24
HETATM   24  C17 UNL     1      17.262  -8.101   5.899  1.00  0.00     0.282 C 
HETATM   25  N8  UNL     1      16.064  -8.637   5.352  1.00  0.00    -0.056 NA
HETATM   26  O5  UNL     1      17.652  -8.548   6.975  1.00  0.00    -0.269 OA
ENDBRANCH  12  24
ENDBRANCH   4   7
BRANCH   5  27
HETATM   27  O6  UNL     1      17.185  -9.247   2.503  1.00  0.00    -0.343 OA
ATOM     28  H6  UNL     1      17.003  -8.840   1.664  1.00  0.00     0.219 HD
ENDBRANCH   5  27
BRANCH   1  29
HETATM   29  C5  UNL     1      21.407 -11.539   3.639  1.00  0.00     0.148 A 
HETATM   30  C4  UNL     1      22.368 -11.663   4.618  1.00  0.00     0.163 A 
HETATM   31  N3  UNL     1      23.162 -12.705   4.244  1.00  0.00    -0.223 N 
HETATM   32  O2  UNL     1      22.747 -13.203   3.126  1.00  0.00    -0.155 OA
ATOM     33  H3  UNL     1      23.968 -13.042   4.769  1.00  0.00     0.198 HD
HETATM   34  N4  UNL     1      21.722 -12.538   2.753  1.00  0.00    -0.234 N 
ATOM     35  H4  UNL     1      21.201 -12.727   1.897  1.00  0.00     0.197 HD
BRANCH  30  36
HETATM   36  N2  UNL     1      22.518 -10.977   5.649  1.00  0.00    -0.310 N 
ATOM     37  H2  UNL     1      21.717 -10.388   5.876  1.00  0.00     0.170 HD
BRANCH  36  38
HETATM   38  C3  UNL     1      23.586 -10.864   6.558  1.00  0.00     0.196 C 
HETATM   39  N1  UNL     1      23.692 -11.215   7.776  1.00  0.00    -0.314 N 
HETATM   40  C2  UNL     1      24.968 -10.909   8.325  1.00  0.00     0.226 C 
ATOM     41  H1  UNL     1      22.944 -11.667   8.302  1.00  0.00     0.167 HD
HETATM   42  C1  UNL     1      24.946 -10.466   9.755  1.00  0.00     0.094 C 
HETATM   43  N12 UNL     1      25.462  -9.858   7.431  1.00  0.00    -0.078 NA
HETATM   44  N11 UNL     1      24.870 -10.259   6.229  1.00  0.00    -0.271 N 
ATOM     45  H11 UNL     1      25.266 -10.149   5.295  1.00  0.00     0.185 HD
BRANCH  40  46
HETATM   46  O1  UNL     1      25.774 -12.061   8.166  1.00  0.00    -0.356 OA
ATOM     47  H1  UNL     1      25.621 -12.468   7.321  1.00  0.00     0.214 HD
ENDBRANCH  40  46
ENDBRANCH  36  38
ENDBRANCH  30  36
ENDBRANCH   1  29
BRANCH   6  48
HETATM   48  N10 UNL     1      18.586 -11.757   2.116  1.00  0.00    -0.335 N 
ATOM     49 2H10 UNL     1      19.024 -12.051   1.242  1.00  0.00     0.177 HD
ATOM     50 1H10 UNL     1      17.762 -12.329   2.299  1.00  0.00     0.177 HD
ENDBRANCH   6  48
TORSDOF 15
ENDMDL
MODEL 5
REMARK VINA RESULT: -8.692475814      1.648      3.467
REMARK  15 active torsions:
REMARK  status: ('A' for Active; 'I' for Inactive)
REMARK    1  A    between atoms: C2_2  and  O1_3 
REMARK    2  A    between atoms: C3_7  and  N2_8 
REMARK    3  A    between atoms: N2_8  and  C4_10 
REMARK    4  A    between atoms: C5_16  and  C6_17 
REMARK    5  A    between atoms: C7_20  and  C8_21 
REMARK    6  A    between atoms: C10_23  and  C11_24 
REMARK    7  A    between atoms: C11_24  and  N6_25 
REMARK    8  A    between atoms: N6_25  and  C12_27 
REMARK    9  A    between atoms: C12_27  and  C13_28 
REMARK   10  A    between atoms: C12_27  and  C14_31 
REMARK   11  A    between atoms: C13_28  and  O3_29 
REMARK   12  A    between atoms: C14_31  and  O4_32 
REMARK   13  A    between atoms: C16_37  and  C17_38 
REMARK   14  A    between atoms: C18_41  and  O6_42 
REMARK   15  A    between atoms: N9_44  and  N10_45 
ROOT
HETATM    1  C6  UNL     1      19.496 -10.360   3.134  1.00  0.00     0.162 A 
HETATM    2  N5  UNL     1      19.791  -9.087   3.540  1.00  0.00    -0.335 N 
ATOM      3  H5  UNL     1      20.711  -8.795   3.871  1.00  0.00     0.168 HD
HETATM    4  C7  UNL     1      18.751  -8.280   3.455  1.00  0.00     0.100 A 
HETATM    5  C18 UNL     1      17.718  -9.074   2.965  1.00  0.00     0.191 A 
HETATM    6  N9  UNL     1      18.224 -10.335   2.786  1.00  0.00    -0.220 N 
ENDROOT
BRANCH   4   7
HETATM    7  C8  UNL     1      18.592  -6.868   3.774  1.00  0.00     0.028 A 
HETATM    8  C9  UNL     1      19.121  -5.921   2.865  1.00  0.00     0.026 A 
HETATM    9  C10 UNL     1      19.067  -4.587   3.111  1.00  0.00    -0.025 A 
HETATM   10  C15 UNL     1      18.481  -4.167   4.277  1.00  0.00     0.097 A 
HETATM   11  N7  UNL     1      17.986  -5.053   5.125  1.00  0.00    -0.360 N 
HETATM   12  C16 UNL     1      18.024  -6.402   4.903  1.00  0.00     0.110 A 
ATOM     13  H7  UNL     1      17.554  -4.715   5.985  1.00  0.00     0.165 HD
BRANCH   9  14
HETATM   14  C11 UNL     1      19.615  -3.612   2.151  1.00  0.00     0.154 C 
BRANCH  14  15
HETATM   15  N6  UNL     1      19.775  -2.366   2.828  1.00  0.00    -0.409 N 
ATOM     16  H6  UNL     1      19.973  -2.320   3.827  1.00  0.00     0.154 HD
BRANCH  15  17
HETATM   17  C12 UNL     1      19.644  -1.191   2.033  1.00  0.00     0.124 C 
BRANCH  17  18
HETATM   18  C13 UNL     1      19.815  -1.466   0.553  1.00  0.00     0.191 C 
BRANCH  18  19
HETATM   19  O3  UNL     1      20.935  -0.766   0.099  1.00  0.00    -0.399 OA
ATOM     20  H3  UNL     1      20.650   0.079  -0.227  1.00  0.00     0.209 HD
ENDBRANCH  18  19
ENDBRANCH  17  18
BRANCH  17  21
HETATM   21  C14 UNL     1      20.576  -0.125   2.517  1.00  0.00     0.191 C 
BRANCH  21  22
HETATM   22  O4  UNL     1      21.810  -0.697   2.804  1.00  0.00    -0.399 OA
ATOM     23  H4  UNL     1      21.866  -1.544   2.377  1.00  0.00     0.209 HD
ENDBRANCH  21  22
ENDBRANCH  17  21
ENDBRANCH  15  17
ENDBRANCH  14  15
ENDBRANCH   9  14
BRANCH  12  24
HETATM   24  C17 UNL     1      17.397  -7.271   5.867  1.00  0.00     0.282 C 
HETATM   25  N8  UNL     1      16.050  -7.674   5.653  1.00  0.00    -0.056 NA
HETATM   26  O5  UNL     1      17.967  -7.687   6.873  1.00  0.00    -0.269 OA
ENDBRANCH  12  24
ENDBRANCH   4   7
BRANCH   5  27
HETATM   27  O6  UNL     1      16.421  -8.656   2.709  1.00  0.00    -0.343 OA
ATOM     28  H6  UNL     1      15.659  -8.836   3.248  1.00  0.00     0.219 HD
ENDBRANCH   5  27
BRANCH   1  29
HETATM   29  C5  UNL     1      20.496 -11.408   3.148  1.00  0.00     0.148 A 
HETATM   30  C4  UNL     1      21.713 -11.510   3.786  1.00  0.00     0.163 A 
HETATM   31  N3  UNL     1      22.229 -12.721   3.431  1.00  0.00    -0.223 N 
HETATM   32  O2  UNL     1      21.415 -13.337   2.638  1.00  0.00    -0.155 OA
ATOM     33  H3  UNL     1      23.127 -13.087   3.745  1.00  0.00     0.198 HD
HETATM   34  N4  UNL     1      20.396 -12.590   2.458  1.00  0.00    -0.234 N 
ATOM     35  H4  UNL     1      19.601 -12.841   1.870  1.00  0.00     0.197 HD
BRANCH  30  36
HETATM   36  N2  UNL     1      22.267 -10.684   4.538  1.00  0.00    -0.310 N 
ATOM     37  H2  UNL     1      21.888  -9.739   4.467  1.00  0.00     0.170 HD
BRANCH  36  38
HETATM   38  C3  UNL     1      23.317 -10.810   5.466  1.00  0.00     0.196 C 
HETATM   39  N1  UNL     1      24.554 -11.058   5.305  1.00  0.00    -0.314 N 
HETATM   40  C2  UNL     1      25.270 -11.095   6.533  1.00  0.00     0.226 C 
ATOM     41  H1  UNL     1      24.986 -11.213   4.394  1.00  0.00     0.167 HD
HETATM   42  C1  UNL     1      26.352 -12.128   6.598  1.00  0.00     0.094 C 
HETATM   43  N12 UNL     1      24.213 -11.343   7.517  1.00  0.00    -0.078 NA
HETATM   44  N11 UNL     1      23.147 -10.674   6.907  1.00  0.00    -0.271 N 
ATOM     45  H11 UNL     1      22.391 -10.182   7.383  1.00  0.00     0.185 HD
BRANCH  40  46
HETATM   46  O1  UNL     1      25.797  -9.798   6.745  1.00  0.00    -0.356 OA
ATOM     47  H1  UNL     1      26.068  -9.405   5.923  1.00  0.00     0.214 HD
ENDBRANCH  40  46
ENDBRANCH  36  38
ENDBRANCH  30  36
ENDBRANCH   1  29
BRANCH   6  48
HETATM   48  N10 UNL     1      17.398 -11.357   2.298  1.00  0.00    -0.335 N 
ATOM     49 2H10 UNL     1      16.424 -11.158   2.068  1.00  0.00     0.177 HD
ATOM     50 1H10 UNL     1      17.602 -12.339   2.117  1.00  0.00     0.177 HD
ENDBRANCH   6  48
TORSDOF 15
ENDMDL
