MODEL 1
REMARK VINA RESULT: -5.954337910      0.000      0.000
REMARK  16 active torsions:
REMARK  status: ('A' for Active; 'I' for Inactive)
REMARK    1  A    between atoms: C2_2  and  O1_3 
REMARK    2  A    between atoms: O1_3  and  C3_4 
REMARK    3  A    between atoms: C3_4  and  O2_5 
REMARK    4  A    between atoms: C8_15  and  C9_16 
REMARK    5  A    between atoms: C8_15  and  C11_18 
REMARK    6  A    between atoms: C12_22  and  N3_23 
REMARK    7  A    between atoms: N3_23  and  C13_25 
REMARK    8  A    between atoms: C14_26  and  O7_27 
REMARK    9  A    between atoms: C15_29  and  N4_30 
REMARK   10  A    between atoms: C17_35  and  N5_36 
REMARK   11  A    between atoms: C18_40  and  N6_41 
REMARK   12  A    between atoms: N6_41  and  C19_43 
REMARK   13  A    between atoms: C19_43  and  N7_44 
REMARK   14  A    between atoms: C19_43  and  O8_48 
REMARK   15  A    between atoms: C20_50  and  N8_51 
REMARK   16  A    between atoms: N8_51  and  O9_52 
ROOT
HETATM    1  C3  UNL     1       3.758  -4.621 -28.773  1.00  0.00     0.244 C 
HETATM    2  C4  UNL     1       2.486  -3.985 -29.472  1.00  0.00     0.246 C 
HETATM    3  O3  UNL     1       1.899  -5.227 -29.806  1.00  0.00    -0.356 OA
HETATM    4  C5  UNL     1       1.739  -5.874 -28.580  1.00  0.00     0.216 C 
HETATM    5  C6  UNL     1       1.777  -7.314 -28.762  1.00  0.00     0.136 C 
HETATM    6  C7  UNL     1       3.033  -8.027 -28.895  1.00  0.00     0.117 C 
HETATM    7  N1  UNL     1       4.040  -8.630 -29.000  1.00  0.00    -0.190 NA
HETATM    8  N2  UNL     1       0.688  -7.958 -28.783  1.00  0.00    -0.341 N 
ATOM      9  H2  UNL     1       0.725  -8.969 -28.915  1.00  0.00     0.163 HD
HETATM   10  C8  UNL     1      -0.572  -7.350 -28.632  1.00  0.00     0.227 C 
HETATM   11  O6  UNL     1      -0.601  -6.156 -27.920  1.00  0.00    -0.322 OA
HETATM   12  C12 UNL     1       0.501  -5.390 -27.851  1.00  0.00     0.273 C 
HETATM   13  C20 UNL     1       3.025  -5.484 -27.834  1.00  0.00     0.204 C 
ENDROOT
BRANCH  12  14
HETATM   14  N3  UNL     1       0.897  -4.979 -26.547  1.00  0.00    -0.363 N 
ATOM     15  H3  UNL     1       1.432  -5.621 -25.961  1.00  0.00     0.162 HD
BRANCH  14  16
HETATM   16  C13 UNL     1       0.563  -3.694 -26.044  1.00  0.00     0.040 C 
HETATM   17  C14 UNL     1      -0.395  -2.910 -26.935  1.00  0.00     0.196 C 
HETATM   18  C15 UNL     1      -1.347  -2.170 -25.979  1.00  0.00     0.219 C 
HETATM   19  C16 UNL     1      -0.697  -1.948 -24.643  1.00  0.00     0.071 C 
HETATM   20  C17 UNL     1       0.776  -1.723 -24.677  1.00  0.00     0.213 C 
HETATM   21  C18 UNL     1       1.561  -2.832 -25.386  1.00  0.00     0.159 C 
BRANCH  17  22
HETATM   22  O7  UNL     1       0.235  -2.037 -27.788  1.00  0.00    -0.388 OA
ATOM     23  H7  UNL     1       0.735  -1.364 -27.342  1.00  0.00     0.210 HD
ENDBRANCH  17  22
BRANCH  18  24
HETATM   24  N4  UNL     1      -1.965  -1.025 -26.558  1.00  0.00    -0.072 N 
ATOM     25  H43 UNL     1      -1.546  -0.811 -27.463  1.00  0.00     0.274 HD
ATOM     26  H42 UNL     1      -2.916  -1.241 -26.855  1.00  0.00     0.274 HD
ATOM     27  H41 UNL     1      -1.955  -0.204 -25.953  1.00  0.00     0.274 HD
ENDBRANCH  18  24
BRANCH  20  28
HETATM   28  N5  UNL     1       0.983  -0.427 -25.258  1.00  0.00    -0.073 N 
ATOM     29  H53 UNL     1       0.293  -0.192 -25.972  1.00  0.00     0.274 HD
ATOM     30  H52 UNL     1       0.773   0.339 -24.618  1.00  0.00     0.274 HD
ATOM     31  H51 UNL     1       1.942  -0.410 -25.604  1.00  0.00     0.274 HD
ENDBRANCH  20  28
BRANCH  21  32
HETATM   32  N6  UNL     1       2.599  -2.226 -26.085  1.00  0.00    -0.364 N 
ATOM     33  H6  UNL     1       2.455  -1.889 -27.037  1.00  0.00     0.158 HD
BRANCH  32  34
HETATM   34  C19 UNL     1       3.872  -2.082 -25.451  1.00  0.00     0.420 C 
BRANCH  34  35
HETATM   35  N7  UNL     1       4.775  -1.194 -26.114  1.00  0.00    -0.035 N 
ATOM     36  H73 UNL     1       4.914  -0.351 -25.556  1.00  0.00     0.279 HD
ATOM     37  H72 UNL     1       5.721  -1.575 -26.098  1.00  0.00     0.279 HD
ATOM     38  H71 UNL     1       4.509  -0.948 -27.067  1.00  0.00     0.279 HD
ENDBRANCH  34  35
BRANCH  34  39
HETATM   39  O8  UNL     1       4.430  -3.364 -25.410  1.00  0.00    -0.355 OA
ATOM     40  H8  UNL     1       5.159  -3.314 -24.803  1.00  0.00     0.213 HD
ENDBRANCH  34  39
ENDBRANCH  32  34
ENDBRANCH  21  32
ENDBRANCH  14  16
ENDBRANCH  12  14
BRANCH  13  41
HETATM   41  N8  UNL     1       3.355  -5.814 -26.717  1.00  0.00    -0.283 NA
BRANCH  41  42
HETATM   42  O9  UNL     1       3.670  -6.407 -25.656  1.00  0.00    -0.218 OA
ATOM     43  H9  UNL     1       3.721  -6.800 -24.794  1.00  0.00     0.261 HD
ENDBRANCH  41  42
ENDBRANCH  13  41
BRANCH  10  44
HETATM   44  C9  UNL     1      -1.215  -7.053 -29.962  1.00  0.00     0.069 C 
HETATM   45  C10 UNL     1      -1.028  -8.166 -30.934  1.00  0.00     0.010 C 
ENDBRANCH  10  44
BRANCH  10  46
HETATM   46  C11 UNL     1      -1.443  -8.366 -27.956  1.00  0.00     0.231 C 
HETATM   47  O4  UNL     1      -1.091  -9.529 -27.770  1.00  0.00    -0.644 OA
HETATM   48  O5  UNL     1      -2.706  -7.930 -27.539  1.00  0.00    -0.644 OA
ENDBRANCH  10  46
BRANCH   1  49
HETATM   49  O1  UNL     1       4.525  -3.617 -28.297  1.00  0.00    -0.348 OA
BRANCH  49  50
HETATM   50  C2  UNL     1       5.306  -3.035 -29.269  1.00  0.00     0.167 C 
HETATM   51  C1  UNL     1       6.706  -2.714 -28.755  1.00  0.00     0.033 C 
ENDBRANCH  49  50
ENDBRANCH   1  49
BRANCH   1  52
HETATM   52  O2  UNL     1       4.351  -5.280 -29.860  1.00  0.00    -0.358 OA
ATOM     53  H2  UNL     1       4.811  -6.069 -29.599  1.00  0.00     0.213 HD
ENDBRANCH   1  52
TORSDOF 16
ENDMDL
MODEL 2
REMARK VINA RESULT: -5.595512691      2.621      4.186
REMARK  16 active torsions:
REMARK  status: ('A' for Active; 'I' for Inactive)
REMARK    1  A    between atoms: C2_2  and  O1_3 
REMARK    2  A    between atoms: O1_3  and  C3_4 
REMARK    3  A    between atoms: C3_4  and  O2_5 
REMARK    4  A    between atoms: C8_15  and  C9_16 
REMARK    5  A    between atoms: C8_15  and  C11_18 
REMARK    6  A    between atoms: C12_22  and  N3_23 
REMARK    7  A    between atoms: N3_23  and  C13_25 
REMARK    8  A    between atoms: C14_26  and  O7_27 
REMARK    9  A    between atoms: C15_29  and  N4_30 
REMARK   10  A    between atoms: C17_35  and  N5_36 
REMARK   11  A    between atoms: C18_40  and  N6_41 
REMARK   12  A    between atoms: N6_41  and  C19_43 
REMARK   13  A    between atoms: C19_43  and  N7_44 
REMARK   14  A    between atoms: C19_43  and  O8_48 
REMARK   15  A    between atoms: C20_50  and  N8_51 
REMARK   16  A    between atoms: N8_51  and  O9_52 
ROOT
HETATM    1  C3  UNL     1       3.946  -1.342 -31.275  1.00  0.00     0.244 C 
HETATM    2  C4  UNL     1       2.894  -2.483 -31.595  1.00  0.00     0.246 C 
HETATM    3  O3  UNL     1       3.580  -3.487 -30.873  1.00  0.00    -0.356 OA
HETATM    4  C5  UNL     1       3.655  -2.987 -29.572  1.00  0.00     0.216 C 
HETATM    5  C6  UNL     1       4.822  -3.521 -28.895  1.00  0.00     0.136 C 
HETATM    6  C7  UNL     1       6.144  -2.963 -29.110  1.00  0.00     0.117 C 
HETATM    7  N1  UNL     1       7.227  -2.525 -29.264  1.00  0.00    -0.190 NA
HETATM    8  N2  UNL     1       4.674  -4.480 -28.082  1.00  0.00    -0.341 N 
ATOM      9  H2  UNL     1       5.500  -4.851 -27.615  1.00  0.00     0.163 HD
HETATM   10  C8  UNL     1       3.425  -5.061 -27.793  1.00  0.00     0.227 C 
HETATM   11  O6  UNL     1       2.310  -4.246 -27.961  1.00  0.00    -0.322 OA
HETATM   12  C12 UNL     1       2.361  -3.208 -28.814  1.00  0.00     0.273 C 
HETATM   13  C20 UNL     1       3.922  -1.492 -29.811  1.00  0.00     0.204 C 
ENDROOT
BRANCH  12  14
HETATM   14  N3  UNL     1       1.939  -1.951 -28.296  1.00  0.00    -0.363 N 
ATOM     15  H3  UNL     1       2.203  -1.095 -28.784  1.00  0.00     0.162 HD
BRANCH  14  16
HETATM   16  C13 UNL     1       1.156  -1.865 -27.115  1.00  0.00     0.040 C 
HETATM   17  C14 UNL     1       0.026  -0.844 -27.193  1.00  0.00     0.196 C 
HETATM   18  C15 UNL     1      -1.166  -1.479 -26.455  1.00  0.00     0.219 C 
HETATM   19  C16 UNL     1      -0.694  -2.485 -25.445  1.00  0.00     0.071 C 
HETATM   20  C17 UNL     1       0.608  -2.173 -24.790  1.00  0.00     0.213 C 
HETATM   21  C18 UNL     1       1.761  -1.942 -25.774  1.00  0.00     0.159 C 
BRANCH  17  22
HETATM   22  O7  UNL     1       0.350   0.379 -26.658  1.00  0.00    -0.388 OA
ATOM     23  H7  UNL     1      -0.370   0.798 -26.203  1.00  0.00     0.210 HD
ENDBRANCH  17  22
BRANCH  18  24
HETATM   24  N4  UNL     1      -2.116  -0.532 -25.980  1.00  0.00    -0.072 N 
ATOM     25  H43 UNL     1      -2.708  -0.203 -26.743  1.00  0.00     0.274 HD
ATOM     26  H42 UNL     1      -2.821  -0.989 -25.401  1.00  0.00     0.274 HD
ATOM     27  H41 UNL     1      -1.699   0.255 -25.484  1.00  0.00     0.274 HD
ENDBRANCH  18  24
BRANCH  20  28
HETATM   28  N5  UNL     1       0.377  -1.055 -23.920  1.00  0.00    -0.073 N 
ATOM     29  H53 UNL     1      -0.550  -0.645 -24.031  1.00  0.00     0.274 HD
ATOM     30  H52 UNL     1       0.285  -1.321 -22.940  1.00  0.00     0.274 HD
ATOM     31  H51 UNL     1       1.134  -0.392 -24.088  1.00  0.00     0.274 HD
ENDBRANCH  20  28
BRANCH  21  32
HETATM   32  N6  UNL     1       2.554  -0.924 -25.254  1.00  0.00    -0.364 N 
ATOM     33  H6  UNL     1       2.150  -0.014 -25.036  1.00  0.00     0.158 HD
BRANCH  32  34
HETATM   34  C19 UNL     1       3.944  -1.173 -25.030  1.00  0.00     0.420 C 
BRANCH  34  35
HETATM   35  N7  UNL     1       4.774  -0.010 -25.067  1.00  0.00    -0.035 N 
ATOM     36  H73 UNL     1       5.603  -0.149 -24.490  1.00  0.00     0.279 HD
ATOM     37  H72 UNL     1       5.210   0.084 -25.984  1.00  0.00     0.279 HD
ATOM     38  H71 UNL     1       4.305   0.858 -24.809  1.00  0.00     0.279 HD
ENDBRANCH  34  35
BRANCH  34  39
HETATM   39  O8  UNL     1       4.344  -2.059 -26.035  1.00  0.00    -0.355 OA
ATOM     40  H8  UNL     1       5.292  -2.097 -25.989  1.00  0.00     0.213 HD
ENDBRANCH  34  39
ENDBRANCH  32  34
ENDBRANCH  21  32
ENDBRANCH  14  16
ENDBRANCH  12  14
BRANCH  13  41
HETATM   41  N8  UNL     1       4.074  -0.630 -28.974  1.00  0.00    -0.283 NA
BRANCH  41  42
HETATM   42  O9  UNL     1       3.999   0.168 -28.009  1.00  0.00    -0.218 OA
ATOM     43  H9  UNL     1       3.867   0.610 -27.179  1.00  0.00     0.261 HD
ENDBRANCH  41  42
ENDBRANCH  13  41
BRANCH  10  44
HETATM   44  C9  UNL     1       3.169  -6.288 -28.629  1.00  0.00     0.069 C 
HETATM   45  C10 UNL     1       1.753  -6.740 -28.539  1.00  0.00     0.010 C 
ENDBRANCH  10  44
BRANCH  10  46
HETATM   46  C11 UNL     1       3.505  -5.525 -26.370  1.00  0.00     0.231 C 
HETATM   47  O4  UNL     1       3.048  -4.878 -25.430  1.00  0.00    -0.644 OA
HETATM   48  O5  UNL     1       4.140  -6.753 -26.146  1.00  0.00    -0.644 OA
ENDBRANCH  10  46
BRANCH   1  49
HETATM   49  O1  UNL     1       3.510  -0.195 -31.835  1.00  0.00    -0.348 OA
BRANCH  49  50
HETATM   50  C2  UNL     1       2.137  -0.124 -31.909  1.00  0.00     0.167 C 
HETATM   51  C1  UNL     1       1.588   1.078 -31.149  1.00  0.00     0.033 C 
ENDBRANCH  49  50
ENDBRANCH   1  49
BRANCH   1  52
HETATM   52  O2  UNL     1       5.086  -1.853 -31.913  1.00  0.00    -0.358 OA
ATOM     53  H2  UNL     1       5.882  -1.410 -31.645  1.00  0.00     0.213 HD
ENDBRANCH   1  52
TORSDOF 16
ENDMDL
MODEL 3
REMARK VINA RESULT: -5.425483380      2.139      6.189
REMARK  16 active torsions:
REMARK  status: ('A' for Active; 'I' for Inactive)
REMARK    1  A    between atoms: C2_2  and  O1_3 
REMARK    2  A    between atoms: O1_3  and  C3_4 
REMARK    3  A    between atoms: C3_4  and  O2_5 
REMARK    4  A    between atoms: C8_15  and  C9_16 
REMARK    5  A    between atoms: C8_15  and  C11_18 
REMARK    6  A    between atoms: C12_22  and  N3_23 
REMARK    7  A    between atoms: N3_23  and  C13_25 
REMARK    8  A    between atoms: C14_26  and  O7_27 
REMARK    9  A    between atoms: C15_29  and  N4_30 
REMARK   10  A    between atoms: C17_35  and  N5_36 
REMARK   11  A    between atoms: C18_40  and  N6_41 
REMARK   12  A    between atoms: N6_41  and  C19_43 
REMARK   13  A    between atoms: C19_43  and  N7_44 
REMARK   14  A    between atoms: C19_43  and  O8_48 
REMARK   15  A    between atoms: C20_50  and  N8_51 
REMARK   16  A    between atoms: N8_51  and  O9_52 
ROOT
HETATM    1  C3  UNL     1       3.465  -4.253 -26.518  1.00  0.00     0.244 C 
HETATM    2  C4  UNL     1       2.354  -4.697 -25.480  1.00  0.00     0.246 C 
HETATM    3  O3  UNL     1       2.028  -3.380 -25.080  1.00  0.00    -0.356 OA
HETATM    4  C5  UNL     1       1.632  -2.749 -26.260  1.00  0.00     0.216 C 
HETATM    5  C6  UNL     1       1.891  -1.323 -26.179  1.00  0.00     0.136 C 
HETATM    6  C7  UNL     1       3.215  -0.778 -26.415  1.00  0.00     0.117 C 
HETATM    7  N1  UNL     1       4.279  -0.311 -26.606  1.00  0.00    -0.190 NA
HETATM    8  N2  UNL     1       0.931  -0.540 -25.918  1.00  0.00    -0.341 N 
ATOM      9  H2  UNL     1       1.124   0.459 -25.859  1.00  0.00     0.163 HD
HETATM   10  C8  UNL     1      -0.388  -0.980 -25.705  1.00  0.00     0.227 C 
HETATM   11  O6  UNL     1      -0.747  -2.178 -26.314  1.00  0.00    -0.322 OA
HETATM   12  C12 UNL     1       0.198  -3.084 -26.618  1.00  0.00     0.273 C 
HETATM   13  C20 UNL     1       2.622  -3.324 -27.287  1.00  0.00     0.204 C 
ENDROOT
BRANCH  12  14
HETATM   14  N3  UNL     1       0.186  -3.576 -27.954  1.00  0.00    -0.363 N 
ATOM     15  H3  UNL     1       0.679  -3.059 -28.682  1.00  0.00     0.162 HD
BRANCH  14  16
HETATM   16  C13 UNL     1      -0.497  -4.774 -28.294  1.00  0.00     0.040 C 
HETATM   17  C14 UNL     1      -0.837  -5.654 -27.096  1.00  0.00     0.196 C 
HETATM   18  C15 UNL     1      -2.232  -6.237 -27.384  1.00  0.00     0.219 C 
HETATM   19  C16 UNL     1      -2.494  -6.285 -28.863  1.00  0.00     0.071 C 
HETATM   20  C17 UNL     1      -1.301  -6.541 -29.718  1.00  0.00     0.213 C 
HETATM   21  C18 UNL     1      -0.149  -5.555 -29.493  1.00  0.00     0.159 C 
BRANCH  17  22
HETATM   22  O7  UNL     1       0.082  -6.649 -26.864  1.00  0.00    -0.388 OA
ATOM     23  H7  UNL     1       0.853  -6.353 -26.394  1.00  0.00     0.210 HD
ENDBRANCH  17  22
BRANCH  18  24
HETATM   24  N4  UNL     1      -2.509  -7.439 -26.673  1.00  0.00    -0.072 N 
ATOM     25  H43 UNL     1      -3.249  -7.289 -25.988  1.00  0.00     0.274 HD
ATOM     26  H42 UNL     1      -2.972  -8.117 -27.279  1.00  0.00     0.274 HD
ATOM     27  H41 UNL     1      -1.688  -7.853 -26.232  1.00  0.00     0.274 HD
ENDBRANCH  18  24
BRANCH  20  28
HETATM   28  N5  UNL     1      -0.922  -7.908 -29.502  1.00  0.00    -0.073 N 
ATOM     29  H53 UNL     1      -1.688  -8.566 -29.650  1.00  0.00     0.274 HD
ATOM     30  H52 UNL     1      -0.299  -8.272 -30.222  1.00  0.00     0.274 HD
ATOM     31  H51 UNL     1      -0.525  -7.958 -28.563  1.00  0.00     0.274 HD
ENDBRANCH  20  28
BRANCH  21  32
HETATM   32  N6  UNL     1       1.039  -6.272 -29.597  1.00  0.00    -0.364 N 
ATOM     33  H6  UNL     1       1.218  -7.067 -28.984  1.00  0.00     0.158 HD
BRANCH  32  34
HETATM   34  C19 UNL     1       2.004  -5.878 -30.575  1.00  0.00     0.420 C 
BRANCH  34  35
HETATM   35  N7  UNL     1       3.319  -5.656 -30.063  1.00  0.00    -0.035 N 
ATOM     36  H73 UNL     1       3.772  -4.896 -30.572  1.00  0.00     0.279 HD
ATOM     37  H72 UNL     1       3.271  -5.242 -29.133  1.00  0.00     0.279 HD
ATOM     38  H71 UNL     1       3.919  -6.481 -30.053  1.00  0.00     0.279 HD
ENDBRANCH  34  35
BRANCH  34  39
HETATM   39  O8  UNL     1       1.520  -4.692 -31.138  1.00  0.00    -0.355 OA
ATOM     40  H8  UNL     1       1.684  -4.759 -32.072  1.00  0.00     0.213 HD
ENDBRANCH  34  39
ENDBRANCH  32  34
ENDBRANCH  21  32
ENDBRANCH  14  16
ENDBRANCH  12  14
BRANCH  13  41
HETATM   41  N8  UNL     1       2.685  -3.069 -28.469  1.00  0.00    -0.283 NA
BRANCH  41  42
HETATM   42  O9  UNL     1       2.648  -2.567 -29.618  1.00  0.00    -0.218 OA
ATOM     43  H9  UNL     1       2.783  -2.305 -30.521  1.00  0.00     0.261 HD
ENDBRANCH  41  42
ENDBRANCH  13  41
BRANCH  10  44
HETATM   44  C9  UNL     1      -0.691  -1.156 -24.239  1.00  0.00     0.069 C 
HETATM   45  C10 UNL     1      -0.172  -0.025 -23.421  1.00  0.00     0.010 C 
ENDBRANCH  10  44
BRANCH  10  46
HETATM   46  C11 UNL     1      -1.277   0.125 -26.193  1.00  0.00     0.231 C 
HETATM   47  O4  UNL     1      -2.503   0.070 -26.133  1.00  0.00    -0.644 OA
HETATM   48  O5  UNL     1      -0.640   1.246 -26.738  1.00  0.00    -0.644 OA
ENDBRANCH  10  46
BRANCH   1  49
HETATM   49  O1  UNL     1       3.953  -5.360 -27.115  1.00  0.00    -0.348 OA
BRANCH  49  50
HETATM   50  C2  UNL     1       3.700  -6.509 -26.399  1.00  0.00     0.167 C 
HETATM   51  C1  UNL     1       3.692  -7.745 -27.293  1.00  0.00     0.033 C 
ENDBRANCH  49  50
ENDBRANCH   1  49
BRANCH   1  52
HETATM   52  O2  UNL     1       4.397  -3.650 -25.660  1.00  0.00    -0.358 OA
ATOM     53  H2  UNL     1       4.077  -3.579 -24.769  1.00  0.00     0.213 HD
ENDBRANCH   1  52
TORSDOF 16
ENDMDL
MODEL 4
REMARK VINA RESULT: -5.259416621      2.926      6.032
REMARK  16 active torsions:
REMARK  status: ('A' for Active; 'I' for Inactive)
REMARK    1  A    between atoms: C2_2  and  O1_3 
REMARK    2  A    between atoms: O1_3  and  C3_4 
REMARK    3  A    between atoms: C3_4  and  O2_5 
REMARK    4  A    between atoms: C8_15  and  C9_16 
REMARK    5  A    between atoms: C8_15  and  C11_18 
REMARK    6  A    between atoms: C12_22  and  N3_23 
REMARK    7  A    between atoms: N3_23  and  C13_25 
REMARK    8  A    between atoms: C14_26  and  O7_27 
REMARK    9  A    between atoms: C15_29  and  N4_30 
REMARK   10  A    between atoms: C17_35  and  N5_36 
REMARK   11  A    between atoms: C18_40  and  N6_41 
REMARK   12  A    between atoms: N6_41  and  C19_43 
REMARK   13  A    between atoms: C19_43  and  N7_44 
REMARK   14  A    between atoms: C19_43  and  O8_48 
REMARK   15  A    between atoms: C20_50  and  N8_51 
REMARK   16  A    between atoms: N8_51  and  O9_52 
ROOT
HETATM    1  C3  UNL     1      -1.514  -5.424 -27.992  1.00  0.00     0.244 C 
HETATM    2  C4  UNL     1      -0.813  -5.865 -26.641  1.00  0.00     0.246 C 
HETATM    3  O3  UNL     1       0.438  -5.286 -26.960  1.00  0.00    -0.356 OA
HETATM    4  C5  UNL     1       0.153  -3.935 -27.160  1.00  0.00     0.216 C 
HETATM    5  C6  UNL     1       1.108  -3.351 -28.084  1.00  0.00     0.136 C 
HETATM    6  C7  UNL     1       0.972  -3.519 -29.519  1.00  0.00     0.117 C 
HETATM    7  N1  UNL     1       0.882  -3.636 -30.687  1.00  0.00    -0.190 NA
HETATM    8  N2  UNL     1       2.064  -2.662 -27.623  1.00  0.00    -0.341 N 
ATOM      9  H2  UNL     1       2.731  -2.259 -28.280  1.00  0.00     0.163 HD
HETATM   10  C8  UNL     1       2.252  -2.424 -26.249  1.00  0.00     0.227 C 
HETATM   11  O6  UNL     1       1.114  -2.469 -25.452  1.00  0.00    -0.322 OA
HETATM   12  C12 UNL     1       0.047  -3.187 -25.845  1.00  0.00     0.273 C 
HETATM   13  C20 UNL     1      -1.199  -3.990 -27.889  1.00  0.00     0.204 C 
ENDROOT
BRANCH  12  14
HETATM   14  N3  UNL     1      -1.204  -2.509 -25.829  1.00  0.00    -0.363 N 
ATOM     15  H3  UNL     1      -1.918  -2.759 -26.514  1.00  0.00     0.162 HD
BRANCH  14  16
HETATM   16  C13 UNL     1      -1.480  -1.490 -24.878  1.00  0.00     0.040 C 
HETATM   17  C14 UNL     1      -2.951  -1.387 -24.490  1.00  0.00     0.196 C 
HETATM   18  C15 UNL     1      -2.967  -1.081 -22.982  1.00  0.00     0.219 C 
HETATM   19  C16 UNL     1      -1.694  -0.404 -22.561  1.00  0.00     0.071 C 
HETATM   20  C17 UNL     1      -1.080   0.497 -23.578  1.00  0.00     0.213 C 
HETATM   21  C18 UNL     1      -0.811  -0.179 -24.928  1.00  0.00     0.159 C 
BRANCH  17  22
HETATM   22  O7  UNL     1      -3.643  -0.437 -25.200  1.00  0.00    -0.388 OA
ATOM     23  H7  UNL     1      -4.571  -0.413 -25.000  1.00  0.00     0.210 HD
ENDBRANCH  17  22
BRANCH  18  24
HETATM   24  N4  UNL     1      -4.168  -0.460 -22.536  1.00  0.00    -0.072 N 
ATOM     25  H43 UNL     1      -4.457   0.271 -23.186  1.00  0.00     0.274 HD
ATOM     26  H42 UNL     1      -4.959  -1.096 -22.632  1.00  0.00     0.274 HD
ATOM     27  H41 UNL     1      -4.112  -0.095 -21.585  1.00  0.00     0.274 HD
ENDBRANCH  18  24
BRANCH  20  28
HETATM   28  N5  UNL     1      -1.934   1.645 -23.683  1.00  0.00    -0.073 N 
ATOM     29  H53 UNL     1      -1.712   2.375 -23.006  1.00  0.00     0.274 HD
ATOM     30  H52 UNL     1      -1.766   2.195 -24.525  1.00  0.00     0.274 HD
ATOM     31  H51 UNL     1      -2.893   1.305 -23.609  1.00  0.00     0.274 HD
ENDBRANCH  20  28
BRANCH  21  32
HETATM   32  N6  UNL     1      -1.077   0.757 -25.922  1.00  0.00    -0.364 N 
ATOM     33  H6  UNL     1      -1.924   1.324 -25.885  1.00  0.00     0.158 HD
BRANCH  32  34
HETATM   34  C19 UNL     1      -0.147   0.912 -26.996  1.00  0.00     0.420 C 
BRANCH  34  35
HETATM   35  N7  UNL     1      -0.457   1.967 -27.909  1.00  0.00    -0.035 N 
ATOM     36  H73 UNL     1      -1.387   1.828 -28.307  1.00  0.00     0.279 HD
ATOM     37  H72 UNL     1      -0.610   2.839 -27.403  1.00  0.00     0.279 HD
ATOM     38  H71 UNL     1       0.228   2.105 -28.651  1.00  0.00     0.279 HD
ENDBRANCH  34  35
BRANCH  34  39
HETATM   39  O8  UNL     1      -0.142  -0.307 -27.681  1.00  0.00    -0.355 OA
ATOM     40  H8  UNL     1       0.575  -0.256 -28.302  1.00  0.00     0.213 HD
ENDBRANCH  34  39
ENDBRANCH  32  34
ENDBRANCH  21  32
ENDBRANCH  14  16
ENDBRANCH  12  14
BRANCH  13  41
HETATM   41  N8  UNL     1      -1.859  -3.056 -28.287  1.00  0.00    -0.283 NA
BRANCH  41  42
HETATM   42  O9  UNL     1      -2.409  -1.950 -28.507  1.00  0.00    -0.218 OA
ATOM     43  H9  UNL     1      -2.700  -1.107 -28.835  1.00  0.00     0.261 HD
ENDBRANCH  41  42
ENDBRANCH  13  41
BRANCH  10  44
HETATM   44  C9  UNL     1       3.222  -3.402 -25.638  1.00  0.00     0.069 C 
HETATM   45  C10 UNL     1       4.382  -3.672 -26.533  1.00  0.00     0.010 C 
ENDBRANCH  10  44
BRANCH  10  46
HETATM   46  C11 UNL     1       2.891  -1.071 -26.147  1.00  0.00     0.231 C 
HETATM   47  O4  UNL     1       3.277  -0.595 -25.082  1.00  0.00    -0.644 OA
HETATM   48  O5  UNL     1       3.032  -0.354 -27.341  1.00  0.00    -0.644 OA
ENDBRANCH  10  46
BRANCH   1  49
HETATM   49  O1  UNL     1      -2.801  -5.829 -27.951  1.00  0.00    -0.348 OA
BRANCH  49  50
HETATM   50  C2  UNL     1      -3.115  -6.711 -28.960  1.00  0.00     0.167 C 
HETATM   51  C1  UNL     1      -4.612  -6.736 -29.247  1.00  0.00     0.033 C 
ENDBRANCH  49  50
ENDBRANCH   1  49
BRANCH   1  52
HETATM   52  O2  UNL     1      -0.754  -6.142 -28.926  1.00  0.00    -0.358 OA
ATOM     53  H2  UNL     1      -0.903  -5.850 -29.817  1.00  0.00     0.213 HD
ENDBRANCH   1  52
TORSDOF 16
ENDMDL
MODEL 5
REMARK VINA RESULT: -5.232612113      2.406      5.799
REMARK  16 active torsions:
REMARK  status: ('A' for Active; 'I' for Inactive)
REMARK    1  A    between atoms: C2_2  and  O1_3 
REMARK    2  A    between atoms: O1_3  and  C3_4 
REMARK    3  A    between atoms: C3_4  and  O2_5 
REMARK    4  A    between atoms: C8_15  and  C9_16 
REMARK    5  A    between atoms: C8_15  and  C11_18 
REMARK    6  A    between atoms: C12_22  and  N3_23 
REMARK    7  A    between atoms: N3_23  and  C13_25 
REMARK    8  A    between atoms: C14_26  and  O7_27 
REMARK    9  A    between atoms: C15_29  and  N4_30 
REMARK   10  A    between atoms: C17_35  and  N5_36 
REMARK   11  A    between atoms: C18_40  and  N6_41 
REMARK   12  A    between atoms: N6_41  and  C19_43 
REMARK   13  A    between atoms: C19_43  and  N7_44 
REMARK   14  A    between atoms: C19_43  and  O8_48 
REMARK   15  A    between atoms: C20_50  and  N8_51 
REMARK   16  A    between atoms: N8_51  and  O9_52 
ROOT
HETATM    1  C3  UNL     1       4.252  -2.616 -27.067  1.00  0.00     0.244 C 
HETATM    2  C4  UNL     1       4.103  -2.806 -25.501  1.00  0.00     0.246 C 
HETATM    3  O3  UNL     1       3.076  -1.844 -25.360  1.00  0.00    -0.356 OA
HETATM    4  C5  UNL     1       2.055  -2.304 -26.194  1.00  0.00     0.216 C 
HETATM    5  C6  UNL     1       1.254  -1.190 -26.669  1.00  0.00     0.136 C 
HETATM    6  C7  UNL     1       1.690  -0.362 -27.778  1.00  0.00     0.117 C 
HETATM    7  N1  UNL     1       2.020   0.322 -28.678  1.00  0.00    -0.190 NA
HETATM    8  N2  UNL     1       0.141  -0.955 -26.115  1.00  0.00    -0.341 N 
ATOM      9  H2  UNL     1      -0.412  -0.169 -26.453  1.00  0.00     0.163 HD
HETATM   10  C8  UNL     1      -0.371  -1.726 -25.054  1.00  0.00     0.227 C 
HETATM   11  O6  UNL     1       0.062  -3.046 -24.983  1.00  0.00    -0.322 OA
HETATM   12  C12 UNL     1       1.240  -3.395 -25.528  1.00  0.00     0.273 C 
HETATM   13  C20 UNL     1       2.837  -2.840 -27.404  1.00  0.00     0.204 C 
ENDROOT
BRANCH  12  14
HETATM   14  N3  UNL     1       1.216  -4.517 -26.404  1.00  0.00    -0.363 N 
ATOM     15  H3  UNL     1       2.096  -4.912 -26.735  1.00  0.00     0.162 HD
BRANCH  14  16
HETATM   16  C13 UNL     1      -0.009  -5.097 -26.827  1.00  0.00     0.040 C 
HETATM   17  C14 UNL     1       0.129  -6.523 -27.350  1.00  0.00     0.196 C 
HETATM   18  C15 UNL     1      -1.116  -7.277 -26.848  1.00  0.00     0.219 C 
HETATM   19  C16 UNL     1      -2.253  -6.326 -26.604  1.00  0.00     0.071 C 
HETATM   20  C17 UNL     1      -2.315  -5.152 -27.519  1.00  0.00     0.213 C 
HETATM   21  C18 UNL     1      -1.027  -4.320 -27.555  1.00  0.00     0.159 C 
BRANCH  17  22
HETATM   22  O7  UNL     1       0.242  -6.600 -28.716  1.00  0.00    -0.388 OA
ATOM     23  H7  UNL     1       0.910  -7.209 -29.009  1.00  0.00     0.210 HD
ENDBRANCH  17  22
BRANCH  18  24
HETATM   24  N4  UNL     1      -1.436  -8.431 -27.617  1.00  0.00    -0.072 N 
ATOM     25  H43 UNL     1      -2.414  -8.688 -27.489  1.00  0.00     0.274 HD
ATOM     26  H42 UNL     1      -1.447  -8.208 -28.612  1.00  0.00     0.274 HD
ATOM     27  H41 UNL     1      -0.827  -9.228 -27.434  1.00  0.00     0.274 HD
ENDBRANCH  18  24
BRANCH  20  28
HETATM   28  N5  UNL     1      -2.698  -5.652 -28.808  1.00  0.00    -0.073 N 
ATOM     29  H53 UNL     1      -2.112  -6.422 -29.131  1.00  0.00     0.274 HD
ATOM     30  H52 UNL     1      -3.582  -6.160 -28.796  1.00  0.00     0.274 HD
ATOM     31  H51 UNL     1      -2.701  -4.854 -29.444  1.00  0.00     0.274 HD
ENDBRANCH  20  28
BRANCH  21  32
HETATM   32  N6  UNL     1      -0.843  -3.894 -28.866  1.00  0.00    -0.364 N 
ATOM     33  H6  UNL     1      -0.621  -4.564 -29.601  1.00  0.00     0.158 HD
BRANCH  32  34
HETATM   34  C19 UNL     1      -0.971  -2.502 -29.167  1.00  0.00     0.420 C 
BRANCH  34  35
HETATM   35  N7  UNL     1      -2.286  -2.088 -29.540  1.00  0.00    -0.035 N 
ATOM     36  H73 UNL     1      -2.412  -1.094 -29.346  1.00  0.00     0.279 HD
ATOM     37  H72 UNL     1      -2.381  -2.084 -30.555  1.00  0.00     0.279 HD
ATOM     38  H71 UNL     1      -3.041  -2.628 -29.117  1.00  0.00     0.279 HD
ENDBRANCH  34  35
BRANCH  34  39
HETATM   39  O8  UNL     1      -0.090  -2.256 -30.226  1.00  0.00    -0.355 OA
ATOM     40  H8  UNL     1       0.700  -1.904 -29.833  1.00  0.00     0.213 HD
ENDBRANCH  34  39
ENDBRANCH  32  34
ENDBRANCH  21  32
ENDBRANCH  14  16
ENDBRANCH  12  14
BRANCH  13  41
HETATM   41  N8  UNL     1       2.384  -3.340 -28.409  1.00  0.00    -0.283 NA
BRANCH  41  42
HETATM   42  O9  UNL     1       2.090  -4.057 -29.396  1.00  0.00    -0.218 OA
ATOM     43  H9  UNL     1       1.691  -4.626 -30.043  1.00  0.00     0.261 HD
ENDBRANCH  41  42
ENDBRANCH  13  41
BRANCH  10  44
HETATM   44  C9  UNL     1      -0.056  -1.115 -23.713  1.00  0.00     0.069 C 
HETATM   45  C10 UNL     1       0.209   0.347 -23.814  1.00  0.00     0.010 C 
ENDBRANCH  10  44
BRANCH  10  46
HETATM   46  C11 UNL     1      -1.863  -1.688 -25.198  1.00  0.00     0.231 C 
HETATM   47  O4  UNL     1      -2.427  -1.651 -26.290  1.00  0.00    -0.644 OA
HETATM   48  O5  UNL     1      -2.608  -1.691 -24.013  1.00  0.00    -0.644 OA
ENDBRANCH  10  46
BRANCH   1  49
HETATM   49  O1  UNL     1       5.188  -3.481 -27.511  1.00  0.00    -0.348 OA
BRANCH  49  50
HETATM   50  C2  UNL     1       6.068  -2.906 -28.400  1.00  0.00     0.167 C 
HETATM   51  C1  UNL     1       5.813  -3.369 -29.831  1.00  0.00     0.033 C 
ENDBRANCH  49  50
ENDBRANCH   1  49
BRANCH   1  52
HETATM   52  O2  UNL     1       4.681  -1.282 -27.128  1.00  0.00    -0.358 OA
ATOM     53  H2  UNL     1       4.580  -0.907 -27.994  1.00  0.00     0.213 HD
ENDBRANCH   1  52
TORSDOF 16
ENDMDL
