MODEL 1
REMARK VINA RESULT: -8.140501008      0.000      0.000
REMARK  8 active torsions:
REMARK  status: ('A' for Active; 'I' for Inactive)
REMARK    1  A    between atoms: C2_2  and  O1_4 
REMARK    2  A    between atoms: C2_2  and  O2_6 
REMARK    3  A    between atoms: O2_6  and  C4_7 
REMARK    4  A    between atoms: C4_7  and  C5_8 
REMARK    5  A    between atoms: C15_18  and  N1_19 
REMARK       I    between atoms: N1_19  and  C16_21 
REMARK    6  A    between atoms: C16_21  and  C17_23 
REMARK    7  A    between atoms: C17_23  and  C18_24 
REMARK    8  A    between atoms: C18_24  and  C19_25 
ROOT
HETATM    1  C5  UNL     1      37.613  59.055  56.760  1.00  0.00    -0.008 C 
HETATM    2  C6  UNL     1      37.888  59.274  55.255  1.00  0.00    -0.003 C 
HETATM    3  C7  UNL     1      39.323  59.186  55.242  1.00  0.00     0.006 C 
HETATM    4  C8  UNL     1      39.592  58.030  56.234  1.00  0.00     0.006 C 
HETATM    5  C9  UNL     1      38.241  57.664  56.793  1.00  0.00    -0.003 C 
HETATM    6  C10 UNL     1      38.143  57.135  58.130  1.00  0.00     0.006 C 
HETATM    7  C11 UNL     1      37.120  56.113  58.446  1.00  0.00     0.010 C 
HETATM    8  C12 UNL     1      35.707  56.292  58.165  1.00  0.00    -0.038 C 
HETATM    9  C13 UNL     1      35.365  55.554  56.859  1.00  0.00     0.015 C 
HETATM   10  C14 UNL     1      34.999  55.383  59.226  1.00  0.00     0.034 C 
HETATM   11  C15 UNL     1      34.884  56.254  60.436  1.00  0.00     0.085 C 
HETATM   12  C23 UNL     1      34.709  57.598  59.859  1.00  0.00     0.030 C 
HETATM   13  C24 UNL     1      34.993  57.525  58.372  1.00  0.00    -0.004 C 
HETATM   14  C25 UNL     1      35.465  58.852  57.969  1.00  0.00     0.011 C 
HETATM   15  C26 UNL     1      36.140  59.008  56.668  1.00  0.00    -0.003 C 
HETATM   16  C27 UNL     1      35.883  60.290  55.923  1.00  0.00     0.006 C 
HETATM   17  C28 UNL     1      37.080  60.426  54.993  1.00  0.00     0.006 C 
ENDROOT
BRANCH  11  18
HETATM   18  N1  UNL     1      33.829  55.937  61.340  1.00  0.00    -0.356 N 
HETATM   19  C16 UNL     1      34.076  55.205  62.540  1.00  0.00     0.217 C 
HETATM   20  O3  UNL     1      35.214  54.808  62.863  1.00  0.00    -0.274 OA
ATOM     21  H1  UNL     1      32.878  56.239  61.124  1.00  0.00     0.162 HD
BRANCH  19  22
HETATM   22  C17 UNL     1      32.926  54.930  63.399  1.00  0.00     0.103 C 
BRANCH  22  23
HETATM   23  C18 UNL     1      32.852  55.666  64.679  1.00  0.00     0.015 C 
BRANCH  23  24
HETATM   24  C19 UNL     1      31.550  56.137  65.184  1.00  0.00     0.013 C 
HETATM   25  C20 UNL     1      31.017  55.146  66.264  1.00  0.00     0.034 C 
HETATM   26  C21 UNL     1      30.042  56.005  67.038  1.00  0.00     0.232 C 
HETATM   27  N2  UNL     1      30.014  57.304  66.393  1.00  0.00    -0.075 N 
HETATM   28  C22 UNL     1      31.437  57.401  65.944  1.00  0.00     0.237 C 
ATOM     29  H22 UNL     1      29.309  57.424  65.666  1.00  0.00     0.277 HD
ATOM     30  H21 UNL     1      29.675  58.077  66.966  1.00  0.00     0.277 HD
ENDBRANCH  23  24
ENDBRANCH  22  23
ENDBRANCH  19  22
ENDBRANCH  11  18
BRANCH   1  31
HETATM   31  C4  UNL     1      38.269  60.034  57.612  1.00  0.00     0.182 C 
BRANCH  31  32
HETATM   32  O2  UNL     1      37.495  60.962  58.257  1.00  0.00    -0.355 OA
BRANCH  32  33
HETATM   33  C2  UNL     1      37.944  62.242  58.205  1.00  0.00     0.154 C 
HETATM   34  C1  UNL     1      36.861  63.281  58.015  1.00  0.00     0.078 C 
HETATM   35  C3  UNL     1      39.015  62.485  57.167  1.00  0.00     0.078 C 
BRANCH  33  36
HETATM   36  O1  UNL     1      38.542  62.534  59.454  1.00  0.00    -0.366 OA
ATOM     37  H1  UNL     1      37.920  62.243  60.111  1.00  0.00     0.213 HD
ENDBRANCH  33  36
ENDBRANCH  32  33
ENDBRANCH  31  32
ENDBRANCH   1  31
TORSDOF 8
ENDMDL
MODEL 2
REMARK VINA RESULT: -8.018928667      3.822      6.208
REMARK  8 active torsions:
REMARK  status: ('A' for Active; 'I' for Inactive)
REMARK    1  A    between atoms: C2_2  and  O1_4 
REMARK    2  A    between atoms: C2_2  and  O2_6 
REMARK    3  A    between atoms: O2_6  and  C4_7 
REMARK    4  A    between atoms: C4_7  and  C5_8 
REMARK    5  A    between atoms: C15_18  and  N1_19 
REMARK       I    between atoms: N1_19  and  C16_21 
REMARK    6  A    between atoms: C16_21  and  C17_23 
REMARK    7  A    between atoms: C17_23  and  C18_24 
REMARK    8  A    between atoms: C18_24  and  C19_25 
ROOT
HETATM    1  C5  UNL     1      39.699  53.747  58.673  1.00  0.00    -0.008 C 
HETATM    2  C6  UNL     1      40.896  54.247  57.835  1.00  0.00    -0.003 C 
HETATM    3  C7  UNL     1      40.947  53.223  56.826  1.00  0.00     0.006 C 
HETATM    4  C8  UNL     1      39.449  52.975  56.532  1.00  0.00     0.006 C 
HETATM    5  C9  UNL     1      38.702  53.834  57.520  1.00  0.00    -0.003 C 
HETATM    6  C10 UNL     1      37.404  53.419  57.986  1.00  0.00     0.006 C 
HETATM    7  C11 UNL     1      36.364  54.433  58.276  1.00  0.00     0.010 C 
HETATM    8  C12 UNL     1      36.581  55.558  59.168  1.00  0.00    -0.038 C 
HETATM    9  C13 UNL     1      36.896  56.804  58.323  1.00  0.00     0.015 C 
HETATM   10  C14 UNL     1      35.145  55.898  59.692  1.00  0.00     0.034 C 
HETATM   11  C15 UNL     1      34.958  54.986  60.863  1.00  0.00     0.085 C 
HETATM   12  C23 UNL     1      36.320  54.869  61.410  1.00  0.00     0.030 C 
HETATM   13  C24 UNL     1      37.292  55.472  60.416  1.00  0.00    -0.004 C 
HETATM   14  C25 UNL     1      38.573  54.790  60.614  1.00  0.00     0.011 C 
HETATM   15  C26 UNL     1      39.617  54.909  59.580  1.00  0.00    -0.003 C 
HETATM   16  C27 UNL     1      41.041  54.967  60.061  1.00  0.00     0.006 C 
HETATM   17  C28 UNL     1      41.858  54.512  58.861  1.00  0.00     0.006 C 
ENDROOT
BRANCH  11  18
HETATM   18  N1  UNL     1      34.036  55.424  61.858  1.00  0.00    -0.356 N 
HETATM   19  C16 UNL     1      33.581  54.544  62.885  1.00  0.00     0.217 C 
HETATM   20  O3  UNL     1      33.959  53.358  62.971  1.00  0.00    -0.274 OA
ATOM     21  H1  UNL     1      33.695  56.386  61.836  1.00  0.00     0.162 HD
BRANCH  19  22
HETATM   22  C17 UNL     1      32.636  55.089  63.857  1.00  0.00     0.103 C 
BRANCH  22  23
HETATM   23  C18 UNL     1      32.769  56.523  64.193  1.00  0.00     0.015 C 
BRANCH  23  24
HETATM   24  C19 UNL     1      31.708  57.204  64.955  1.00  0.00     0.013 C 
HETATM   25  C20 UNL     1      30.801  56.143  65.653  1.00  0.00     0.034 C 
HETATM   26  C21 UNL     1      30.173  56.942  66.773  1.00  0.00     0.232 C 
HETATM   27  N2  UNL     1      30.651  58.305  66.644  1.00  0.00    -0.075 N 
HETATM   28  C22 UNL     1      32.030  58.049  66.126  1.00  0.00     0.237 C 
ATOM     29  H22 UNL     1      30.073  58.928  66.080  1.00  0.00     0.277 HD
ATOM     30  H21 UNL     1      30.592  58.878  67.486  1.00  0.00     0.277 HD
ENDBRANCH  23  24
ENDBRANCH  22  23
ENDBRANCH  19  22
ENDBRANCH  11  18
BRANCH   1  31
HETATM   31  C4  UNL     1      39.889  52.407  59.206  1.00  0.00     0.182 C 
BRANCH  31  32
HETATM   32  O2  UNL     1      38.812  51.562  59.249  1.00  0.00    -0.355 OA
BRANCH  32  33
HETATM   33  C2  UNL     1      39.099  50.237  59.174  1.00  0.00     0.154 C 
HETATM   34  C1  UNL     1      38.592  49.417  60.339  1.00  0.00     0.078 C 
HETATM   35  C3  UNL     1      40.565  49.927  58.983  1.00  0.00     0.078 C 
BRANCH  33  36
HETATM   36  O1  UNL     1      38.444  49.726  58.029  1.00  0.00    -0.366 OA
ATOM     37  H1  UNL     1      39.113  49.275  57.527  1.00  0.00     0.213 HD
ENDBRANCH  33  36
ENDBRANCH  32  33
ENDBRANCH  31  32
ENDBRANCH   1  31
TORSDOF 8
ENDMDL
MODEL 3
REMARK VINA RESULT: -7.963235507      8.853     13.047
REMARK  8 active torsions:
REMARK  status: ('A' for Active; 'I' for Inactive)
REMARK    1  A    between atoms: C2_2  and  O1_4 
REMARK    2  A    between atoms: C2_2  and  O2_6 
REMARK    3  A    between atoms: O2_6  and  C4_7 
REMARK    4  A    between atoms: C4_7  and  C5_8 
REMARK    5  A    between atoms: C15_18  and  N1_19 
REMARK       I    between atoms: N1_19  and  C16_21 
REMARK    6  A    between atoms: C16_21  and  C17_23 
REMARK    7  A    between atoms: C17_23  and  C18_24 
REMARK    8  A    between atoms: C18_24  and  C19_25 
ROOT
HETATM    1  C5  UNL     1      40.316  52.370  58.501  1.00  0.00    -0.008 C 
HETATM    2  C6  UNL     1      40.596  52.735  59.976  1.00  0.00    -0.003 C 
HETATM    3  C7  UNL     1      39.471  52.105  60.613  1.00  0.00     0.006 C 
HETATM    4  C8  UNL     1      39.352  50.775  59.832  1.00  0.00     0.006 C 
HETATM    5  C9  UNL     1      40.385  50.863  58.737  1.00  0.00    -0.003 C 
HETATM    6  C10 UNL     1      40.159  50.179  57.489  1.00  0.00     0.006 C 
HETATM    7  C11 UNL     1      41.301  49.591  56.753  1.00  0.00     0.010 C 
HETATM    8  C12 UNL     1      42.486  50.349  56.391  1.00  0.00    -0.038 C 
HETATM    9  C13 UNL     1      43.595  50.049  57.412  1.00  0.00     0.015 C 
HETATM   10  C14 UNL     1      43.028  49.606  55.122  1.00  0.00     0.034 C 
HETATM   11  C15 UNL     1      42.270  50.219  53.988  1.00  0.00     0.085 C 
HETATM   12  C23 UNL     1      42.069  51.607  54.438  1.00  0.00     0.030 C 
HETATM   13  C24 UNL     1      42.459  51.701  55.900  1.00  0.00    -0.004 C 
HETATM   14  C25 UNL     1      41.671  52.794  56.475  1.00  0.00     0.011 C 
HETATM   15  C26 UNL     1      41.571  52.911  57.941  1.00  0.00    -0.003 C 
HETATM   16  C27 UNL     1      41.530  54.305  58.506  1.00  0.00     0.006 C 
HETATM   17  C28 UNL     1      40.867  54.136  59.865  1.00  0.00     0.006 C 
ENDROOT
BRANCH  11  18
HETATM   18  N1  UNL     1      42.905  50.175  52.713  1.00  0.00    -0.356 N 
HETATM   19  C16 UNL     1      42.143  50.155  51.506  1.00  0.00     0.217 C 
HETATM   20  O3  UNL     1      40.895  50.176  51.498  1.00  0.00    -0.274 OA
ATOM     21  H1  UNL     1      43.924  50.158  52.662  1.00  0.00     0.162 HD
BRANCH  19  22
HETATM   22  C17 UNL     1      42.889  50.108  50.250  1.00  0.00     0.103 C 
BRANCH  22  23
HETATM   23  C18 UNL     1      42.123  49.790  49.025  1.00  0.00     0.015 C 
BRANCH  23  24
HETATM   24  C19 UNL     1      42.056  48.402  48.537  1.00  0.00     0.013 C 
HETATM   25  C20 UNL     1      43.486  47.776  48.538  1.00  0.00     0.034 C 
HETATM   26  C21 UNL     1      43.189  46.293  48.568  1.00  0.00     0.232 C 
HETATM   27  N2  UNL     1      41.747  46.147  48.523  1.00  0.00    -0.075 N 
HETATM   28  C22 UNL     1      41.338  47.357  49.300  1.00  0.00     0.237 C 
ATOM     29  H22 UNL     1      41.337  46.056  47.593  1.00  0.00     0.277 HD
ATOM     30  H21 UNL     1      41.380  45.257  48.862  1.00  0.00     0.277 HD
ENDBRANCH  23  24
ENDBRANCH  22  23
ENDBRANCH  19  22
ENDBRANCH  11  18
BRANCH   1  31
HETATM   31  C4  UNL     1      39.028  52.848  58.026  1.00  0.00     0.182 C 
BRANCH  31  32
HETATM   32  O2  UNL     1      38.992  53.998  57.283  1.00  0.00    -0.355 OA
BRANCH  32  33
HETATM   33  C2  UNL     1      38.014  54.881  57.609  1.00  0.00     0.154 C 
HETATM   34  C1  UNL     1      38.509  56.262  57.977  1.00  0.00     0.078 C 
HETATM   35  C3  UNL     1      37.088  54.407  58.704  1.00  0.00     0.078 C 
BRANCH  33  36
HETATM   36  O1  UNL     1      37.201  55.056  56.464  1.00  0.00    -0.366 OA
ATOM     37  H1  UNL     1      36.781  54.217  56.315  1.00  0.00     0.213 HD
ENDBRANCH  33  36
ENDBRANCH  32  33
ENDBRANCH  31  32
ENDBRANCH   1  31
TORSDOF 8
ENDMDL
MODEL 4
REMARK VINA RESULT: -7.951742614      6.536     10.599
REMARK  8 active torsions:
REMARK  status: ('A' for Active; 'I' for Inactive)
REMARK    1  A    between atoms: C2_2  and  O1_4 
REMARK    2  A    between atoms: C2_2  and  O2_6 
REMARK    3  A    between atoms: O2_6  and  C4_7 
REMARK    4  A    between atoms: C4_7  and  C5_8 
REMARK    5  A    between atoms: C15_18  and  N1_19 
REMARK       I    between atoms: N1_19  and  C16_21 
REMARK    6  A    between atoms: C16_21  and  C17_23 
REMARK    7  A    between atoms: C17_23  and  C18_24 
REMARK    8  A    between atoms: C18_24  and  C19_25 
ROOT
HETATM    1  C5  UNL     1      37.438  54.922  59.162  1.00  0.00    -0.008 C 
HETATM    2  C6  UNL     1      37.305  56.236  59.964  1.00  0.00    -0.003 C 
HETATM    3  C7  UNL     1      36.250  55.875  60.871  1.00  0.00     0.006 C 
HETATM    4  C8  UNL     1      36.613  54.416  61.237  1.00  0.00     0.006 C 
HETATM    5  C9  UNL     1      37.805  54.077  60.379  1.00  0.00    -0.003 C 
HETATM    6  C10 UNL     1      38.016  52.714  59.961  1.00  0.00     0.006 C 
HETATM    7  C11 UNL     1      39.394  52.187  59.830  1.00  0.00     0.010 C 
HETATM    8  C12 UNL     1      40.418  52.836  59.031  1.00  0.00    -0.038 C 
HETATM    9  C13 UNL     1      41.323  53.660  59.962  1.00  0.00     0.015 C 
HETATM   10  C14 UNL     1      41.375  51.662  58.631  1.00  0.00     0.034 C 
HETATM   11  C15 UNL     1      40.754  51.088  57.398  1.00  0.00     0.085 C 
HETATM   12  C23 UNL     1      40.144  52.264  56.757  1.00  0.00     0.030 C 
HETATM   13  C24 UNL     1      40.181  53.421  57.737  1.00  0.00    -0.004 C 
HETATM   14  C25 UNL     1      39.056  54.294  57.398  1.00  0.00     0.011 C 
HETATM   15  C26 UNL     1      38.621  55.314  58.370  1.00  0.00    -0.003 C 
HETATM   16  C27 UNL     1      38.137  56.622  57.806  1.00  0.00     0.006 C 
HETATM   17  C28 UNL     1      37.259  57.199  58.906  1.00  0.00     0.006 C 
ENDROOT
BRANCH  11  18
HETATM   18  N1  UNL     1      41.639  50.412  56.507  1.00  0.00    -0.356 N 
HETATM   19  C16 UNL     1      41.880  49.010  56.624  1.00  0.00     0.217 C 
HETATM   20  O3  UNL     1      41.339  48.305  57.500  1.00  0.00    -0.274 OA
ATOM     21  H1  UNL     1      42.108  50.942  55.771  1.00  0.00     0.162 HD
BRANCH  19  22
HETATM   22  C17 UNL     1      42.805  48.414  55.663  1.00  0.00     0.103 C 
BRANCH  22  23
HETATM   23  C18 UNL     1      43.112  49.200  54.448  1.00  0.00     0.015 C 
BRANCH  23  24
HETATM   24  C19 UNL     1      42.294  49.032  53.235  1.00  0.00     0.013 C 
HETATM   25  C20 UNL     1      41.893  50.431  52.674  1.00  0.00     0.034 C 
HETATM   26  C21 UNL     1      41.580  50.122  51.227  1.00  0.00     0.232 C 
HETATM   27  N2  UNL     1      41.738  48.691  51.054  1.00  0.00    -0.075 N 
HETATM   28  C22 UNL     1      42.862  48.436  52.006  1.00  0.00     0.237 C 
ATOM     29  H22 UNL     1      40.898  48.130  51.197  1.00  0.00     0.277 HD
ATOM     30  H21 UNL     1      41.886  48.373  50.096  1.00  0.00     0.277 HD
ENDBRANCH  23  24
ENDBRANCH  22  23
ENDBRANCH  19  22
ENDBRANCH  11  18
BRANCH   1  31
HETATM   31  C4  UNL     1      36.206  54.525  58.501  1.00  0.00     0.182 C 
BRANCH  31  32
HETATM   32  O2  UNL     1      35.990  54.944  57.215  1.00  0.00    -0.355 OA
BRANCH  32  33
HETATM   33  C2  UNL     1      34.759  55.457  56.961  1.00  0.00     0.154 C 
HETATM   34  C1  UNL     1      33.943  55.774  58.194  1.00  0.00     0.078 C 
HETATM   35  C3  UNL     1      33.910  54.612  56.041  1.00  0.00     0.078 C 
BRANCH  33  36
HETATM   36  O1  UNL     1      34.943  56.691  56.293  1.00  0.00    -0.366 OA
ATOM     37  H1  UNL     1      34.177  56.803  55.741  1.00  0.00     0.213 HD
ENDBRANCH  33  36
ENDBRANCH  32  33
ENDBRANCH  31  32
ENDBRANCH   1  31
TORSDOF 8
ENDMDL
MODEL 5
REMARK VINA RESULT: -7.909964404      3.765      6.025
REMARK  8 active torsions:
REMARK  status: ('A' for Active; 'I' for Inactive)
REMARK    1  A    between atoms: C2_2  and  O1_4 
REMARK    2  A    between atoms: C2_2  and  O2_6 
REMARK    3  A    between atoms: O2_6  and  C4_7 
REMARK    4  A    between atoms: C4_7  and  C5_8 
REMARK    5  A    between atoms: C15_18  and  N1_19 
REMARK       I    between atoms: N1_19  and  C16_21 
REMARK    6  A    between atoms: C16_21  and  C17_23 
REMARK    7  A    between atoms: C17_23  and  C18_24 
REMARK    8  A    between atoms: C18_24  and  C19_25 
ROOT
HETATM    1  C5  UNL     1      39.718  53.767  58.654  1.00  0.00    -0.008 C 
HETATM    2  C6  UNL     1      40.909  54.268  57.807  1.00  0.00    -0.003 C 
HETATM    3  C7  UNL     1      40.954  53.244  56.798  1.00  0.00     0.006 C 
HETATM    4  C8  UNL     1      39.454  52.995  56.515  1.00  0.00     0.006 C 
HETATM    5  C9  UNL     1      38.713  53.854  57.508  1.00  0.00    -0.003 C 
HETATM    6  C10 UNL     1      37.419  53.438  57.983  1.00  0.00     0.006 C 
HETATM    7  C11 UNL     1      36.380  54.451  58.280  1.00  0.00     0.010 C 
HETATM    8  C12 UNL     1      36.603  55.576  59.170  1.00  0.00    -0.038 C 
HETATM    9  C13 UNL     1      36.911  56.822  58.323  1.00  0.00     0.015 C 
HETATM   10  C14 UNL     1      35.170  55.915  59.704  1.00  0.00     0.034 C 
HETATM   11  C15 UNL     1      34.992  55.004  60.876  1.00  0.00     0.085 C 
HETATM   12  C23 UNL     1      36.357  54.887  61.414  1.00  0.00     0.030 C 
HETATM   13  C24 UNL     1      37.323  55.491  60.413  1.00  0.00    -0.004 C 
HETATM   14  C25 UNL     1      38.605  54.810  60.602  1.00  0.00     0.011 C 
HETATM   15  C26 UNL     1      39.641  54.930  59.561  1.00  0.00    -0.003 C 
HETATM   16  C27 UNL     1      41.069  54.989  60.032  1.00  0.00     0.006 C 
HETATM   17  C28 UNL     1      41.878  54.534  58.827  1.00  0.00     0.006 C 
ENDROOT
BRANCH  11  18
HETATM   18  N1  UNL     1      34.076  55.441  61.878  1.00  0.00    -0.356 N 
HETATM   19  C16 UNL     1      33.596  54.549  62.883  1.00  0.00     0.217 C 
HETATM   20  O3  UNL     1      33.945  53.352  62.943  1.00  0.00    -0.274 OA
ATOM     21  H1  UNL     1      33.759  56.411  61.876  1.00  0.00     0.162 HD
BRANCH  19  22
HETATM   22  C17 UNL     1      32.660  55.095  63.863  1.00  0.00     0.103 C 
BRANCH  22  23
HETATM   23  C18 UNL     1      32.772  56.538  64.168  1.00  0.00     0.015 C 
BRANCH  23  24
HETATM   24  C19 UNL     1      31.715  57.212  64.943  1.00  0.00     0.013 C 
HETATM   25  C20 UNL     1      30.839  56.146  65.673  1.00  0.00     0.034 C 
HETATM   26  C21 UNL     1      30.220  56.951  66.794  1.00  0.00     0.232 C 
HETATM   27  N2  UNL     1      30.673  58.319  66.637  1.00  0.00    -0.075 N 
HETATM   28  C22 UNL     1      32.046  58.078  66.095  1.00  0.00     0.237 C 
ATOM     29  H22 UNL     1      30.074  58.924  66.076  1.00  0.00     0.277 HD
ATOM     30  H21 UNL     1      30.622  58.903  67.472  1.00  0.00     0.277 HD
ENDBRANCH  23  24
ENDBRANCH  22  23
ENDBRANCH  19  22
ENDBRANCH  11  18
BRANCH   1  31
HETATM   31  C4  UNL     1      39.913  52.428  59.185  1.00  0.00     0.182 C 
BRANCH  31  32
HETATM   32  O2  UNL     1      39.436  52.146  60.438  1.00  0.00    -0.355 OA
BRANCH  32  33
HETATM   33  C2  UNL     1      38.687  51.019  60.544  1.00  0.00     0.154 C 
HETATM   34  C1  UNL     1      38.600  50.200  59.275  1.00  0.00     0.078 C 
HETATM   35  C3  UNL     1      37.282  51.251  61.050  1.00  0.00     0.078 C 
BRANCH  33  36
HETATM   36  O1  UNL     1      39.310  50.183  61.500  1.00  0.00    -0.366 OA
ATOM     37  H1  UNL     1      39.257  50.650  62.326  1.00  0.00     0.213 HD
ENDBRANCH  33  36
ENDBRANCH  32  33
ENDBRANCH  31  32
ENDBRANCH   1  31
TORSDOF 8
ENDMDL
