MODEL 1
REMARK VINA RESULT: -9.793689462      0.000      0.000
REMARK  4 active torsions:
REMARK  status: ('A' for Active; 'I' for Inactive)
REMARK    1  A    between atoms: O1_2  and  C2_3 
REMARK    2  A    between atoms: C5_6  and  C6_7 
REMARK    3  A    between atoms: C7_8  and  C8_9 
REMARK    4  A    between atoms: C18_20  and  O2_21 
ROOT
HETATM    1  C6  UNL     1      26.373   7.831  -3.310  1.00  0.00     0.015 C 
HETATM    2  C7  UNL     1      27.186   6.779  -3.272  1.00  0.00     0.013 C 
ENDROOT
BRANCH   2   3
HETATM    3  C8  UNL     1      26.651   5.438  -3.472  1.00  0.00    -0.022 A 
HETATM    4  C9  UNL     1      25.327   5.156  -3.277  1.00  0.00     0.029 A 
HETATM    5  C10 UNL     1      24.838   3.890  -3.469  1.00  0.00     0.091 A 
HETATM    6  N1  UNL     1      25.602   2.864  -3.853  1.00  0.00    -0.360 N 
HETATM    7  C11 UNL     1      25.030   1.555  -4.038  1.00  0.00     0.155 C 
HETATM    8  C12 UNL     1      26.906   3.129  -4.048  1.00  0.00     0.044 A 
HETATM    9  C13 UNL     1      27.708   2.086  -4.443  1.00  0.00     0.030 A 
HETATM   10  C17 UNL     1      27.473   4.377  -3.875  1.00  0.00     0.001 A 
HETATM   11  C14 UNL     1      29.053   2.291  -4.659  1.00  0.00     0.002 A 
HETATM   12  C15 UNL     1      29.638   3.520  -4.495  1.00  0.00     0.001 A 
HETATM   13  C16 UNL     1      28.811   4.581  -4.091  1.00  0.00     0.014 A 
ENDBRANCH   2   3
BRANCH   1  14
HETATM   14  C5  UNL     1      26.895   9.200  -3.110  1.00  0.00    -0.003 A 
HETATM   15  C4  UNL     1      26.831   9.829  -1.914  1.00  0.00     0.017 A 
HETATM   16  C3  UNL     1      27.326  11.130  -1.717  1.00  0.00     0.038 A 
HETATM   17  C2  UNL     1      27.885  11.735  -2.817  1.00  0.00     0.070 A 
HETATM   18  C20 UNL     1      27.966  11.125  -4.045  1.00  0.00     0.074 A 
HETATM   19  C18 UNL     1      27.473   9.857  -4.194  1.00  0.00     0.081 A 
BRANCH  17  20
HETATM   20  O1  UNL     1      28.385  13.030  -2.653  1.00  0.00    -0.356 OA
HETATM   21  C1  UNL     1      28.152  13.726  -1.425  1.00  0.00     0.210 C 
ENDBRANCH  17  20
BRANCH  19  22
HETATM   22  O2  UNL     1      27.525   9.177  -5.422  1.00  0.00    -0.355 OA
HETATM   23  C19 UNL     1      28.536   9.556  -6.337  1.00  0.00     0.210 C 
ENDBRANCH  19  22
ENDBRANCH   1  14
TORSDOF 4
ENDMDL
MODEL 2
REMARK VINA RESULT: -9.616980317      2.962      7.740
REMARK  4 active torsions:
REMARK  status: ('A' for Active; 'I' for Inactive)
REMARK    1  A    between atoms: O1_2  and  C2_3 
REMARK    2  A    between atoms: C5_6  and  C6_7 
REMARK    3  A    between atoms: C7_8  and  C8_9 
REMARK    4  A    between atoms: C18_20  and  O2_21 
ROOT
HETATM    1  C6  UNL     1      26.139   5.665  -2.989  1.00  0.00     0.015 C 
HETATM    2  C7  UNL     1      26.150   6.680  -3.848  1.00  0.00     0.013 C 
ENDROOT
BRANCH   2   3
HETATM    3  C8  UNL     1      26.420   8.032  -3.374  1.00  0.00    -0.022 A 
HETATM    4  C9  UNL     1      25.896   8.500  -2.201  1.00  0.00     0.029 A 
HETATM    5  C10 UNL     1      26.159   9.775  -1.768  1.00  0.00     0.091 A 
HETATM    6  N1  UNL     1      26.929  10.630  -2.444  1.00  0.00    -0.360 N 
HETATM    7  C11 UNL     1      27.169  11.957  -1.938  1.00  0.00     0.155 C 
HETATM    8  C12 UNL     1      27.451  10.180  -3.599  1.00  0.00     0.044 A 
HETATM    9  C13 UNL     1      28.246  11.047  -4.310  1.00  0.00     0.030 A 
HETATM   10  C17 UNL     1      27.232   8.912  -4.102  1.00  0.00     0.001 A 
HETATM   11  C14 UNL     1      28.810  10.648  -5.502  1.00  0.00     0.002 A 
HETATM   12  C15 UNL     1      28.609   9.395  -6.020  1.00  0.00     0.001 A 
HETATM   13  C16 UNL     1      27.795   8.516  -5.288  1.00  0.00     0.014 A 
ENDBRANCH   2   3
BRANCH   1  14
HETATM   14  C5  UNL     1      25.868   4.286  -3.449  1.00  0.00    -0.003 A 
HETATM   15  C4  UNL     1      24.622   3.860  -3.757  1.00  0.00     0.017 A 
HETATM   16  C3  UNL     1      24.356   2.551  -4.195  1.00  0.00     0.038 A 
HETATM   17  C2  UNL     1      25.445   1.718  -4.295  1.00  0.00     0.070 A 
HETATM   18  C20 UNL     1      26.723   2.118  -3.990  1.00  0.00     0.074 A 
HETATM   19  C18 UNL     1      26.938   3.402  -3.567  1.00  0.00     0.081 A 
BRANCH  17  20
HETATM   20  O1  UNL     1      25.214   0.408  -4.727  1.00  0.00    -0.356 OA
HETATM   21  C1  UNL     1      24.222   0.160  -5.728  1.00  0.00     0.210 C 
ENDBRANCH  17  20
BRANCH  19  22
HETATM   22  O2  UNL     1      28.219   3.874  -3.240  1.00  0.00    -0.355 OA
HETATM   23  C19 UNL     1      29.208   3.837  -4.252  1.00  0.00     0.210 C 
ENDBRANCH  19  22
ENDBRANCH   1  14
TORSDOF 4
ENDMDL
MODEL 3
REMARK VINA RESULT: -9.448671894      0.997      2.422
REMARK  4 active torsions:
REMARK  status: ('A' for Active; 'I' for Inactive)
REMARK    1  A    between atoms: O1_2  and  C2_3 
REMARK    2  A    between atoms: C5_6  and  C6_7 
REMARK    3  A    between atoms: C7_8  and  C8_9 
REMARK    4  A    between atoms: C18_20  and  O2_21 
ROOT
HETATM    1  C6  UNL     1      27.623   7.229  -4.149  1.00  0.00     0.015 C 
HETATM    2  C7  UNL     1      27.463   6.195  -3.328  1.00  0.00     0.013 C 
ENDROOT
BRANCH   2   3
HETATM    3  C8  UNL     1      27.646   4.837  -3.824  1.00  0.00    -0.022 A 
HETATM    4  C9  UNL     1      28.879   4.356  -4.164  1.00  0.00     0.029 A 
HETATM    5  C10 UNL     1      29.035   3.075  -4.630  1.00  0.00     0.091 A 
HETATM    6  N1  UNL     1      28.017   2.225  -4.779  1.00  0.00    -0.360 N 
HETATM    7  C11 UNL     1      28.243   0.891  -5.273  1.00  0.00     0.155 C 
HETATM    8  C12 UNL     1      26.798   2.687  -4.447  1.00  0.00     0.044 A 
HETATM    9  C13 UNL     1      25.737   1.827  -4.595  1.00  0.00     0.030 A 
HETATM   10  C17 UNL     1      26.560   3.963  -3.973  1.00  0.00     0.001 A 
HETATM   11  C14 UNL     1      24.463   2.239  -4.273  1.00  0.00     0.002 A 
HETATM   12  C15 UNL     1      24.202   3.498  -3.800  1.00  0.00     0.001 A 
HETATM   13  C16 UNL     1      25.292   4.371  -3.652  1.00  0.00     0.014 A 
ENDBRANCH   2   3
BRANCH   1  14
HETATM   14  C5  UNL     1      27.442   8.615  -3.667  1.00  0.00    -0.003 A 
HETATM   15  C4  UNL     1      27.137   8.898  -2.381  1.00  0.00     0.017 A 
HETATM   16  C3  UNL     1      26.964  10.213  -1.915  1.00  0.00     0.038 A 
HETATM   17  C2  UNL     1      27.125  11.208  -2.850  1.00  0.00     0.070 A 
HETATM   18  C20 UNL     1      27.435  10.956  -4.164  1.00  0.00     0.074 A 
HETATM   19  C18 UNL     1      27.595   9.660  -4.576  1.00  0.00     0.081 A 
BRANCH  17  20
HETATM   20  O1  UNL     1      26.958  12.527  -2.419  1.00  0.00    -0.356 OA
HETATM   21  C1  UNL     1      28.076  13.241  -1.882  1.00  0.00     0.210 C 
ENDBRANCH  17  20
BRANCH  19  22
HETATM   22  O2  UNL     1      27.913   9.335  -5.904  1.00  0.00    -0.355 OA
HETATM   23  C19 UNL     1      29.129   9.835  -6.428  1.00  0.00     0.210 C 
ENDBRANCH  19  22
ENDBRANCH   1  14
TORSDOF 4
ENDMDL
MODEL 4
REMARK VINA RESULT: -9.357921636      0.876      1.050
REMARK  4 active torsions:
REMARK  status: ('A' for Active; 'I' for Inactive)
REMARK    1  A    between atoms: O1_2  and  C2_3 
REMARK    2  A    between atoms: C5_6  and  C6_7 
REMARK    3  A    between atoms: C7_8  and  C8_9 
REMARK    4  A    between atoms: C18_20  and  O2_21 
ROOT
HETATM    1  C6  UNL     1      26.359   6.901  -3.759  1.00  0.00     0.015 C 
HETATM    2  C7  UNL     1      26.144   5.924  -2.882  1.00  0.00     0.013 C 
ENDROOT
BRANCH   2   3
HETATM    3  C8  UNL     1      25.920   4.562  -3.351  1.00  0.00    -0.022 A 
HETATM    4  C9  UNL     1      24.672   4.004  -3.368  1.00  0.00     0.029 A 
HETATM    5  C10 UNL     1      24.477   2.721  -3.812  1.00  0.00     0.091 A 
HETATM    6  N1  UNL     1      25.469   1.943  -4.251  1.00  0.00    -0.360 N 
HETATM    7  C11 UNL     1      25.202   0.603  -4.705  1.00  0.00     0.155 C 
HETATM    8  C12 UNL     1      26.701   2.481  -4.239  1.00  0.00     0.044 A 
HETATM    9  C13 UNL     1      27.736   1.695  -4.685  1.00  0.00     0.030 A 
HETATM   10  C17 UNL     1      26.978   3.764  -3.806  1.00  0.00     0.001 A 
HETATM   11  C14 UNL     1      29.023   2.187  -4.698  1.00  0.00     0.002 A 
HETATM   12  C15 UNL     1      29.322   3.456  -4.275  1.00  0.00     0.001 A 
HETATM   13  C16 UNL     1      28.259   4.253  -3.820  1.00  0.00     0.014 A 
ENDBRANCH   2   3
BRANCH   1  14
HETATM   14  C5  UNL     1      26.588   8.290  -3.305  1.00  0.00    -0.003 A 
HETATM   15  C4  UNL     1      25.982   8.800  -2.209  1.00  0.00     0.017 A 
HETATM   16  C3  UNL     1      26.196  10.118  -1.771  1.00  0.00     0.038 A 
HETATM   17  C2  UNL     1      27.064  10.870  -2.527  1.00  0.00     0.070 A 
HETATM   18  C20 UNL     1      27.695  10.383  -3.646  1.00  0.00     0.074 A 
HETATM   19  C18 UNL     1      27.459   9.093  -4.037  1.00  0.00     0.081 A 
BRANCH  17  20
HETATM   20  O1  UNL     1      27.297  12.187  -2.119  1.00  0.00    -0.356 OA
HETATM   21  C1  UNL     1      28.444  12.886  -2.612  1.00  0.00     0.210 C 
ENDBRANCH  17  20
BRANCH  19  22
HETATM   22  O2  UNL     1      28.073   8.534  -5.170  1.00  0.00    -0.355 OA
HETATM   23  C19 UNL     1      28.418   9.410  -6.226  1.00  0.00     0.210 C 
ENDBRANCH  19  22
ENDBRANCH   1  14
TORSDOF 4
ENDMDL
MODEL 5
REMARK VINA RESULT: -8.993327336      1.424      3.098
REMARK  4 active torsions:
REMARK  status: ('A' for Active; 'I' for Inactive)
REMARK    1  A    between atoms: O1_2  and  C2_3 
REMARK    2  A    between atoms: C5_6  and  C6_7 
REMARK    3  A    between atoms: C7_8  and  C8_9 
REMARK    4  A    between atoms: C18_20  and  O2_21 
ROOT
HETATM    1  C6  UNL     1      27.641   6.705  -4.553  1.00  0.00     0.015 C 
HETATM    2  C7  UNL     1      27.906   5.775  -3.639  1.00  0.00     0.013 C 
ENDROOT
BRANCH   2   3
HETATM    3  C8  UNL     1      27.866   4.364  -4.003  1.00  0.00    -0.022 A 
HETATM    4  C9  UNL     1      28.998   3.678  -4.345  1.00  0.00     0.029 A 
HETATM    5  C10 UNL     1      28.944   2.350  -4.685  1.00  0.00     0.091 A 
HETATM    6  N1  UNL     1      27.809   1.648  -4.706  1.00  0.00    -0.360 N 
HETATM    7  C11 UNL     1      27.816   0.256  -5.072  1.00  0.00     0.155 C 
HETATM    8  C12 UNL     1      26.689   2.313  -4.371  1.00  0.00     0.044 A 
HETATM    9  C13 UNL     1      25.510   1.608  -4.388  1.00  0.00     0.030 A 
HETATM   10  C17 UNL     1      26.661   3.649  -4.018  1.00  0.00     0.001 A 
HETATM   11  C14 UNL     1      24.327   2.231  -4.056  1.00  0.00     0.002 A 
HETATM   12  C15 UNL     1      24.274   3.553  -3.701  1.00  0.00     0.001 A 
HETATM   13  C16 UNL     1      25.483   4.267  -3.687  1.00  0.00     0.014 A 
ENDBRANCH   2   3
BRANCH   1  14
HETATM   14  C5  UNL     1      27.676   8.141  -4.205  1.00  0.00    -0.003 A 
HETATM   15  C4  UNL     1      28.412   9.036  -4.903  1.00  0.00     0.017 A 
HETATM   16  C3  UNL     1      28.449  10.403  -4.579  1.00  0.00     0.038 A 
HETATM   17  C2  UNL     1      27.687  10.786  -3.500  1.00  0.00     0.070 A 
HETATM   18  C20 UNL     1      26.929   9.904  -2.769  1.00  0.00     0.074 A 
HETATM   19  C18 UNL     1      26.921   8.581  -3.120  1.00  0.00     0.081 A 
BRANCH  17  20
HETATM   20  O1  UNL     1      27.704  12.139  -3.150  1.00  0.00    -0.356 OA
HETATM   21  C1  UNL     1      27.724  12.511  -1.768  1.00  0.00     0.210 C 
ENDBRANCH  17  20
BRANCH  19  22
HETATM   22  O2  UNL     1      26.167   7.628  -2.415  1.00  0.00    -0.355 OA
HETATM   23  C19 UNL     1      25.027   8.085  -1.713  1.00  0.00     0.210 C 
ENDBRANCH  19  22
ENDBRANCH   1  14
TORSDOF 4
ENDMDL
