MODEL 1
REMARK VINA RESULT: -5.773514735      0.000      0.000
REMARK  2 active torsions:
REMARK  status: ('A' for Active; 'I' for Inactive)
REMARK    1  A    between atoms: N2_4  and  N3_6 
REMARK       I    between atoms: N3_6  and  C3_8 
REMARK    2  A    between atoms: C3_8  and  C4_10 
ROOT
HETATM    1  N1  UNL     1      13.347  -4.659   4.354  1.00  0.00    -0.191 NA
HETATM    2  C1  UNL     1      12.306  -4.476   4.819  1.00  0.00     0.106 C 
HETATM    3  C2  UNL     1      11.027  -4.226   5.392  1.00  0.00     0.200 C 
HETATM    4  N2  UNL     1      10.458  -3.095   5.220  1.00  0.00    -0.299 N 
ATOM      5  H2  UNL     1      10.943  -2.389   4.667  1.00  0.00     0.186 HD
ENDROOT
BRANCH   4   6
HETATM    6  N3  UNL     1       9.218  -2.777   5.745  1.00  0.00    -0.269 N 
HETATM    7  C3  UNL     1       8.046  -2.937   4.982  1.00  0.00     0.244 C 
HETATM    8  O1  UNL     1       8.163  -3.383   3.792  1.00  0.00    -0.271 OA
ATOM      9  H3  UNL     1       9.151  -2.422   6.699  1.00  0.00     0.190 HD
BRANCH   7  10
HETATM   10  C4  UNL     1       6.696  -2.623   5.466  1.00  0.00     0.043 C 
HETATM   11  C5  UNL     1       6.840  -1.945   6.817  1.00  0.00     0.024 C 
HETATM   12  C6  UNL     1       5.494  -1.483   7.328  1.00  0.00    -0.013 C 
HETATM   13  C7  UNL     1       4.630  -2.725   7.486  1.00  0.00     0.009 C 
HETATM   14  C11 UNL     1       4.910  -0.530   6.306  1.00  0.00     0.009 C 
HETATM   15  C8  UNL     1       4.487  -3.403   6.145  1.00  0.00    -0.013 C 
HETATM   16  C9  UNL     1       3.797  -2.440   5.216  1.00  0.00     0.009 C 
HETATM   17  C13 UNL     1       5.828  -3.855   5.601  1.00  0.00     0.024 C 
HETATM   18  C10 UNL     1       4.689  -1.243   5.015  1.00  0.00    -0.013 C 
HETATM   19  C12 UNL     1       6.020  -1.705   4.480  1.00  0.00     0.024 C 
ENDBRANCH   7  10
ENDBRANCH   4   6
TORSDOF 2
ENDMDL
MODEL 2
REMARK VINA RESULT: -5.756824308      0.324      1.745
REMARK  2 active torsions:
REMARK  status: ('A' for Active; 'I' for Inactive)
REMARK    1  A    between atoms: N2_4  and  N3_6 
REMARK       I    between atoms: N3_6  and  C3_8 
REMARK    2  A    between atoms: C3_8  and  C4_10 
ROOT
HETATM    1  N1  UNL     1      13.275  -4.803   4.214  1.00  0.00    -0.191 NA
HETATM    2  C1  UNL     1      12.271  -4.539   4.718  1.00  0.00     0.106 C 
HETATM    3  C2  UNL     1      11.038  -4.190   5.339  1.00  0.00     0.200 C 
HETATM    4  N2  UNL     1      10.527  -3.035   5.146  1.00  0.00    -0.299 N 
ATOM      5  H2  UNL     1      11.025  -2.381   4.541  1.00  0.00     0.186 HD
ENDROOT
BRANCH   4   6
HETATM    6  N3  UNL     1       9.335  -2.623   5.714  1.00  0.00    -0.269 N 
HETATM    7  C3  UNL     1       8.120  -2.742   5.014  1.00  0.00     0.244 C 
HETATM    8  O1  UNL     1       8.153  -3.241   3.839  1.00  0.00    -0.271 OA
ATOM      9  H3  UNL     1       9.336  -2.227   6.654  1.00  0.00     0.190 HD
BRANCH   7  10
HETATM   10  C4  UNL     1       6.816  -2.329   5.545  1.00  0.00     0.043 C 
HETATM   11  C5  UNL     1       6.042  -3.589   5.892  1.00  0.00     0.024 C 
HETATM   12  C6  UNL     1       4.730  -3.244   6.558  1.00  0.00    -0.013 C 
HETATM   13  C7  UNL     1       3.926  -2.428   5.557  1.00  0.00     0.009 C 
HETATM   14  C11 UNL     1       5.038  -2.440   7.805  1.00  0.00     0.009 C 
HETATM   15  C8  UNL     1       4.693  -1.176   5.208  1.00  0.00    -0.013 C 
HETATM   16  C9  UNL     1       4.860  -0.374   6.472  1.00  0.00     0.009 C 
HETATM   17  C13 UNL     1       6.024  -1.498   4.559  1.00  0.00     0.024 C 
HETATM   18  C10 UNL     1       5.712  -1.163   7.432  1.00  0.00    -0.013 C 
HETATM   19  C12 UNL     1       7.030  -1.482   6.774  1.00  0.00     0.024 C 
ENDBRANCH   7  10
ENDBRANCH   4   6
TORSDOF 2
ENDMDL
MODEL 3
REMARK VINA RESULT: -5.711695141      1.209      2.252
REMARK  2 active torsions:
REMARK  status: ('A' for Active; 'I' for Inactive)
REMARK    1  A    between atoms: N2_4  and  N3_6 
REMARK       I    between atoms: N3_6  and  C3_8 
REMARK    2  A    between atoms: C3_8  and  C4_10 
ROOT
HETATM    1  N1  UNL     1      14.030  -3.768   4.818  1.00  0.00    -0.191 NA
HETATM    2  C1  UNL     1      12.887  -3.882   4.712  1.00  0.00     0.106 C 
HETATM    3  C2  UNL     1      11.473  -3.999   4.587  1.00  0.00     0.200 C 
HETATM    4  N2  UNL     1      10.763  -2.964   4.348  1.00  0.00    -0.299 N 
ATOM      5  H2  UNL     1      11.235  -2.066   4.251  1.00  0.00     0.186 HD
ENDROOT
BRANCH   4   6
HETATM    6  N3  UNL     1       9.386  -2.998   4.215  1.00  0.00    -0.269 N 
HETATM    7  C3  UNL     1       8.546  -2.817   5.330  1.00  0.00     0.244 C 
HETATM    8  O1  UNL     1       9.093  -2.622   6.466  1.00  0.00    -0.271 OA
ATOM      9  H3  UNL     1       8.973  -3.156   3.296  1.00  0.00     0.190 HD
BRANCH   7  10
HETATM   10  C4  UNL     1       7.079  -2.839   5.271  1.00  0.00     0.043 C 
HETATM   11  C5  UNL     1       6.654  -4.265   4.967  1.00  0.00     0.024 C 
HETATM   12  C6  UNL     1       5.149  -4.394   5.008  1.00  0.00    -0.013 C 
HETATM   13  C7  UNL     1       4.596  -3.471   3.931  1.00  0.00     0.009 C 
HETATM   14  C11 UNL     1       4.682  -3.973   6.387  1.00  0.00     0.009 C 
HETATM   15  C8  UNL     1       5.019  -2.052   4.229  1.00  0.00    -0.013 C 
HETATM   16  C9  UNL     1       4.425  -1.667   5.558  1.00  0.00     0.009 C 
HETATM   17  C13 UNL     1       6.527  -1.905   4.217  1.00  0.00     0.024 C 
HETATM   18  C10 UNL     1       5.027  -2.542   6.626  1.00  0.00    -0.013 C 
HETATM   19  C12 UNL     1       6.526  -2.391   6.600  1.00  0.00     0.024 C 
ENDBRANCH   7  10
ENDBRANCH   4   6
TORSDOF 2
ENDMDL
MODEL 4
REMARK VINA RESULT: -5.673991863      1.364      2.472
REMARK  2 active torsions:
REMARK  status: ('A' for Active; 'I' for Inactive)
REMARK    1  A    between atoms: N2_4  and  N3_6 
REMARK       I    between atoms: N3_6  and  C3_8 
REMARK    2  A    between atoms: C3_8  and  C4_10 
ROOT
HETATM    1  N1  UNL     1      13.371  -4.204   4.589  1.00  0.00    -0.191 NA
HETATM    2  C1  UNL     1      12.222  -4.094   4.611  1.00  0.00     0.106 C 
HETATM    3  C2  UNL     1      10.807  -3.947   4.661  1.00  0.00     0.200 C 
HETATM    4  N2  UNL     1      10.284  -2.998   5.339  1.00  0.00    -0.299 N 
ATOM      5  H2  UNL     1      10.906  -2.359   5.835  1.00  0.00     0.186 HD
ENDROOT
BRANCH   4   6
HETATM    6  N3  UNL     1       8.919  -2.791   5.435  1.00  0.00    -0.269 N 
HETATM    7  C3  UNL     1       8.351  -2.243   6.600  1.00  0.00     0.244 C 
HETATM    8  O1  UNL     1       9.133  -1.943   7.564  1.00  0.00    -0.271 OA
ATOM      9  H3  UNL     1       8.316  -3.038   4.651  1.00  0.00     0.190 HD
BRANCH   7  10
HETATM   10  C4  UNL     1       6.916  -1.992   6.780  1.00  0.00     0.043 C 
HETATM   11  C5  UNL     1       6.166  -2.940   5.861  1.00  0.00     0.024 C 
HETATM   12  C6  UNL     1       4.675  -2.826   6.076  1.00  0.00    -0.013 C 
HETATM   13  C7  UNL     1       4.287  -1.395   5.735  1.00  0.00     0.009 C 
HETATM   14  C11 UNL     1       4.388  -3.144   7.529  1.00  0.00     0.009 C 
HETATM   15  C8  UNL     1       5.032  -0.449   6.645  1.00  0.00    -0.013 C 
HETATM   16  C9  UNL     1       4.610  -0.748   8.060  1.00  0.00     0.009 C 
HETATM   17  C13 UNL     1       6.532  -0.563   6.464  1.00  0.00     0.024 C 
HETATM   18  C10 UNL     1       5.056  -2.143   8.410  1.00  0.00    -0.013 C 
HETATM   19  C12 UNL     1       6.548  -2.246   8.219  1.00  0.00     0.024 C 
ENDBRANCH   7  10
ENDBRANCH   4   6
TORSDOF 2
ENDMDL
MODEL 5
REMARK VINA RESULT: -5.658870207      1.152      1.214
REMARK  2 active torsions:
REMARK  status: ('A' for Active; 'I' for Inactive)
REMARK    1  A    between atoms: N2_4  and  N3_6 
REMARK       I    between atoms: N3_6  and  C3_8 
REMARK    2  A    between atoms: C3_8  and  C4_10 
ROOT
HETATM    1  N1  UNL     1      14.008  -3.878   4.750  1.00  0.00    -0.191 NA
HETATM    2  C1  UNL     1      12.859  -3.963   4.674  1.00  0.00     0.106 C 
HETATM    3  C2  UNL     1      11.440  -4.045   4.587  1.00  0.00     0.200 C 
HETATM    4  N2  UNL     1      10.752  -2.998   4.334  1.00  0.00    -0.299 N 
ATOM      5  H2  UNL     1      11.247  -2.116   4.198  1.00  0.00     0.186 HD
ENDROOT
BRANCH   4   6
HETATM    6  N3  UNL     1       9.372  -2.998   4.234  1.00  0.00    -0.269 N 
HETATM    7  C3  UNL     1       8.565  -2.800   5.369  1.00  0.00     0.244 C 
HETATM    8  O1  UNL     1       9.144  -2.623   6.493  1.00  0.00    -0.271 OA
ATOM      9  H3  UNL     1       8.933  -3.142   3.325  1.00  0.00     0.190 HD
BRANCH   7  10
HETATM   10  C4  UNL     1       7.097  -2.786   5.347  1.00  0.00     0.043 C 
HETATM   11  C5  UNL     1       6.623  -2.248   6.686  1.00  0.00     0.024 C 
HETATM   12  C6  UNL     1       5.120  -2.090   6.697  1.00  0.00    -0.013 C 
HETATM   13  C7  UNL     1       4.528  -3.475   6.483  1.00  0.00     0.009 C 
HETATM   14  C11 UNL     1       4.742  -1.148   5.571  1.00  0.00     0.009 C 
HETATM   15  C8  UNL     1       4.999  -4.016   5.153  1.00  0.00    -0.013 C 
HETATM   16  C9  UNL     1       4.489  -3.093   4.078  1.00  0.00     0.009 C 
HETATM   17  C13 UNL     1       6.507  -4.159   5.111  1.00  0.00     0.024 C 
HETATM   18  C10 UNL     1       5.131  -1.742   4.260  1.00  0.00    -0.013 C 
HETATM   19  C12 UNL     1       6.630  -1.899   4.222  1.00  0.00     0.024 C 
ENDBRANCH   7  10
ENDBRANCH   4   6
TORSDOF 2
ENDMDL
