MODEL 1
REMARK VINA RESULT: -8.199459409      0.000      0.000
REMARK  12 active torsions:
REMARK  status: ('A' for Active; 'I' for Inactive)
REMARK    1  A    between atoms: C2_2  and  C3_3 
REMARK    2  A    between atoms: C2_2  and  O5_38 
REMARK    3  A    between atoms: C3_3  and  C4_4 
REMARK    4  A    between atoms: C4_4  and  N1_5 
REMARK    5  A    between atoms: C4_4  and  C5_9 
REMARK    6  A    between atoms: C5_9  and  O2_11 
REMARK    7  A    between atoms: O2_11  and  C6_12 
REMARK    8  A    between atoms: C9_15  and  O3_16 
REMARK    9  A    between atoms: C23_31  and  O4_32 
REMARK   10  A    between atoms: O5_38  and  C28_39 
REMARK   11  A    between atoms: C28_39  and  C29_40 
REMARK   12  A    between atoms: C29_40  and  O6_41 
ROOT
HETATM    1  C6  UNL     1      64.583  76.145  76.828  1.00  0.00     0.139 C 
HETATM    2  C7  UNL     1      64.921  75.954  78.308  1.00  0.00     0.036 C 
HETATM    3  C8  UNL     1      64.799  77.405  78.794  1.00  0.00     0.041 C 
HETATM    4  C9  UNL     1      63.758  78.043  77.916  1.00  0.00     0.068 C 
HETATM    5  C10 UNL     1      63.317  77.000  76.958  1.00  0.00     0.050 C 
HETATM    6  C11 UNL     1      62.154  76.180  77.357  1.00  0.00     0.010 C 
HETATM    7  C12 UNL     1      61.120  76.876  78.188  1.00  0.00     0.006 C 
HETATM    8  C13 UNL     1      61.834  77.576  79.318  1.00  0.00    -0.003 C 
HETATM    9  C14 UNL     1      62.640  78.685  78.684  1.00  0.00     0.025 C 
HETATM   10  C15 UNL     1      63.128  79.583  79.759  1.00  0.00     0.009 C 
HETATM   11  C16 UNL     1      61.943  80.311  80.347  1.00  0.00     0.011 C 
HETATM   12  C17 UNL     1      60.760  79.463  80.611  1.00  0.00    -0.029 C 
HETATM   13  C18 UNL     1      59.543  79.850  79.788  1.00  0.00     0.016 C 
HETATM   14  C19 UNL     1      60.986  77.983  80.448  1.00  0.00     0.003 C 
HETATM   15  C20 UNL     1      61.601  77.548  81.787  1.00  0.00     0.040 C 
HETATM   16  C21 UNL     1      61.449  78.727  82.684  1.00  0.00    -0.072 C 
HETATM   17  C22 UNL     1      62.100  79.067  83.774  1.00  0.00     0.008 C 
HETATM   18  C23 UNL     1      61.751  80.310  84.494  1.00  0.00     0.141 C 
HETATM   19  C24 UNL     1      60.403  80.849  84.143  1.00  0.00     0.037 C 
HETATM   20  C25 UNL     1      60.164  80.870  82.626  1.00  0.00     0.017 C 
HETATM   21  C26 UNL     1      60.338  79.516  82.074  1.00  0.00    -0.013 C 
HETATM   22  C27 UNL     1      59.066  78.729  82.263  1.00  0.00     0.021 C 
ENDROOT
BRANCH   1  23
HETATM   23  O2  UNL     1      64.362  74.944  76.163  1.00  0.00    -0.314 OA
BRANCH  23  24
HETATM   24  C5  UNL     1      65.438  74.350  75.493  1.00  0.00     0.290 C 
HETATM   25  O1  UNL     1      66.592  74.613  75.854  1.00  0.00    -0.263 OA
BRANCH  24  26
HETATM   26  C4  UNL     1      65.243  73.409  74.355  1.00  0.00     0.284 C 
BRANCH  26  27
HETATM   27  C3  UNL     1      63.800  73.455  73.976  1.00  0.00     0.074 C 
BRANCH  27  28
HETATM   28  C2  UNL     1      63.498  73.817  72.566  1.00  0.00     0.119 C 
HETATM   29  C1  UNL     1      62.213  74.568  72.438  1.00  0.00     0.039 C 
BRANCH  28  30
HETATM   30  O5  UNL     1      64.576  74.613  72.118  1.00  0.00    -0.384 OA
BRANCH  30  31
HETATM   31  C28 UNL     1      64.412  74.963  70.803  1.00  0.00     0.194 C 
BRANCH  31  32
HETATM   32  C29 UNL     1      65.282  76.108  70.375  1.00  0.00     0.190 C 
BRANCH  32  33
HETATM   33  O6  UNL     1      64.616  76.760  69.319  1.00  0.00    -0.399 OA
ATOM     34  H6  UNL     1      65.249  76.876  68.619  1.00  0.00     0.209 HD
ENDBRANCH  32  33
ENDBRANCH  31  32
ENDBRANCH  30  31
ENDBRANCH  28  30
ENDBRANCH  27  28
ENDBRANCH  26  27
BRANCH  26  35
HETATM   35  N1  UNL     1      65.649  72.099  74.799  1.00  0.00    -0.066 N 
ATOM     36  H13 UNL     1      66.109  72.144  75.708  1.00  0.00     0.275 HD
ATOM     37  H12 UNL     1      64.841  71.530  75.055  1.00  0.00     0.275 HD
ATOM     38  H11 UNL     1      66.233  71.622  74.113  1.00  0.00     0.275 HD
ENDBRANCH  26  35
ENDBRANCH  24  26
ENDBRANCH  23  24
ENDBRANCH   1  23
BRANCH   4  39
HETATM   39  O3  UNL     1      64.398  79.066  77.185  1.00  0.00    -0.389 OA
ATOM     40  H3  UNL     1      63.974  79.113  76.337  1.00  0.00     0.210 HD
ENDBRANCH   4  39
BRANCH  18  41
HETATM   41  O4  UNL     1      62.741  81.284  84.227  1.00  0.00    -0.392 OA
ATOM     42  H4  UNL     1      62.682  81.968  84.884  1.00  0.00     0.210 HD
ENDBRANCH  18  41
TORSDOF 12
ENDMDL
MODEL 2
REMARK VINA RESULT: -7.875154710      2.408      3.660
REMARK  12 active torsions:
REMARK  status: ('A' for Active; 'I' for Inactive)
REMARK    1  A    between atoms: C2_2  and  C3_3 
REMARK    2  A    between atoms: C2_2  and  O5_38 
REMARK    3  A    between atoms: C3_3  and  C4_4 
REMARK    4  A    between atoms: C4_4  and  N1_5 
REMARK    5  A    between atoms: C4_4  and  C5_9 
REMARK    6  A    between atoms: C5_9  and  O2_11 
REMARK    7  A    between atoms: O2_11  and  C6_12 
REMARK    8  A    between atoms: C9_15  and  O3_16 
REMARK    9  A    between atoms: C23_31  and  O4_32 
REMARK   10  A    between atoms: O5_38  and  C28_39 
REMARK   11  A    between atoms: C28_39  and  C29_40 
REMARK   12  A    between atoms: C29_40  and  O6_41 
ROOT
HETATM    1  C6  UNL     1      62.943  76.962  78.099  1.00  0.00     0.139 C 
HETATM    2  C7  UNL     1      62.298  78.259  77.606  1.00  0.00     0.036 C 
HETATM    3  C8  UNL     1      61.445  78.610  78.834  1.00  0.00     0.041 C 
HETATM    4  C9  UNL     1      62.192  78.065  80.020  1.00  0.00     0.068 C 
HETATM    5  C10 UNL     1      63.414  77.415  79.486  1.00  0.00     0.050 C 
HETATM    6  C11 UNL     1      64.626  78.256  79.392  1.00  0.00     0.010 C 
HETATM    7  C12 UNL     1      64.774  79.306  80.450  1.00  0.00     0.006 C 
HETATM    8  C13 UNL     1      63.470  80.062  80.532  1.00  0.00    -0.003 C 
HETATM    9  C14 UNL     1      62.455  79.089  81.084  1.00  0.00     0.025 C 
HETATM   10  C15 UNL     1      61.237  79.846  81.460  1.00  0.00     0.009 C 
HETATM   11  C16 UNL     1      61.564  80.716  82.651  1.00  0.00     0.011 C 
HETATM   12  C17 UNL     1      62.850  81.439  82.558  1.00  0.00    -0.029 C 
HETATM   13  C18 UNL     1      63.853  81.029  83.623  1.00  0.00     0.016 C 
HETATM   14  C19 UNL     1      63.532  81.361  81.217  1.00  0.00     0.003 C 
HETATM   15  C20 UNL     1      62.852  82.458  80.386  1.00  0.00     0.040 C 
HETATM   16  C21 UNL     1      62.035  83.232  81.361  1.00  0.00    -0.072 C 
HETATM   17  C22 UNL     1      60.988  84.007  81.181  1.00  0.00     0.008 C 
HETATM   18  C23 UNL     1      60.346  84.673  82.336  1.00  0.00     0.141 C 
HETATM   19  C24 UNL     1      61.211  84.732  83.551  1.00  0.00     0.037 C 
HETATM   20  C25 UNL     1      61.885  83.385  83.852  1.00  0.00     0.017 C 
HETATM   21  C26 UNL     1      62.666  82.946  82.684  1.00  0.00    -0.013 C 
HETATM   22  C27 UNL     1      64.014  83.622  82.698  1.00  0.00     0.021 C 
ENDROOT
BRANCH   1  23
HETATM   23  O2  UNL     1      63.984  76.532  77.284  1.00  0.00    -0.314 OA
BRANCH  23  24
HETATM   24  C5  UNL     1      63.792  75.376  76.518  1.00  0.00     0.290 C 
HETATM   25  O1  UNL     1      62.771  74.700  76.694  1.00  0.00    -0.263 OA
BRANCH  24  26
HETATM   26  C4  UNL     1      64.778  74.928  75.495  1.00  0.00     0.284 C 
BRANCH  26  27
HETATM   27  C3  UNL     1      64.388  73.552  75.068  1.00  0.00     0.074 C 
BRANCH  27  28
HETATM   28  C2  UNL     1      64.150  73.354  73.614  1.00  0.00     0.119 C 
HETATM   29  C1  UNL     1      62.719  73.573  73.240  1.00  0.00     0.039 C 
BRANCH  28  30
HETATM   30  O5  UNL     1      64.978  74.281  72.943  1.00  0.00    -0.384 OA
BRANCH  30  31
HETATM   31  C28 UNL     1      64.348  74.788  71.837  1.00  0.00     0.194 C 
BRANCH  31  32
HETATM   32  C29 UNL     1      65.294  75.273  70.778  1.00  0.00     0.190 C 
BRANCH  32  33
HETATM   33  O6  UNL     1      66.483  74.530  70.914  1.00  0.00    -0.399 OA
ATOM     34  H6  UNL     1      67.205  75.130  70.768  1.00  0.00     0.209 HD
ENDBRANCH  32  33
ENDBRANCH  31  32
ENDBRANCH  30  31
ENDBRANCH  28  30
ENDBRANCH  27  28
ENDBRANCH  26  27
BRANCH  26  35
HETATM   35  N1  UNL     1      66.084  74.960  76.105  1.00  0.00    -0.066 N 
ATOM     36  H13 UNL     1      66.807  75.162  75.415  1.00  0.00     0.275 HD
ATOM     37  H12 UNL     1      66.193  75.782  76.699  1.00  0.00     0.275 HD
ATOM     38  H11 UNL     1      66.291  74.104  76.618  1.00  0.00     0.275 HD
ENDBRANCH  26  35
ENDBRANCH  24  26
ENDBRANCH  23  24
ENDBRANCH   1  23
BRANCH   4  39
HETATM   39  O3  UNL     1      61.383  77.064  80.599  1.00  0.00    -0.389 OA
ATOM     40  H3  UNL     1      61.512  77.107  81.539  1.00  0.00     0.210 HD
ENDBRANCH   4  39
BRANCH  18  41
HETATM   41  O4  UNL     1      59.141  83.998  82.637  1.00  0.00    -0.392 OA
ATOM     42  H4  UNL     1      58.806  84.324  83.464  1.00  0.00     0.210 HD
ENDBRANCH  18  41
TORSDOF 12
ENDMDL
MODEL 3
REMARK VINA RESULT: -7.610321527      1.794      2.282
REMARK  12 active torsions:
REMARK  status: ('A' for Active; 'I' for Inactive)
REMARK    1  A    between atoms: C2_2  and  C3_3 
REMARK    2  A    between atoms: C2_2  and  O5_38 
REMARK    3  A    between atoms: C3_3  and  C4_4 
REMARK    4  A    between atoms: C4_4  and  N1_5 
REMARK    5  A    between atoms: C4_4  and  C5_9 
REMARK    6  A    between atoms: C5_9  and  O2_11 
REMARK    7  A    between atoms: O2_11  and  C6_12 
REMARK    8  A    between atoms: C9_15  and  O3_16 
REMARK    9  A    between atoms: C23_31  and  O4_32 
REMARK   10  A    between atoms: O5_38  and  C28_39 
REMARK   11  A    between atoms: C28_39  and  C29_40 
REMARK   12  A    between atoms: C29_40  and  O6_41 
ROOT
HETATM    1  C6  UNL     1      64.421  77.636  77.678  1.00  0.00     0.139 C 
HETATM    2  C7  UNL     1      64.674  76.913  79.003  1.00  0.00     0.036 C 
HETATM    3  C8  UNL     1      64.321  78.038  79.986  1.00  0.00     0.041 C 
HETATM    4  C9  UNL     1      63.269  78.865  79.300  1.00  0.00     0.068 C 
HETATM    5  C10 UNL     1      63.045  78.245  77.971  1.00  0.00     0.050 C 
HETATM    6  C11 UNL     1      61.978  77.225  77.887  1.00  0.00     0.010 C 
HETATM    7  C12 UNL     1      60.802  77.435  78.790  1.00  0.00     0.006 C 
HETATM    8  C13 UNL     1      61.330  77.702  80.178  1.00  0.00    -0.003 C 
HETATM    9  C14 UNL     1      62.022  79.043  80.114  1.00  0.00     0.025 C 
HETATM   10  C15 UNL     1      62.305  79.490  81.500  1.00  0.00     0.009 C 
HETATM   11  C16 UNL     1      60.993  79.811  82.176  1.00  0.00     0.011 C 
HETATM   12  C17 UNL     1      59.920  78.817  81.954  1.00  0.00    -0.029 C 
HETATM   13  C18 UNL     1      58.725  79.375  81.201  1.00  0.00     0.016 C 
HETATM   14  C19 UNL     1      60.356  77.548  81.268  1.00  0.00     0.003 C 
HETATM   15  C20 UNL     1      60.926  76.685  82.403  1.00  0.00     0.040 C 
HETATM   16  C21 UNL     1      60.551  77.397  83.657  1.00  0.00    -0.072 C 
HETATM   17  C22 UNL     1      61.069  77.343  84.863  1.00  0.00     0.008 C 
HETATM   18  C23 UNL     1      60.503  78.164  85.955  1.00  0.00     0.141 C 
HETATM   19  C24 UNL     1      59.124  78.664  85.677  1.00  0.00     0.037 C 
HETATM   20  C25 UNL     1      58.994  79.255  84.266  1.00  0.00     0.017 C 
HETATM   21  C26 UNL     1      59.390  78.250  83.265  1.00  0.00    -0.013 C 
HETATM   22  C27 UNL     1      58.227  77.333  82.987  1.00  0.00     0.021 C 
ENDROOT
BRANCH   1  23
HETATM   23  O2  UNL     1      64.414  76.776  76.585  1.00  0.00    -0.314 OA
BRANCH  23  24
HETATM   24  C5  UNL     1      65.064  75.543  76.707  1.00  0.00     0.290 C 
HETATM   25  O1  UNL     1      66.275  75.523  76.966  1.00  0.00    -0.263 OA
BRANCH  24  26
HETATM   26  C4  UNL     1      64.350  74.248  76.536  1.00  0.00     0.284 C 
BRANCH  26  27
HETATM   27  C3  UNL     1      65.142  73.421  75.578  1.00  0.00     0.074 C 
BRANCH  27  28
HETATM   28  C2  UNL     1      64.802  73.569  74.138  1.00  0.00     0.119 C 
HETATM   29  C1  UNL     1      65.899  73.084  73.246  1.00  0.00     0.039 C 
BRANCH  28  30
HETATM   30  O5  UNL     1      63.629  72.811  73.925  1.00  0.00    -0.384 OA
BRANCH  30  31
HETATM   31  C28 UNL     1      63.141  73.010  72.660  1.00  0.00     0.194 C 
BRANCH  31  32
HETATM   32  C29 UNL     1      62.322  74.259  72.522  1.00  0.00     0.190 C 
BRANCH  32  33
HETATM   33  O6  UNL     1      62.808  74.950  71.395  1.00  0.00    -0.399 OA
ATOM     34  H6  UNL     1      62.099  75.494  71.073  1.00  0.00     0.209 HD
ENDBRANCH  32  33
ENDBRANCH  31  32
ENDBRANCH  30  31
ENDBRANCH  28  30
ENDBRANCH  27  28
ENDBRANCH  26  27
BRANCH  26  35
HETATM   35  N1  UNL     1      63.028  74.541  76.040  1.00  0.00    -0.066 N 
ATOM     36  H13 UNL     1      62.877  74.120  75.124  1.00  0.00     0.275 HD
ATOM     37  H12 UNL     1      62.316  74.038  76.569  1.00  0.00     0.275 HD
ATOM     38  H11 UNL     1      62.837  75.543  76.022  1.00  0.00     0.275 HD
ENDBRANCH  26  35
ENDBRANCH  24  26
ENDBRANCH  23  24
ENDBRANCH   1  23
BRANCH   4  39
HETATM   39  O3  UNL     1      63.817  80.149  79.095  1.00  0.00    -0.389 OA
ATOM     40  H3  UNL     1      64.066  80.206  78.181  1.00  0.00     0.210 HD
ENDBRANCH   4  39
BRANCH  18  41
HETATM   41  O4  UNL     1      61.369  79.255  86.199  1.00  0.00    -0.392 OA
ATOM     42  H4  UNL     1      60.885  80.063  86.074  1.00  0.00     0.210 HD
ENDBRANCH  18  41
TORSDOF 12
ENDMDL
MODEL 4
REMARK VINA RESULT: -7.550344489      1.599      1.972
REMARK  12 active torsions:
REMARK  status: ('A' for Active; 'I' for Inactive)
REMARK    1  A    between atoms: C2_2  and  C3_3 
REMARK    2  A    between atoms: C2_2  and  O5_38 
REMARK    3  A    between atoms: C3_3  and  C4_4 
REMARK    4  A    between atoms: C4_4  and  N1_5 
REMARK    5  A    between atoms: C4_4  and  C5_9 
REMARK    6  A    between atoms: C5_9  and  O2_11 
REMARK    7  A    between atoms: O2_11  and  C6_12 
REMARK    8  A    between atoms: C9_15  and  O3_16 
REMARK    9  A    between atoms: C23_31  and  O4_32 
REMARK   10  A    between atoms: O5_38  and  C28_39 
REMARK   11  A    between atoms: C28_39  and  C29_40 
REMARK   12  A    between atoms: C29_40  and  O6_41 
ROOT
HETATM    1  C6  UNL     1      63.920  77.445  77.782  1.00  0.00     0.139 C 
HETATM    2  C7  UNL     1      64.254  76.808  79.133  1.00  0.00     0.036 C 
HETATM    3  C8  UNL     1      63.945  77.989  80.063  1.00  0.00     0.041 C 
HETATM    4  C9  UNL     1      62.848  78.765  79.388  1.00  0.00     0.068 C 
HETATM    5  C10 UNL     1      62.556  78.062  78.115  1.00  0.00     0.050 C 
HETATM    6  C11 UNL     1      61.497  77.032  78.154  1.00  0.00     0.010 C 
HETATM    7  C12 UNL     1      60.371  77.290  79.107  1.00  0.00     0.006 C 
HETATM    8  C13 UNL     1      60.973  77.646  80.444  1.00  0.00    -0.003 C 
HETATM    9  C14 UNL     1      61.647  78.985  80.259  1.00  0.00     0.025 C 
HETATM   10  C15 UNL     1      62.002  79.519  81.596  1.00  0.00     0.009 C 
HETATM   11  C16 UNL     1      60.727  79.872  82.324  1.00  0.00     0.011 C 
HETATM   12  C17 UNL     1      59.654  78.860  82.224  1.00  0.00    -0.029 C 
HETATM   13  C18 UNL     1      58.412  79.362  81.507  1.00  0.00     0.016 C 
HETATM   14  C19 UNL     1      60.064  77.554  81.595  1.00  0.00     0.003 C 
HETATM   15  C20 UNL     1      60.705  76.767  82.747  1.00  0.00     0.040 C 
HETATM   16  C21 UNL     1      60.393  77.553  83.973  1.00  0.00    -0.072 C 
HETATM   17  C22 UNL     1      60.978  77.577  85.150  1.00  0.00     0.008 C 
HETATM   18  C23 UNL     1      60.466  78.461  86.219  1.00  0.00     0.141 C 
HETATM   19  C24 UNL     1      59.069  78.933  85.989  1.00  0.00     0.037 C 
HETATM   20  C25 UNL     1      58.854  79.435  84.554  1.00  0.00     0.017 C 
HETATM   21  C26 UNL     1      59.203  78.372  83.596  1.00  0.00    -0.013 C 
HETATM   22  C27 UNL     1      58.035  77.432  83.441  1.00  0.00     0.021 C 
ENDROOT
BRANCH   1  23
HETATM   23  O2  UNL     1      63.861  76.519  76.746  1.00  0.00    -0.314 OA
BRANCH  23  24
HETATM   24  C5  UNL     1      64.958  75.673  76.550  1.00  0.00     0.290 C 
HETATM   25  O1  UNL     1      65.764  75.509  77.475  1.00  0.00    -0.263 OA
BRANCH  24  26
HETATM   26  C4  UNL     1      65.191  74.960  75.264  1.00  0.00     0.284 C 
BRANCH  26  27
HETATM   27  C3  UNL     1      63.954  74.187  74.947  1.00  0.00     0.074 C 
BRANCH  27  28
HETATM   28  C2  UNL     1      63.924  73.496  73.631  1.00  0.00     0.119 C 
HETATM   29  C1  UNL     1      62.562  73.515  73.015  1.00  0.00     0.039 C 
BRANCH  28  30
HETATM   30  O5  UNL     1      64.845  74.174  72.803  1.00  0.00    -0.384 OA
BRANCH  30  31
HETATM   31  C28 UNL     1      64.217  74.709  71.708  1.00  0.00     0.194 C 
BRANCH  31  32
HETATM   32  C29 UNL     1      65.162  75.303  70.706  1.00  0.00     0.190 C 
BRANCH  32  33
HETATM   33  O6  UNL     1      66.411  74.680  70.895  1.00  0.00    -0.399 OA
ATOM     34  H6  UNL     1      66.848  74.668  70.051  1.00  0.00     0.209 HD
ENDBRANCH  32  33
ENDBRANCH  31  32
ENDBRANCH  30  31
ENDBRANCH  28  30
ENDBRANCH  27  28
ENDBRANCH  26  27
BRANCH  26  35
HETATM   35  N1  UNL     1      66.338  74.105  75.441  1.00  0.00    -0.066 N 
ATOM     36  H13 UNL     1      66.385  73.395  74.711  1.00  0.00     0.275 HD
ATOM     37  H12 UNL     1      67.205  74.604  75.238  1.00  0.00     0.275 HD
ATOM     38  H11 UNL     1      66.365  73.683  76.369  1.00  0.00     0.275 HD
ENDBRANCH  26  35
ENDBRANCH  24  26
ENDBRANCH  23  24
ENDBRANCH   1  23
BRANCH   4  39
HETATM   39  O3  UNL     1      63.370  80.038  79.074  1.00  0.00    -0.389 OA
ATOM     40  H3  UNL     1      63.433  80.090  78.128  1.00  0.00     0.210 HD
ENDBRANCH   4  39
BRANCH  18  41
HETATM   41  O4  UNL     1      61.333  79.571  86.346  1.00  0.00    -0.392 OA
ATOM     42  H4  UNL     1      60.810  80.353  86.480  1.00  0.00     0.210 HD
ENDBRANCH  18  41
TORSDOF 12
ENDMDL
MODEL 5
REMARK VINA RESULT: -7.507752920      4.590      6.240
REMARK  12 active torsions:
REMARK  status: ('A' for Active; 'I' for Inactive)
REMARK    1  A    between atoms: C2_2  and  C3_3 
REMARK    2  A    between atoms: C2_2  and  O5_38 
REMARK    3  A    between atoms: C3_3  and  C4_4 
REMARK    4  A    between atoms: C4_4  and  N1_5 
REMARK    5  A    between atoms: C4_4  and  C5_9 
REMARK    6  A    between atoms: C5_9  and  O2_11 
REMARK    7  A    between atoms: O2_11  and  C6_12 
REMARK    8  A    between atoms: C9_15  and  O3_16 
REMARK    9  A    between atoms: C23_31  and  O4_32 
REMARK   10  A    between atoms: O5_38  and  C28_39 
REMARK   11  A    between atoms: C28_39  and  C29_40 
REMARK   12  A    between atoms: C29_40  and  O6_41 
ROOT
HETATM    1  C6  UNL     1      59.613  77.690  76.472  1.00  0.00     0.139 C 
HETATM    2  C7  UNL     1      59.369  79.137  76.904  1.00  0.00     0.036 C 
HETATM    3  C8  UNL     1      59.329  78.952  78.428  1.00  0.00     0.041 C 
HETATM    4  C9  UNL     1      60.241  77.793  78.722  1.00  0.00     0.068 C 
HETATM    5  C10 UNL     1      60.766  77.327  77.416  1.00  0.00     0.050 C 
HETATM    6  C11 UNL     1      62.040  77.923  76.961  1.00  0.00     0.010 C 
HETATM    7  C12 UNL     1      63.014  78.280  78.041  1.00  0.00     0.006 C 
HETATM    8  C13 UNL     1      62.270  79.072  79.088  1.00  0.00    -0.003 C 
HETATM    9  C14 UNL     1      61.302  78.109  79.734  1.00  0.00     0.025 C 
HETATM   10  C15 UNL     1      60.754  78.745  80.957  1.00  0.00     0.009 C 
HETATM   11  C16 UNL     1      61.863  78.857  81.975  1.00  0.00     0.011 C 
HETATM   12  C17 UNL     1      63.154  79.340  81.439  1.00  0.00    -0.029 C 
HETATM   13  C18 UNL     1      64.274  78.320  81.548  1.00  0.00     0.016 C 
HETATM   14  C19 UNL     1      63.109  79.840  80.019  1.00  0.00     0.003 C 
HETATM   15  C20 UNL     1      62.615  81.288  80.145  1.00  0.00     0.040 C 
HETATM   16  C21 UNL     1      62.657  81.585  81.604  1.00  0.00    -0.072 C 
HETATM   17  C22 UNL     1      62.019  82.487  82.316  1.00  0.00     0.008 C 
HETATM   18  C23 UNL     1      62.241  82.579  83.776  1.00  0.00     0.141 C 
HETATM   19  C24 UNL     1      63.492  81.907  84.235  1.00  0.00     0.037 C 
HETATM   20  C25 UNL     1      63.659  80.508  83.625  1.00  0.00     0.017 C 
HETATM   21  C26 UNL     1      63.632  80.597  82.156  1.00  0.00    -0.013 C 
HETATM   22  C27 UNL     1      65.000  80.979  81.650  1.00  0.00     0.021 C 
ENDROOT
BRANCH   1  23
HETATM   23  O2  UNL     1      59.953  77.576  75.128  1.00  0.00    -0.314 OA
BRANCH  23  24
HETATM   24  C5  UNL     1      59.376  78.472  74.221  1.00  0.00     0.290 C 
HETATM   25  O1  UNL     1      59.755  79.651  74.214  1.00  0.00    -0.263 OA
BRANCH  24  26
HETATM   26  C4  UNL     1      58.318  78.057  73.258  1.00  0.00     0.284 C 
BRANCH  26  27
HETATM   27  C3  UNL     1      57.047  78.719  73.675  1.00  0.00     0.074 C 
BRANCH  27  28
HETATM   28  C2  UNL     1      56.261  78.035  74.735  1.00  0.00     0.119 C 
HETATM   29  C1  UNL     1      55.543  79.003  75.619  1.00  0.00     0.039 C 
BRANCH  28  30
HETATM   30  O5  UNL     1      55.335  77.201  74.071  1.00  0.00    -0.384 OA
BRANCH  30  31
HETATM   31  C28 UNL     1      54.087  77.316  74.625  1.00  0.00     0.194 C 
BRANCH  31  32
HETATM   32  C29 UNL     1      53.189  76.152  74.327  1.00  0.00     0.190 C 
BRANCH  32  33
HETATM   33  O6  UNL     1      53.871  75.327  73.412  1.00  0.00    -0.399 OA
ATOM     34  H6  UNL     1      54.551  74.872  73.897  1.00  0.00     0.209 HD
ENDBRANCH  32  33
ENDBRANCH  31  32
ENDBRANCH  30  31
ENDBRANCH  28  30
ENDBRANCH  27  28
ENDBRANCH  26  27
BRANCH  26  35
HETATM   35  N1  UNL     1      58.226  76.619  73.306  1.00  0.00    -0.066 N 
ATOM     36  H13 UNL     1      58.811  76.237  74.049  1.00  0.00     0.275 HD
ATOM     37  H12 UNL     1      57.313  76.320  73.649  1.00  0.00     0.275 HD
ATOM     38  H11 UNL     1      58.442  76.188  72.407  1.00  0.00     0.275 HD
ENDBRANCH  26  35
ENDBRANCH  24  26
ENDBRANCH  23  24
ENDBRANCH   1  23
BRANCH   4  39
HETATM   39  O3  UNL     1      59.444  76.763  79.266  1.00  0.00    -0.389 OA
ATOM     40  H3  UNL     1      59.908  75.946  79.128  1.00  0.00     0.210 HD
ENDBRANCH   4  39
BRANCH  18  41
HETATM   41  O4  UNL     1      61.125  82.021  84.441  1.00  0.00    -0.392 OA
ATOM     42  H4  UNL     1      60.805  82.648  85.080  1.00  0.00     0.210 HD
ENDBRANCH  18  41
TORSDOF 12
ENDMDL
