MODEL 1
REMARK VINA RESULT: -7.317089398      0.000      0.000
REMARK  12 active torsions:
REMARK  status: ('A' for Active; 'I' for Inactive)
REMARK    1  A    between atoms: C2_2  and  O1_3 
REMARK    2  A    between atoms: C2_2  and  C13_21 
REMARK    3  A    between atoms: O1_3  and  C3_4 
REMARK    4  A    between atoms: C3_4  and  C4_5 
REMARK    5  A    between atoms: C4_5  and  N1_6 
REMARK    6  A    between atoms: C6_8  and  O2_9 
REMARK    7  A    between atoms: O2_9  and  C7_10 
REMARK    8  A    between atoms: C10_14  and  O3_15 
REMARK    9  A    between atoms: C11_17  and  C12_18 
REMARK   10  A    between atoms: C12_18  and  O4_19 
REMARK   11  A    between atoms: C13_21  and  O5_22 
REMARK   12  A    between atoms: C23_33  and  O6_34 
ROOT
HETATM    1  C13 UNL     1       0.552 -12.535  -6.877  1.00  0.00     0.084 C 
HETATM    2  C14 UNL     1       0.414 -13.795  -6.087  1.00  0.00     0.041 C 
HETATM    3  C15 UNL     1       0.387 -14.945  -7.102  1.00  0.00     0.013 C 
HETATM    4  C16 UNL     1      -0.767 -14.830  -8.057  1.00  0.00    -0.033 C 
HETATM    5  C17 UNL     1      -0.176 -14.695  -9.461  1.00  0.00     0.016 C 
HETATM    6  C18 UNL     1      -1.495 -13.556  -7.766  1.00  0.00    -0.003 C 
HETATM    7  C19 UNL     1      -2.655 -13.299  -8.703  1.00  0.00     0.006 C 
HETATM    8  C20 UNL     1      -3.626 -14.462  -8.516  1.00  0.00     0.006 C 
HETATM    9  C21 UNL     1      -2.881 -15.714  -8.913  1.00  0.00    -0.003 C 
HETATM   10  C22 UNL     1      -3.831 -16.907  -8.962  1.00  0.00     0.037 C 
HETATM   11  C23 UNL     1      -4.322 -17.289  -7.599  1.00  0.00     0.118 C 
HETATM   12  C24 UNL     1      -3.165 -17.462  -6.671  1.00  0.00     0.032 C 
HETATM   13  C25 UNL     1      -2.186 -16.336  -6.666  1.00  0.00     0.012 C 
HETATM   14  C26 UNL     1      -1.698 -15.991  -8.031  1.00  0.00    -0.033 C 
HETATM   15  C27 UNL     1      -0.963 -17.184  -8.631  1.00  0.00     0.016 C 
HETATM   16  C28 UNL     1      -0.604 -12.342  -7.804  1.00  0.00     0.045 C 
ENDROOT
BRANCH   1  17
HETATM   17  C2  UNL     1       0.771 -11.302  -6.027  1.00  0.00     0.151 C 
HETATM   18  C1  UNL     1      -0.409 -10.374  -6.352  1.00  0.00     0.042 C 
BRANCH  17  19
HETATM   19  O1  UNL     1       1.909 -10.642  -6.387  1.00  0.00    -0.382 OA
BRANCH  19  20
HETATM   20  C3  UNL     1       1.722  -9.437  -7.040  1.00  0.00     0.198 C 
BRANCH  20  21
HETATM   21  C4  UNL     1       2.788  -9.109  -8.036  1.00  0.00     0.299 C 
BRANCH  21  22
HETATM   22  N1  UNL     1       3.795  -8.227  -7.514  1.00  0.00     0.102 N 
HETATM   23  C5  UNL     1       4.986  -8.129  -8.287  1.00  0.00     0.307 C 
HETATM   24  C6  UNL     1       5.786  -7.092  -7.487  1.00  0.00     0.183 C 
HETATM   25  C10 UNL     1       4.680  -6.179  -6.998  1.00  0.00     0.184 C 
HETATM   26  C11 UNL     1       3.379  -6.878  -7.326  1.00  0.00     0.277 C 
BRANCH  24  27
HETATM   27  O2  UNL     1       6.395  -7.779  -6.459  1.00  0.00    -0.356 OA
BRANCH  27  28
HETATM   28  C7  UNL     1       7.757  -7.709  -6.439  1.00  0.00     0.130 C 
HETATM   29  C8  UNL     1       8.456  -9.035  -6.533  1.00  0.00     0.064 C 
HETATM   30  C9  UNL     1       8.164  -7.093  -5.101  1.00  0.00     0.064 C 
HETATM   31 CL1  UNL     1       8.282  -6.574  -7.701  1.00  0.00    -0.089 Cl
ENDBRANCH  27  28
ENDBRANCH  24  27
BRANCH  25  32
HETATM   32  O3  UNL     1       4.800  -5.984  -5.604  1.00  0.00    -0.391 OA
ATOM     33  H3  UNL     1       4.085  -6.419  -5.155  1.00  0.00     0.210 HD
ENDBRANCH  25  32
BRANCH  26  34
HETATM   34  C12 UNL     1       2.783  -6.305  -8.610  1.00  0.00     0.202 C 
BRANCH  34  35
HETATM   35  O4  UNL     1       2.776  -4.894  -8.531  1.00  0.00    -0.399 OA
ATOM     36  H4  UNL     1       2.484  -4.534  -9.360  1.00  0.00     0.209 HD
ENDBRANCH  34  35
ENDBRANCH  26  34
ENDBRANCH  21  22
ENDBRANCH  20  21
ENDBRANCH  19  20
ENDBRANCH  17  19
ENDBRANCH   1  17
BRANCH   1  37
HETATM   37  O5  UNL     1       1.710 -12.670  -7.673  1.00  0.00    -0.387 OA
ATOM     38  H5  UNL     1       1.406 -12.713  -8.572  1.00  0.00     0.210 HD
ENDBRANCH   1  37
BRANCH  11  39
HETATM   39  O6  UNL     1      -5.317 -16.459  -7.112  1.00  0.00    -0.396 OA
ATOM     40  H6  UNL     1      -5.031 -15.891  -6.406  1.00  0.00     0.210 HD
ENDBRANCH  11  39
TORSDOF 12
ENDMDL
MODEL 2
REMARK VINA RESULT: -7.085073865      1.050      1.252
REMARK  12 active torsions:
REMARK  status: ('A' for Active; 'I' for Inactive)
REMARK    1  A    between atoms: C2_2  and  O1_3 
REMARK    2  A    between atoms: C2_2  and  C13_21 
REMARK    3  A    between atoms: O1_3  and  C3_4 
REMARK    4  A    between atoms: C3_4  and  C4_5 
REMARK    5  A    between atoms: C4_5  and  N1_6 
REMARK    6  A    between atoms: C6_8  and  O2_9 
REMARK    7  A    between atoms: O2_9  and  C7_10 
REMARK    8  A    between atoms: C10_14  and  O3_15 
REMARK    9  A    between atoms: C11_17  and  C12_18 
REMARK   10  A    between atoms: C12_18  and  O4_19 
REMARK   11  A    between atoms: C13_21  and  O5_22 
REMARK   12  A    between atoms: C23_33  and  O6_34 
ROOT
HETATM    1  C13 UNL     1       0.567 -12.861  -6.906  1.00  0.00     0.084 C 
HETATM    2  C14 UNL     1       0.323 -14.106  -6.118  1.00  0.00     0.041 C 
HETATM    3  C15 UNL     1       0.272 -15.259  -7.129  1.00  0.00     0.013 C 
HETATM    4  C16 UNL     1      -0.834 -15.082  -8.131  1.00  0.00    -0.033 C 
HETATM    5  C17 UNL     1      -0.177 -14.991  -9.510  1.00  0.00     0.016 C 
HETATM    6  C18 UNL     1      -1.498 -13.767  -7.876  1.00  0.00    -0.003 C 
HETATM    7  C19 UNL     1      -2.600 -13.449  -8.862  1.00  0.00     0.006 C 
HETATM    8  C20 UNL     1      -3.645 -14.553  -8.711  1.00  0.00     0.006 C 
HETATM    9  C21 UNL     1      -2.957 -15.849  -9.072  1.00  0.00    -0.003 C 
HETATM   10  C22 UNL     1      -3.972 -16.985  -9.156  1.00  0.00     0.037 C 
HETATM   11  C23 UNL     1      -4.541 -17.329  -7.814  1.00  0.00     0.118 C 
HETATM   12  C24 UNL     1      -3.436 -17.563  -6.838  1.00  0.00     0.032 C 
HETATM   13  C25 UNL     1      -2.394 -16.495  -6.795  1.00  0.00     0.012 C 
HETATM   14  C26 UNL     1      -1.831 -16.187  -8.141  1.00  0.00    -0.033 C 
HETATM   15  C27 UNL     1      -1.142 -17.425  -8.705  1.00  0.00     0.016 C 
HETATM   16  C28 UNL     1      -0.537 -12.607  -7.881  1.00  0.00     0.045 C 
ENDROOT
BRANCH   1  17
HETATM   17  C2  UNL     1       0.821 -11.637  -6.052  1.00  0.00     0.151 C 
HETATM   18  C1  UNL     1      -0.404 -10.736  -6.264  1.00  0.00     0.042 C 
BRANCH  17  19
HETATM   19  O1  UNL     1       1.909 -10.940  -6.490  1.00  0.00    -0.382 OA
BRANCH  19  20
HETATM   20  C3  UNL     1       1.714  -9.585  -6.685  1.00  0.00     0.198 C 
BRANCH  20  21
HETATM   21  C4  UNL     1       2.403  -9.035  -7.892  1.00  0.00     0.299 C 
BRANCH  21  22
HETATM   22  N1  UNL     1       3.537  -8.213  -7.570  1.00  0.00     0.102 N 
HETATM   23  C5  UNL     1       4.180  -7.592  -8.677  1.00  0.00     0.307 C 
HETATM   24  C6  UNL     1       5.273  -6.774  -7.976  1.00  0.00     0.183 C 
HETATM   25  C10 UNL     1       4.562  -6.357  -6.706  1.00  0.00     0.184 C 
HETATM   26  C11 UNL     1       3.271  -7.146  -6.665  1.00  0.00     0.277 C 
BRANCH  24  27
HETATM   27  O2  UNL     1       6.316  -7.644  -7.736  1.00  0.00    -0.356 OA
BRANCH  27  28
HETATM   28  C7  UNL     1       7.539  -7.220  -8.166  1.00  0.00     0.130 C 
HETATM   29  C8  UNL     1       7.506  -6.019  -9.067  1.00  0.00     0.064 C 
HETATM   30  C9  UNL     1       8.158  -8.358  -8.975  1.00  0.00     0.064 C 
HETATM   31 CL1  UNL     1       8.583  -6.978  -6.749  1.00  0.00    -0.089 Cl
ENDBRANCH  27  28
ENDBRANCH  24  27
BRANCH  25  32
HETATM   32  O3  UNL     1       5.365  -6.663  -5.584  1.00  0.00    -0.391 OA
ATOM     33  H3  UNL     1       5.852  -5.893  -5.315  1.00  0.00     0.210 HD
ENDBRANCH  25  32
BRANCH  26  34
HETATM   34  C12 UNL     1       2.112  -6.283  -7.161  1.00  0.00     0.202 C 
BRANCH  34  35
HETATM   35  O4  UNL     1       1.295  -5.926  -6.065  1.00  0.00    -0.399 OA
ATOM     36  H4  UNL     1       0.697  -5.237  -6.331  1.00  0.00     0.209 HD
ENDBRANCH  34  35
ENDBRANCH  26  34
ENDBRANCH  21  22
ENDBRANCH  20  21
ENDBRANCH  19  20
ENDBRANCH  17  19
ENDBRANCH   1  17
BRANCH   1  37
HETATM   37  O5  UNL     1       1.747 -13.067  -7.653  1.00  0.00    -0.387 OA
ATOM     38  H5  UNL     1       1.673 -13.938  -8.025  1.00  0.00     0.210 HD
ENDBRANCH   1  37
BRANCH  11  39
HETATM   39  O6  UNL     1      -5.506 -16.440  -7.372  1.00  0.00    -0.396 OA
ATOM     40  H6  UNL     1      -5.154 -15.705  -6.883  1.00  0.00     0.210 HD
ENDBRANCH  11  39
TORSDOF 12
ENDMDL
MODEL 3
REMARK VINA RESULT: -7.027512714      1.712      2.892
REMARK  12 active torsions:
REMARK  status: ('A' for Active; 'I' for Inactive)
REMARK    1  A    between atoms: C2_2  and  O1_3 
REMARK    2  A    between atoms: C2_2  and  C13_21 
REMARK    3  A    between atoms: O1_3  and  C3_4 
REMARK    4  A    between atoms: C3_4  and  C4_5 
REMARK    5  A    between atoms: C4_5  and  N1_6 
REMARK    6  A    between atoms: C6_8  and  O2_9 
REMARK    7  A    between atoms: O2_9  and  C7_10 
REMARK    8  A    between atoms: C10_14  and  O3_15 
REMARK    9  A    between atoms: C11_17  and  C12_18 
REMARK   10  A    between atoms: C12_18  and  O4_19 
REMARK   11  A    between atoms: C13_21  and  O5_22 
REMARK   12  A    between atoms: C23_33  and  O6_34 
ROOT
HETATM    1  C13 UNL     1      -1.282 -11.516  -6.357  1.00  0.00     0.084 C 
HETATM    2  C14 UNL     1      -1.710 -11.157  -7.742  1.00  0.00     0.041 C 
HETATM    3  C15 UNL     1      -2.753 -12.203  -8.161  1.00  0.00     0.013 C 
HETATM    4  C16 UNL     1      -2.187 -13.595  -8.162  1.00  0.00    -0.033 C 
HETATM    5  C17 UNL     1      -2.989 -14.405  -7.141  1.00  0.00     0.016 C 
HETATM    6  C18 UNL     1      -0.779 -13.533  -7.662  1.00  0.00    -0.003 C 
HETATM    7  C19 UNL     1      -0.116 -14.890  -7.565  1.00  0.00     0.006 C 
HETATM    8  C20 UNL     1      -0.099 -15.463  -8.980  1.00  0.00     0.006 C 
HETATM    9  C21 UNL     1      -1.542 -15.599  -9.408  1.00  0.00    -0.003 C 
HETATM   10  C22 UNL     1      -1.638 -16.359 -10.727  1.00  0.00     0.037 C 
HETATM   11  C23 UNL     1      -1.076 -15.570 -11.870  1.00  0.00     0.118 C 
HETATM   12  C24 UNL     1      -1.687 -14.209 -11.899  1.00  0.00     0.032 C 
HETATM   13  C25 UNL     1      -1.668 -13.480 -10.598  1.00  0.00     0.012 C 
HETATM   14  C26 UNL     1      -2.252 -14.279  -9.482  1.00  0.00    -0.033 C 
HETATM   15  C27 UNL     1      -3.718 -14.576  -9.776  1.00  0.00     0.016 C 
HETATM   16  C28 UNL     1      -0.658 -12.873  -6.313  1.00  0.00     0.045 C 
ENDROOT
BRANCH   1  17
HETATM   17  C2  UNL     1      -0.378 -10.488  -5.711  1.00  0.00     0.151 C 
HETATM   18  C1  UNL     1      -1.324  -9.482  -5.041  1.00  0.00     0.042 C 
BRANCH  17  19
HETATM   19  O1  UNL     1       0.341  -9.799  -6.644  1.00  0.00    -0.382 OA
BRANCH  19  20
HETATM   20  C3  UNL     1       1.689 -10.101  -6.703  1.00  0.00     0.198 C 
BRANCH  20  21
HETATM   21  C4  UNL     1       2.414  -9.445  -7.835  1.00  0.00     0.299 C 
BRANCH  21  22
HETATM   22  N1  UNL     1       3.411  -8.507  -7.400  1.00  0.00     0.102 N 
HETATM   23  C5  UNL     1       4.461  -8.252  -8.326  1.00  0.00     0.307 C 
HETATM   24  C6  UNL     1       5.282  -7.196  -7.574  1.00  0.00     0.183 C 
HETATM   25  C10 UNL     1       4.191  -6.421  -6.866  1.00  0.00     0.184 C 
HETATM   26  C11 UNL     1       2.917  -7.217  -7.054  1.00  0.00     0.277 C 
BRANCH  24  27
HETATM   27  O2  UNL     1       6.094  -7.885  -6.698  1.00  0.00    -0.356 OA
BRANCH  27  28
HETATM   28  C7  UNL     1       7.433  -7.766  -6.929  1.00  0.00     0.130 C 
HETATM   29  C8  UNL     1       8.134  -9.057  -7.239  1.00  0.00     0.064 C 
HETATM   30  C9  UNL     1       8.069  -7.217  -5.653  1.00  0.00     0.064 C 
HETATM   31 CL1  UNL     1       7.682  -6.538  -8.188  1.00  0.00    -0.089 Cl
ENDBRANCH  27  28
ENDBRANCH  24  27
BRANCH  25  32
HETATM   32  O3  UNL     1       4.501  -6.302  -5.493  1.00  0.00    -0.391 OA
ATOM     33  H3  UNL     1       5.295  -5.792  -5.384  1.00  0.00     0.210 HD
ENDBRANCH  25  32
BRANCH  26  34
HETATM   34  C12 UNL     1       2.091  -6.624  -8.194  1.00  0.00     0.202 C 
BRANCH  34  35
HETATM   35  O4  UNL     1       2.465  -5.275  -8.387  1.00  0.00    -0.399 OA
ATOM     36  H4  UNL     1       1.745  -4.805  -8.792  1.00  0.00     0.209 HD
ENDBRANCH  34  35
ENDBRANCH  26  34
ENDBRANCH  21  22
ENDBRANCH  20  21
ENDBRANCH  19  20
ENDBRANCH  17  19
ENDBRANCH   1  17
BRANCH   1  37
HETATM   37  O5  UNL     1      -2.448 -11.565  -5.562  1.00  0.00    -0.387 OA
ATOM     38  H5  UNL     1      -2.818 -12.430  -5.692  1.00  0.00     0.210 HD
ENDBRANCH   1  37
BRANCH  11  39
HETATM   39  O6  UNL     1       0.308 -15.569 -11.921  1.00  0.00    -0.396 OA
ATOM     40  H6  UNL     1       0.661 -15.208 -12.726  1.00  0.00     0.210 HD
ENDBRANCH  11  39
TORSDOF 12
ENDMDL
MODEL 4
REMARK VINA RESULT: -6.986821311      5.836     10.396
REMARK  12 active torsions:
REMARK  status: ('A' for Active; 'I' for Inactive)
REMARK    1  A    between atoms: C2_2  and  O1_3 
REMARK    2  A    between atoms: C2_2  and  C13_21 
REMARK    3  A    between atoms: O1_3  and  C3_4 
REMARK    4  A    between atoms: C3_4  and  C4_5 
REMARK    5  A    between atoms: C4_5  and  N1_6 
REMARK    6  A    between atoms: C6_8  and  O2_9 
REMARK    7  A    between atoms: O2_9  and  C7_10 
REMARK    8  A    between atoms: C10_14  and  O3_15 
REMARK    9  A    between atoms: C11_17  and  C12_18 
REMARK   10  A    between atoms: C12_18  and  O4_19 
REMARK   11  A    between atoms: C13_21  and  O5_22 
REMARK   12  A    between atoms: C23_33  and  O6_34 
ROOT
HETATM    1  C13 UNL     1      -0.871 -16.062  -7.162  1.00  0.00     0.084 C 
HETATM    2  C14 UNL     1      -2.248 -15.669  -6.740  1.00  0.00     0.041 C 
HETATM    3  C15 UNL     1      -2.678 -14.524  -7.667  1.00  0.00     0.013 C 
HETATM    4  C16 UNL     1      -1.767 -13.334  -7.555  1.00  0.00    -0.033 C 
HETATM    5  C17 UNL     1      -1.140 -13.118  -8.933  1.00  0.00     0.016 C 
HETATM    6  C18 UNL     1      -0.654 -13.678  -6.618  1.00  0.00    -0.003 C 
HETATM    7  C19 UNL     1       0.366 -12.571  -6.463  1.00  0.00     0.006 C 
HETATM    8  C20 UNL     1      -0.386 -11.369  -5.896  1.00  0.00     0.006 C 
HETATM    9  C21 UNL     1      -1.435 -10.996  -6.917  1.00  0.00    -0.003 C 
HETATM   10  C22 UNL     1      -2.101  -9.676  -6.540  1.00  0.00     0.037 C 
HETATM   11  C23 UNL     1      -2.940  -9.805  -5.305  1.00  0.00     0.118 C 
HETATM   12  C24 UNL     1      -3.884 -10.951  -5.448  1.00  0.00     0.032 C 
HETATM   13  C25 UNL     1      -3.260 -12.233  -5.889  1.00  0.00     0.012 C 
HETATM   14  C26 UNL     1      -2.450 -12.081  -7.130  1.00  0.00    -0.033 C 
HETATM   15  C27 UNL     1      -3.347 -11.634  -8.279  1.00  0.00     0.016 C 
HETATM   16  C28 UNL     1       0.090 -14.926  -7.014  1.00  0.00     0.045 C 
ENDROOT
BRANCH   1  17
HETATM   17  C2  UNL     1      -0.348 -17.301  -6.467  1.00  0.00     0.151 C 
HETATM   18  C1  UNL     1       1.010 -16.892  -5.880  1.00  0.00     0.042 C 
BRANCH  17  19
HETATM   19  O1  UNL     1      -0.113 -18.310  -7.354  1.00  0.00    -0.382 OA
BRANCH  19  20
HETATM   20  C3  UNL     1      -0.733 -19.512  -7.071  1.00  0.00     0.198 C 
BRANCH  20  21
HETATM   21  C4  UNL     1      -1.586 -20.037  -8.182  1.00  0.00     0.299 C 
BRANCH  21  22
HETATM   22  N1  UNL     1      -2.688 -19.172  -8.504  1.00  0.00     0.102 N 
HETATM   23  C5  UNL     1      -3.018 -19.087  -9.886  1.00  0.00     0.307 C 
HETATM   24  C6  UNL     1      -4.235 -18.151  -9.852  1.00  0.00     0.183 C 
HETATM   25  C10 UNL     1      -4.898 -18.575  -8.558  1.00  0.00     0.184 C 
HETATM   26  C11 UNL     1      -3.916 -19.492  -7.861  1.00  0.00     0.277 C 
BRANCH  24  27
HETATM   27  O2  UNL     1      -3.736 -16.867  -9.795  1.00  0.00    -0.356 OA
BRANCH  27  28
HETATM   28  C7  UNL     1      -4.225 -16.010 -10.737  1.00  0.00     0.130 C 
HETATM   29  C8  UNL     1      -4.931 -16.674 -11.884  1.00  0.00     0.064 C 
HETATM   30  C9  UNL     1      -3.036 -15.257 -11.330  1.00  0.00     0.064 C 
HETATM   31 CL1  UNL     1      -5.239 -14.799  -9.925  1.00  0.00    -0.089 Cl
ENDBRANCH  27  28
ENDBRANCH  24  27
BRANCH  25  32
HETATM   32  O3  UNL     1      -5.164 -17.438  -7.761  1.00  0.00    -0.391 OA
ATOM     33  H3  UNL     1      -4.922 -17.612  -6.859  1.00  0.00     0.210 HD
ENDBRANCH  25  32
BRANCH  26  34
HETATM   34  C12 UNL     1      -4.297 -20.951  -8.104  1.00  0.00     0.202 C 
BRANCH  34  35
HETATM   35  O4  UNL     1      -5.704 -21.057  -8.193  1.00  0.00    -0.399 OA
ATOM     36  H4  UNL     1      -6.078 -20.189  -8.297  1.00  0.00     0.209 HD
ENDBRANCH  34  35
ENDBRANCH  26  34
ENDBRANCH  21  22
ENDBRANCH  20  21
ENDBRANCH  19  20
ENDBRANCH  17  19
ENDBRANCH   1  17
BRANCH   1  37
HETATM   37  O5  UNL     1      -0.933 -16.382  -8.535  1.00  0.00    -0.387 OA
ATOM     38  H5  UNL     1      -1.716 -16.907  -8.647  1.00  0.00     0.210 HD
ENDBRANCH   1  37
BRANCH  11  39
HETATM   39  O6  UNL     1      -2.205  -9.821  -4.131  1.00  0.00    -0.396 OA
ATOM     40  H6  UNL     1      -2.104 -10.688  -3.755  1.00  0.00     0.210 HD
ENDBRANCH  11  39
TORSDOF 12
ENDMDL
MODEL 5
REMARK VINA RESULT: -6.985384439      5.682      9.849
REMARK  12 active torsions:
REMARK  status: ('A' for Active; 'I' for Inactive)
REMARK    1  A    between atoms: C2_2  and  O1_3 
REMARK    2  A    between atoms: C2_2  and  C13_21 
REMARK    3  A    between atoms: O1_3  and  C3_4 
REMARK    4  A    between atoms: C3_4  and  C4_5 
REMARK    5  A    between atoms: C4_5  and  N1_6 
REMARK    6  A    between atoms: C6_8  and  O2_9 
REMARK    7  A    between atoms: O2_9  and  C7_10 
REMARK    8  A    between atoms: C10_14  and  O3_15 
REMARK    9  A    between atoms: C11_17  and  C12_18 
REMARK   10  A    between atoms: C12_18  and  O4_19 
REMARK   11  A    between atoms: C13_21  and  O5_22 
REMARK   12  A    between atoms: C23_33  and  O6_34 
ROOT
HETATM    1  C13 UNL     1      -0.388 -14.705  -7.070  1.00  0.00     0.084 C 
HETATM    2  C14 UNL     1      -1.710 -14.753  -6.375  1.00  0.00     0.041 C 
HETATM    3  C15 UNL     1      -2.639 -13.802  -7.141  1.00  0.00     0.013 C 
HETATM    4  C16 UNL     1      -2.129 -12.389  -7.138  1.00  0.00    -0.033 C 
HETATM    5  C17 UNL     1      -1.879 -12.000  -8.597  1.00  0.00     0.016 C 
HETATM    6  C18 UNL     1      -0.803 -12.367  -6.448  1.00  0.00    -0.003 C 
HETATM    7  C19 UNL     1      -0.157 -10.999  -6.428  1.00  0.00     0.006 C 
HETATM    8  C20 UNL     1      -1.112 -10.083  -5.666  1.00  0.00     0.006 C 
HETATM    9  C21 UNL     1      -2.403 -10.058  -6.449  1.00  0.00    -0.003 C 
HETATM   10  C22 UNL     1      -3.351  -9.005  -5.882  1.00  0.00     0.037 C 
HETATM   11  C23 UNL     1      -3.852  -9.378  -4.520  1.00  0.00     0.118 C 
HETATM   12  C24 UNL     1      -4.414 -10.761  -4.545  1.00  0.00     0.032 C 
HETATM   13  C25 UNL     1      -3.529 -11.790  -5.164  1.00  0.00     0.012 C 
HETATM   14  C26 UNL     1      -3.062 -11.404  -6.526  1.00  0.00    -0.033 C 
HETATM   15  C27 UNL     1      -4.259 -11.263  -7.459  1.00  0.00     0.016 C 
HETATM   16  C28 UNL     1       0.192 -13.328  -7.044  1.00  0.00     0.045 C 
ENDROOT
BRANCH   1  17
HETATM   17  C2  UNL     1       0.610 -15.718  -6.553  1.00  0.00     0.151 C 
HETATM   18  C1  UNL     1       1.985 -15.062  -6.741  1.00  0.00     0.042 C 
BRANCH  17  19
HETATM   19  O1  UNL     1       0.605 -16.855  -7.308  1.00  0.00    -0.382 OA
BRANCH  19  20
HETATM   20  C3  UNL     1       0.168 -17.998  -6.665  1.00  0.00     0.198 C 
BRANCH  20  21
HETATM   21  C4  UNL     1      -0.763 -18.840  -7.478  1.00  0.00     0.299 C 
BRANCH  21  22
HETATM   22  N1  UNL     1      -1.988 -18.166  -7.810  1.00  0.00     0.102 N 
HETATM   23  C5  UNL     1      -2.380 -18.242  -9.176  1.00  0.00     0.307 C 
HETATM   24  C6  UNL     1      -3.715 -17.486  -9.154  1.00  0.00     0.183 C 
HETATM   25  C10 UNL     1      -4.261 -17.890  -7.800  1.00  0.00     0.184 C 
HETATM   26  C11 UNL     1      -3.133 -18.601  -7.085  1.00  0.00     0.277 C 
BRANCH  24  27
HETATM   27  O2  UNL     1      -3.404 -16.144  -9.218  1.00  0.00    -0.356 OA
BRANCH  27  28
HETATM   28  C7  UNL     1      -4.005 -15.455 -10.230  1.00  0.00     0.130 C 
HETATM   29  C8  UNL     1      -4.658 -16.314 -11.274  1.00  0.00     0.064 C 
HETATM   30  C9  UNL     1      -2.920 -14.649 -10.942  1.00  0.00     0.064 C 
HETATM   31 CL1  UNL     1      -5.129 -14.276  -9.520  1.00  0.00    -0.089 Cl
ENDBRANCH  27  28
ENDBRANCH  24  27
BRANCH  25  32
HETATM   32  O3  UNL     1      -4.657 -16.740  -7.080  1.00  0.00    -0.391 OA
ATOM     33  H3  UNL     1      -5.187 -16.993  -6.333  1.00  0.00     0.210 HD
ENDBRANCH  25  32
BRANCH  26  34
HETATM   34  C12 UNL     1      -3.311 -20.114  -7.198  1.00  0.00     0.202 C 
BRANCH  34  35
HETATM   35  O4  UNL     1      -3.225 -20.691  -5.911  1.00  0.00    -0.399 OA
ATOM     36  H4  UNL     1      -2.389 -20.463  -5.520  1.00  0.00     0.209 HD
ENDBRANCH  34  35
ENDBRANCH  26  34
ENDBRANCH  21  22
ENDBRANCH  20  21
ENDBRANCH  19  20
ENDBRANCH  17  19
ENDBRANCH   1  17
BRANCH   1  37
HETATM   37  O5  UNL     1      -0.618 -15.038  -8.422  1.00  0.00    -0.387 OA
ATOM     38  H5  UNL     1      -0.929 -14.243  -8.839  1.00  0.00     0.210 HD
ENDBRANCH   1  37
BRANCH  11  39
HETATM   39  O6  UNL     1      -2.933  -9.160  -3.508  1.00  0.00    -0.396 OA
ATOM     40  H6  UNL     1      -3.328  -9.031  -2.653  1.00  0.00     0.210 HD
ENDBRANCH  11  39
TORSDOF 12
ENDMDL
