MODEL 1
REMARK VINA RESULT: -7.371127929      0.000      0.000
REMARK  12 active torsions:
REMARK  status: ('A' for Active; 'I' for Inactive)
REMARK    1  A    between atoms: C2_2  and  C3_3 
REMARK    2  A    between atoms: C2_2  and  C6_8 
REMARK    3  A    between atoms: C3_3  and  C4_4 
REMARK    4  A    between atoms: C4_4  and  C5_5 
REMARK    5  A    between atoms: C15_17  and  O2_18 
REMARK    6  A    between atoms: O2_18  and  C16_19 
REMARK    7  A    between atoms: C16_19  and  C17_20 
REMARK    8  A    between atoms: C16_19  and  C18_23 
REMARK    9  A    between atoms: C17_20  and  O3_21 
REMARK   10  A    between atoms: C18_23  and  C19_24 
REMARK   11  A    between atoms: C20_27  and  O6_28 
REMARK   12  A    between atoms: C21_30  and  O7_31 
ROOT
HETATM    1  C6  UNL     1       9.873  -7.137  -1.458  1.00  0.00    -0.002 C 
HETATM    2  C7  UNL     1       8.722  -6.708  -2.339  1.00  0.00     0.006 C 
HETATM    3  C8  UNL     1       9.512  -6.034  -3.501  1.00  0.00     0.006 C 
HETATM    4  C9  UNL     1      10.644  -6.965  -3.668  1.00  0.00     0.002 C 
HETATM    5  C10 UNL     1      11.993  -6.329  -3.766  1.00  0.00     0.031 C 
HETATM    6  C11 UNL     1      12.408  -6.254  -5.221  1.00  0.00     0.009 C 
HETATM    7  C12 UNL     1      13.869  -6.119  -5.443  1.00  0.00     0.006 C 
HETATM    8  C13 UNL     1      14.775  -7.238  -5.234  1.00  0.00    -0.001 C 
HETATM    9  C14 UNL     1      15.759  -7.405  -6.404  1.00  0.00     0.040 C 
HETATM   10  C15 UNL     1      16.890  -8.355  -6.055  1.00  0.00     0.153 C 
HETATM   11  C20 UNL     1      16.432  -9.575  -5.306  1.00  0.00     0.176 C 
HETATM   12  C21 UNL     1      15.374  -9.358  -4.276  1.00  0.00     0.158 C 
HETATM   13  C22 UNL     1      14.223  -8.584  -4.869  1.00  0.00    -0.005 C 
HETATM   14  C23 UNL     1      13.844  -9.397  -6.121  1.00  0.00     0.019 C 
HETATM   15  C24 UNL     1      13.004  -8.498  -4.032  1.00  0.00     0.038 C 
HETATM   16  C25 UNL     1      12.791  -9.339  -2.841  1.00  0.00     0.017 C 
HETATM   17  C26 UNL     1      12.068  -8.210  -2.189  1.00  0.00     0.036 C 
HETATM   18  C27 UNL     1      10.685  -7.870  -2.426  1.00  0.00    -0.029 C 
HETATM   19  C28 UNL     1       9.818  -9.080  -2.857  1.00  0.00     0.016 C 
HETATM   20  C29 UNL     1      12.891  -7.333  -3.115  1.00  0.00     0.116 C 
HETATM   21  F1  UNL     1      13.956  -6.864  -2.439  1.00  0.00    -0.242 F 
ENDROOT
BRANCH  10  22
HETATM   22  O2  UNL     1      17.402  -8.774  -7.248  1.00  0.00    -0.375 OA
BRANCH  22  23
HETATM   23  C16 UNL     1      18.476  -8.246  -7.806  1.00  0.00     0.155 C 
BRANCH  23  24
HETATM   24  C17 UNL     1      18.181  -8.243  -9.342  1.00  0.00     0.196 C 
BRANCH  24  25
HETATM   25  O3  UNL     1      17.348  -7.176  -9.600  1.00  0.00    -0.398 OA
ATOM     26  H3  UNL     1      16.604  -7.248  -9.013  1.00  0.00     0.209 HD
ENDBRANCH  24  25
ENDBRANCH  23  24
BRANCH  23  27
HETATM   27  C18 UNL     1      19.826  -8.791  -7.673  1.00  0.00     0.147 C 
BRANCH  27  28
HETATM   28  C19 UNL     1      20.379  -8.567  -6.318  1.00  0.00     0.175 C 
HETATM   29  O4  UNL     1      20.938  -7.487  -5.977  1.00  0.00    -0.648 OA
HETATM   30  O5  UNL     1      20.316  -9.542  -5.330  1.00  0.00    -0.648 OA
ENDBRANCH  27  28
ENDBRANCH  23  27
ENDBRANCH  22  23
ENDBRANCH  10  22
BRANCH  11  31
HETATM   31  O6  UNL     1      17.577  -9.983  -4.554  1.00  0.00    -0.390 OA
ATOM     32  H6  UNL     1      17.367 -10.860  -4.258  1.00  0.00     0.210 HD
ENDBRANCH  11  31
BRANCH  12  33
HETATM   33  O7  UNL     1      15.994  -8.720  -3.206  1.00  0.00    -0.392 OA
ATOM     34  H7  UNL     1      16.765  -9.234  -3.000  1.00  0.00     0.210 HD
ENDBRANCH  12  33
BRANCH   1  35
HETATM   35  C2  UNL     1      10.175  -6.162  -0.480  1.00  0.00    -0.013 C 
HETATM   36  C1  UNL     1      11.603  -6.084   0.086  1.00  0.00     0.010 C 
BRANCH  35  37
HETATM   37  C3  UNL     1       9.518  -6.494   0.881  1.00  0.00     0.013 C 
BRANCH  37  38
HETATM   38  C4  UNL     1      10.325  -6.831   2.026  1.00  0.00     0.091 C 
BRANCH  38  39
HETATM   39  C5  UNL     1       9.383  -7.202   3.153  1.00  0.00     0.195 C 
HETATM   40  O1  UNL     1       9.213  -6.425   4.060  1.00  0.00    -0.285 OA
HETATM   41 BR1  UNL     1       8.462  -8.865   3.175  1.00  0.00    -0.009 Br
ENDBRANCH  38  39
ENDBRANCH  37  38
ENDBRANCH  35  37
ENDBRANCH   1  35
TORSDOF 12
ENDMDL
MODEL 2
REMARK VINA RESULT: -7.350498619      1.824      2.765
REMARK  12 active torsions:
REMARK  status: ('A' for Active; 'I' for Inactive)
REMARK    1  A    between atoms: C2_2  and  C3_3 
REMARK    2  A    between atoms: C2_2  and  C6_8 
REMARK    3  A    between atoms: C3_3  and  C4_4 
REMARK    4  A    between atoms: C4_4  and  C5_5 
REMARK    5  A    between atoms: C15_17  and  O2_18 
REMARK    6  A    between atoms: O2_18  and  C16_19 
REMARK    7  A    between atoms: C16_19  and  C17_20 
REMARK    8  A    between atoms: C16_19  and  C18_23 
REMARK    9  A    between atoms: C17_20  and  O3_21 
REMARK   10  A    between atoms: C18_23  and  C19_24 
REMARK   11  A    between atoms: C20_27  and  O6_28 
REMARK   12  A    between atoms: C21_30  and  O7_31 
ROOT
HETATM    1  C6  UNL     1       9.382  -6.890  -2.469  1.00  0.00    -0.002 C 
HETATM    2  C7  UNL     1       9.633  -5.752  -1.505  1.00  0.00     0.006 C 
HETATM    3  C8  UNL     1      11.121  -6.039  -1.138  1.00  0.00     0.006 C 
HETATM    4  C9  UNL     1      11.681  -6.422  -2.447  1.00  0.00     0.002 C 
HETATM    5  C10 UNL     1      12.526  -7.655  -2.452  1.00  0.00     0.031 C 
HETATM    6  C11 UNL     1      13.988  -7.261  -2.433  1.00  0.00     0.009 C 
HETATM    7  C12 UNL     1      14.920  -8.307  -2.923  1.00  0.00     0.006 C 
HETATM    8  C13 UNL     1      15.018  -8.631  -4.338  1.00  0.00    -0.001 C 
HETATM    9  C14 UNL     1      16.480  -8.711  -4.808  1.00  0.00     0.040 C 
HETATM   10  C15 UNL     1      16.595  -9.347  -6.181  1.00  0.00     0.153 C 
HETATM   11  C20 UNL     1      15.543  -8.874  -7.145  1.00  0.00     0.176 C 
HETATM   12  C21 UNL     1      14.172  -8.687  -6.586  1.00  0.00     0.158 C 
HETATM   13  C22 UNL     1      14.229  -7.841  -5.340  1.00  0.00    -0.005 C 
HETATM   14  C23 UNL     1      14.993  -6.581  -5.791  1.00  0.00     0.019 C 
HETATM   15  C24 UNL     1      12.925  -7.381  -4.811  1.00  0.00     0.038 C 
HETATM   16  C25 UNL     1      11.672  -7.475  -5.581  1.00  0.00     0.017 C 
HETATM   17  C26 UNL     1      10.927  -7.729  -4.315  1.00  0.00     0.036 C 
HETATM   18  C27 UNL     1      10.500  -6.707  -3.390  1.00  0.00    -0.029 C 
HETATM   19  C28 UNL     1      10.260  -5.330  -4.060  1.00  0.00     0.016 C 
HETATM   20  C29 UNL     1      12.259  -8.245  -3.801  1.00  0.00     0.116 C 
HETATM   21  F1  UNL     1      12.276  -9.587  -3.903  1.00  0.00    -0.242 F 
ENDROOT
BRANCH  10  22
HETATM   22  O2  UNL     1      17.806  -8.953  -6.670  1.00  0.00    -0.375 OA
BRANCH  22  23
HETATM   23  C16 UNL     1      18.884  -8.812  -5.920  1.00  0.00     0.155 C 
BRANCH  23  24
HETATM   24  C17 UNL     1      19.564  -7.495  -6.423  1.00  0.00     0.196 C 
BRANCH  24  25
HETATM   25  O3  UNL     1      18.727  -6.449  -6.099  1.00  0.00    -0.398 OA
ATOM     26  H3  UNL     1      17.971  -6.502  -6.671  1.00  0.00     0.209 HD
ENDBRANCH  24  25
ENDBRANCH  23  24
BRANCH  23  27
HETATM   27  C18 UNL     1      19.962  -9.795  -5.834  1.00  0.00     0.147 C 
BRANCH  27  28
HETATM   28  C19 UNL     1      19.982 -10.475  -4.520  1.00  0.00     0.175 C 
HETATM   29  O4  UNL     1      20.976 -10.435  -3.742  1.00  0.00    -0.648 OA
HETATM   30  O5  UNL     1      18.895 -11.209  -4.057  1.00  0.00    -0.648 OA
ENDBRANCH  27  28
ENDBRANCH  23  27
ENDBRANCH  22  23
ENDBRANCH  10  22
BRANCH  11  31
HETATM   31  O6  UNL     1      15.401  -9.950  -8.075  1.00  0.00    -0.390 OA
ATOM     32  H6  UNL     1      14.506  -9.881  -8.384  1.00  0.00     0.210 HD
ENDBRANCH  11  31
BRANCH  12  33
HETATM   33  O7  UNL     1      13.657  -9.965  -6.379  1.00  0.00    -0.392 OA
ATOM     34  H7  UNL     1      13.902 -10.211  -5.495  1.00  0.00     0.210 HD
ENDBRANCH  12  33
BRANCH   1  35
HETATM   35  C2  UNL     1       8.839  -8.019  -1.814  1.00  0.00    -0.013 C 
HETATM   36  C1  UNL     1       7.769  -8.861  -2.531  1.00  0.00     0.010 C 
BRANCH  35  37
HETATM   37  C3  UNL     1       7.915  -7.612  -0.641  1.00  0.00     0.013 C 
BRANCH  37  38
HETATM   38  C4  UNL     1       8.015  -8.269   0.638  1.00  0.00     0.091 C 
BRANCH  38  39
HETATM   39  C5  UNL     1       8.217  -7.195   1.686  1.00  0.00     0.195 C 
HETATM   40  O1  UNL     1       7.287  -6.492   1.998  1.00  0.00    -0.285 OA
HETATM   41 BR1  UNL     1       9.902  -6.923   2.524  1.00  0.00    -0.009 Br
ENDBRANCH  38  39
ENDBRANCH  37  38
ENDBRANCH  35  37
ENDBRANCH   1  35
TORSDOF 12
ENDMDL
MODEL 3
REMARK VINA RESULT: -7.291905748      3.197      4.577
REMARK  12 active torsions:
REMARK  status: ('A' for Active; 'I' for Inactive)
REMARK    1  A    between atoms: C2_2  and  C3_3 
REMARK    2  A    between atoms: C2_2  and  C6_8 
REMARK    3  A    between atoms: C3_3  and  C4_4 
REMARK    4  A    between atoms: C4_4  and  C5_5 
REMARK    5  A    between atoms: C15_17  and  O2_18 
REMARK    6  A    between atoms: O2_18  and  C16_19 
REMARK    7  A    between atoms: C16_19  and  C17_20 
REMARK    8  A    between atoms: C16_19  and  C18_23 
REMARK    9  A    between atoms: C17_20  and  O3_21 
REMARK   10  A    between atoms: C18_23  and  C19_24 
REMARK   11  A    between atoms: C20_27  and  O6_28 
REMARK   12  A    between atoms: C21_30  and  O7_31 
ROOT
HETATM    1  C6  UNL     1      13.232  -5.309   0.623  1.00  0.00    -0.002 C 
HETATM    2  C7  UNL     1      11.829  -5.568   1.124  1.00  0.00     0.006 C 
HETATM    3  C8  UNL     1      11.097  -5.784  -0.236  1.00  0.00     0.006 C 
HETATM    4  C9  UNL     1      12.087  -6.582  -0.982  1.00  0.00     0.002 C 
HETATM    5  C10 UNL     1      12.356  -6.131  -2.382  1.00  0.00     0.031 C 
HETATM    6  C11 UNL     1      11.576  -7.001  -3.347  1.00  0.00     0.009 C 
HETATM    7  C12 UNL     1      12.101  -7.011  -4.735  1.00  0.00     0.006 C 
HETATM    8  C13 UNL     1      13.326  -7.716  -5.077  1.00  0.00    -0.001 C 
HETATM    9  C14 UNL     1      13.159  -8.576  -6.341  1.00  0.00     0.040 C 
HETATM   10  C15 UNL     1      14.496  -9.058  -6.874  1.00  0.00     0.153 C 
HETATM   11  C20 UNL     1      15.435  -9.520  -5.794  1.00  0.00     0.176 C 
HETATM   12  C21 UNL     1      15.445  -8.714  -4.539  1.00  0.00     0.158 C 
HETATM   13  C22 UNL     1      14.038  -8.524  -4.032  1.00  0.00    -0.005 C 
HETATM   14  C23 UNL     1      13.482  -9.958  -3.953  1.00  0.00     0.019 C 
HETATM   15  C24 UNL     1      13.913  -7.944  -2.675  1.00  0.00     0.038 C 
HETATM   16  C25 UNL     1      15.052  -7.827  -1.748  1.00  0.00     0.017 C 
HETATM   17  C26 UNL     1      14.476  -6.557  -1.220  1.00  0.00     0.036 C 
HETATM   18  C27 UNL     1      13.426  -6.476  -0.233  1.00  0.00    -0.029 C 
HETATM   19  C28 UNL     1      13.379  -7.697   0.720  1.00  0.00     0.016 C 
HETATM   20  C29 UNL     1      13.801  -6.465  -2.576  1.00  0.00     0.116 C 
HETATM   21  F1  UNL     1      14.523  -5.651  -3.368  1.00  0.00    -0.242 F 
ENDROOT
BRANCH  10  22
HETATM   22  O2  UNL     1      14.214 -10.136  -7.661  1.00  0.00    -0.375 OA
BRANCH  22  23
HETATM   23  C16 UNL     1      14.371 -11.386  -7.268  1.00  0.00     0.155 C 
BRANCH  23  24
HETATM   24  C17 UNL     1      15.323 -12.034  -8.327  1.00  0.00     0.196 C 
BRANCH  24  25
HETATM   25  O3  UNL     1      16.527 -12.281  -7.702  1.00  0.00    -0.398 OA
ATOM     26  H3  UNL     1      16.437 -13.098  -7.226  1.00  0.00     0.209 HD
ENDBRANCH  24  25
ENDBRANCH  23  24
BRANCH  23  27
HETATM   27  C18 UNL     1      13.276 -12.340  -7.099  1.00  0.00     0.147 C 
BRANCH  27  28
HETATM   28  C19 UNL     1      13.464 -13.188  -5.900  1.00  0.00     0.175 C 
HETATM   29  O4  UNL     1      12.555 -13.931  -5.437  1.00  0.00    -0.648 OA
HETATM   30  O5  UNL     1      14.667 -13.216  -5.204  1.00  0.00    -0.648 OA
ENDBRANCH  27  28
ENDBRANCH  23  27
ENDBRANCH  22  23
ENDBRANCH  10  22
BRANCH  11  31
HETATM   31  O6  UNL     1      16.738  -9.327  -6.348  1.00  0.00    -0.390 OA
ATOM     32  H6  UNL     1      16.776  -8.400  -6.548  1.00  0.00     0.210 HD
ENDBRANCH  11  31
BRANCH  12  33
HETATM   33  O7  UNL     1      16.102  -7.525  -4.844  1.00  0.00    -0.392 OA
ATOM     34  H7  UNL     1      16.324  -7.122  -4.013  1.00  0.00     0.210 HD
ENDBRANCH  12  33
BRANCH   1  35
HETATM   35  C2  UNL     1      13.478  -3.928   0.449  1.00  0.00    -0.013 C 
HETATM   36  C1  UNL     1      14.924  -3.442   0.247  1.00  0.00     0.010 C 
BRANCH  35  37
HETATM   37  C3  UNL     1      13.262  -3.139   1.763  1.00  0.00     0.013 C 
BRANCH  37  38
HETATM   38  C4  UNL     1      14.374  -2.528   2.446  1.00  0.00     0.091 C 
BRANCH  38  39
HETATM   39  C5  UNL     1      14.109  -2.637   3.934  1.00  0.00     0.195 C 
HETATM   40  O1  UNL     1      15.039  -2.745   4.693  1.00  0.00    -0.285 OA
HETATM   41 BR1  UNL     1      12.342  -2.611   4.635  1.00  0.00    -0.009 Br
ENDBRANCH  38  39
ENDBRANCH  37  38
ENDBRANCH  35  37
ENDBRANCH   1  35
TORSDOF 12
ENDMDL
MODEL 4
REMARK VINA RESULT: -7.222942433      1.978      2.938
REMARK  12 active torsions:
REMARK  status: ('A' for Active; 'I' for Inactive)
REMARK    1  A    between atoms: C2_2  and  C3_3 
REMARK    2  A    between atoms: C2_2  and  C6_8 
REMARK    3  A    between atoms: C3_3  and  C4_4 
REMARK    4  A    between atoms: C4_4  and  C5_5 
REMARK    5  A    between atoms: C15_17  and  O2_18 
REMARK    6  A    between atoms: O2_18  and  C16_19 
REMARK    7  A    between atoms: C16_19  and  C17_20 
REMARK    8  A    between atoms: C16_19  and  C18_23 
REMARK    9  A    between atoms: C17_20  and  O3_21 
REMARK   10  A    between atoms: C18_23  and  C19_24 
REMARK   11  A    between atoms: C20_27  and  O6_28 
REMARK   12  A    between atoms: C21_30  and  O7_31 
ROOT
HETATM    1  C6  UNL     1       8.577  -7.208  -1.403  1.00  0.00    -0.002 C 
HETATM    2  C7  UNL     1       8.740  -5.999  -0.510  1.00  0.00     0.006 C 
HETATM    3  C8  UNL     1      10.259  -6.117  -0.178  1.00  0.00     0.006 C 
HETATM    4  C9  UNL     1      10.817  -6.515  -1.483  1.00  0.00     0.002 C 
HETATM    5  C10 UNL     1      11.782  -7.657  -1.452  1.00  0.00     0.031 C 
HETATM    6  C11 UNL     1      13.197  -7.120  -1.502  1.00  0.00     0.009 C 
HETATM    7  C12 UNL     1      14.214  -8.095  -1.968  1.00  0.00     0.006 C 
HETATM    8  C13 UNL     1      14.305  -8.487  -3.366  1.00  0.00    -0.001 C 
HETATM    9  C14 UNL     1      15.754  -8.449  -3.879  1.00  0.00     0.040 C 
HETATM   10  C15 UNL     1      15.893  -9.146  -5.220  1.00  0.00     0.153 C 
HETATM   11  C20 UNL     1      14.772  -8.834  -6.172  1.00  0.00     0.176 C 
HETATM   12  C21 UNL     1      13.406  -8.753  -5.578  1.00  0.00     0.158 C 
HETATM   13  C22 UNL     1      13.413  -7.836  -4.381  1.00  0.00    -0.005 C 
HETATM   14  C23 UNL     1      14.033  -6.534  -4.923  1.00  0.00     0.019 C 
HETATM   15  C24 UNL     1      12.084  -7.478  -3.834  1.00  0.00     0.038 C 
HETATM   16  C25 UNL     1      10.826  -7.738  -4.555  1.00  0.00     0.017 C 
HETATM   17  C26 UNL     1      10.146  -7.994  -3.253  1.00  0.00     0.036 C 
HETATM   18  C27 UNL     1       9.645  -6.968  -2.369  1.00  0.00    -0.029 C 
HETATM   19  C28 UNL     1       9.249  -5.662  -3.104  1.00  0.00     0.016 C 
HETATM   20  C29 UNL     1      11.537  -8.346  -2.757  1.00  0.00     0.116 C 
HETATM   21  F1  UNL     1      11.686  -9.683  -2.788  1.00  0.00    -0.242 F 
ENDROOT
BRANCH  10  22
HETATM   22  O2  UNL     1      17.044  -8.663  -5.770  1.00  0.00    -0.375 OA
BRANCH  22  23
HETATM   23  C16 UNL     1      18.244  -8.896  -5.270  1.00  0.00     0.155 C 
BRANCH  23  24
HETATM   24  C17 UNL     1      19.078  -7.611  -5.589  1.00  0.00     0.196 C 
BRANCH  24  25
HETATM   25  O3  UNL     1      18.196  -6.642  -6.015  1.00  0.00    -0.398 OA
ATOM     26  H3  UNL     1      18.669  -6.066  -6.604  1.00  0.00     0.209 HD
ENDBRANCH  24  25
ENDBRANCH  23  24
BRANCH  23  27
HETATM   27  C18 UNL     1      19.096 -10.017  -5.662  1.00  0.00     0.147 C 
BRANCH  27  28
HETATM   28  C19 UNL     1      19.655 -10.721  -4.486  1.00  0.00     0.175 C 
HETATM   29  O4  UNL     1      20.738 -10.381  -3.934  1.00  0.00    -0.648 OA
HETATM   30  O5  UNL     1      19.013 -11.813  -3.913  1.00  0.00    -0.648 OA
ENDBRANCH  27  28
ENDBRANCH  23  27
ENDBRANCH  22  23
ENDBRANCH  10  22
BRANCH  11  31
HETATM   31  O6  UNL     1      14.713  -9.970  -7.038  1.00  0.00    -0.390 OA
ATOM     32  H6  UNL     1      13.929  -9.832  -7.557  1.00  0.00     0.210 HD
ENDBRANCH  11  31
BRANCH  12  33
HETATM   33  O7  UNL     1      13.028 -10.061  -5.286  1.00  0.00    -0.392 OA
ATOM     34  H7  UNL     1      12.921 -10.500  -6.121  1.00  0.00     0.210 HD
ENDBRANCH  12  33
BRANCH   1  35
HETATM   35  C2  UNL     1       8.170  -8.347  -0.671  1.00  0.00    -0.013 C 
HETATM   36  C1  UNL     1       6.895  -9.096  -1.096  1.00  0.00     0.010 C 
BRANCH  35  37
HETATM   37  C3  UNL     1       7.631  -7.965   0.729  1.00  0.00     0.013 C 
BRANCH  37  38
HETATM   38  C4  UNL     1       7.323  -8.983   1.702  1.00  0.00     0.091 C 
BRANCH  38  39
HETATM   39  C5  UNL     1       8.389  -8.922   2.776  1.00  0.00     0.195 C 
HETATM   40  O1  UNL     1       8.710  -9.934   3.348  1.00  0.00    -0.285 OA
HETATM   41 BR1  UNL     1       9.236  -7.286   3.249  1.00  0.00    -0.009 Br
ENDBRANCH  38  39
ENDBRANCH  37  38
ENDBRANCH  35  37
ENDBRANCH   1  35
TORSDOF 12
ENDMDL
MODEL 5
REMARK VINA RESULT: -7.217103711      2.335      3.520
REMARK  12 active torsions:
REMARK  status: ('A' for Active; 'I' for Inactive)
REMARK    1  A    between atoms: C2_2  and  C3_3 
REMARK    2  A    between atoms: C2_2  and  C6_8 
REMARK    3  A    between atoms: C3_3  and  C4_4 
REMARK    4  A    between atoms: C4_4  and  C5_5 
REMARK    5  A    between atoms: C15_17  and  O2_18 
REMARK    6  A    between atoms: O2_18  and  C16_19 
REMARK    7  A    between atoms: C16_19  and  C17_20 
REMARK    8  A    between atoms: C16_19  and  C18_23 
REMARK    9  A    between atoms: C17_20  and  O3_21 
REMARK   10  A    between atoms: C18_23  and  C19_24 
REMARK   11  A    between atoms: C20_27  and  O6_28 
REMARK   12  A    between atoms: C21_30  and  O7_31 
ROOT
HETATM    1  C6  UNL     1      10.424  -7.177  -1.326  1.00  0.00    -0.002 C 
HETATM    2  C7  UNL     1       8.981  -6.944  -1.711  1.00  0.00     0.006 C 
HETATM    3  C8  UNL     1       9.184  -6.111  -3.014  1.00  0.00     0.006 C 
HETATM    4  C9  UNL     1      10.316  -6.817  -3.643  1.00  0.00     0.002 C 
HETATM    5  C10 UNL     1      11.420  -5.945  -4.149  1.00  0.00     0.031 C 
HETATM    6  C11 UNL     1      11.269  -5.763  -5.645  1.00  0.00     0.009 C 
HETATM    7  C12 UNL     1      12.511  -5.360  -6.349  1.00  0.00     0.006 C 
HETATM    8  C13 UNL     1      13.600  -6.301  -6.565  1.00  0.00    -0.001 C 
HETATM    9  C14 UNL     1      14.114  -6.259  -8.014  1.00  0.00     0.040 C 
HETATM   10  C15 UNL     1      15.432  -6.996  -8.163  1.00  0.00     0.153 C 
HETATM   11  C20 UNL     1      15.476  -8.296  -7.409  1.00  0.00     0.176 C 
HETATM   12  C21 UNL     1      14.835  -8.299  -6.061  1.00  0.00     0.158 C 
HETATM   13  C22 UNL     1      13.440  -7.733  -6.148  1.00  0.00    -0.005 C 
HETATM   14  C23 UNL     1      12.775  -8.571  -7.255  1.00  0.00     0.019 C 
HETATM   15  C24 UNL     1      12.604  -7.889  -4.935  1.00  0.00     0.038 C 
HETATM   16  C25 UNL     1      12.969  -8.781  -3.822  1.00  0.00     0.017 C 
HETATM   17  C26 UNL     1      12.355  -7.818  -2.864  1.00  0.00     0.036 C 
HETATM   18  C27 UNL     1      10.944  -7.729  -2.575  1.00  0.00    -0.029 C 
HETATM   19  C28 UNL     1      10.187  -9.065  -2.781  1.00  0.00     0.016 C 
HETATM   20  C29 UNL     1      12.640  -6.785  -3.939  1.00  0.00     0.116 C 
HETATM   21  F1  UNL     1      13.785  -6.146  -3.638  1.00  0.00    -0.242 F 
ENDROOT
BRANCH  10  22
HETATM   22  O2  UNL     1      15.545  -7.288  -9.491  1.00  0.00    -0.375 OA
BRANCH  22  23
HETATM   23  C16 UNL     1      14.661  -6.911 -10.397  1.00  0.00     0.155 C 
BRANCH  23  24
HETATM   24  C17 UNL     1      14.011  -8.237 -10.914  1.00  0.00     0.196 C 
BRANCH  24  25
HETATM   25  O3  UNL     1      12.644  -8.064 -10.888  1.00  0.00    -0.398 OA
ATOM     26  H3  UNL     1      12.302  -8.380 -11.715  1.00  0.00     0.209 HD
ENDBRANCH  24  25
ENDBRANCH  23  24
BRANCH  23  27
HETATM   27  C18 UNL     1      14.989  -6.147 -11.599  1.00  0.00     0.147 C 
BRANCH  27  28
HETATM   28  C19 UNL     1      14.301  -4.837 -11.623  1.00  0.00     0.175 C 
HETATM   29  O4  UNL     1      14.684  -3.876 -12.347  1.00  0.00    -0.648 OA
HETATM   30  O5  UNL     1      13.180  -4.582 -10.841  1.00  0.00    -0.648 OA
ENDBRANCH  27  28
ENDBRANCH  23  27
ENDBRANCH  22  23
ENDBRANCH  10  22
BRANCH  11  31
HETATM   31  O6  UNL     1      16.863  -8.507  -7.140  1.00  0.00    -0.390 OA
ATOM     32  H6  UNL     1      16.923  -8.519  -6.192  1.00  0.00     0.210 HD
ENDBRANCH  11  31
BRANCH  12  33
HETATM   33  O7  UNL     1      15.686  -7.583  -5.223  1.00  0.00    -0.392 OA
ATOM     34  H7  UNL     1      15.387  -7.747  -4.337  1.00  0.00     0.210 HD
ENDBRANCH  12  33
BRANCH   1  35
HETATM   35  C2  UNL     1      10.894  -6.187  -0.434  1.00  0.00    -0.013 C 
HETATM   36  C1  UNL     1      12.211  -6.425   0.326  1.00  0.00     0.010 C 
BRANCH  35  37
HETATM   37  C3  UNL     1      10.024  -6.108   0.843  1.00  0.00     0.013 C 
BRANCH  37  38
HETATM   38  C4  UNL     1      10.442  -6.756   2.061  1.00  0.00     0.091 C 
BRANCH  38  39
HETATM   39  C5  UNL     1       9.192  -7.214   2.784  1.00  0.00     0.195 C 
HETATM   40  O1  UNL     1       9.016  -6.878   3.929  1.00  0.00    -0.285 OA
HETATM   41 BR1  UNL     1       7.892  -8.309   1.931  1.00  0.00    -0.009 Br
ENDBRANCH  38  39
ENDBRANCH  37  38
ENDBRANCH  35  37
ENDBRANCH   1  35
TORSDOF 12
ENDMDL
