MODEL 1
REMARK VINA RESULT: -5.258676319      0.000      0.000
REMARK  6 active torsions:
REMARK  status: ('A' for Active; 'I' for Inactive)
REMARK    1  A    between atoms: N1_1  and  C1_4 
REMARK    2  A    between atoms: C3_9  and  C4_10 
REMARK    3  A    between atoms: C4_10  and  O2_11 
REMARK    4  A    between atoms: C4_10  and  N3_13 
REMARK    5  A    between atoms: N3_13  and  N4_15 
REMARK    6  A    between atoms: N5_18  and  O3_19 
ROOT
HETATM    1  C1  UNL     1      46.860  -3.984  13.945  1.00  0.00     0.695 A 
HETATM    2  N2  UNL     1      45.701  -4.056  13.269  1.00  0.00    -0.153 N 
ATOM      3  H2  UNL     1      44.972  -4.715  13.544  1.00  0.00     0.187 HD
HETATM    4  C2  UNL     1      45.532  -3.236  12.227  1.00  0.00     0.295 A 
HETATM    5  O1  UNL     1      44.469  -3.289  11.592  1.00  0.00    -0.265 OA
HETATM    6  C3  UNL     1      46.493  -2.311  11.802  1.00  0.00     0.202 A 
HETATM    7  N5  UNL     1      47.616  -2.291  12.513  1.00  0.00    -0.139 N 
HETATM    8  N6  UNL     1      47.802  -3.111  13.568  1.00  0.00    -0.105 N 
ATOM      9  H6  UNL     1      48.679  -3.066  14.089  1.00  0.00     0.208 HD
ENDROOT
BRANCH   6  10
HETATM   10  C4  UNL     1      46.251  -1.449  10.663  1.00  0.00     0.191 C 
BRANCH  10  11
HETATM   11  O2  UNL     1      45.336  -0.536  10.826  1.00  0.00    -0.343 OA
ATOM     12  H2  UNL     1      45.415   0.232  10.273  1.00  0.00     0.219 HD
ENDBRANCH  10  11
BRANCH  10  13
HETATM   13  N3  UNL     1      46.847  -1.445   9.417  1.00  0.00    -0.285 N 
ATOM     14  H3  UNL     1      46.262  -1.436   8.581  1.00  0.00     0.188 HD
BRANCH  13  15
HETATM   15  N4  UNL     1      48.259  -1.452   9.281  1.00  0.00    -0.343 N 
ATOM     16  H42 UNL     1      48.760  -2.325   9.449  1.00  0.00     0.176 HD
ATOM     17  H41 UNL     1      48.767  -0.607   9.022  1.00  0.00     0.176 HD
ENDBRANCH  13  15
ENDBRANCH  10  13
ENDBRANCH   6  10
BRANCH   7  18
HETATM   18  O3  UNL     1      48.662  -1.446  12.235  1.00  0.00    -0.267 OA
ATOM     19  H3  UNL     1      49.199  -1.526  11.455  1.00  0.00     0.247 HD
ENDBRANCH   7  18
BRANCH   1  20
HETATM   20  N1  UNL     1      47.023  -4.775  14.951  1.00  0.00    -0.233 N 
ATOM     21  H12 UNL     1      46.237  -5.117  15.503  1.00  0.00     0.174 HD
ATOM     22  H11 UNL     1      47.973  -5.058  15.188  1.00  0.00     0.174 HD
ENDBRANCH   1  20
TORSDOF 6
ENDMDL
MODEL 2
REMARK VINA RESULT: -5.240958037      1.817      4.248
REMARK  6 active torsions:
REMARK  status: ('A' for Active; 'I' for Inactive)
REMARK    1  A    between atoms: N1_1  and  C1_4 
REMARK    2  A    between atoms: C3_9  and  C4_10 
REMARK    3  A    between atoms: C4_10  and  O2_11 
REMARK    4  A    between atoms: C4_10  and  N3_13 
REMARK    5  A    between atoms: N3_13  and  N4_15 
REMARK    6  A    between atoms: N5_18  and  O3_19 
ROOT
HETATM    1  C1  UNL     1      45.690  -1.382  10.008  1.00  0.00     0.695 A 
HETATM    2  N2  UNL     1      44.897  -1.900  10.961  1.00  0.00    -0.153 N 
ATOM      3  H2  UNL     1      43.941  -1.568  11.088  1.00  0.00     0.187 HD
HETATM    4  C2  UNL     1      45.400  -2.865  11.739  1.00  0.00     0.295 A 
HETATM    5  O1  UNL     1      44.683  -3.353  12.623  1.00  0.00    -0.265 OA
HETATM    6  C3  UNL     1      46.703  -3.362  11.614  1.00  0.00     0.202 A 
HETATM    7  N5  UNL     1      47.434  -2.808  10.652  1.00  0.00    -0.139 N 
HETATM    8  N6  UNL     1      46.941  -1.834   9.859  1.00  0.00    -0.105 N 
ATOM      9  H6  UNL     1      47.534  -1.433   9.132  1.00  0.00     0.208 HD
ENDROOT
BRANCH   6  10
HETATM   10  C4  UNL     1      47.190  -4.410  12.488  1.00  0.00     0.191 C 
BRANCH  10  11
HETATM   11  O2  UNL     1      47.524  -5.526  11.905  1.00  0.00    -0.343 OA
ATOM     12  H2  UNL     1      47.865  -6.205  12.476  1.00  0.00     0.219 HD
ENDBRANCH  10  11
BRANCH  10  13
HETATM   13  N3  UNL     1      47.359  -4.408  13.859  1.00  0.00    -0.285 N 
ATOM     14  H3  UNL     1      48.268  -4.167  14.252  1.00  0.00     0.188 HD
BRANCH  13  15
HETATM   15  N4  UNL     1      46.287  -4.737  14.728  1.00  0.00    -0.343 N 
ATOM     16  H42 UNL     1      45.476  -4.118  14.757  1.00  0.00     0.176 HD
ATOM     17  H41 UNL     1      46.321  -5.572  15.312  1.00  0.00     0.176 HD
ENDBRANCH  13  15
ENDBRANCH  10  13
ENDBRANCH   6  10
BRANCH   7  18
HETATM   18  O3  UNL     1      48.730  -3.176  10.392  1.00  0.00    -0.267 OA
ATOM     19  H3  UNL     1      48.961  -3.850   9.763  1.00  0.00     0.247 HD
ENDBRANCH   7  18
BRANCH   1  20
HETATM   20  N1  UNL     1      45.204  -0.452   9.258  1.00  0.00    -0.233 N 
ATOM     21  H12 UNL     1      44.278  -0.524   8.838  1.00  0.00     0.174 HD
ATOM     22  H11 UNL     1      45.777   0.375   9.091  1.00  0.00     0.174 HD
ENDBRANCH   1  20
TORSDOF 6
ENDMDL
MODEL 3
REMARK VINA RESULT: -5.173507047      1.861      4.654
REMARK  6 active torsions:
REMARK  status: ('A' for Active; 'I' for Inactive)
REMARK    1  A    between atoms: N1_1  and  C1_4 
REMARK    2  A    between atoms: C3_9  and  C4_10 
REMARK    3  A    between atoms: C4_10  and  O2_11 
REMARK    4  A    between atoms: C4_10  and  N3_13 
REMARK    5  A    between atoms: N3_13  and  N4_15 
REMARK    6  A    between atoms: N5_18  and  O3_19 
ROOT
HETATM    1  C1  UNL     1      45.717  -1.397  10.034  1.00  0.00     0.695 A 
HETATM    2  N2  UNL     1      46.991  -1.788   9.863  1.00  0.00    -0.153 N 
ATOM      3  H2  UNL     1      47.586  -1.347   9.161  1.00  0.00     0.187 HD
HETATM    4  C2  UNL     1      47.455  -2.771  10.641  1.00  0.00     0.295 A 
HETATM    5  O1  UNL     1      48.627  -3.143  10.497  1.00  0.00    -0.265 OA
HETATM    6  C3  UNL     1      46.688  -3.413  11.620  1.00  0.00     0.202 A 
HETATM    7  N5  UNL     1      45.437  -2.979  11.739  1.00  0.00    -0.139 N 
HETATM    8  N6  UNL     1      44.954  -1.989  10.961  1.00  0.00    -0.105 N 
ATOM      9  H6  UNL     1      43.987  -1.684  11.082  1.00  0.00     0.208 HD
ENDROOT
BRANCH   6  10
HETATM   10  C4  UNL     1      47.248  -4.473  12.433  1.00  0.00     0.191 C 
BRANCH  10  11
HETATM   11  O2  UNL     1      47.617  -5.546  11.793  1.00  0.00    -0.343 OA
ATOM     12  H2  UNL     1      47.687  -6.337  12.315  1.00  0.00     0.219 HD
ENDBRANCH  10  11
BRANCH  10  13
HETATM   13  N3  UNL     1      47.455  -4.523  13.798  1.00  0.00    -0.285 N 
ATOM     14  H3  UNL     1      48.408  -4.513  14.162  1.00  0.00     0.188 HD
BRANCH  13  15
HETATM   15  N4  UNL     1      46.363  -4.589  14.702  1.00  0.00    -0.343 N 
ATOM     16  H42 UNL     1      46.341  -3.938  15.487  1.00  0.00     0.176 HD
ATOM     17  H41 UNL     1      45.616  -5.270  14.574  1.00  0.00     0.176 HD
ENDBRANCH  13  15
ENDBRANCH  10  13
ENDBRANCH   6  10
BRANCH   7  18
HETATM   18  O3  UNL     1      44.549  -3.498  12.648  1.00  0.00    -0.267 OA
ATOM     19  H3  UNL     1      43.709  -3.095  12.840  1.00  0.00     0.247 HD
ENDBRANCH   7  18
BRANCH   1  20
HETATM   20  N1  UNL     1      45.270  -0.448   9.283  1.00  0.00    -0.233 N 
ATOM     21  H12 UNL     1      45.429   0.535   9.501  1.00  0.00     0.174 HD
ATOM     22  H11 UNL     1      44.743  -0.707   8.449  1.00  0.00     0.174 HD
ENDBRANCH   1  20
TORSDOF 6
ENDMDL
MODEL 4
REMARK VINA RESULT: -5.091255034      1.931      2.789
REMARK  6 active torsions:
REMARK  status: ('A' for Active; 'I' for Inactive)
REMARK    1  A    between atoms: N1_1  and  C1_4 
REMARK    2  A    between atoms: C3_9  and  C4_10 
REMARK    3  A    between atoms: C4_10  and  O2_11 
REMARK    4  A    between atoms: C4_10  and  N3_13 
REMARK    5  A    between atoms: N3_13  and  N4_15 
REMARK    6  A    between atoms: N5_18  and  O3_19 
ROOT
HETATM    1  C1  UNL     1      48.185  -4.666  11.896  1.00  0.00     0.695 A 
HETATM    2  N2  UNL     1      48.498  -3.743  10.971  1.00  0.00    -0.153 N 
ATOM      3  H2  UNL     1      49.413  -3.740  10.519  1.00  0.00     0.187 HD
HETATM    4  C2  UNL     1      47.573  -2.829  10.661  1.00  0.00     0.295 A 
HETATM    5  O1  UNL     1      47.844  -1.970   9.810  1.00  0.00    -0.265 OA
HETATM    6  C3  UNL     1      46.301  -2.782  11.245  1.00  0.00     0.202 A 
HETATM    7  N5  UNL     1      46.056  -3.724  12.151  1.00  0.00    -0.139 N 
HETATM    8  N6  UNL     1      46.979  -4.653  12.475  1.00  0.00    -0.105 N 
ATOM      9  H6  UNL     1      46.753  -5.359  13.176  1.00  0.00     0.208 HD
ENDROOT
BRANCH   6  10
HETATM   10  C4  UNL     1      45.341  -1.766  10.866  1.00  0.00     0.191 C 
BRANCH  10  11
HETATM   11  O2  UNL     1      44.810  -1.092  11.847  1.00  0.00    -0.343 OA
ATOM     12  H2  UNL     1      45.162  -0.220  11.988  1.00  0.00     0.219 HD
ENDBRANCH  10  11
BRANCH  10  13
HETATM   13  N3  UNL     1      44.895  -1.396   9.612  1.00  0.00    -0.285 N 
ATOM     14  H3  UNL     1      44.182  -1.957   9.147  1.00  0.00     0.188 HD
BRANCH  13  15
HETATM   15  N4  UNL     1      45.415  -0.247   8.960  1.00  0.00    -0.343 N 
ATOM     16  H42 UNL     1      44.878   0.162   8.195  1.00  0.00     0.176 HD
ATOM     17  H41 UNL     1      46.303   0.163   9.247  1.00  0.00     0.176 HD
ENDBRANCH  13  15
ENDBRANCH  10  13
ENDBRANCH   6  10
BRANCH   7  18
HETATM   18  O3  UNL     1      44.862  -3.824  12.820  1.00  0.00    -0.267 OA
ATOM     19  H3  UNL     1      44.463  -4.657  13.046  1.00  0.00     0.247 HD
ENDBRANCH   7  18
BRANCH   1  20
HETATM   20  N1  UNL     1      49.079  -5.548  12.195  1.00  0.00    -0.233 N 
ATOM     21  H12 UNL     1      49.497  -6.155  11.490  1.00  0.00     0.174 HD
ATOM     22  H11 UNL     1      49.364  -5.627  13.170  1.00  0.00     0.174 HD
ENDBRANCH   1  20
TORSDOF 6
ENDMDL
MODEL 5
REMARK VINA RESULT: -5.026317446      1.959      2.190
REMARK  6 active torsions:
REMARK  status: ('A' for Active; 'I' for Inactive)
REMARK    1  A    between atoms: N1_1  and  C1_4 
REMARK    2  A    between atoms: C3_9  and  C4_10 
REMARK    3  A    between atoms: C4_10  and  O2_11 
REMARK    4  A    between atoms: C4_10  and  N3_13 
REMARK    5  A    between atoms: N3_13  and  N4_15 
REMARK    6  A    between atoms: N5_18  and  O3_19 
ROOT
HETATM    1  C1  UNL     1      48.075  -4.668  11.816  1.00  0.00     0.695 A 
HETATM    2  N2  UNL     1      46.931  -4.551  12.510  1.00  0.00    -0.153 N 
ATOM      3  H2  UNL     1      46.723  -5.176  13.290  1.00  0.00     0.187 HD
HETATM    4  C2  UNL     1      46.074  -3.592  12.149  1.00  0.00     0.295 A 
HETATM    5  O1  UNL     1      45.014  -3.470  12.778  1.00  0.00    -0.265 OA
HETATM    6  C3  UNL     1      46.302  -2.705  11.090  1.00  0.00     0.202 A 
HETATM    7  N5  UNL     1      47.452  -2.874  10.444  1.00  0.00    -0.139 N 
HETATM    8  N6  UNL     1      48.328  -3.838  10.797  1.00  0.00    -0.105 N 
ATOM      9  H6  UNL     1      49.200  -3.935  10.277  1.00  0.00     0.208 HD
ENDROOT
BRANCH   6  10
HETATM   10  C4  UNL     1      45.333  -1.685  10.746  1.00  0.00     0.191 C 
BRANCH  10  11
HETATM   11  O2  UNL     1      44.854  -0.997  11.743  1.00  0.00    -0.343 OA
ATOM     12  H2  UNL     1      44.433  -1.501  12.430  1.00  0.00     0.219 HD
ENDBRANCH  10  11
BRANCH  10  13
HETATM   13  N3  UNL     1      44.833  -1.323   9.510  1.00  0.00    -0.285 N 
ATOM     14  H3  UNL     1      44.061  -1.854   9.106  1.00  0.00     0.188 HD
BRANCH  13  15
HETATM   15  N4  UNL     1      45.376  -0.225   8.793  1.00  0.00    -0.343 N 
ATOM     16  H42 UNL     1      45.935  -0.415   7.962  1.00  0.00     0.176 HD
ATOM     17  H41 UNL     1      45.212   0.734   9.099  1.00  0.00     0.176 HD
ENDBRANCH  13  15
ENDBRANCH  10  13
ENDBRANCH   6  10
BRANCH   7  18
HETATM   18  O3  UNL     1      47.835  -2.093   9.383  1.00  0.00    -0.267 OA
ATOM     19  H3  UNL     1      48.071  -2.451   8.535  1.00  0.00     0.247 HD
ENDBRANCH   7  18
BRANCH   1  20
HETATM   20  N1  UNL     1      48.903  -5.594  12.165  1.00  0.00    -0.233 N 
ATOM     21  H12 UNL     1      48.766  -6.152  13.008  1.00  0.00     0.174 HD
ATOM     22  H11 UNL     1      49.713  -5.761  11.569  1.00  0.00     0.174 HD
ENDBRANCH   1  20
TORSDOF 6
ENDMDL
