MODEL 1
REMARK VINA RESULT: -3.265668193      0.000      0.000
REMARK  5 active torsions:
REMARK  status: ('A' for Active; 'I' for Inactive)
REMARK    1  A    between atoms: C2_2  and  N1_3 
REMARK    2  A    between atoms: C2_2  and  C3_7 
REMARK    3  A    between atoms: C2_2  and  N3_11 
REMARK    4  A    between atoms: C3_7  and  N2_8 
REMARK    5  A    between atoms: N3_11  and  C4_13 
ROOT
HETATM    1  C1  UNL     1     -17.284  29.609  26.878  1.00  0.00     0.076 C 
HETATM    2  C2  UNL     1     -17.404  28.567  28.033  1.00  0.00     0.220 C 
ENDROOT
BRANCH   2   3
HETATM    3  N1  UNL     1     -16.093  28.709  28.741  1.00  0.00    -0.048 N 
ATOM      4  H13 UNL     1     -15.293  28.875  28.130  1.00  0.00     0.277 HD
ATOM      5  H12 UNL     1     -15.989  29.569  29.279  1.00  0.00     0.277 HD
ATOM      6  H11 UNL     1     -16.040  27.851  29.290  1.00  0.00     0.277 HD
ENDBRANCH   2   3
BRANCH   2   7
HETATM    7  C3  UNL     1     -18.488  28.989  28.926  1.00  0.00     0.113 C 
BRANCH   7   8
HETATM    8  N2  UNL     1     -19.677  28.306  29.014  1.00  0.00    -0.408 N 
ATOM      9  H22 UNL     1     -19.643  27.287  28.988  1.00  0.00     0.155 HD
ATOM     10  H21 UNL     1     -20.575  28.782  29.102  1.00  0.00     0.155 HD
ENDBRANCH   7   8
ENDBRANCH   2   7
BRANCH   2  11
HETATM   11  N3  UNL     1     -17.448  27.303  27.471  1.00  0.00    -0.383 N 
ATOM     12  H3  UNL     1     -18.216  27.100  26.832  1.00  0.00     0.156 HD
BRANCH  11  13
HETATM   13  C4  UNL     1     -16.537  26.299  27.708  1.00  0.00     0.079 A 
HETATM   14  C5  UNL     1     -16.697  24.931  27.139  1.00  0.00     0.027 A 
HETATM   15  C6  UNL     1     -15.515  25.773  26.763  1.00  0.00     0.027 A 
ENDBRANCH  11  13
ENDBRANCH   2  11
TORSDOF 5
ENDMDL
MODEL 2
REMARK VINA RESULT: -3.240253677      1.231      1.933
REMARK  5 active torsions:
REMARK  status: ('A' for Active; 'I' for Inactive)
REMARK    1  A    between atoms: C2_2  and  N1_3 
REMARK    2  A    between atoms: C2_2  and  C3_7 
REMARK    3  A    between atoms: C2_2  and  N3_11 
REMARK    4  A    between atoms: C3_7  and  N2_8 
REMARK    5  A    between atoms: N3_11  and  C4_13 
ROOT
HETATM    1  C1  UNL     1     -19.015  28.701  28.956  1.00  0.00     0.076 C 
HETATM    2  C2  UNL     1     -17.781  28.477  28.029  1.00  0.00     0.220 C 
ENDROOT
BRANCH   2   3
HETATM    3  N1  UNL     1     -18.248  29.035  26.721  1.00  0.00    -0.048 N 
ATOM      4  H13 UNL     1     -17.518  29.470  26.157  1.00  0.00     0.277 HD
ATOM      5  H12 UNL     1     -18.509  28.335  26.026  1.00  0.00     0.277 HD
ATOM      6  H11 UNL     1     -19.002  29.662  27.001  1.00  0.00     0.277 HD
ENDBRANCH   2   3
BRANCH   2   7
HETATM    7  C3  UNL     1     -16.669  29.288  28.535  1.00  0.00     0.113 C 
BRANCH   7   8
HETATM    8  N2  UNL     1     -16.589  29.688  29.848  1.00  0.00    -0.408 N 
ATOM      9  H22 UNL     1     -17.097  29.142  30.543  1.00  0.00     0.155 HD
ATOM     10  H21 UNL     1     -16.045  30.501  30.138  1.00  0.00     0.155 HD
ENDBRANCH   7   8
ENDBRANCH   2   7
BRANCH   2  11
HETATM   11  N3  UNL     1     -17.603  27.114  27.868  1.00  0.00    -0.383 N 
ATOM     12  H3  UNL     1     -18.440  26.537  27.789  1.00  0.00     0.156 HD
BRANCH  11  13
HETATM   13  C4  UNL     1     -16.385  26.476  27.808  1.00  0.00     0.079 A 
HETATM   14  C5  UNL     1     -16.236  25.100  27.255  1.00  0.00     0.027 A 
HETATM   15  C6  UNL     1     -15.545  26.258  26.600  1.00  0.00     0.027 A 
ENDBRANCH  11  13
ENDBRANCH   2  11
TORSDOF 5
ENDMDL
MODEL 3
REMARK VINA RESULT: -3.224902787      1.236      1.829
REMARK  5 active torsions:
REMARK  status: ('A' for Active; 'I' for Inactive)
REMARK    1  A    between atoms: C2_2  and  N1_3 
REMARK    2  A    between atoms: C2_2  and  C3_7 
REMARK    3  A    between atoms: C2_2  and  N3_11 
REMARK    4  A    between atoms: C3_7  and  N2_8 
REMARK    5  A    between atoms: N3_11  and  C4_13 
ROOT
HETATM    1  C1  UNL     1     -16.691  29.121  28.732  1.00  0.00     0.076 C 
HETATM    2  C2  UNL     1     -17.798  28.496  27.827  1.00  0.00     0.220 C 
ENDROOT
BRANCH   2   3
HETATM    3  N1  UNL     1     -18.996  28.499  28.725  1.00  0.00    -0.048 N 
ATOM      4  H13 UNL     1     -19.073  27.688  29.337  1.00  0.00     0.277 HD
ATOM      5  H12 UNL     1     -18.966  29.189  29.475  1.00  0.00     0.277 HD
ATOM      6  H11 UNL     1     -19.767  28.615  28.068  1.00  0.00     0.277 HD
ENDBRANCH   2   3
BRANCH   2   7
HETATM    7  C3  UNL     1     -18.034  29.399  26.696  1.00  0.00     0.113 C 
BRANCH   7   8
HETATM    8  N2  UNL     1     -19.198  29.373  25.964  1.00  0.00    -0.408 N 
ATOM      9  H22 UNL     1     -19.193  28.860  25.082  1.00  0.00     0.155 HD
ATOM     10  H21 UNL     1     -20.048  29.842  26.274  1.00  0.00     0.155 HD
ENDBRANCH   7   8
ENDBRANCH   2   7
BRANCH   2  11
HETATM   11  N3  UNL     1     -17.458  27.178  27.578  1.00  0.00    -0.383 N 
ATOM     12  H3  UNL     1     -18.210  26.542  27.313  1.00  0.00     0.156 HD
BRANCH  11  13
HETATM   13  C4  UNL     1     -16.187  26.658  27.661  1.00  0.00     0.079 A 
HETATM   14  C5  UNL     1     -15.903  25.214  27.425  1.00  0.00     0.027 A 
HETATM   15  C6  UNL     1     -15.305  26.259  26.531  1.00  0.00     0.027 A 
ENDBRANCH  11  13
ENDBRANCH   2  11
TORSDOF 5
ENDMDL
MODEL 4
REMARK VINA RESULT: -3.212733159      1.430      2.521
REMARK  5 active torsions:
REMARK  status: ('A' for Active; 'I' for Inactive)
REMARK    1  A    between atoms: C2_2  and  N1_3 
REMARK    2  A    between atoms: C2_2  and  C3_7 
REMARK    3  A    between atoms: C2_2  and  N3_11 
REMARK    4  A    between atoms: C3_7  and  N2_8 
REMARK    5  A    between atoms: N3_11  and  C4_13 
ROOT
HETATM    1  C1  UNL     1     -17.032  28.950  28.730  1.00  0.00     0.076 C 
HETATM    2  C2  UNL     1     -17.250  28.746  27.199  1.00  0.00     0.220 C 
ENDROOT
BRANCH   2   3
HETATM    3  N1  UNL     1     -18.661  29.205  27.004  1.00  0.00    -0.048 N 
ATOM      4  H13 UNL     1     -19.232  29.202  27.849  1.00  0.00     0.277 HD
ATOM      5  H12 UNL     1     -18.765  30.203  26.817  1.00  0.00     0.277 HD
ATOM      6  H11 UNL     1     -18.996  28.593  26.260  1.00  0.00     0.277 HD
ENDBRANCH   2   3
BRANCH   2   7
HETATM    7  C3  UNL     1     -16.342  29.645  26.479  1.00  0.00     0.113 C 
BRANCH   7   8
HETATM    8  N2  UNL     1     -15.251  29.184  25.781  1.00  0.00    -0.408 N 
ATOM      9  H22 UNL     1     -14.712  29.860  25.241  1.00  0.00     0.155 HD
ATOM     10  H21 UNL     1     -14.972  28.202  25.789  1.00  0.00     0.155 HD
ENDBRANCH   7   8
ENDBRANCH   2   7
BRANCH   2  11
HETATM   11  N3  UNL     1     -17.206  27.388  26.933  1.00  0.00    -0.383 N 
ATOM     12  H3  UNL     1     -17.703  27.055  26.107  1.00  0.00     0.156 HD
BRANCH  11  13
HETATM   13  C4  UNL     1     -16.545  26.453  27.696  1.00  0.00     0.079 A 
HETATM   14  C5  UNL     1     -16.627  24.993  27.409  1.00  0.00     0.027 A 
HETATM   15  C6  UNL     1     -15.310  25.708  27.331  1.00  0.00     0.027 A 
ENDBRANCH  11  13
ENDBRANCH   2  11
TORSDOF 5
ENDMDL
MODEL 5
REMARK VINA RESULT: -3.194571099      2.534      3.852
REMARK  5 active torsions:
REMARK  status: ('A' for Active; 'I' for Inactive)
REMARK    1  A    between atoms: C2_2  and  N1_3 
REMARK    2  A    between atoms: C2_2  and  C3_7 
REMARK    3  A    between atoms: C2_2  and  N3_11 
REMARK    4  A    between atoms: C3_7  and  N2_8 
REMARK    5  A    between atoms: N3_11  and  C4_13 
ROOT
HETATM    1  C1  UNL     1     -14.911  26.909  26.027  1.00  0.00     0.076 C 
HETATM    2  C2  UNL     1     -15.775  26.849  27.324  1.00  0.00     0.220 C 
ENDROOT
BRANCH   2   3
HETATM    3  N1  UNL     1     -17.003  27.611  26.936  1.00  0.00    -0.048 N 
ATOM      4  H13 UNL     1     -17.347  28.258  27.645  1.00  0.00     0.277 HD
ATOM      5  H12 UNL     1     -16.858  28.319  26.216  1.00  0.00     0.277 HD
ATOM      6  H11 UNL     1     -17.656  26.869  26.682  1.00  0.00     0.277 HD
ENDBRANCH   2   3
BRANCH   2   7
HETATM    7  C3  UNL     1     -16.129  25.450  27.580  1.00  0.00     0.113 C 
BRANCH   7   8
HETATM    8  N2  UNL     1     -17.352  24.925  27.234  1.00  0.00    -0.408 N 
ATOM      9  H22 UNL     1     -18.181  25.491  27.418  1.00  0.00     0.155 HD
ATOM     10  H21 UNL     1     -17.450  24.004  26.807  1.00  0.00     0.155 HD
ENDBRANCH   7   8
ENDBRANCH   2   7
BRANCH   2  11
HETATM   11  N3  UNL     1     -15.123  27.571  28.310  1.00  0.00    -0.383 N 
ATOM     12  H3  UNL     1     -15.460  27.468  29.267  1.00  0.00     0.156 HD
BRANCH  11  13
HETATM   13  C4  UNL     1     -14.057  28.415  28.100  1.00  0.00     0.079 A 
HETATM   14  C5  UNL     1     -13.636  29.428  29.109  1.00  0.00     0.027 A 
HETATM   15  C6  UNL     1     -12.704  28.322  28.710  1.00  0.00     0.027 A 
ENDBRANCH  11  13
ENDBRANCH   2  11
TORSDOF 5
ENDMDL
