MODEL 1
REMARK VINA RESULT: -10.411156129      0.000      0.000
REMARK  7 active torsions:
REMARK  status: ('A' for Active; 'I' for Inactive)
REMARK    1  A    between atoms: C6_6  and  N1_7 
REMARK    2  A    between atoms: N1_7  and  C7_8 
REMARK    3  A    between atoms: C10_11  and  N2_12 
REMARK    4  A    between atoms: C15_19  and  N4_20 
REMARK    5  A    between atoms: N4_20  and  C16_22 
REMARK    6  A    between atoms: C19_25  and  C20_26 
REMARK    7  A    between atoms: C21_27  and  C22_28 
ROOT
HETATM    1  C1  UNL     1      35.838  -5.370  36.714  1.00  0.00     0.048 C 
HETATM    2  C2  UNL     1      35.648  -6.599  37.487  1.00  0.00    -0.060 A 
HETATM    3  C3  UNL     1      34.982  -7.677  36.940  1.00  0.00     0.008 A 
HETATM    4  C4  UNL     1      34.813  -8.831  37.698  1.00  0.00     0.019 A 
HETATM    5  C5  UNL     1      35.291  -8.937  38.988  1.00  0.00     0.050 A 
HETATM    6  C6  UNL     1      35.079 -10.120  39.700  1.00  0.00     0.206 A 
HETATM    7  N3  UNL     1      35.572 -10.153  40.980  1.00  0.00    -0.163 N 
ATOM      8  H3  UNL     1      35.448 -10.993  41.545  1.00  0.00     0.187 HD
HETATM    9  C15 UNL     1      36.229  -9.074  41.508  1.00  0.00     0.685 A 
HETATM   10  N6  UNL     1      36.403  -7.967  40.783  1.00  0.00    -0.191 N 
ATOM     11  H6  UNL     1      36.898  -7.181  41.204  1.00  0.00     0.184 HD
HETATM   12  C30 UNL     1      35.957  -7.846  39.528  1.00  0.00     0.064 A 
HETATM   13  C31 UNL     1      36.131  -6.683  38.768  1.00  0.00     0.038 A 
ENDROOT
BRANCH   9  14
HETATM   14  N4  UNL     1      36.694  -9.220  42.648  1.00  0.00    -0.190 N 
ATOM     15  H4  UNL     1      36.050  -9.620  43.330  1.00  0.00     0.184 HD
BRANCH  14  16
HETATM   16  C16 UNL     1      37.970  -8.921  43.141  1.00  0.00     0.073 A 
HETATM   17  C17 UNL     1      38.215  -7.904  44.047  1.00  0.00     0.033 A 
HETATM   18  C18 UNL     1      39.473  -7.676  44.556  1.00  0.00     0.023 A 
HETATM   19  C19 UNL     1      40.569  -8.443  44.199  1.00  0.00     0.020 A 
HETATM   20  C28 UNL     1      40.326  -9.464  43.288  1.00  0.00     0.049 A 
HETATM   21  C29 UNL     1      39.072  -9.702  42.773  1.00  0.00     0.075 A 
HETATM   22  N5  UNL     1      38.835 -10.746  41.847  1.00  0.00    -0.100 NA
BRANCH  19  23
HETATM   23  C20 UNL     1      41.887  -8.226  44.738  1.00  0.00    -0.061 C 
HETATM   24  C21 UNL     1      42.984  -8.048  45.219  1.00  0.00    -0.061 C 
BRANCH  24  25
HETATM   25  C22 UNL     1      44.273  -7.829  45.821  1.00  0.00     0.018 A 
HETATM   26  C23 UNL     1      44.408  -6.929  46.836  1.00  0.00     0.020 A 
HETATM   27  C24 UNL     1      45.641  -6.707  47.424  1.00  0.00     0.001 A 
HETATM   28  C25 UNL     1      46.776  -7.392  47.002  1.00  0.00     0.000 A 
HETATM   29  C26 UNL     1      46.643  -8.292  45.986  1.00  0.00     0.001 A 
HETATM   30  C27 UNL     1      45.414  -8.522  45.391  1.00  0.00     0.020 A 
ENDBRANCH  24  25
ENDBRANCH  19  23
ENDBRANCH  14  16
ENDBRANCH   9  14
BRANCH   6  31
HETATM   31  N1  UNL     1      34.548 -11.076  39.243  1.00  0.00    -0.386 NA
BRANCH  31  32
HETATM   32  C7  UNL     1      33.889 -12.144  38.845  1.00  0.00     0.109 A 
HETATM   33  C8  UNL     1      34.069 -13.443  39.355  1.00  0.00     0.047 A 
HETATM   34  C9  UNL     1      33.310 -14.496  38.923  1.00  0.00     0.033 A 
HETATM   35  C10 UNL     1      32.325 -14.321  37.960  1.00  0.00     0.029 A 
HETATM   36  C13 UNL     1      32.117 -13.059  37.433  1.00  0.00     0.033 A 
HETATM   37  C14 UNL     1      32.886 -12.032  37.879  1.00  0.00     0.047 A 
BRANCH  35  38
HETATM   38  N2  UNL     1      31.528 -15.414  37.541  1.00  0.00    -0.390 N 
HETATM   39  C11 UNL     1      31.942 -16.263  36.441  1.00  0.00     0.149 C 
HETATM   40  C12 UNL     1      30.250 -15.710  38.201  1.00  0.00     0.149 C 
ENDBRANCH  35  38
ENDBRANCH  31  32
ENDBRANCH   6  31
TORSDOF 7
ENDMDL
MODEL 2
REMARK VINA RESULT: -10.404321168      0.582      1.386
REMARK  7 active torsions:
REMARK  status: ('A' for Active; 'I' for Inactive)
REMARK    1  A    between atoms: C6_6  and  N1_7 
REMARK    2  A    between atoms: N1_7  and  C7_8 
REMARK    3  A    between atoms: C10_11  and  N2_12 
REMARK    4  A    between atoms: C15_19  and  N4_20 
REMARK    5  A    between atoms: N4_20  and  C16_22 
REMARK    6  A    between atoms: C19_25  and  C20_26 
REMARK    7  A    between atoms: C21_27  and  C22_28 
ROOT
HETATM    1  C1  UNL     1      36.165  -5.528  36.811  1.00  0.00     0.048 C 
HETATM    2  C2  UNL     1      35.889  -6.733  37.596  1.00  0.00    -0.060 A 
HETATM    3  C3  UNL     1      35.244  -7.810  37.026  1.00  0.00     0.008 A 
HETATM    4  C4  UNL     1      34.991  -8.940  37.795  1.00  0.00     0.019 A 
HETATM    5  C5  UNL     1      35.367  -9.023  39.121  1.00  0.00     0.050 A 
HETATM    6  C6  UNL     1      35.076 -10.183  39.843  1.00  0.00     0.206 A 
HETATM    7  N3  UNL     1      35.468 -10.194  41.157  1.00  0.00    -0.163 N 
ATOM      8  H3  UNL     1      35.282 -11.016  41.731  1.00  0.00     0.187 HD
HETATM    9  C15 UNL     1      36.106  -9.114  41.708  1.00  0.00     0.685 A 
HETATM   10  N6  UNL     1      36.360  -8.031  40.972  1.00  0.00    -0.191 N 
ATOM     11  H6  UNL     1      36.838  -7.244  41.411  1.00  0.00     0.184 HD
HETATM   12  C30 UNL     1      36.014  -7.933  39.684  1.00  0.00     0.064 A 
HETATM   13  C31 UNL     1      36.271  -6.793  38.913  1.00  0.00     0.038 A 
ENDROOT
BRANCH   9  14
HETATM   14  N4  UNL     1      36.479  -9.241  42.884  1.00  0.00    -0.190 N 
ATOM     15  H4  UNL     1      35.759  -9.553  43.535  1.00  0.00     0.184 HD
BRANCH  14  16
HETATM   16  C16 UNL     1      37.739  -9.022  43.452  1.00  0.00     0.073 A 
HETATM   17  C17 UNL     1      38.769  -9.945  43.399  1.00  0.00     0.033 A 
HETATM   18  C18 UNL     1      40.015  -9.671  43.916  1.00  0.00     0.023 A 
HETATM   19  C19 UNL     1      40.319  -8.463  44.520  1.00  0.00     0.020 A 
HETATM   20  C28 UNL     1      39.287  -7.534  44.576  1.00  0.00     0.049 A 
HETATM   21  C29 UNL     1      38.038  -7.797  44.062  1.00  0.00     0.075 A 
HETATM   22  N5  UNL     1      36.993  -6.843  44.124  1.00  0.00    -0.100 NA
BRANCH  19  23
HETATM   23  C20 UNL     1      41.624  -8.158  45.048  1.00  0.00    -0.061 C 
HETATM   24  C21 UNL     1      42.718  -7.925  45.511  1.00  0.00    -0.061 C 
BRANCH  24  25
HETATM   25  C22 UNL     1      44.013  -7.669  46.087  1.00  0.00     0.018 A 
HETATM   26  C23 UNL     1      45.118  -8.286  45.581  1.00  0.00     0.020 A 
HETATM   27  C24 UNL     1      46.369  -8.050  46.125  1.00  0.00     0.001 A 
HETATM   28  C25 UNL     1      46.538  -7.180  47.197  1.00  0.00     0.000 A 
HETATM   29  C26 UNL     1      45.433  -6.563  47.705  1.00  0.00     0.001 A 
HETATM   30  C27 UNL     1      44.177  -6.791  47.168  1.00  0.00     0.020 A 
ENDBRANCH  24  25
ENDBRANCH  19  23
ENDBRANCH  14  16
ENDBRANCH   9  14
BRANCH   6  31
HETATM   31  N1  UNL     1      34.559 -11.139  39.369  1.00  0.00    -0.386 NA
BRANCH  31  32
HETATM   32  C7  UNL     1      33.898 -12.193  38.938  1.00  0.00     0.109 A 
HETATM   33  C8  UNL     1      34.054 -13.503  39.427  1.00  0.00     0.047 A 
HETATM   34  C9  UNL     1      33.294 -14.540  38.961  1.00  0.00     0.033 A 
HETATM   35  C10 UNL     1      32.331 -14.337  37.980  1.00  0.00     0.029 A 
HETATM   36  C13 UNL     1      32.148 -13.064  37.471  1.00  0.00     0.033 A 
HETATM   37  C14 UNL     1      32.918 -12.053  37.952  1.00  0.00     0.047 A 
BRANCH  35  38
HETATM   38  N2  UNL     1      31.533 -15.414  37.523  1.00  0.00    -0.390 N 
HETATM   39  C11 UNL     1      31.909 -16.182  36.353  1.00  0.00     0.149 C 
HETATM   40  C12 UNL     1      30.290 -15.775  38.218  1.00  0.00     0.149 C 
ENDBRANCH  35  38
ENDBRANCH  31  32
ENDBRANCH   6  31
TORSDOF 7
ENDMDL
MODEL 3
REMARK VINA RESULT: -10.192581270      0.277      1.276
REMARK  7 active torsions:
REMARK  status: ('A' for Active; 'I' for Inactive)
REMARK    1  A    between atoms: C6_6  and  N1_7 
REMARK    2  A    between atoms: N1_7  and  C7_8 
REMARK    3  A    between atoms: C10_11  and  N2_12 
REMARK    4  A    between atoms: C15_19  and  N4_20 
REMARK    5  A    between atoms: N4_20  and  C16_22 
REMARK    6  A    between atoms: C19_25  and  C20_26 
REMARK    7  A    between atoms: C21_27  and  C22_28 
ROOT
HETATM    1  C1  UNL     1      36.458  -5.612  36.379  1.00  0.00     0.048 C 
HETATM    2  C2  UNL     1      36.131  -6.780  37.200  1.00  0.00    -0.060 A 
HETATM    3  C3  UNL     1      35.389  -7.819  36.680  1.00  0.00     0.008 A 
HETATM    4  C4  UNL     1      35.090  -8.914  37.482  1.00  0.00     0.019 A 
HETATM    5  C5  UNL     1      35.514  -8.999  38.793  1.00  0.00     0.050 A 
HETATM    6  C6  UNL     1      35.172 -10.122  39.551  1.00  0.00     0.206 A 
HETATM    7  N3  UNL     1      35.617 -10.136  40.848  1.00  0.00    -0.163 N 
ATOM      8  H3  UNL     1      35.398 -10.933  41.447  1.00  0.00     0.187 HD
HETATM    9  C15 UNL     1      36.352  -9.095  41.350  1.00  0.00     0.685 A 
HETATM   10  N6  UNL     1      36.650  -8.046  40.582  1.00  0.00    -0.191 N 
ATOM     11  H6  UNL     1      37.200  -7.287  40.984  1.00  0.00     0.184 HD
HETATM   12  C30 UNL     1      36.259  -7.947  39.307  1.00  0.00     0.064 A 
HETATM   13  C31 UNL     1      36.563  -6.843  38.501  1.00  0.00     0.038 A 
ENDROOT
BRANCH   9  14
HETATM   14  N4  UNL     1      36.764  -9.226  42.513  1.00  0.00    -0.190 N 
ATOM     15  H4  UNL     1      36.091  -9.623  43.168  1.00  0.00     0.184 HD
BRANCH  14  16
HETATM   16  C16 UNL     1      38.013  -8.913  43.061  1.00  0.00     0.073 A 
HETATM   17  C17 UNL     1      38.205  -7.907  43.992  1.00  0.00     0.033 A 
HETATM   18  C18 UNL     1      39.437  -7.667  44.555  1.00  0.00     0.023 A 
HETATM   19  C19 UNL     1      40.560  -8.409  44.230  1.00  0.00     0.020 A 
HETATM   20  C28 UNL     1      40.371  -9.420  43.294  1.00  0.00     0.049 A 
HETATM   21  C29 UNL     1      39.143  -9.669  42.725  1.00  0.00     0.075 A 
HETATM   22  N5  UNL     1      38.962 -10.702  41.774  1.00  0.00    -0.100 NA
BRANCH  19  23
HETATM   23  C20 UNL     1      41.851  -8.179  44.825  1.00  0.00    -0.061 C 
HETATM   24  C21 UNL     1      42.923  -7.983  45.353  1.00  0.00    -0.061 C 
BRANCH  24  25
HETATM   25  C22 UNL     1      44.182  -7.737  46.007  1.00  0.00     0.018 A 
HETATM   26  C23 UNL     1      45.314  -8.350  45.559  1.00  0.00     0.020 A 
HETATM   27  C24 UNL     1      46.531  -8.123  46.178  1.00  0.00     0.001 A 
HETATM   28  C25 UNL     1      46.638  -7.266  47.269  1.00  0.00     0.000 A 
HETATM   29  C26 UNL     1      45.506  -6.653  47.718  1.00  0.00     0.001 A 
HETATM   30  C27 UNL     1      44.283  -6.872  47.107  1.00  0.00     0.020 A 
ENDBRANCH  24  25
ENDBRANCH  19  23
ENDBRANCH  14  16
ENDBRANCH   9  14
BRANCH   6  31
HETATM   31  N1  UNL     1      34.570 -11.048  39.119  1.00  0.00    -0.386 NA
BRANCH  31  32
HETATM   32  C7  UNL     1      33.807 -12.042  38.719  1.00  0.00     0.109 A 
HETATM   33  C8  UNL     1      32.853 -11.966  37.686  1.00  0.00     0.047 A 
HETATM   34  C9  UNL     1      32.131 -13.058  37.293  1.00  0.00     0.033 A 
HETATM   35  C10 UNL     1      32.312 -14.294  37.902  1.00  0.00     0.029 A 
HETATM   36  C13 UNL     1      33.238 -14.410  38.923  1.00  0.00     0.033 A 
HETATM   37  C14 UNL     1      33.941 -13.308  39.293  1.00  0.00     0.047 A 
BRANCH  35  38
HETATM   38  N2  UNL     1      31.576 -15.423  37.469  1.00  0.00    -0.390 N 
HETATM   39  C11 UNL     1      30.350 -15.818  38.134  1.00  0.00     0.149 C 
HETATM   40  C12 UNL     1      32.043 -16.237  36.339  1.00  0.00     0.149 C 
ENDBRANCH  35  38
ENDBRANCH  31  32
ENDBRANCH   6  31
TORSDOF 7
ENDMDL
MODEL 4
REMARK VINA RESULT: -10.030970142      3.489      4.326
REMARK  7 active torsions:
REMARK  status: ('A' for Active; 'I' for Inactive)
REMARK    1  A    between atoms: C6_6  and  N1_7 
REMARK    2  A    between atoms: N1_7  and  C7_8 
REMARK    3  A    between atoms: C10_11  and  N2_12 
REMARK    4  A    between atoms: C15_19  and  N4_20 
REMARK    5  A    between atoms: N4_20  and  C16_22 
REMARK    6  A    between atoms: C19_25  and  C20_26 
REMARK    7  A    between atoms: C21_27  and  C22_28 
ROOT
HETATM    1  C1  UNL     1      35.680  -5.745  37.348  1.00  0.00     0.048 C 
HETATM    2  C2  UNL     1      35.516  -7.076  37.935  1.00  0.00    -0.060 A 
HETATM    3  C3  UNL     1      34.658  -7.994  37.366  1.00  0.00     0.008 A 
HETATM    4  C4  UNL     1      34.518  -9.250  37.946  1.00  0.00     0.019 A 
HETATM    5  C5  UNL     1      35.214  -9.614  39.081  1.00  0.00     0.050 A 
HETATM    6  C6  UNL     1      35.023 -10.888  39.622  1.00  0.00     0.206 A 
HETATM    7  N3  UNL     1      35.737 -11.179  40.755  1.00  0.00    -0.163 N 
ATOM      8  H3  UNL     1      35.638 -12.096  41.192  1.00  0.00     0.187 HD
HETATM    9  C15 UNL     1      36.583 -10.255  41.308  1.00  0.00     0.685 A 
HETATM   10  N6  UNL     1      36.729  -9.052  40.751  1.00  0.00    -0.191 N 
ATOM     11  H6  UNL     1      37.368  -8.386  41.186  1.00  0.00     0.184 HD
HETATM   12  C30 UNL     1      36.073  -8.682  39.646  1.00  0.00     0.064 A 
HETATM   13  C31 UNL     1      36.217  -7.417  39.064  1.00  0.00     0.038 A 
ENDROOT
BRANCH   9  14
HETATM   14  N4  UNL     1      37.235 -10.631  42.295  1.00  0.00    -0.190 N 
ATOM     15  H4  UNL     1      36.828 -10.393  43.199  1.00  0.00     0.184 HD
BRANCH  14  16
HETATM   16  C16 UNL     1      38.445 -11.333  42.355  1.00  0.00     0.073 A 
HETATM   17  C17 UNL     1      38.527 -12.713  42.283  1.00  0.00     0.033 A 
HETATM   18  C18 UNL     1      39.738 -13.367  42.283  1.00  0.00     0.023 A 
HETATM   19  C19 UNL     1      40.946 -12.693  42.356  1.00  0.00     0.020 A 
HETATM   20  C28 UNL     1      40.866 -11.308  42.430  1.00  0.00     0.049 A 
HETATM   21  C29 UNL     1      39.661 -10.643  42.429  1.00  0.00     0.075 A 
HETATM   22  N5  UNL     1      39.591  -9.231  42.503  1.00  0.00    -0.100 NA
BRANCH  19  23
HETATM   23  C20 UNL     1      42.220 -13.365  42.340  1.00  0.00    -0.061 C 
HETATM   24  C21 UNL     1      43.297 -13.917  42.300  1.00  0.00    -0.061 C 
BRANCH  24  25
HETATM   25  C22 UNL     1      44.579 -14.567  42.218  1.00  0.00     0.018 A 
HETATM   26  C23 UNL     1      45.704 -13.831  41.996  1.00  0.00     0.020 A 
HETATM   27  C24 UNL     1      46.943 -14.443  41.914  1.00  0.00     0.001 A 
HETATM   28  C25 UNL     1      47.079 -15.820  42.058  1.00  0.00     0.000 A 
HETATM   29  C26 UNL     1      45.954 -16.558  42.280  1.00  0.00     0.001 A 
HETATM   30  C27 UNL     1      44.710 -15.956  42.364  1.00  0.00     0.020 A 
ENDBRANCH  24  25
ENDBRANCH  19  23
ENDBRANCH  14  16
ENDBRANCH   9  14
BRANCH   6  31
HETATM   31  N1  UNL     1      34.324 -11.711  39.132  1.00  0.00    -0.386 NA
BRANCH  31  32
HETATM   32  C7  UNL     1      33.520 -12.664  38.708  1.00  0.00     0.109 A 
HETATM   33  C8  UNL     1      32.537 -12.510  37.713  1.00  0.00     0.047 A 
HETATM   34  C9  UNL     1      31.772 -13.562  37.290  1.00  0.00     0.033 A 
HETATM   35  C10 UNL     1      31.938 -14.831  37.830  1.00  0.00     0.029 A 
HETATM   36  C13 UNL     1      32.893 -15.023  38.812  1.00  0.00     0.033 A 
HETATM   37  C14 UNL     1      33.638 -13.960  39.214  1.00  0.00     0.047 A 
BRANCH  35  38
HETATM   38  N2  UNL     1      31.158 -15.917  37.366  1.00  0.00    -0.390 N 
HETATM   39  C11 UNL     1      29.788 -16.096  37.805  1.00  0.00     0.149 C 
HETATM   40  C12 UNL     1      31.721 -16.903  36.434  1.00  0.00     0.149 C 
ENDBRANCH  35  38
ENDBRANCH  31  32
ENDBRANCH   6  31
TORSDOF 7
ENDMDL
MODEL 5
REMARK VINA RESULT: -9.888185787      4.639      9.278
REMARK  7 active torsions:
REMARK  status: ('A' for Active; 'I' for Inactive)
REMARK    1  A    between atoms: C6_6  and  N1_7 
REMARK    2  A    between atoms: N1_7  and  C7_8 
REMARK    3  A    between atoms: C10_11  and  N2_12 
REMARK    4  A    between atoms: C15_19  and  N4_20 
REMARK    5  A    between atoms: N4_20  and  C16_22 
REMARK    6  A    between atoms: C19_25  and  C20_26 
REMARK    7  A    between atoms: C21_27  and  C22_28 
ROOT
HETATM    1  C1  UNL     1      36.338  -8.115  43.562  1.00  0.00     0.048 C 
HETATM    2  C2  UNL     1      35.878  -8.556  42.244  1.00  0.00    -0.060 A 
HETATM    3  C3  UNL     1      35.431  -9.847  42.052  1.00  0.00     0.008 A 
HETATM    4  C4  UNL     1      35.004 -10.241  40.789  1.00  0.00     0.019 A 
HETATM    5  C5  UNL     1      35.010  -9.379  39.711  1.00  0.00     0.050 A 
HETATM    6  C6  UNL     1      34.576  -9.839  38.465  1.00  0.00     0.206 A 
HETATM    7  N3  UNL     1      34.619  -8.933  37.437  1.00  0.00    -0.163 N 
ATOM      8  H3  UNL     1      34.312  -9.214  36.505  1.00  0.00     0.187 HD
HETATM    9  C15 UNL     1      35.067  -7.655  37.644  1.00  0.00     0.685 A 
HETATM   10  N6  UNL     1      35.469  -7.268  38.856  1.00  0.00    -0.191 N 
ATOM     11  H6  UNL     1      35.795  -6.309  38.979  1.00  0.00     0.184 HD
HETATM   12  C30 UNL     1      35.462  -8.083  39.916  1.00  0.00     0.064 A 
HETATM   13  C31 UNL     1      35.893  -7.682  41.186  1.00  0.00     0.038 A 
ENDROOT
BRANCH   9  14
HETATM   14  N4  UNL     1      35.008  -6.889  36.670  1.00  0.00    -0.190 N 
ATOM     15  H4  UNL     1      34.203  -6.262  36.661  1.00  0.00     0.184 HD
BRANCH  14  16
HETATM   16  C16 UNL     1      35.877  -6.756  35.582  1.00  0.00     0.073 A 
HETATM   17  C17 UNL     1      35.508  -7.027  34.275  1.00  0.00     0.033 A 
HETATM   18  C18 UNL     1      36.372  -6.826  33.223  1.00  0.00     0.023 A 
HETATM   19  C19 UNL     1      37.658  -6.345  33.398  1.00  0.00     0.020 A 
HETATM   20  C28 UNL     1      38.032  -6.073  34.709  1.00  0.00     0.049 A 
HETATM   21  C29 UNL     1      37.177  -6.269  35.769  1.00  0.00     0.075 A 
HETATM   22  N5  UNL     1      37.568  -5.988  37.101  1.00  0.00    -0.100 NA
BRANCH  19  23
HETATM   23  C20 UNL     1      38.565  -6.114  32.303  1.00  0.00    -0.061 C 
HETATM   24  C21 UNL     1      39.326  -5.950  31.376  1.00  0.00    -0.061 C 
BRANCH  24  25
HETATM   25  C22 UNL     1      40.237  -5.788  30.273  1.00  0.00     0.018 A 
HETATM   26  C23 UNL     1      40.678  -6.880  29.587  1.00  0.00     0.020 A 
HETATM   27  C24 UNL     1      41.555  -6.740  28.525  1.00  0.00     0.001 A 
HETATM   28  C25 UNL     1      42.010  -5.488  28.125  1.00  0.00     0.000 A 
HETATM   29  C26 UNL     1      41.570  -4.394  28.811  1.00  0.00     0.001 A 
HETATM   30  C27 UNL     1      40.692  -4.523  29.874  1.00  0.00     0.020 A 
ENDBRANCH  24  25
ENDBRANCH  19  23
ENDBRANCH  14  16
ENDBRANCH   9  14
BRANCH   6  31
HETATM   31  N1  UNL     1      34.150 -10.929  38.279  1.00  0.00    -0.386 NA
BRANCH  31  32
HETATM   32  C7  UNL     1      33.559 -12.087  38.073  1.00  0.00     0.109 A 
HETATM   33  C8  UNL     1      33.727 -13.235  38.870  1.00  0.00     0.047 A 
HETATM   34  C9  UNL     1      33.039 -14.390  38.620  1.00  0.00     0.033 A 
HETATM   35  C10 UNL     1      32.142 -14.475  37.563  1.00  0.00     0.029 A 
HETATM   36  C13 UNL     1      31.949 -13.369  36.755  1.00  0.00     0.033 A 
HETATM   37  C14 UNL     1      32.647 -12.235  37.026  1.00  0.00     0.047 A 
BRANCH  35  38
HETATM   38  N2  UNL     1      31.417 -15.669  37.331  1.00  0.00    -0.390 N 
HETATM   39  C11 UNL     1      31.851 -16.626  36.333  1.00  0.00     0.149 C 
HETATM   40  C12 UNL     1      30.192 -15.964  38.086  1.00  0.00     0.149 C 
ENDBRANCH  35  38
ENDBRANCH  31  32
ENDBRANCH   6  31
TORSDOF 7
ENDMDL
