MODEL 1
REMARK VINA RESULT: -6.288555420      0.000      0.000
REMARK  7 active torsions:
REMARK  status: ('A' for Active; 'I' for Inactive)
REMARK    1  A    between atoms: C10_10  and  C11_11 
REMARK    2  A    between atoms: C11_11  and  N1_12 
REMARK    3  A    between atoms: C15_16  and  C16_17 
REMARK    4  A    between atoms: C15_16  and  C17_20 
REMARK    5  A    between atoms: C16_17  and  O1_18 
REMARK    6  A    between atoms: C17_20  and  C18_21 
REMARK    7  A    between atoms: C18_21  and  O2_22 
ROOT
HETATM    1  N1  UNL     1       6.007   9.170   1.164  1.00  0.00     0.090 N 
HETATM    2  C12 UNL     1       5.918  10.416   0.495  1.00  0.00     0.272 C 
HETATM    3  C13 UNL     1       6.319  11.510   1.462  1.00  0.00     0.031 C 
HETATM    4  C14 UNL     1       7.807  11.351   1.684  1.00  0.00     0.015 C 
HETATM    5  C15 UNL     1       8.158   9.959   2.149  1.00  0.00     0.009 C 
HETATM    6  C19 UNL     1       6.965   9.043   2.194  1.00  0.00     0.284 C 
ENDROOT
BRANCH   1   7
HETATM    7  C11 UNL     1       4.757   8.658   1.659  1.00  0.00     0.285 C 
BRANCH   7   8
HETATM    8  C10 UNL     1       4.374   7.321   1.092  1.00  0.00     0.065 C 
HETATM    9  C2  UNL     1       3.046   6.961   1.632  1.00  0.00    -0.078 C 
HETATM   10  C1  UNL     1       2.333   8.022   2.421  1.00  0.00     0.044 C 
HETATM   11  C3  UNL     1       2.400   5.807   1.477  1.00  0.00    -0.023 C 
HETATM   12  C4  UNL     1       2.858   4.564   0.743  1.00  0.00     0.036 C 
HETATM   13  C5  UNL     1       4.006   4.058   1.557  1.00  0.00     0.018 C 
HETATM   14  C6  UNL     1       4.914   3.029   0.941  1.00  0.00     0.014 C 
HETATM   15  C8  UNL     1       5.166   4.977   1.556  1.00  0.00    -0.079 C 
HETATM   16  C7  UNL     1       5.989   3.725   1.812  1.00  0.00     0.035 C 
HETATM   17  C9  UNL     1       5.354   6.272   1.379  1.00  0.00    -0.013 C 
ENDBRANCH   7   8
ENDBRANCH   1   7
BRANCH   5  18
HETATM   18  C16 UNL     1       8.621  10.087   3.587  1.00  0.00     0.175 C 
BRANCH  18  19
HETATM   19  O1  UNL     1       9.401   8.934   3.870  1.00  0.00    -0.400 OA
ATOM     20  H1  UNL     1       9.260   8.726   4.786  1.00  0.00     0.209 HD
ENDBRANCH  18  19
ENDBRANCH   5  18
BRANCH   5  21
HETATM   21  C17 UNL     1       9.153   9.355   1.227  1.00  0.00     0.039 C 
BRANCH  21  22
HETATM   22  C18 UNL     1       9.945  10.276   0.379  1.00  0.00     0.165 C 
BRANCH  22  23
HETATM   23  O2  UNL     1       9.584  10.324  -0.958  1.00  0.00    -0.401 OA
ATOM     24  H2  UNL     1       8.665  10.168  -1.143  1.00  0.00     0.209 HD
ENDBRANCH  22  23
ENDBRANCH  21  22
ENDBRANCH   5  21
TORSDOF 7
ENDMDL
MODEL 2
REMARK VINA RESULT: -5.879686857      5.588      8.384
REMARK  7 active torsions:
REMARK  status: ('A' for Active; 'I' for Inactive)
REMARK    1  A    between atoms: C10_10  and  C11_11 
REMARK    2  A    between atoms: C11_11  and  N1_12 
REMARK    3  A    between atoms: C15_16  and  C16_17 
REMARK    4  A    between atoms: C15_16  and  C17_20 
REMARK    5  A    between atoms: C16_17  and  O1_18 
REMARK    6  A    between atoms: C17_20  and  C18_21 
REMARK    7  A    between atoms: C18_21  and  O2_22 
ROOT
HETATM    1  N1  UNL     1      -0.035   9.278   4.634  1.00  0.00     0.090 N 
HETATM    2  C12 UNL     1       0.531  10.368   5.340  1.00  0.00     0.272 C 
HETATM    3  C13 UNL     1      -0.501  11.472   5.429  1.00  0.00     0.031 C 
HETATM    4  C14 UNL     1      -1.570  10.974   6.376  1.00  0.00     0.015 C 
HETATM    5  C15 UNL     1      -2.129   9.642   5.940  1.00  0.00     0.009 C 
HETATM    6  C19 UNL     1      -1.433   9.089   4.726  1.00  0.00     0.284 C 
ENDROOT
BRANCH   1   7
HETATM    7  C11 UNL     1       0.329   9.202   3.245  1.00  0.00     0.285 C 
BRANCH   7   8
HETATM    8  C10 UNL     1       1.785   8.923   3.006  1.00  0.00     0.065 C 
HETATM    9  C2  UNL     1       2.276   9.894   2.006  1.00  0.00    -0.078 C 
HETATM   10  C1  UNL     1       1.330  10.994   1.617  1.00  0.00     0.044 C 
HETATM   11  C3  UNL     1       3.475   9.917   1.427  1.00  0.00    -0.023 C 
HETATM   12  C4  UNL     1       4.628   8.951   1.614  1.00  0.00     0.036 C 
HETATM   13  C5  UNL     1       4.131   7.668   1.027  1.00  0.00     0.018 C 
HETATM   14  C6  UNL     1       4.887   6.405   1.340  1.00  0.00     0.014 C 
HETATM   15  C8  UNL     1       2.995   7.090   1.778  1.00  0.00    -0.079 C 
HETATM   16  C7  UNL     1       3.484   5.758   1.230  1.00  0.00     0.035 C 
HETATM   17  C9  UNL     1       2.044   7.550   2.569  1.00  0.00    -0.013 C 
ENDBRANCH   7   8
ENDBRANCH   1   7
BRANCH   5  18
HETATM   18  C16 UNL     1      -3.559   9.895   5.503  1.00  0.00     0.175 C 
BRANCH  18  19
HETATM   19  O1  UNL     1      -4.324  10.069   6.688  1.00  0.00    -0.400 OA
ATOM     20  H1  UNL     1      -4.657   9.212   6.927  1.00  0.00     0.209 HD
ENDBRANCH  18  19
ENDBRANCH   5  18
BRANCH   5  21
HETATM   21  C17 UNL     1      -1.981   8.649   7.034  1.00  0.00     0.039 C 
BRANCH  21  22
HETATM   22  C18 UNL     1      -2.034   7.215   6.666  1.00  0.00     0.165 C 
BRANCH  22  23
HETATM   23  O2  UNL     1      -1.787   6.320   7.694  1.00  0.00    -0.401 OA
ATOM     24  H2  UNL     1      -2.544   6.060   8.206  1.00  0.00     0.209 HD
ENDBRANCH  22  23
ENDBRANCH  21  22
ENDBRANCH   5  21
TORSDOF 7
ENDMDL
MODEL 3
REMARK VINA RESULT: -5.871301912      2.056      3.571
REMARK  7 active torsions:
REMARK  status: ('A' for Active; 'I' for Inactive)
REMARK    1  A    between atoms: C10_10  and  C11_11 
REMARK    2  A    between atoms: C11_11  and  N1_12 
REMARK    3  A    between atoms: C15_16  and  C16_17 
REMARK    4  A    between atoms: C15_16  and  C17_20 
REMARK    5  A    between atoms: C16_17  and  O1_18 
REMARK    6  A    between atoms: C17_20  and  C18_21 
REMARK    7  A    between atoms: C18_21  and  O2_22 
ROOT
HETATM    1  N1  UNL     1       6.849  11.359  -0.080  1.00  0.00     0.090 N 
HETATM    2  C12 UNL     1       6.937  11.770  -1.432  1.00  0.00     0.272 C 
HETATM    3  C13 UNL     1       7.799  13.013  -1.502  1.00  0.00     0.031 C 
HETATM    4  C14 UNL     1       9.210  12.564  -1.193  1.00  0.00     0.015 C 
HETATM    5  C15 UNL     1       9.289  11.832   0.124  1.00  0.00     0.009 C 
HETATM    6  C19 UNL     1       7.942  11.647   0.768  1.00  0.00     0.284 C 
ENDROOT
BRANCH   1   7
HETATM    7  C11 UNL     1       5.647  11.761   0.600  1.00  0.00     0.285 C 
BRANCH   7   8
HETATM    8  C10 UNL     1       4.559  10.727   0.586  1.00  0.00     0.065 C 
HETATM    9  C2  UNL     1       3.622  11.039   1.686  1.00  0.00    -0.078 C 
HETATM   10  C1  UNL     1       3.839  12.339   2.406  1.00  0.00     0.044 C 
HETATM   11  C3  UNL     1       2.589  10.304   2.096  1.00  0.00    -0.023 C 
HETATM   12  C4  UNL     1       2.124   8.961   1.572  1.00  0.00     0.036 C 
HETATM   13  C5  UNL     1       3.221   8.018   1.953  1.00  0.00     0.018 C 
HETATM   14  C6  UNL     1       3.251   6.663   1.299  1.00  0.00     0.014 C 
HETATM   15  C8  UNL     1       4.495   8.303   1.257  1.00  0.00    -0.079 C 
HETATM   16  C7  UNL     1       4.783   6.823   1.461  1.00  0.00     0.035 C 
HETATM   17  C9  UNL     1       5.063   9.358   0.704  1.00  0.00    -0.013 C 
ENDBRANCH   7   8
ENDBRANCH   1   7
BRANCH   5  18
HETATM   18  C16 UNL     1      10.068  12.727   1.069  1.00  0.00     0.175 C 
BRANCH  18  19
HETATM   19  O1  UNL     1      11.430  12.656   0.671  1.00  0.00    -0.400 OA
ATOM     20  H1  UNL     1      11.937  13.082   1.352  1.00  0.00     0.209 HD
ENDBRANCH  18  19
ENDBRANCH   5  18
BRANCH   5  21
HETATM   21  C17 UNL     1       9.879  10.484  -0.082  1.00  0.00     0.039 C 
BRANCH  21  22
HETATM   22  C18 UNL     1       9.710   9.493   1.007  1.00  0.00     0.165 C 
BRANCH  22  23
HETATM   23  O2  UNL     1       8.619   8.647   0.888  1.00  0.00    -0.401 OA
ATOM     24  H2  UNL     1       8.366   8.422   0.001  1.00  0.00     0.209 HD
ENDBRANCH  22  23
ENDBRANCH  21  22
ENDBRANCH   5  21
TORSDOF 7
ENDMDL
MODEL 4
REMARK VINA RESULT: -5.851925423      1.988      3.326
REMARK  7 active torsions:
REMARK  status: ('A' for Active; 'I' for Inactive)
REMARK    1  A    between atoms: C10_10  and  C11_11 
REMARK    2  A    between atoms: C11_11  and  N1_12 
REMARK    3  A    between atoms: C15_16  and  C16_17 
REMARK    4  A    between atoms: C15_16  and  C17_20 
REMARK    5  A    between atoms: C16_17  and  O1_18 
REMARK    6  A    between atoms: C17_20  and  C18_21 
REMARK    7  A    between atoms: C18_21  and  O2_22 
ROOT
HETATM    1  N1  UNL     1       7.029  11.085   0.738  1.00  0.00     0.090 N 
HETATM    2  C12 UNL     1       7.825  11.329  -0.408  1.00  0.00     0.272 C 
HETATM    3  C13 UNL     1       8.697  12.538  -0.139  1.00  0.00     0.031 C 
HETATM    4  C14 UNL     1       9.715  12.101   0.892  1.00  0.00     0.015 C 
HETATM    5  C15 UNL     1       9.055  11.530   2.123  1.00  0.00     0.009 C 
HETATM    6  C19 UNL     1       7.557  11.450   1.997  1.00  0.00     0.284 C 
ENDROOT
BRANCH   1   7
HETATM    7  C11 UNL     1       5.685  11.590   0.661  1.00  0.00     0.285 C 
BRANCH   7   8
HETATM    8  C10 UNL     1       4.631  10.522   0.596  1.00  0.00     0.065 C 
HETATM    9  C2  UNL     1       3.627  10.809   1.642  1.00  0.00    -0.078 C 
HETATM   10  C1  UNL     1       3.765  12.119   2.364  1.00  0.00     0.044 C 
HETATM   11  C3  UNL     1       2.597  10.045   2.001  1.00  0.00    -0.023 C 
HETATM   12  C4  UNL     1       2.202   8.686   1.461  1.00  0.00     0.036 C 
HETATM   13  C5  UNL     1       3.305   7.779   1.905  1.00  0.00     0.018 C 
HETATM   14  C6  UNL     1       3.412   6.423   1.263  1.00  0.00     0.014 C 
HETATM   15  C8  UNL     1       4.606   8.100   1.278  1.00  0.00    -0.079 C 
HETATM   16  C7  UNL     1       4.927   6.631   1.506  1.00  0.00     0.035 C 
HETATM   17  C9  UNL     1       5.170   9.170   0.749  1.00  0.00    -0.013 C 
ENDBRANCH   7   8
ENDBRANCH   1   7
BRANCH   5  18
HETATM   18  C16 UNL     1       9.311  12.515   3.248  1.00  0.00     0.175 C 
BRANCH  18  19
HETATM   19  O1  UNL     1       8.050  13.061   3.610  1.00  0.00    -0.400 OA
ATOM     20  H1  UNL     1       7.961  12.945   4.548  1.00  0.00     0.209 HD
ENDBRANCH  18  19
ENDBRANCH   5  18
BRANCH   5  21
HETATM   21  C17 UNL     1       9.558  10.156   2.375  1.00  0.00     0.039 C 
BRANCH  21  22
HETATM   22  C18 UNL     1       8.928   9.389   3.476  1.00  0.00     0.165 C 
BRANCH  22  23
HETATM   23  O2  UNL     1       8.152   8.308   3.090  1.00  0.00    -0.401 OA
ATOM     24  H2  UNL     1       7.227   8.487   2.970  1.00  0.00     0.209 HD
ENDBRANCH  22  23
ENDBRANCH  21  22
ENDBRANCH   5  21
TORSDOF 7
ENDMDL
MODEL 5
REMARK VINA RESULT: -5.834792381      4.194      8.383
REMARK  7 active torsions:
REMARK  status: ('A' for Active; 'I' for Inactive)
REMARK    1  A    between atoms: C10_10  and  C11_11 
REMARK    2  A    between atoms: C11_11  and  N1_12 
REMARK    3  A    between atoms: C15_16  and  C16_17 
REMARK    4  A    between atoms: C15_16  and  C17_20 
REMARK    5  A    between atoms: C16_17  and  O1_18 
REMARK    6  A    between atoms: C17_20  and  C18_21 
REMARK    7  A    between atoms: C18_21  and  O2_22 
ROOT
HETATM    1  N1  UNL     1       8.864  11.875   0.146  1.00  0.00     0.090 N 
HETATM    2  C12 UNL     1       9.489  10.769  -0.481  1.00  0.00     0.272 C 
HETATM    3  C13 UNL     1      10.220   9.968   0.576  1.00  0.00     0.031 C 
HETATM    4  C14 UNL     1       9.150   9.315   1.425  1.00  0.00     0.015 C 
HETATM    5  C15 UNL     1       8.181  10.329   1.981  1.00  0.00     0.009 C 
HETATM    6  C19 UNL     1       8.454  11.726   1.490  1.00  0.00     0.284 C 
ENDROOT
BRANCH   1   7
HETATM    7  C11 UNL     1       9.581  13.117   0.040  1.00  0.00     0.285 C 
BRANCH   7   8
HETATM    8  C10 UNL     1       9.567  13.718  -1.336  1.00  0.00     0.065 C 
HETATM    9  C2  UNL     1       9.958  15.138  -1.216  1.00  0.00    -0.078 C 
HETATM   10  C1  UNL     1      10.438  15.591   0.134  1.00  0.00     0.044 C 
HETATM   11  C3  UNL     1       9.956  16.058  -2.179  1.00  0.00    -0.023 C 
HETATM   12  C4  UNL     1       9.530  15.905  -3.625  1.00  0.00     0.036 C 
HETATM   13  C5  UNL     1       8.055  15.668  -3.550  1.00  0.00     0.018 C 
HETATM   14  C6  UNL     1       7.357  15.141  -4.775  1.00  0.00     0.014 C 
HETATM   15  C8  UNL     1       7.705  14.392  -2.889  1.00  0.00    -0.079 C 
HETATM   16  C7  UNL     1       6.441  14.455  -3.732  1.00  0.00     0.035 C 
HETATM   17  C9  UNL     1       8.273  13.589  -2.009  1.00  0.00    -0.013 C 
ENDBRANCH   7   8
ENDBRANCH   1   7
BRANCH   5  18
HETATM   18  C16 UNL     1       8.415  10.376   3.478  1.00  0.00     0.175 C 
BRANCH  18  19
HETATM   19  O1  UNL     1       9.163   9.214   3.812  1.00  0.00    -0.400 OA
ATOM     20  H1  UNL     1       8.535   8.518   3.965  1.00  0.00     0.209 HD
ENDBRANCH  18  19
ENDBRANCH   5  18
BRANCH   5  21
HETATM   21  C17 UNL     1       6.795   9.976   1.580  1.00  0.00     0.039 C 
BRANCH  21  22
HETATM   22  C18 UNL     1       6.340   8.591   1.847  1.00  0.00     0.165 C 
BRANCH  22  23
HETATM   23  O2  UNL     1       6.091   7.812   0.729  1.00  0.00    -0.401 OA
ATOM     24  H2  UNL     1       5.597   7.016   0.881  1.00  0.00     0.209 HD
ENDBRANCH  22  23
ENDBRANCH  21  22
ENDBRANCH   5  21
TORSDOF 7
ENDMDL
