MODEL 1
REMARK VINA RESULT: -6.273933570      0.000      0.000
REMARK  7 active torsions:
REMARK  status: ('A' for Active; 'I' for Inactive)
REMARK    1  A    between atoms: C2_2  and  N1_3 
REMARK    2  A    between atoms: N1_3  and  C4_5 
REMARK    3  A    between atoms: C4_5  and  C5_6 
REMARK    4  A    between atoms: C5_6  and  O1_7 
REMARK    5  A    between atoms: C5_6  and  C6_9 
REMARK    6  A    between atoms: C6_9  and  N2_10 
REMARK    7  A    between atoms: C9_13  and  N3_14 
ROOT
HETATM    1  N2  UNL     1      -0.420  -9.233   8.748  1.00  0.00     0.091 N 
HETATM    2  C7  UNL     1      -0.073 -10.460   8.145  1.00  0.00     0.274 C 
HETATM    3  C8  UNL     1       0.127 -11.652   8.975  1.00  0.00     0.056 C 
HETATM    4  C9  UNL     1       0.387 -11.347  10.407  1.00  0.00     0.094 C 
HETATM    5  C16 UNL     1      -0.412 -10.247  10.985  1.00  0.00     0.056 C 
HETATM    6  C17 UNL     1      -1.046  -9.306  10.023  1.00  0.00     0.274 C 
ENDROOT
BRANCH   4   7
HETATM    7  N3  UNL     1       1.809 -11.190  10.688  1.00  0.00    -0.332 N 
HETATM    8  C10 UNL     1       2.614 -10.189  10.346  1.00  0.00     0.184 A 
HETATM    9  N4  UNL     1       3.833 -10.458  10.809  1.00  0.00    -0.349 N 
HETATM   10  C11 UNL     1       3.834 -11.633  11.454  1.00  0.00     0.086 A 
ATOM     11  H4  UNL     1       4.649  -9.857  10.690  1.00  0.00     0.166 HD
HETATM   12  C12 UNL     1       4.791 -12.378  12.109  1.00  0.00     0.074 A 
HETATM   13  C15 UNL     1       2.532 -12.101  11.373  1.00  0.00     0.133 A 
HETATM   14 BR1  UNL     1       6.561 -11.672  12.179  1.00  0.00    -0.046 Br
HETATM   15  C13 UNL     1       4.425 -13.569  12.667  1.00  0.00     0.102 A 
HETATM   16 BR2  UNL     1       5.787 -14.579  13.571  1.00  0.00    -0.030 Br
HETATM   17  N5  UNL     1       3.170 -14.038  12.600  1.00  0.00    -0.314 N 
HETATM   18  C14 UNL     1       2.215 -13.331  11.966  1.00  0.00     0.275 A 
ATOM     19  H5  UNL     1       2.938 -14.934  13.030  1.00  0.00     0.170 HD
HETATM   20  O2  UNL     1       1.055 -13.811  11.928  1.00  0.00    -0.266 OA
ENDBRANCH   4   7
BRANCH   1  21
HETATM   21  C6  UNL     1      -1.230  -8.410   7.862  1.00  0.00     0.305 C 
BRANCH  21  22
HETATM   22  C5  UNL     1      -0.356  -7.371   7.201  1.00  0.00     0.174 C 
BRANCH  22  23
HETATM   23  C4  UNL     1      -1.185  -6.220   6.657  1.00  0.00     0.305 C 
BRANCH  23  24
HETATM   24  N1  UNL     1      -0.391  -5.324   5.881  1.00  0.00     0.086 N 
HETATM   25  C3  UNL     1       0.167  -5.900   4.700  1.00  0.00     0.310 C 
BRANCH  24  26
HETATM   26  C2  UNL     1      -1.015  -4.074   5.596  1.00  0.00     0.267 C 
HETATM   27  C1  UNL     1      -0.053  -2.913   5.580  1.00  0.00     0.037 C 
ENDBRANCH  24  26
ENDBRANCH  23  24
ENDBRANCH  22  23
BRANCH  22  28
HETATM   28  O1  UNL     1       0.546  -6.916   8.173  1.00  0.00    -0.392 OA
ATOM     29  H1  UNL     1       1.309  -7.481   8.213  1.00  0.00     0.210 HD
ENDBRANCH  22  28
ENDBRANCH  21  22
ENDBRANCH   1  21
TORSDOF 7
ENDMDL
MODEL 2
REMARK VINA RESULT: -6.140824530      5.254      8.190
REMARK  7 active torsions:
REMARK  status: ('A' for Active; 'I' for Inactive)
REMARK    1  A    between atoms: C2_2  and  N1_3 
REMARK    2  A    between atoms: N1_3  and  C4_5 
REMARK    3  A    between atoms: C4_5  and  C5_6 
REMARK    4  A    between atoms: C5_6  and  O1_7 
REMARK    5  A    between atoms: C5_6  and  C6_9 
REMARK    6  A    between atoms: C6_9  and  N2_10 
REMARK    7  A    between atoms: C9_13  and  N3_14 
ROOT
HETATM    1  N2  UNL     1       0.564 -10.103   9.573  1.00  0.00     0.091 N 
HETATM    2  C7  UNL     1       0.548 -11.150   8.628  1.00  0.00     0.274 C 
HETATM    3  C8  UNL     1      -0.455 -11.154   7.558  1.00  0.00     0.056 C 
HETATM    4  C9  UNL     1      -1.637 -10.297   7.843  1.00  0.00     0.094 C 
HETATM    5  C16 UNL     1      -1.349  -9.002   8.495  1.00  0.00     0.056 C 
HETATM    6  C17 UNL     1      -0.030  -8.875   9.172  1.00  0.00     0.274 C 
ENDROOT
BRANCH   4   7
HETATM    7  N3  UNL     1      -2.695 -11.027   8.531  1.00  0.00    -0.332 N 
HETATM    8  C10 UNL     1      -2.713 -11.476   9.782  1.00  0.00     0.184 A 
HETATM    9  N4  UNL     1      -3.878 -12.086   9.989  1.00  0.00    -0.349 N 
HETATM   10  C11 UNL     1      -4.628 -12.041   8.879  1.00  0.00     0.086 A 
ATOM     11  H4  UNL     1      -4.160 -12.524  10.866  1.00  0.00     0.166 HD
HETATM   12  C12 UNL     1      -5.881 -12.500   8.537  1.00  0.00     0.074 A 
HETATM   13  C15 UNL     1      -3.864 -11.361   7.943  1.00  0.00     0.133 A 
HETATM   14 BR1  UNL     1      -6.874 -13.428   9.875  1.00  0.00    -0.046 Br
HETATM   15  C13 UNL     1      -6.342 -12.269   7.273  1.00  0.00     0.102 A 
HETATM   16 BR2  UNL     1      -8.094 -12.924   6.834  1.00  0.00    -0.030 Br
HETATM   17  N5  UNL     1      -5.617 -11.612   6.354  1.00  0.00    -0.314 N 
HETATM   18  C14 UNL     1      -4.389 -11.152   6.661  1.00  0.00     0.275 A 
ATOM     19  H5  UNL     1      -5.998 -11.460   5.420  1.00  0.00     0.170 HD
HETATM   20  O2  UNL     1      -3.749 -10.544   5.767  1.00  0.00    -0.266 OA
ENDBRANCH   4   7
BRANCH   1  21
HETATM   21  C6  UNL     1       1.909  -9.847  10.067  1.00  0.00     0.305 C 
BRANCH  21  22
HETATM   22  C5  UNL     1       2.490 -11.123  10.630  1.00  0.00     0.174 C 
BRANCH  22  23
HETATM   23  C4  UNL     1       4.003 -11.144  10.494  1.00  0.00     0.305 C 
BRANCH  23  24
HETATM   24  N1  UNL     1       4.556  -9.833  10.605  1.00  0.00     0.086 N 
HETATM   25  C3  UNL     1       5.000  -9.486  11.916  1.00  0.00     0.310 C 
BRANCH  24  26
HETATM   26  C2  UNL     1       5.549  -9.524   9.630  1.00  0.00     0.267 C 
HETATM   27  C1  UNL     1       6.584  -8.541  10.117  1.00  0.00     0.037 C 
ENDBRANCH  24  26
ENDBRANCH  23  24
ENDBRANCH  22  23
BRANCH  22  28
HETATM   28  O1  UNL     1       2.112 -11.185  11.977  1.00  0.00    -0.392 OA
ATOM     29  H1  UNL     1       1.236 -11.542  12.064  1.00  0.00     0.210 HD
ENDBRANCH  22  28
ENDBRANCH  21  22
ENDBRANCH   1  21
TORSDOF 7
ENDMDL
MODEL 3
REMARK VINA RESULT: -6.067171360      1.302      1.480
REMARK  7 active torsions:
REMARK  status: ('A' for Active; 'I' for Inactive)
REMARK    1  A    between atoms: C2_2  and  N1_3 
REMARK    2  A    between atoms: N1_3  and  C4_5 
REMARK    3  A    between atoms: C4_5  and  C5_6 
REMARK    4  A    between atoms: C5_6  and  O1_7 
REMARK    5  A    between atoms: C5_6  and  C6_9 
REMARK    6  A    between atoms: C6_9  and  N2_10 
REMARK    7  A    between atoms: C9_13  and  N3_14 
ROOT
HETATM    1  N2  UNL     1      -0.982  -9.171   8.200  1.00  0.00     0.091 N 
HETATM    2  C7  UNL     1      -0.789 -10.486   7.727  1.00  0.00     0.274 C 
HETATM    3  C8  UNL     1      -0.998 -11.625   8.626  1.00  0.00     0.056 C 
HETATM    4  C9  UNL     1      -0.950 -11.265  10.067  1.00  0.00     0.094 C 
HETATM    5  C16 UNL     1      -1.599  -9.989  10.433  1.00  0.00     0.056 C 
HETATM    6  C17 UNL     1      -1.835  -9.020   9.328  1.00  0.00     0.274 C 
ENDROOT
BRANCH   4   7
HETATM    7  N3  UNL     1       0.396 -11.367  10.618  1.00  0.00    -0.332 N 
HETATM    8  C10 UNL     1       1.356 -10.447  10.631  1.00  0.00     0.184 A 
HETATM    9  N4  UNL     1       2.422 -10.967  11.236  1.00  0.00    -0.349 N 
HETATM   10  C11 UNL     1       2.169 -12.225  11.620  1.00  0.00     0.086 A 
ATOM     11  H4  UNL     1       3.305 -10.478  11.384  1.00  0.00     0.166 HD
HETATM   12  C12 UNL     1       2.890 -13.205  12.268  1.00  0.00     0.074 A 
HETATM   13  C15 UNL     1       0.866 -12.479  11.221  1.00  0.00     0.133 A 
HETATM   14 BR1  UNL     1       4.676 -12.785  12.786  1.00  0.00    -0.046 Br
HETATM   15  C13 UNL     1       2.295 -14.411  12.501  1.00  0.00     0.102 A 
HETATM   16 BR2  UNL     1       3.333 -15.750  13.407  1.00  0.00    -0.030 Br
HETATM   17  N5  UNL     1       1.035 -14.675  12.123  1.00  0.00    -0.314 N 
HETATM   18  C14 UNL     1       0.307 -13.736  11.489  1.00  0.00     0.275 A 
ATOM     19  H5  UNL     1       0.627 -15.590  12.317  1.00  0.00     0.170 HD
HETATM   20  O2  UNL     1      -0.867 -14.030  11.153  1.00  0.00    -0.266 OA
ENDBRANCH   4   7
BRANCH   1  21
HETATM   21  C6  UNL     1      -1.425  -8.278   7.140  1.00  0.00     0.305 C 
BRANCH  21  22
HETATM   22  C5  UNL     1      -0.402  -7.185   6.941  1.00  0.00     0.174 C 
BRANCH  22  23
HETATM   23  C4  UNL     1      -1.071  -5.839   6.722  1.00  0.00     0.305 C 
BRANCH  23  24
HETATM   24  N1  UNL     1      -0.303  -5.009   5.851  1.00  0.00     0.086 N 
HETATM   25  C3  UNL     1       0.175  -5.665   4.678  1.00  0.00     0.310 C 
BRANCH  24  26
HETATM   26  C2  UNL     1      -0.915  -3.762   5.529  1.00  0.00     0.267 C 
HETATM   27  C1  UNL     1       0.039  -2.595   5.575  1.00  0.00     0.037 C 
ENDBRANCH  24  26
ENDBRANCH  23  24
ENDBRANCH  22  23
BRANCH  22  28
HETATM   28  O1  UNL     1       0.398  -7.160   8.091  1.00  0.00    -0.392 OA
ATOM     29  H1  UNL     1       0.266  -7.945   8.610  1.00  0.00     0.210 HD
ENDBRANCH  22  28
ENDBRANCH  21  22
ENDBRANCH   1  21
TORSDOF 7
ENDMDL
MODEL 4
REMARK VINA RESULT: -5.937113519      5.488      8.125
REMARK  7 active torsions:
REMARK  status: ('A' for Active; 'I' for Inactive)
REMARK    1  A    between atoms: C2_2  and  N1_3 
REMARK    2  A    between atoms: N1_3  and  C4_5 
REMARK    3  A    between atoms: C4_5  and  C5_6 
REMARK    4  A    between atoms: C5_6  and  O1_7 
REMARK    5  A    between atoms: C5_6  and  C6_9 
REMARK    6  A    between atoms: C6_9  and  N2_10 
REMARK    7  A    between atoms: C9_13  and  N3_14 
ROOT
HETATM    1  N2  UNL     1      -3.492 -12.587   8.589  1.00  0.00     0.091 N 
HETATM    2  C7  UNL     1      -3.396 -12.452   7.188  1.00  0.00     0.274 C 
HETATM    3  C8  UNL     1      -2.099 -12.166   6.568  1.00  0.00     0.056 C 
HETATM    4  C9  UNL     1      -1.098 -11.598   7.510  1.00  0.00     0.094 C 
HETATM    5  C16 UNL     1      -1.084 -12.188   8.865  1.00  0.00     0.056 C 
HETATM    6  C17 UNL     1      -2.299 -12.942   9.277  1.00  0.00     0.274 C 
ENDROOT
BRANCH   4   7
HETATM    7  N3  UNL     1      -1.145 -10.141   7.553  1.00  0.00    -0.332 N 
HETATM    8  C10 UNL     1      -1.652  -9.358   8.500  1.00  0.00     0.184 A 
HETATM    9  N4  UNL     1      -1.479  -8.091   8.128  1.00  0.00    -0.349 N 
HETATM   10  C11 UNL     1      -0.860  -8.037   6.941  1.00  0.00     0.086 A 
ATOM     11  H4  UNL     1      -1.775  -7.278   8.669  1.00  0.00     0.166 HD
HETATM   12  C12 UNL     1      -0.444  -7.019   6.110  1.00  0.00     0.074 A 
HETATM   13  C15 UNL     1      -0.647  -9.357   6.574  1.00  0.00     0.133 A 
HETATM   14 BR1  UNL     1      -0.770  -5.229   6.680  1.00  0.00    -0.046 Br
HETATM   15  C13 UNL     1       0.174  -7.342   4.937  1.00  0.00     0.102 A 
HETATM   16 BR2  UNL     1       0.740  -5.896   3.806  1.00  0.00    -0.030 Br
HETATM   17  N5  UNL     1       0.389  -8.614   4.565  1.00  0.00    -0.314 N 
HETATM   18  C14 UNL     1      -0.007  -9.628   5.357  1.00  0.00     0.275 A 
ATOM     19  H5  UNL     1       0.854  -8.813   3.679  1.00  0.00     0.170 HD
HETATM   20  O2  UNL     1       0.215 -10.801   4.966  1.00  0.00    -0.266 OA
ENDBRANCH   4   7
BRANCH   1  21
HETATM   21  C6  UNL     1      -4.556 -13.505   8.968  1.00  0.00     0.305 C 
BRANCH  21  22
HETATM   22  C5  UNL     1      -5.892 -12.815   8.822  1.00  0.00     0.174 C 
BRANCH  22  23
HETATM   23  C4  UNL     1      -6.793 -13.563   7.854  1.00  0.00     0.305 C 
BRANCH  23  24
HETATM   24  N1  UNL     1      -7.062 -12.788   6.686  1.00  0.00     0.086 N 
HETATM   25  C3  UNL     1      -8.369 -12.966   6.144  1.00  0.00     0.310 C 
BRANCH  24  26
HETATM   26  C2  UNL     1      -6.741 -11.403   6.807  1.00  0.00     0.267 C 
HETATM   27  C1  UNL     1      -7.513 -10.523   5.856  1.00  0.00     0.037 C 
ENDBRANCH  24  26
ENDBRANCH  23  24
ENDBRANCH  22  23
BRANCH  22  28
HETATM   28  O1  UNL     1      -6.468 -12.766  10.098  1.00  0.00    -0.392 OA
ATOM     29  H1  UNL     1      -7.085 -13.479  10.216  1.00  0.00     0.210 HD
ENDBRANCH  22  28
ENDBRANCH  21  22
ENDBRANCH   1  21
TORSDOF 7
ENDMDL
MODEL 5
REMARK VINA RESULT: -5.877839905      0.874      1.446
REMARK  7 active torsions:
REMARK  status: ('A' for Active; 'I' for Inactive)
REMARK    1  A    between atoms: C2_2  and  N1_3 
REMARK    2  A    between atoms: N1_3  and  C4_5 
REMARK    3  A    between atoms: C4_5  and  C5_6 
REMARK    4  A    between atoms: C5_6  and  O1_7 
REMARK    5  A    between atoms: C5_6  and  C6_9 
REMARK    6  A    between atoms: C6_9  and  N2_10 
REMARK    7  A    between atoms: C9_13  and  N3_14 
ROOT
HETATM    1  N2  UNL     1      -0.293  -9.573   9.049  1.00  0.00     0.091 N 
HETATM    2  C7  UNL     1       0.027 -10.825   8.483  1.00  0.00     0.274 C 
HETATM    3  C8  UNL     1       0.241 -11.986   9.352  1.00  0.00     0.056 C 
HETATM    4  C9  UNL     1       0.546 -11.630  10.762  1.00  0.00     0.094 C 
HETATM    5  C16 UNL     1      -0.228 -10.502  11.322  1.00  0.00     0.056 C 
HETATM    6  C17 UNL     1      -0.882  -9.592  10.343  1.00  0.00     0.274 C 
ENDROOT
BRANCH   4   7
HETATM    7  N3  UNL     1       1.977 -11.476  10.996  1.00  0.00    -0.332 N 
HETATM    8  C10 UNL     1       2.776 -10.487  10.609  1.00  0.00     0.184 A 
HETATM    9  N4  UNL     1       4.007 -10.754  11.040  1.00  0.00    -0.349 N 
HETATM   10  C11 UNL     1       4.022 -11.913  11.710  1.00  0.00     0.086 A 
ATOM     11  H4  UNL     1       4.822 -10.160  10.883  1.00  0.00     0.166 HD
HETATM   12  C12 UNL     1       4.994 -12.650  12.352  1.00  0.00     0.074 A 
HETATM   13  C15 UNL     1       2.715 -12.376  11.680  1.00  0.00     0.133 A 
HETATM   14 BR1  UNL     1       6.769 -11.953  12.353  1.00  0.00    -0.046 Br
HETATM   15  C13 UNL     1       4.640 -13.826  12.947  1.00  0.00     0.102 A 
HETATM   16 BR2  UNL     1       6.022 -14.824  13.832  1.00  0.00    -0.030 Br
HETATM   17  N5  UNL     1       3.380 -14.289  12.928  1.00  0.00    -0.314 N 
HETATM   18  C14 UNL     1       2.410 -13.590  12.309  1.00  0.00     0.275 A 
ATOM     19  H5  UNL     1       3.156 -15.174  13.385  1.00  0.00     0.170 HD
HETATM   20  O2  UNL     1       1.247 -14.064  12.317  1.00  0.00    -0.266 OA
ENDBRANCH   4   7
BRANCH   1  21
HETATM   21  C6  UNL     1      -1.122  -8.776   8.156  1.00  0.00     0.305 C 
BRANCH  21  22
HETATM   22  C5  UNL     1      -0.243  -7.861   7.336  1.00  0.00     0.174 C 
BRANCH  22  23
HETATM   23  C4  UNL     1      -1.072  -6.994   6.404  1.00  0.00     0.305 C 
BRANCH  23  24
HETATM   24  N1  UNL     1      -0.456  -6.867   5.123  1.00  0.00     0.086 N 
HETATM   25  C3  UNL     1       0.126  -5.590   4.869  1.00  0.00     0.310 C 
BRANCH  24  26
HETATM   26  C2  UNL     1       0.451  -7.918   4.795  1.00  0.00     0.267 C 
HETATM   27  C1  UNL     1       1.179  -7.698   3.493  1.00  0.00     0.037 C 
ENDBRANCH  24  26
ENDBRANCH  23  24
ENDBRANCH  22  23
BRANCH  22  28
HETATM   28  O1  UNL     1       0.479  -7.070   8.239  1.00  0.00    -0.392 OA
ATOM     29  H1  UNL     1       0.670  -7.555   9.033  1.00  0.00     0.210 HD
ENDBRANCH  22  28
ENDBRANCH  21  22
ENDBRANCH   1  21
TORSDOF 7
ENDMDL
