MODEL 1
REMARK VINA RESULT: -7.551455425      0.000      0.000
REMARK  3 active torsions:
REMARK  status: ('A' for Active; 'I' for Inactive)
REMARK    1  A    between atoms: N1_1  and  C1_4 
REMARK    2  A    between atoms: C2_9  and  C3_10 
REMARK    3  A    between atoms: C4_11  and  C5_12 
ROOT
HETATM    1  C1  UNL     1      -6.908  64.384   8.163  1.00  0.00     0.690 A 
HETATM    2  N2  UNL     1      -7.521  65.487   8.627  1.00  0.00    -0.132 N 
ATOM      3  H2  UNL     1      -8.450  65.726   8.280  1.00  0.00     0.205 HD
HETATM    4  N3  UNL     1      -6.945  66.268   9.523  1.00  0.00    -0.285 N 
ATOM      5  H3  UNL     1      -7.431  67.099   9.860  1.00  0.00     0.187 HD
HETATM    6  C2  UNL     1      -5.720  65.970   9.993  1.00  0.00     0.064 A 
HETATM    7  C9  UNL     1      -5.104  64.849   9.517  1.00  0.00     0.137 A 
HETATM    8  N6  UNL     1      -5.674  64.045   8.607  1.00  0.00    -0.199 N 
ATOM      9  H6  UNL     1      -5.197  63.211   8.264  1.00  0.00     0.183 HD
ENDROOT
BRANCH   6  10
HETATM   10  C3  UNL     1      -5.115  66.871  10.994  1.00  0.00     0.035 C 
HETATM   11  C4  UNL     1      -5.324  68.162  10.955  1.00  0.00     0.032 C 
BRANCH  11  12
HETATM   12  C5  UNL     1      -4.754  69.073  11.910  1.00  0.00     0.041 A 
HETATM   13  C6  UNL     1      -5.049  68.935  13.268  1.00  0.00     0.104 A 
HETATM   14  C7  UNL     1      -4.516  69.791  14.180  1.00  0.00     0.251 A 
HETATM   15  O1  UNL     1      -4.776  69.678  15.423  1.00  0.00    -0.268 OA
HETATM   16  N4  UNL     1      -3.699  70.785  13.801  1.00  0.00    -0.275 N 
HETATM   17  C8  UNL     1      -3.414  70.920  12.494  1.00  0.00     0.327 A 
ATOM     18  H4  UNL     1      -3.302  71.424  14.490  1.00  0.00     0.173 HD
HETATM   19  O2  UNL     1      -2.637  71.860  12.111  1.00  0.00    -0.247 OA
HETATM   20  N5  UNL     1      -3.933  70.080  11.579  1.00  0.00    -0.308 N 
ATOM     21  H5  UNL     1      -3.693  70.215  10.597  1.00  0.00     0.170 HD
ENDBRANCH  11  12
ENDBRANCH   6  10
BRANCH   1  22
HETATM   22  N1  UNL     1      -7.502  63.662   7.299  1.00  0.00    -0.233 N 
ATOM     23  H12 UNL     1      -8.397  63.224   7.520  1.00  0.00     0.174 HD
ATOM     24  H11 UNL     1      -7.072  63.527   6.384  1.00  0.00     0.174 HD
ENDBRANCH   1  22
TORSDOF 3
ENDMDL
MODEL 2
REMARK VINA RESULT: -7.344489683      3.222      7.398
REMARK  3 active torsions:
REMARK  status: ('A' for Active; 'I' for Inactive)
REMARK    1  A    between atoms: N1_1  and  C1_4 
REMARK    2  A    between atoms: C2_9  and  C3_10 
REMARK    3  A    between atoms: C4_11  and  C5_12 
ROOT
HETATM    1  C1  UNL     1      -2.972  71.506  14.129  1.00  0.00     0.690 A 
HETATM    2  N2  UNL     1      -2.875  72.027  12.893  1.00  0.00    -0.132 N 
ATOM      3  H2  UNL     1      -2.417  72.929  12.766  1.00  0.00     0.205 HD
HETATM    4  N3  UNL     1      -3.360  71.393  11.841  1.00  0.00    -0.285 N 
ATOM      5  H3  UNL     1      -3.274  71.809  10.913  1.00  0.00     0.187 HD
HETATM    6  C2  UNL     1      -3.968  70.202  11.988  1.00  0.00     0.064 A 
HETATM    7  C9  UNL     1      -4.063  69.680  13.246  1.00  0.00     0.137 A 
HETATM    8  N6  UNL     1      -3.576  70.309  14.326  1.00  0.00    -0.199 N 
ATOM      9  H6  UNL     1      -3.657  69.902  15.258  1.00  0.00     0.183 HD
ENDROOT
BRANCH   6  10
HETATM   10  C3  UNL     1      -4.496  69.531  10.784  1.00  0.00     0.035 C 
HETATM   11  C4  UNL     1      -5.137  68.393  10.870  1.00  0.00     0.032 C 
BRANCH  11  12
HETATM   12  C5  UNL     1      -5.666  67.708   9.722  1.00  0.00     0.041 A 
HETATM   13  C6  UNL     1      -5.630  68.319   8.467  1.00  0.00     0.104 A 
HETATM   14  C7  UNL     1      -6.128  67.681   7.374  1.00  0.00     0.251 A 
HETATM   15  O1  UNL     1      -6.102  68.225   6.222  1.00  0.00    -0.268 OA
HETATM   16  N4  UNL     1      -6.663  66.455   7.473  1.00  0.00    -0.275 N 
HETATM   17  C8  UNL     1      -6.699  65.865   8.681  1.00  0.00     0.327 A 
ATOM     18  H4  UNL     1      -7.035  65.981   6.651  1.00  0.00     0.173 HD
HETATM   19  O2  UNL     1      -7.205  64.696   8.798  1.00  0.00    -0.247 OA
HETATM   20  N5  UNL     1      -6.210  66.484   9.772  1.00  0.00    -0.308 N 
ATOM     21  H5  UNL     1      -6.255  66.003  10.670  1.00  0.00     0.170 HD
ENDBRANCH  11  12
ENDBRANCH   6  10
BRANCH   1  22
HETATM   22  N1  UNL     1      -2.489  72.153  15.114  1.00  0.00    -0.233 N 
ATOM     23  H12 UNL     1      -1.998  73.034  14.961  1.00  0.00     0.174 HD
ATOM     24  H11 UNL     1      -2.599  71.778  16.056  1.00  0.00     0.174 HD
ENDBRANCH   1  22
TORSDOF 3
ENDMDL
MODEL 3
REMARK VINA RESULT: -7.271567850      0.896      2.025
REMARK  3 active torsions:
REMARK  status: ('A' for Active; 'I' for Inactive)
REMARK    1  A    between atoms: N1_1  and  C1_4 
REMARK    2  A    between atoms: C2_9  and  C3_10 
REMARK    3  A    between atoms: C4_11  and  C5_12 
ROOT
HETATM    1  C1  UNL     1      -6.644  64.237   8.232  1.00  0.00     0.690 A 
HETATM    2  N2  UNL     1      -7.417  65.334   8.308  1.00  0.00    -0.132 N 
ATOM      3  H2  UNL     1      -8.290  65.368   7.782  1.00  0.00     0.205 HD
HETATM    4  N3  UNL     1      -7.069  66.370   9.051  1.00  0.00    -0.285 N 
ATOM      5  H3  UNL     1      -7.673  67.191   9.092  1.00  0.00     0.187 HD
HETATM    6  C2  UNL     1      -5.921  66.345   9.752  1.00  0.00     0.064 A 
HETATM    7  C9  UNL     1      -5.142  65.228   9.670  1.00  0.00     0.137 A 
HETATM    8  N6  UNL     1      -5.479  64.167   8.921  1.00  0.00    -0.199 N 
ATOM      9  H6  UNL     1      -4.882  63.342   8.873  1.00  0.00     0.183 HD
ENDROOT
BRANCH   6  10
HETATM   10  C3  UNL     1      -5.573  67.525  10.568  1.00  0.00     0.035 C 
HETATM   11  C4  UNL     1      -5.245  67.403  11.829  1.00  0.00     0.032 C 
BRANCH  11  12
HETATM   12  C5  UNL     1      -4.900  68.526  12.657  1.00  0.00     0.041 A 
HETATM   13  C6  UNL     1      -4.116  69.559  12.141  1.00  0.00     0.104 A 
HETATM   14  C7  UNL     1      -3.783  70.626  12.915  1.00  0.00     0.251 A 
HETATM   15  O1  UNL     1      -3.067  71.577  12.457  1.00  0.00    -0.268 OA
HETATM   16  N4  UNL     1      -4.196  70.713  14.188  1.00  0.00    -0.275 N 
HETATM   17  C8  UNL     1      -4.952  69.719  14.688  1.00  0.00     0.327 A 
ATOM     18  H4  UNL     1      -3.943  71.515  14.764  1.00  0.00     0.173 HD
HETATM   19  O2  UNL     1      -5.357  69.782  15.899  1.00  0.00    -0.247 OA
HETATM   20  N5  UNL     1      -5.290  68.657  13.933  1.00  0.00    -0.308 N 
ATOM     21  H5  UNL     1      -5.864  67.923  14.348  1.00  0.00     0.170 HD
ENDBRANCH  11  12
ENDBRANCH   6  10
BRANCH   1  22
HETATM   22  N1  UNL     1      -7.020  63.263   7.503  1.00  0.00    -0.233 N 
ATOM     23  H12 UNL     1      -7.689  63.413   6.748  1.00  0.00     0.174 HD
ATOM     24  H11 UNL     1      -6.643  62.333   7.685  1.00  0.00     0.174 HD
ENDBRANCH   1  22
TORSDOF 3
ENDMDL
MODEL 4
REMARK VINA RESULT: -7.223807663      3.237      7.231
REMARK  3 active torsions:
REMARK  status: ('A' for Active; 'I' for Inactive)
REMARK    1  A    between atoms: N1_1  and  C1_4 
REMARK    2  A    between atoms: C2_9  and  C3_10 
REMARK    3  A    between atoms: C4_11  and  C5_12 
ROOT
HETATM    1  C1  UNL     1      -3.812  70.362  15.207  1.00  0.00     0.690 A 
HETATM    2  N2  UNL     1      -3.341  70.457  13.952  1.00  0.00    -0.132 N 
ATOM      3  H2  UNL     1      -2.523  71.038  13.768  1.00  0.00     0.205 HD
HETATM    4  N3  UNL     1      -3.915  69.813  12.951  1.00  0.00    -0.285 N 
ATOM      5  H3  UNL     1      -3.538  69.902  12.007  1.00  0.00     0.187 HD
HETATM    6  C2  UNL     1      -4.995  69.042  13.173  1.00  0.00     0.064 A 
HETATM    7  C9  UNL     1      -5.467  68.950  14.450  1.00  0.00     0.137 A 
HETATM    8  N6  UNL     1      -4.897  69.596  15.478  1.00  0.00    -0.199 N 
ATOM      9  H6  UNL     1      -5.266  69.515  16.425  1.00  0.00     0.183 HD
ENDROOT
BRANCH   6  10
HETATM   10  C3  UNL     1      -5.603  68.341  12.025  1.00  0.00     0.035 C 
HETATM   11  C4  UNL     1      -5.048  68.377  10.840  1.00  0.00     0.032 C 
BRANCH  11  12
HETATM   12  C5  UNL     1      -5.609  67.709   9.697  1.00  0.00     0.041 A 
HETATM   13  C6  UNL     1      -5.575  68.322   8.444  1.00  0.00     0.104 A 
HETATM   14  C7  UNL     1      -6.103  67.700   7.356  1.00  0.00     0.251 A 
HETATM   15  O1  UNL     1      -6.080  68.248   6.205  1.00  0.00    -0.268 OA
HETATM   16  N4  UNL     1      -6.666  66.487   7.459  1.00  0.00    -0.275 N 
HETATM   17  C8  UNL     1      -6.699  65.894   8.665  1.00  0.00     0.327 A 
ATOM     18  H4  UNL     1      -7.060  66.025   6.640  1.00  0.00     0.173 HD
HETATM   19  O2  UNL     1      -7.231  64.737   8.786  1.00  0.00    -0.247 OA
HETATM   20  N5  UNL     1      -6.181  66.497   9.751  1.00  0.00    -0.308 N 
ATOM     21  H5  UNL     1      -6.225  66.015  10.648  1.00  0.00     0.170 HD
ENDBRANCH  11  12
ENDBRANCH   6  10
BRANCH   1  22
HETATM   22  N1  UNL     1      -3.226  71.000  16.140  1.00  0.00    -0.233 N 
ATOM     23  H12 UNL     1      -2.321  70.686  16.490  1.00  0.00     0.174 HD
ATOM     24  H11 UNL     1      -3.673  71.829  16.531  1.00  0.00     0.174 HD
ENDBRANCH   1  22
TORSDOF 3
ENDMDL
MODEL 5
REMARK VINA RESULT: -7.167018745      3.219      7.189
REMARK  3 active torsions:
REMARK  status: ('A' for Active; 'I' for Inactive)
REMARK    1  A    between atoms: N1_1  and  C1_4 
REMARK    2  A    between atoms: C2_9  and  C3_10 
REMARK    3  A    between atoms: C4_11  and  C5_12 
ROOT
HETATM    1  C1  UNL     1      -3.176  71.557  14.202  1.00  0.00     0.690 A 
HETATM    2  N2  UNL     1      -2.974  72.010  12.952  1.00  0.00    -0.132 N 
ATOM      3  H2  UNL     1      -2.533  72.919  12.815  1.00  0.00     0.205 HD
HETATM    4  N3  UNL     1      -3.336  71.302  11.897  1.00  0.00    -0.285 N 
ATOM      5  H3  UNL     1      -3.172  71.667  10.959  1.00  0.00     0.187 HD
HETATM    6  C2  UNL     1      -3.921  70.100  12.056  1.00  0.00     0.064 A 
HETATM    7  C9  UNL     1      -4.122  69.647  13.328  1.00  0.00     0.137 A 
HETATM    8  N6  UNL     1      -3.761  70.353  14.410  1.00  0.00    -0.199 N 
ATOM      9  H6  UNL     1      -3.921  69.997  15.353  1.00  0.00     0.183 HD
ENDROOT
BRANCH   6  10
HETATM   10  C3  UNL     1      -4.308  69.344  10.849  1.00  0.00     0.035 C 
HETATM   11  C4  UNL     1      -5.193  68.381  10.909  1.00  0.00     0.032 C 
BRANCH  11  12
HETATM   12  C5  UNL     1      -5.597  67.622   9.758  1.00  0.00     0.041 A 
HETATM   13  C6  UNL     1      -5.640  66.228   9.821  1.00  0.00     0.104 A 
HETATM   14  C7  UNL     1      -6.021  65.499   8.738  1.00  0.00     0.251 A 
HETATM   15  O1  UNL     1      -6.065  64.226   8.780  1.00  0.00    -0.268 OA
HETATM   16  N4  UNL     1      -6.362  66.098   7.587  1.00  0.00    -0.275 N 
HETATM   17  C8  UNL     1      -6.321  67.440   7.523  1.00  0.00     0.327 A 
ATOM     18  H4  UNL     1      -6.646  65.546   6.777  1.00  0.00     0.173 HD
HETATM   19  O2  UNL     1      -6.642  68.032   6.436  1.00  0.00    -0.247 OA
HETATM   20  N5  UNL     1      -5.947  68.175   8.588  1.00  0.00    -0.308 N 
ATOM     21  H5  UNL     1      -5.928  69.191   8.500  1.00  0.00     0.170 HD
ENDBRANCH  11  12
ENDBRANCH   6  10
BRANCH   1  22
HETATM   22  N1  UNL     1      -2.811  72.275  15.187  1.00  0.00    -0.233 N 
ATOM     23  H12 UNL     1      -3.127  73.242  15.267  1.00  0.00     0.174 HD
ATOM     24  H11 UNL     1      -2.199  71.871  15.896  1.00  0.00     0.174 HD
ENDBRANCH   1  22
TORSDOF 3
ENDMDL
