MODEL 1
REMARK VINA RESULT: -6.399830507      0.000      0.000
REMARK  7 active torsions:
REMARK  status: ('A' for Active; 'I' for Inactive)
REMARK    1  A    between atoms: O1_3  and  C3_4 
REMARK    2  A    between atoms: C3_4  and  N1_5 
REMARK    3  A    between atoms: C3_4  and  C4_9 
REMARK    4  A    between atoms: C4_9  and  N2_10 
REMARK    5  A    between atoms: C4_9  and  C5_14 
REMARK    6  A    between atoms: C6_15  and  C7_16 
REMARK    7  A    between atoms: C9_18  and  N3_19 
ROOT
HETATM    1  C1  UNL     1      -7.098  63.719   7.684  1.00  0.00     0.044 C 
HETATM    2  C2  UNL     1      -6.472  64.676   8.069  1.00  0.00     0.045 C 
HETATM    3  O1  UNL     1      -5.778  65.773   8.495  1.00  0.00    -0.267 OA
ENDROOT
BRANCH   3   4
HETATM    4  C3  UNL     1      -6.297  67.070   8.345  1.00  0.00     0.377 C 
BRANCH   4   5
HETATM    5  N1  UNL     1      -6.564  67.368   6.948  1.00  0.00    -0.049 N 
ATOM      6  H13 UNL     1      -6.699  68.367   6.797  1.00  0.00     0.277 HD
ATOM      7  H12 UNL     1      -5.734  67.234   6.370  1.00  0.00     0.277 HD
ATOM      8  H11 UNL     1      -7.355  66.825   6.601  1.00  0.00     0.277 HD
ENDBRANCH   4   5
BRANCH   4   9
HETATM    9  C4  UNL     1      -5.285  68.057   8.877  1.00  0.00     0.319 C 
BRANCH   9  10
HETATM   10  N2  UNL     1      -3.929  67.628   8.502  1.00  0.00    -0.060 N 
ATOM     11  H23 UNL     1      -3.831  67.502   7.494  1.00  0.00     0.276 HD
ATOM     12  H22 UNL     1      -3.243  68.373   8.625  1.00  0.00     0.276 HD
ATOM     13  H21 UNL     1      -3.679  66.785   9.021  1.00  0.00     0.276 HD
ENDBRANCH   9  10
BRANCH   9  14
HETATM   14  C5  UNL     1      -5.414  68.076  10.346  1.00  0.00    -0.062 C 
HETATM   15  C6  UNL     1      -5.532  68.107  11.547  1.00  0.00    -0.046 C 
BRANCH  15  16
HETATM   16  C7  UNL     1      -5.696  68.158  12.985  1.00  0.00     0.091 A 
HETATM   17  C8  UNL     1      -5.076  69.126  13.737  1.00  0.00     0.087 A 
HETATM   18  C9  UNL     1      -5.238  69.162  15.088  1.00  0.00     0.102 A 
HETATM   19  N4  UNL     1      -6.019  68.229  15.658  1.00  0.00    -0.339 N 
HETATM   20  C10 UNL     1      -6.637  67.271  14.945  1.00  0.00     0.182 A 
ATOM     21  H4  UNL     1      -6.147  68.247  16.670  1.00  0.00     0.168 HD
HETATM   22  N5  UNL     1      -6.460  67.259  13.615  1.00  0.00    -0.345 N 
ATOM     23  H5  UNL     1      -6.925  66.537  13.064  1.00  0.00     0.167 HD
BRANCH  18  24
HETATM   24  N3  UNL     1      -4.657  70.068  15.793  1.00  0.00    -0.385 N 
ATOM     25  H32 UNL     1      -4.285  69.859  16.720  1.00  0.00     0.157 HD
ATOM     26  H31 UNL     1      -4.555  71.018  15.437  1.00  0.00     0.157 HD
ENDBRANCH  18  24
ENDBRANCH  15  16
ENDBRANCH   9  14
ENDBRANCH   4   9
ENDBRANCH   3   4
TORSDOF 7
ENDMDL
MODEL 2
REMARK VINA RESULT: -6.387529355      0.913      1.093
REMARK  7 active torsions:
REMARK  status: ('A' for Active; 'I' for Inactive)
REMARK    1  A    between atoms: O1_3  and  C3_4 
REMARK    2  A    between atoms: C3_4  and  N1_5 
REMARK    3  A    between atoms: C3_4  and  C4_9 
REMARK    4  A    between atoms: C4_9  and  N2_10 
REMARK    5  A    between atoms: C4_9  and  C5_14 
REMARK    6  A    between atoms: C6_15  and  C7_16 
REMARK    7  A    between atoms: C9_18  and  N3_19 
ROOT
HETATM    1  C1  UNL     1      -7.103  63.614   7.496  1.00  0.00     0.044 C 
HETATM    2  C2  UNL     1      -6.779  64.571   8.155  1.00  0.00     0.045 C 
HETATM    3  O1  UNL     1      -6.391  65.654   8.894  1.00  0.00    -0.267 OA
ENDROOT
BRANCH   3   4
HETATM    4  C3  UNL     1      -5.152  66.279   8.678  1.00  0.00     0.377 C 
BRANCH   4   5
HETATM    5  N1  UNL     1      -4.125  65.716   9.538  1.00  0.00    -0.049 N 
ATOM      6  H13 UNL     1      -3.369  66.380   9.704  1.00  0.00     0.277 HD
ATOM      7  H12 UNL     1      -4.453  65.612  10.498  1.00  0.00     0.277 HD
ATOM      8  H11 UNL     1      -3.775  64.834   9.163  1.00  0.00     0.277 HD
ENDBRANCH   4   5
BRANCH   4   9
HETATM    9  C4  UNL     1      -5.298  67.752   8.981  1.00  0.00     0.319 C 
BRANCH   9  10
HETATM   10  N2  UNL     1      -4.101  68.474   8.524  1.00  0.00    -0.060 N 
ATOM     11  H23 UNL     1      -3.564  67.934   7.844  1.00  0.00     0.276 HD
ATOM     12  H22 UNL     1      -4.336  69.268   7.929  1.00  0.00     0.276 HD
ATOM     13  H21 UNL     1      -3.536  68.748   9.328  1.00  0.00     0.276 HD
ENDBRANCH   9  10
BRANCH   9  14
HETATM   14  C5  UNL     1      -5.437  67.892  10.443  1.00  0.00    -0.062 C 
HETATM   15  C6  UNL     1      -5.565  67.993  11.639  1.00  0.00    -0.046 C 
BRANCH  15  16
HETATM   16  C7  UNL     1      -5.729  68.089  13.075  1.00  0.00     0.091 A 
HETATM   17  C8  UNL     1      -5.096  69.071  13.798  1.00  0.00     0.087 A 
HETATM   18  C9  UNL     1      -5.258  69.150  15.147  1.00  0.00     0.102 A 
HETATM   19  N4  UNL     1      -6.052  68.244  15.744  1.00  0.00    -0.339 N 
HETATM   20  C10 UNL     1      -6.682  67.274  15.060  1.00  0.00     0.182 A 
ATOM     21  H4  UNL     1      -6.181  68.295  16.755  1.00  0.00     0.168 HD
HETATM   22  N5  UNL     1      -6.505  67.220  13.731  1.00  0.00    -0.345 N 
ATOM     23  H5  UNL     1      -6.979  66.488  13.202  1.00  0.00     0.167 HD
BRANCH  18  24
HETATM   24  N3  UNL     1      -4.666  70.069  15.825  1.00  0.00    -0.385 N 
ATOM     25  H32 UNL     1      -4.346  70.930  15.383  1.00  0.00     0.157 HD
ATOM     26  H31 UNL     1      -4.503  69.953  16.826  1.00  0.00     0.157 HD
ENDBRANCH  18  24
ENDBRANCH  15  16
ENDBRANCH   9  14
ENDBRANCH   4   9
ENDBRANCH   3   4
TORSDOF 7
ENDMDL
MODEL 3
REMARK VINA RESULT: -6.229835317      1.250      1.865
REMARK  7 active torsions:
REMARK  status: ('A' for Active; 'I' for Inactive)
REMARK    1  A    between atoms: O1_3  and  C3_4 
REMARK    2  A    between atoms: C3_4  and  N1_5 
REMARK    3  A    between atoms: C3_4  and  C4_9 
REMARK    4  A    between atoms: C4_9  and  N2_10 
REMARK    5  A    between atoms: C4_9  and  C5_14 
REMARK    6  A    between atoms: C6_15  and  C7_16 
REMARK    7  A    between atoms: C9_18  and  N3_19 
ROOT
HETATM    1  C1  UNL     1      -7.470  63.609   7.325  1.00  0.00     0.044 C 
HETATM    2  C2  UNL     1      -6.735  64.236   8.047  1.00  0.00     0.045 C 
HETATM    3  O1  UNL     1      -5.915  64.965   8.862  1.00  0.00    -0.267 OA
ENDROOT
BRANCH   3   4
HETATM    4  C3  UNL     1      -6.242  66.278   9.241  1.00  0.00     0.377 C 
BRANCH   4   5
HETATM    5  N1  UNL     1      -6.752  67.037   8.112  1.00  0.00    -0.049 N 
ATOM      6  H13 UNL     1      -6.187  67.867   7.932  1.00  0.00     0.277 HD
ATOM      7  H12 UNL     1      -6.597  66.549   7.230  1.00  0.00     0.277 HD
ATOM      8  H11 UNL     1      -7.736  67.273   8.243  1.00  0.00     0.277 HD
ENDBRANCH   4   5
BRANCH   4   9
HETATM    9  C4  UNL     1      -4.995  66.950   9.767  1.00  0.00     0.319 C 
BRANCH   9  10
HETATM   10  N2  UNL     1      -3.868  66.005   9.727  1.00  0.00    -0.060 N 
ATOM     11  H23 UNL     1      -3.006  66.422  10.079  1.00  0.00     0.276 HD
ATOM     12  H22 UNL     1      -3.966  65.261  10.418  1.00  0.00     0.276 HD
ATOM     13  H21 UNL     1      -3.759  65.639   8.781  1.00  0.00     0.276 HD
ENDBRANCH   9  10
BRANCH   9  14
HETATM   14  C5  UNL     1      -5.261  67.350  11.161  1.00  0.00    -0.062 C 
HETATM   15  C6  UNL     1      -5.467  67.664  12.309  1.00  0.00    -0.046 C 
BRANCH  15  16
HETATM   16  C7  UNL     1      -5.690  68.028  13.692  1.00  0.00     0.091 A 
HETATM   17  C8  UNL     1      -6.464  67.249  14.517  1.00  0.00     0.087 A 
HETATM   18  C9  UNL     1      -6.666  67.603  15.815  1.00  0.00     0.102 A 
HETATM   19  N4  UNL     1      -6.088  68.732  16.261  1.00  0.00    -0.339 N 
HETATM   20  C10 UNL     1      -5.327  69.513  15.475  1.00  0.00     0.182 A 
ATOM     21  H4  UNL     1      -6.233  69.007  17.233  1.00  0.00     0.168 HD
HETATM   22  N5  UNL     1      -5.144  69.139  14.200  1.00  0.00    -0.345 N 
ATOM     23  H5  UNL     1      -4.567  69.724  13.594  1.00  0.00     0.167 HD
BRANCH  18  24
HETATM   24  N3  UNL     1      -7.391  66.874  16.588  1.00  0.00    -0.385 N 
ATOM     25  H32 UNL     1      -8.161  67.274  17.123  1.00  0.00     0.157 HD
ATOM     26  H31 UNL     1      -7.207  65.875  16.682  1.00  0.00     0.157 HD
ENDBRANCH  18  24
ENDBRANCH  15  16
ENDBRANCH   9  14
ENDBRANCH   4   9
ENDBRANCH   3   4
TORSDOF 7
ENDMDL
MODEL 4
REMARK VINA RESULT: -6.229543642      1.793      2.654
REMARK  7 active torsions:
REMARK  status: ('A' for Active; 'I' for Inactive)
REMARK    1  A    between atoms: O1_3  and  C3_4 
REMARK    2  A    between atoms: C3_4  and  N1_5 
REMARK    3  A    between atoms: C3_4  and  C4_9 
REMARK    4  A    between atoms: C4_9  and  N2_10 
REMARK    5  A    between atoms: C4_9  and  C5_14 
REMARK    6  A    between atoms: C6_15  and  C7_16 
REMARK    7  A    between atoms: C9_18  and  N3_19 
ROOT
HETATM    1  C1  UNL     1      -7.460  63.606   7.325  1.00  0.00     0.044 C 
HETATM    2  C2  UNL     1      -6.576  63.956   8.067  1.00  0.00     0.045 C 
HETATM    3  O1  UNL     1      -5.573  64.371   8.897  1.00  0.00    -0.267 OA
ENDROOT
BRANCH   3   4
HETATM    4  C3  UNL     1      -5.085  65.687   8.852  1.00  0.00     0.377 C 
BRANCH   4   5
HETATM    5  N1  UNL     1      -3.942  65.853   9.734  1.00  0.00    -0.049 N 
ATOM      6  H13 UNL     1      -3.061  65.756   9.229  1.00  0.00     0.277 HD
ATOM      7  H12 UNL     1      -3.840  66.821  10.040  1.00  0.00     0.277 HD
ATOM      8  H11 UNL     1      -3.994  65.212  10.526  1.00  0.00     0.277 HD
ENDBRANCH   4   5
BRANCH   4   9
HETATM    9  C4  UNL     1      -6.187  66.623   9.289  1.00  0.00     0.319 C 
BRANCH   9  10
HETATM   10  N2  UNL     1      -6.721  67.341   8.121  1.00  0.00    -0.060 N 
ATOM     11  H23 UNL     1      -6.333  68.281   8.038  1.00  0.00     0.276 HD
ATOM     12  H22 UNL     1      -6.370  66.958   7.242  1.00  0.00     0.276 HD
ATOM     13  H21 UNL     1      -7.740  67.348   8.158  1.00  0.00     0.276 HD
ENDBRANCH   9  10
BRANCH   9  14
HETATM   14  C5  UNL     1      -5.600  67.585  10.240  1.00  0.00    -0.062 C 
HETATM   15  C6  UNL     1      -5.138  68.375  11.028  1.00  0.00    -0.046 C 
BRANCH  15  16
HETATM   16  C7  UNL     1      -4.605  69.319  11.988  1.00  0.00     0.091 A 
HETATM   17  C8  UNL     1      -4.838  69.172  13.334  1.00  0.00     0.087 A 
HETATM   18  C9  UNL     1      -4.331  70.066  14.226  1.00  0.00     0.102 A 
HETATM   19  N4  UNL     1      -3.599  71.089  13.751  1.00  0.00    -0.339 N 
HETATM   20  C10 UNL     1      -3.356  71.255  12.440  1.00  0.00     0.182 A 
ATOM     21  H4  UNL     1      -3.214  71.765  14.411  1.00  0.00     0.168 HD
HETATM   22  N5  UNL     1      -3.868  70.359  11.582  1.00  0.00    -0.345 N 
ATOM     23  H5  UNL     1      -3.689  70.475  10.585  1.00  0.00     0.167 HD
BRANCH  18  24
HETATM   24  N3  UNL     1      -4.549  69.930  15.486  1.00  0.00    -0.385 N 
ATOM     25  H32 UNL     1      -4.690  70.740  16.089  1.00  0.00     0.157 HD
ATOM     26  H31 UNL     1      -4.587  69.002  15.910  1.00  0.00     0.157 HD
ENDBRANCH  18  24
ENDBRANCH  15  16
ENDBRANCH   9  14
ENDBRANCH   4   9
ENDBRANCH   3   4
TORSDOF 7
ENDMDL
MODEL 5
REMARK VINA RESULT: -6.221192364      1.820      2.445
REMARK  7 active torsions:
REMARK  status: ('A' for Active; 'I' for Inactive)
REMARK    1  A    between atoms: O1_3  and  C3_4 
REMARK    2  A    between atoms: C3_4  and  N1_5 
REMARK    3  A    between atoms: C3_4  and  C4_9 
REMARK    4  A    between atoms: C4_9  and  N2_10 
REMARK    5  A    between atoms: C4_9  and  C5_14 
REMARK    6  A    between atoms: C6_15  and  C7_16 
REMARK    7  A    between atoms: C9_18  and  N3_19 
ROOT
HETATM    1  C1  UNL     1      -7.415  63.594   7.375  1.00  0.00     0.044 C 
HETATM    2  C2  UNL     1      -6.508  63.925   8.097  1.00  0.00     0.045 C 
HETATM    3  O1  UNL     1      -5.479  64.320   8.905  1.00  0.00    -0.267 OA
ENDROOT
BRANCH   3   4
HETATM    4  C3  UNL     1      -5.030  65.652   8.919  1.00  0.00     0.377 C 
BRANCH   4   5
HETATM    5  N1  UNL     1      -3.921  65.821   9.842  1.00  0.00    -0.049 N 
ATOM      6  H13 UNL     1      -3.071  66.110   9.359  1.00  0.00     0.277 HD
ATOM      7  H12 UNL     1      -4.048  66.640  10.436  1.00  0.00     0.277 HD
ATOM      8  H11 UNL     1      -3.771  64.976  10.394  1.00  0.00     0.277 HD
ENDBRANCH   4   5
BRANCH   4   9
HETATM    9  C4  UNL     1      -6.174  66.539   9.351  1.00  0.00     0.319 C 
BRANCH   9  10
HETATM   10  N2  UNL     1      -6.651  67.326   8.203  1.00  0.00    -0.060 N 
ATOM     11  H23 UNL     1      -7.308  68.055   8.485  1.00  0.00     0.276 HD
ATOM     12  H22 UNL     1      -5.921  67.926   7.818  1.00  0.00     0.276 HD
ATOM     13  H21 UNL     1      -7.048  66.703   7.500  1.00  0.00     0.276 HD
ENDBRANCH   9  10
BRANCH   9  14
HETATM   14  C5  UNL     1      -5.663  67.443  10.398  1.00  0.00    -0.062 C 
HETATM   15  C6  UNL     1      -5.263  68.184  11.262  1.00  0.00    -0.046 C 
BRANCH  15  16
HETATM   16  C7  UNL     1      -4.806  69.069  12.313  1.00  0.00     0.091 A 
HETATM   17  C8  UNL     1      -4.022  70.162  12.032  1.00  0.00     0.087 A 
HETATM   18  C9  UNL     1      -3.599  70.985  13.029  1.00  0.00     0.102 A 
HETATM   19  N4  UNL     1      -3.969  70.698  14.289  1.00  0.00    -0.339 N 
HETATM   20  C10 UNL     1      -4.735  69.635  14.591  1.00  0.00     0.182 A 
ATOM     21  H4  UNL     1      -3.657  71.309  15.044  1.00  0.00     0.168 HD
HETATM   22  N5  UNL     1      -5.138  68.840  13.589  1.00  0.00    -0.345 N 
ATOM     23  H5  UNL     1      -5.721  68.031  13.807  1.00  0.00     0.167 HD
BRANCH  18  24
HETATM   24  N3  UNL     1      -2.865  72.009  12.766  1.00  0.00    -0.385 N 
ATOM     25  H32 UNL     1      -2.451  72.568  13.512  1.00  0.00     0.157 HD
ATOM     26  H31 UNL     1      -2.680  72.282  11.801  1.00  0.00     0.157 HD
ENDBRANCH  18  24
ENDBRANCH  15  16
ENDBRANCH   9  14
ENDBRANCH   4   9
ENDBRANCH   3   4
TORSDOF 7
ENDMDL
