MODEL 1
REMARK VINA RESULT: -6.587682103      0.000      0.000
REMARK  7 active torsions:
REMARK  status: ('A' for Active; 'I' for Inactive)
REMARK    1  A    between atoms: C2_2  and  C3_3 
REMARK    2  A    between atoms: C3_3  and  O1_4 
REMARK    3  A    between atoms: N1_7  and  C5_8 
REMARK    4  A    between atoms: C5_8  and  O2_9 
REMARK    5  A    between atoms: C5_8  and  C6_11 
REMARK    6  A    between atoms: C6_11  and  N2_12 
REMARK    7  A    between atoms: C14_20  and  O3_21 
ROOT
HETATM    1  C3  UNL     1      -5.626   1.522  16.468  1.00  0.00     0.101 C 
HETATM    2  C4  UNL     1      -6.296   2.623  15.627  1.00  0.00     0.165 C 
HETATM    3  N1  UNL     1      -5.304   2.883  14.624  1.00  0.00    -0.356 N 
HETATM    4  C13 UNL     1      -4.003   2.828  15.286  1.00  0.00     0.159 C 
HETATM    5  C14 UNL     1      -4.207   1.938  16.478  1.00  0.00     0.172 C 
ENDROOT
BRANCH   3   6
HETATM    6  C5  UNL     1      -5.448   3.178  13.266  1.00  0.00     0.148 C 
BRANCH   6   7
HETATM    7  O2  UNL     1      -6.014   4.325  13.024  1.00  0.00    -0.345 OA
ATOM      8  H2  UNL     1      -5.512   4.897  12.455  1.00  0.00     0.219 HD
ENDBRANCH   6   7
BRANCH   6   9
HETATM    9  C6  UNL     1      -5.074   2.434  12.081  1.00  0.00     0.116 C 
BRANCH   9  10
HETATM   10  N2  UNL     1      -3.954   1.595  12.053  1.00  0.00    -0.284 NA
HETATM   11  C7  UNL     1      -4.135   0.260  12.621  1.00  0.00     0.100 C 
HETATM   12  C8  UNL     1      -3.943  -0.705  11.452  1.00  0.00     0.001 C 
HETATM   13  C9  UNL     1      -2.461  -0.746  11.176  1.00  0.00     0.007 C 
HETATM   14  C12 UNL     1      -4.406   0.177  10.310  1.00  0.00     0.025 C 
HETATM   15  C10 UNL     1      -2.183   0.695  10.758  1.00  0.00     0.020 C 
HETATM   16  C11 UNL     1      -3.530   1.382  10.699  1.00  0.00     0.063 C 
ENDBRANCH   9  10
ENDBRANCH   6   9
ENDBRANCH   3   6
BRANCH   1  17
HETATM   17  C2  UNL     1      -6.276   1.322  17.790  1.00  0.00     0.037 C 
HETATM   18  C1  UNL     1      -6.388   2.531  18.652  1.00  0.00     0.008 C 
ENDBRANCH   1  17
BRANCH   1  19
HETATM   19  O1  UNL     1      -5.772   0.343  15.702  1.00  0.00    -0.385 OA
ATOM     20  H1  UNL     1      -4.910   0.003  15.490  1.00  0.00     0.210 HD
ENDBRANCH   1  19
BRANCH   5  21
HETATM   21  O3  UNL     1      -3.318   0.851  16.380  1.00  0.00    -0.391 OA
ATOM     22  H3  UNL     1      -3.483   0.308  15.618  1.00  0.00     0.210 HD
ENDBRANCH   5  21
TORSDOF 7
ENDMDL
MODEL 2
REMARK VINA RESULT: -6.517119788      3.469      6.093
REMARK  7 active torsions:
REMARK  status: ('A' for Active; 'I' for Inactive)
REMARK    1  A    between atoms: C2_2  and  C3_3 
REMARK    2  A    between atoms: C3_3  and  O1_4 
REMARK    3  A    between atoms: N1_7  and  C5_8 
REMARK    4  A    between atoms: C5_8  and  O2_9 
REMARK    5  A    between atoms: C5_8  and  C6_11 
REMARK    6  A    between atoms: C6_11  and  N2_12 
REMARK    7  A    between atoms: C14_20  and  O3_21 
ROOT
HETATM    1  C3  UNL     1      -4.395   1.400  11.753  1.00  0.00     0.101 C 
HETATM    2  C4  UNL     1      -4.634   1.925  13.180  1.00  0.00     0.165 C 
HETATM    3  N1  UNL     1      -4.539   3.345  13.000  1.00  0.00    -0.356 N 
HETATM    4  C13 UNL     1      -3.454   3.582  12.051  1.00  0.00     0.159 C 
HETATM    5  C14 UNL     1      -3.364   2.325  11.235  1.00  0.00     0.172 C 
ENDROOT
BRANCH   3   6
HETATM    6  C5  UNL     1      -5.264   4.381  13.592  1.00  0.00     0.148 C 
BRANCH   6   7
HETATM    7  O2  UNL     1      -5.870   4.050  14.695  1.00  0.00    -0.345 OA
ATOM      8  H2  UNL     1      -6.243   4.782  15.172  1.00  0.00     0.219 HD
ENDBRANCH   6   7
BRANCH   6   9
HETATM    9  C6  UNL     1      -5.458   5.760  13.194  1.00  0.00     0.116 C 
BRANCH   9  10
HETATM   10  N2  UNL     1      -6.223   6.111  12.075  1.00  0.00    -0.284 NA
HETATM   11  C7  UNL     1      -7.231   7.149  12.284  1.00  0.00     0.100 C 
HETATM   12  C8  UNL     1      -6.792   8.319  11.406  1.00  0.00     0.001 C 
HETATM   13  C9  UNL     1      -7.120   7.930   9.986  1.00  0.00     0.007 C 
HETATM   14  C12 UNL     1      -5.293   8.096  11.407  1.00  0.00     0.025 C 
HETATM   15  C10 UNL     1      -6.221   6.714   9.782  1.00  0.00     0.020 C 
HETATM   16  C11 UNL     1      -5.372   6.606  11.031  1.00  0.00     0.063 C 
ENDBRANCH   9  10
ENDBRANCH   6   9
ENDBRANCH   3   6
BRANCH   1  17
HETATM   17  C2  UNL     1      -4.074  -0.052  11.713  1.00  0.00     0.037 C 
HETATM   18  C1  UNL     1      -2.841  -0.428  10.967  1.00  0.00     0.008 C 
ENDBRANCH   1  17
BRANCH   1  19
HETATM   19  O1  UNL     1      -5.616   1.619  11.078  1.00  0.00    -0.385 OA
ATOM     20  H1  UNL     1      -5.434   1.998  10.226  1.00  0.00     0.210 HD
ENDBRANCH   1  19
BRANCH   5  21
HETATM   21  O3  UNL     1      -3.559   2.657   9.881  1.00  0.00    -0.391 OA
ATOM     22  H3  UNL     1      -3.570   3.595   9.730  1.00  0.00     0.210 HD
ENDBRANCH   5  21
TORSDOF 7
ENDMDL
MODEL 3
REMARK VINA RESULT: -6.361540338      2.484      3.615
REMARK  7 active torsions:
REMARK  status: ('A' for Active; 'I' for Inactive)
REMARK    1  A    between atoms: C2_2  and  C3_3 
REMARK    2  A    between atoms: C3_3  and  O1_4 
REMARK    3  A    between atoms: N1_7  and  C5_8 
REMARK    4  A    between atoms: C5_8  and  O2_9 
REMARK    5  A    between atoms: C5_8  and  C6_11 
REMARK    6  A    between atoms: C6_11  and  N2_12 
REMARK    7  A    between atoms: C14_20  and  O3_21 
ROOT
HETATM    1  C3  UNL     1      -5.662   4.827  13.388  1.00  0.00     0.101 C 
HETATM    2  C4  UNL     1      -4.403   5.187  12.579  1.00  0.00     0.165 C 
HETATM    3  N1  UNL     1      -3.420   4.307  13.141  1.00  0.00    -0.356 N 
HETATM    4  C13 UNL     1      -3.664   4.259  14.581  1.00  0.00     0.159 C 
HETATM    5  C14 UNL     1      -5.120   4.587  14.744  1.00  0.00     0.172 C 
ENDROOT
BRANCH   3   6
HETATM    6  C5  UNL     1      -2.373   3.614  12.530  1.00  0.00     0.148 C 
BRANCH   6   7
HETATM    7  O2  UNL     1      -1.188   3.964  12.939  1.00  0.00    -0.345 OA
ATOM      8  H2  UNL     1      -1.175   4.744  13.480  1.00  0.00     0.219 HD
ENDBRANCH   6   7
BRANCH   6   9
HETATM    9  C6  UNL     1      -2.375   2.572  11.524  1.00  0.00     0.116 C 
BRANCH   9  10
HETATM   10  N2  UNL     1      -2.572   1.225  11.849  1.00  0.00    -0.284 NA
HETATM   11  C7  UNL     1      -3.888   0.878  12.383  1.00  0.00     0.100 C 
HETATM   12  C8  UNL     1      -4.505  -0.066  11.351  1.00  0.00     0.001 C 
HETATM   13  C9  UNL     1      -3.806  -1.392  11.520  1.00  0.00     0.007 C 
HETATM   14  C12 UNL     1      -3.824   0.441  10.097  1.00  0.00     0.025 C 
HETATM   15  C10 UNL     1      -2.368  -1.033  11.155  1.00  0.00     0.020 C 
HETATM   16  C11 UNL     1      -2.401   0.405  10.684  1.00  0.00     0.063 C 
ENDBRANCH   9  10
ENDBRANCH   6   9
ENDBRANCH   3   6
BRANCH   1  17
HETATM   17  C2  UNL     1      -6.742   5.841  13.267  1.00  0.00     0.037 C 
HETATM   18  C1  UNL     1      -6.542   6.887  12.225  1.00  0.00     0.008 C 
ENDBRANCH   1  17
BRANCH   1  19
HETATM   19  O1  UNL     1      -6.113   3.608  12.832  1.00  0.00    -0.385 OA
ATOM     20  H1  UNL     1      -6.727   3.203  13.433  1.00  0.00     0.210 HD
ENDBRANCH   1  19
BRANCH   5  21
HETATM   21  O3  UNL     1      -5.748   3.513  15.401  1.00  0.00    -0.391 OA
ATOM     22  H3  UNL     1      -5.136   2.843  15.679  1.00  0.00     0.210 HD
ENDBRANCH   5  21
TORSDOF 7
ENDMDL
MODEL 4
REMARK VINA RESULT: -6.356280627      2.647      5.793
REMARK  7 active torsions:
REMARK  status: ('A' for Active; 'I' for Inactive)
REMARK    1  A    between atoms: C2_2  and  C3_3 
REMARK    2  A    between atoms: C3_3  and  O1_4 
REMARK    3  A    between atoms: N1_7  and  C5_8 
REMARK    4  A    between atoms: C5_8  and  O2_9 
REMARK    5  A    between atoms: C5_8  and  C6_11 
REMARK    6  A    between atoms: C6_11  and  N2_12 
REMARK    7  A    between atoms: C14_20  and  O3_21 
ROOT
HETATM    1  C3  UNL     1      -3.894  -0.450  11.179  1.00  0.00     0.101 C 
HETATM    2  C4  UNL     1      -4.094   0.703  12.179  1.00  0.00     0.165 C 
HETATM    3  N1  UNL     1      -3.549   1.821  11.464  1.00  0.00    -0.356 N 
HETATM    4  C13 UNL     1      -2.358   1.341  10.766  1.00  0.00     0.159 C 
HETATM    5  C14 UNL     1      -2.583  -0.131  10.572  1.00  0.00     0.172 C 
ENDROOT
BRANCH   3   6
HETATM    6  C5  UNL     1      -3.971   3.151  11.409  1.00  0.00     0.148 C 
BRANCH   6   7
HETATM    7  O2  UNL     1      -4.553   3.483  10.293  1.00  0.00    -0.345 OA
ATOM      8  H2  UNL     1      -5.131   2.817   9.939  1.00  0.00     0.219 HD
ENDBRANCH   6   7
BRANCH   6   9
HETATM    9  C6  UNL     1      -3.877   4.225  12.376  1.00  0.00     0.116 C 
BRANCH   9  10
HETATM   10  N2  UNL     1      -4.328   4.079  13.694  1.00  0.00    -0.284 NA
HETATM   11  C7  UNL     1      -4.329   5.292  14.510  1.00  0.00     0.100 C 
HETATM   12  C8  UNL     1      -5.797   5.555  14.840  1.00  0.00     0.001 C 
HETATM   13  C9  UNL     1      -6.183   4.542  15.889  1.00  0.00     0.007 C 
HETATM   14  C12 UNL     1      -6.450   4.941  13.619  1.00  0.00     0.025 C 
HETATM   15  C10 UNL     1      -6.011   3.229  15.132  1.00  0.00     0.020 C 
HETATM   16  C11 UNL     1      -5.683   3.609  13.704  1.00  0.00     0.063 C 
ENDBRANCH   9  10
ENDBRANCH   6   9
ENDBRANCH   3   6
BRANCH   1  17
HETATM   17  C2  UNL     1      -4.035  -1.792  11.803  1.00  0.00     0.037 C 
HETATM   18  C1  UNL     1      -3.008  -2.801  11.422  1.00  0.00     0.008 C 
ENDBRANCH   1  17
BRANCH   1  19
HETATM   19  O1  UNL     1      -4.919  -0.279  10.221  1.00  0.00    -0.385 OA
ATOM     20  H1  UNL     1      -4.608   0.304   9.539  1.00  0.00     0.210 HD
ENDBRANCH   1  19
BRANCH   5  21
HETATM   21  O3  UNL     1      -2.538  -0.411   9.194  1.00  0.00    -0.391 OA
ATOM     22  H3  UNL     1      -1.657  -0.578   8.881  1.00  0.00     0.210 HD
ENDBRANCH   5  21
TORSDOF 7
ENDMDL
MODEL 5
REMARK VINA RESULT: -6.327887574      1.887      5.812
REMARK  7 active torsions:
REMARK  status: ('A' for Active; 'I' for Inactive)
REMARK    1  A    between atoms: C2_2  and  C3_3 
REMARK    2  A    between atoms: C3_3  and  O1_4 
REMARK    3  A    between atoms: N1_7  and  C5_8 
REMARK    4  A    between atoms: C5_8  and  O2_9 
REMARK    5  A    between atoms: C5_8  and  C6_11 
REMARK    6  A    between atoms: C6_11  and  N2_12 
REMARK    7  A    between atoms: C14_20  and  O3_21 
ROOT
HETATM    1  C3  UNL     1      -4.298   1.397  11.111  1.00  0.00     0.101 C 
HETATM    2  C4  UNL     1      -3.900   1.259  12.592  1.00  0.00     0.165 C 
HETATM    3  N1  UNL     1      -3.696   2.625  12.979  1.00  0.00    -0.356 N 
HETATM    4  C13 UNL     1      -3.038   3.292  11.858  1.00  0.00     0.159 C 
HETATM    5  C14 UNL     1      -3.433   2.503  10.644  1.00  0.00     0.172 C 
ENDROOT
BRANCH   3   6
HETATM    6  C5  UNL     1      -3.996   3.279  14.176  1.00  0.00     0.148 C 
BRANCH   6   7
HETATM    7  O2  UNL     1      -3.010   3.971  14.670  1.00  0.00    -0.345 OA
ATOM      8  H2  UNL     1      -2.809   3.772  15.577  1.00  0.00     0.219 HD
ENDBRANCH   6   7
BRANCH   6   9
HETATM    9  C6  UNL     1      -5.211   3.324  14.963  1.00  0.00     0.116 C 
BRANCH   9  10
HETATM   10  N2  UNL     1      -5.828   2.164  15.444  1.00  0.00    -0.284 NA
HETATM   11  C7  UNL     1      -4.943   1.166  16.043  1.00  0.00     0.100 C 
HETATM   12  C8  UNL     1      -5.361   1.085  17.510  1.00  0.00     0.001 C 
HETATM   13  C9  UNL     1      -6.661   0.321  17.539  1.00  0.00     0.007 C 
HETATM   14  C12 UNL     1      -5.873   2.497  17.711  1.00  0.00     0.025 C 
HETATM   15  C10 UNL     1      -7.582   1.246  16.750  1.00  0.00     0.020 C 
HETATM   16  C11 UNL     1      -6.778   2.497  16.467  1.00  0.00     0.063 C 
ENDBRANCH   9  10
ENDBRANCH   6   9
ENDBRANCH   3   6
BRANCH   1  17
HETATM   17  C2  UNL     1      -4.211   0.115  10.363  1.00  0.00     0.037 C 
HETATM   18  C1  UNL     1      -3.364  -0.944  10.979  1.00  0.00     0.008 C 
ENDBRANCH   1  17
BRANCH   1  19
HETATM   19  O1  UNL     1      -5.645   1.823  11.138  1.00  0.00    -0.385 OA
ATOM     20  H1  UNL     1      -5.669   2.773  11.129  1.00  0.00     0.210 HD
ENDBRANCH   1  19
BRANCH   5  21
HETATM   21  O3  UNL     1      -4.088   3.366   9.746  1.00  0.00    -0.391 OA
ATOM     22  H3  UNL     1      -3.996   3.093   8.840  1.00  0.00     0.210 HD
ENDBRANCH   5  21
TORSDOF 7
ENDMDL
