MODEL 1
REMARK VINA RESULT: -5.937411654      0.000      0.000
REMARK  4 active torsions:
REMARK  status: ('A' for Active; 'I' for Inactive)
REMARK    1  A    between atoms: N1_2  and  C3_4 
REMARK    2  A    between atoms: C3_4  and  C4_5 
REMARK    3  A    between atoms: C5_6  and  C6_7 
REMARK    4  A    between atoms: C6_7  and  O1_8 
ROOT
HETATM    1  C4  UNL     1      -3.889   3.181  12.351  1.00  0.00     0.072 C 
HETATM    2  C5  UNL     1      -4.629   3.651  13.532  1.00  0.00     0.037 C 
HETATM    3  C7  UNL     1      -3.994   3.255  14.876  1.00  0.00     0.134 C 
HETATM    4  N2  UNL     1      -4.582   1.963  15.141  1.00  0.00    -0.338 N 
HETATM    5  C8  UNL     1      -5.379   1.888  16.334  1.00  0.00     0.154 C 
HETATM    6  C9  UNL     1      -4.475   0.784  14.380  1.00  0.00     0.321 C 
HETATM    7  O2  UNL     1      -4.731  -0.321  14.931  1.00  0.00    -0.247 OA
HETATM    8  N3  UNL     1      -4.085   0.768  12.989  1.00  0.00    -0.305 N 
HETATM    9  C10 UNL     1      -3.852  -0.629  12.587  1.00  0.00     0.131 C 
HETATM   10  C11 UNL     1      -3.718  -0.747  11.108  1.00  0.00     0.047 C 
HETATM   11  C12 UNL     1      -4.598   0.163  10.323  1.00  0.00     0.236 C 
HETATM   12  N4  UNL     1      -4.856   1.439  10.923  1.00  0.00    -0.053 N 
ATOM     13  H41 UNL     1      -5.818   1.502  11.256  1.00  0.00     0.279 HD
ATOM     14  H42 UNL     1      -4.880   2.178  10.220  1.00  0.00     0.279 HD
HETATM   15  C13 UNL     1      -3.897   1.755  11.998  1.00  0.00     0.296 C 
ENDROOT
BRANCH   1  16
HETATM   16  C3  UNL     1      -4.444   3.925  11.132  1.00  0.00     0.280 C 
BRANCH  16  17
HETATM   17  N1  UNL     1      -3.391   4.340  10.218  1.00  0.00     0.080 N 
HETATM   18  C1  UNL     1      -2.246   4.722  10.973  1.00  0.00     0.309 C 
HETATM   19  C2  UNL     1      -3.948   5.494   9.509  1.00  0.00     0.309 C 
ENDBRANCH  16  17
ENDBRANCH   1  16
BRANCH   2  20
HETATM   20  C6  UNL     1      -4.688   5.159  13.571  1.00  0.00     0.170 C 
BRANCH  20  21
HETATM   21  O1  UNL     1      -4.072   5.633  14.769  1.00  0.00    -0.400 OA
ATOM     22  H1  UNL     1      -4.241   6.562  14.869  1.00  0.00     0.209 HD
ENDBRANCH  20  21
ENDBRANCH   2  20
TORSDOF 4
ENDMDL
MODEL 2
REMARK VINA RESULT: -5.716922964      1.858      4.450
REMARK  4 active torsions:
REMARK  status: ('A' for Active; 'I' for Inactive)
REMARK    1  A    between atoms: N1_2  and  C3_4 
REMARK    2  A    between atoms: C3_4  and  C4_5 
REMARK    3  A    between atoms: C5_6  and  C6_7 
REMARK    4  A    between atoms: C6_7  and  O1_8 
ROOT
HETATM    1  C4  UNL     1      -5.066   3.192  13.679  1.00  0.00     0.072 C 
HETATM    2  C5  UNL     1      -4.414   4.504  13.555  1.00  0.00     0.037 C 
HETATM    3  C7  UNL     1      -4.944   5.369  12.399  1.00  0.00     0.134 C 
HETATM    4  N2  UNL     1      -4.118   4.960  11.287  1.00  0.00    -0.338 N 
HETATM    5  C8  UNL     1      -3.305   5.998  10.717  1.00  0.00     0.154 C 
HETATM    6  C9  UNL     1      -4.009   3.683  10.704  1.00  0.00     0.321 C 
HETATM    7  O2  UNL     1      -3.541   3.584   9.538  1.00  0.00    -0.247 OA
HETATM    8  N3  UNL     1      -4.407   2.467  11.375  1.00  0.00    -0.305 N 
HETATM    9  C10 UNL     1      -4.375   1.365  10.399  1.00  0.00     0.131 C 
HETATM   10  C11 UNL     1      -4.504   0.044  11.076  1.00  0.00     0.047 C 
HETATM   11  C12 UNL     1      -3.824  -0.053  12.396  1.00  0.00     0.236 C 
HETATM   12  N4  UNL     1      -3.804   1.152  13.171  1.00  0.00    -0.053 N 
ATOM     13  H41 UNL     1      -2.868   1.555  13.204  1.00  0.00     0.279 HD
ATOM     14  H42 UNL     1      -3.931   0.955  14.163  1.00  0.00     0.279 HD
HETATM   15  C13 UNL     1      -4.792   2.138  12.693  1.00  0.00     0.296 C 
ENDROOT
BRANCH   1  16
HETATM   16  C3  UNL     1      -4.678   2.610  15.043  1.00  0.00     0.280 C 
BRANCH  16  17
HETATM   17  N1  UNL     1      -5.756   1.827  15.630  1.00  0.00     0.080 N 
HETATM   18  C1  UNL     1      -6.562   2.680  16.436  1.00  0.00     0.309 C 
HETATM   19  C2  UNL     1      -5.079   0.826  16.457  1.00  0.00     0.309 C 
ENDBRANCH  16  17
ENDBRANCH   1  16
BRANCH   2  20
HETATM   20  C6  UNL     1      -4.642   5.343  14.790  1.00  0.00     0.170 C 
BRANCH  20  21
HETATM   21  O1  UNL     1      -6.009   5.750  14.849  1.00  0.00    -0.400 OA
ATOM     22  H1  UNL     1      -6.558   5.084  14.452  1.00  0.00     0.209 HD
ENDBRANCH  20  21
ENDBRANCH   2  20
TORSDOF 4
ENDMDL
MODEL 3
REMARK VINA RESULT: -5.640698521      2.137      3.792
REMARK  4 active torsions:
REMARK  status: ('A' for Active; 'I' for Inactive)
REMARK    1  A    between atoms: N1_2  and  C3_4 
REMARK    2  A    between atoms: C3_4  and  C4_5 
REMARK    3  A    between atoms: C5_6  and  C6_7 
REMARK    4  A    between atoms: C6_7  and  O1_8 
ROOT
HETATM    1  C4  UNL     1      -3.461   3.065  12.359  1.00  0.00     0.072 C 
HETATM    2  C5  UNL     1      -4.389   4.018  11.733  1.00  0.00     0.037 C 
HETATM    3  C7  UNL     1      -4.514   5.360  12.473  1.00  0.00     0.134 C 
HETATM    4  N2  UNL     1      -5.570   5.105  13.425  1.00  0.00    -0.338 N 
HETATM    5  C8  UNL     1      -6.742   5.921  13.270  1.00  0.00     0.154 C 
HETATM    6  C9  UNL     1      -5.593   4.163  14.470  1.00  0.00     0.321 C 
HETATM    7  O2  UNL     1      -6.412   4.321  15.415  1.00  0.00    -0.247 OA
HETATM    8  N3  UNL     1      -4.721   3.012  14.522  1.00  0.00    -0.305 N 
HETATM    9  C10 UNL     1      -4.853   2.386  15.848  1.00  0.00     0.131 C 
HETATM   10  C11 UNL     1      -4.200   1.048  15.878  1.00  0.00     0.047 C 
HETATM   11  C12 UNL     1      -4.324   0.261  14.621  1.00  0.00     0.236 C 
HETATM   12  N4  UNL     1      -4.333   1.029  13.410  1.00  0.00    -0.053 N 
ATOM     13  H41 UNL     1      -5.261   1.037  12.986  1.00  0.00     0.279 HD
ATOM     14  H42 UNL     1      -3.820   0.554  12.669  1.00  0.00     0.279 HD
HETATM   15  C13 UNL     1      -3.827   2.400  13.616  1.00  0.00     0.296 C 
ENDROOT
BRANCH   1  16
HETATM   16  C3  UNL     1      -3.196   1.945  11.346  1.00  0.00     0.280 C 
BRANCH  16  17
HETATM   17  N1  UNL     1      -1.823   1.467  11.407  1.00  0.00     0.080 N 
HETATM   18  C1  UNL     1      -0.978   2.397  10.739  1.00  0.00     0.309 C 
HETATM   19  C2  UNL     1      -1.844   0.187  10.695  1.00  0.00     0.309 C 
ENDBRANCH  16  17
ENDBRANCH   1  16
BRANCH   2  20
HETATM   20  C6  UNL     1      -3.928   4.393  10.344  1.00  0.00     0.170 C 
BRANCH  20  21
HETATM   21  O1  UNL     1      -4.983   5.060   9.652  1.00  0.00    -0.400 OA
ATOM     22  H1  UNL     1      -5.642   5.346  10.272  1.00  0.00     0.209 HD
ENDBRANCH  20  21
ENDBRANCH   2  20
TORSDOF 4
ENDMDL
MODEL 4
REMARK VINA RESULT: -5.549287696      2.229      4.136
REMARK  4 active torsions:
REMARK  status: ('A' for Active; 'I' for Inactive)
REMARK    1  A    between atoms: N1_2  and  C3_4 
REMARK    2  A    between atoms: C3_4  and  C4_5 
REMARK    3  A    between atoms: C5_6  and  C6_7 
REMARK    4  A    between atoms: C6_7  and  O1_8 
ROOT
HETATM    1  C4  UNL     1      -3.820   3.615  12.957  1.00  0.00     0.072 C 
HETATM    2  C5  UNL     1      -2.577   4.376  13.145  1.00  0.00     0.037 C 
HETATM    3  C7  UNL     1      -2.005   4.986  11.853  1.00  0.00     0.134 C 
HETATM    4  N2  UNL     1      -1.167   3.926  11.342  1.00  0.00    -0.338 N 
HETATM    5  C8  UNL     1       0.229   4.249  11.239  1.00  0.00     0.154 C 
HETATM    6  C9  UNL     1      -1.545   2.631  10.941  1.00  0.00     0.321 C 
HETATM    7  O2  UNL     1      -0.774   1.977  10.188  1.00  0.00    -0.247 OA
HETATM    8  N3  UNL     1      -2.780   2.002  11.349  1.00  0.00    -0.305 N 
HETATM    9  C10 UNL     1      -2.955   0.768  10.567  1.00  0.00     0.131 C 
HETATM   10  C11 UNL     1      -4.054  -0.070  11.122  1.00  0.00     0.047 C 
HETATM   11  C12 UNL     1      -4.164  -0.057  12.607  1.00  0.00     0.236 C 
HETATM   12  N4  UNL     1      -3.812   1.180  13.240  1.00  0.00    -0.053 N 
ATOM     13  H41 UNL     1      -2.926   1.099  13.739  1.00  0.00     0.279 HD
ATOM     14  H42 UNL     1      -4.425   1.377  14.031  1.00  0.00     0.279 HD
HETATM   15  C13 UNL     1      -3.789   2.307  12.289  1.00  0.00     0.296 C 
ENDROOT
BRANCH   1  16
HETATM   16  C3  UNL     1      -4.426   3.371  14.343  1.00  0.00     0.280 C 
BRANCH  16  17
HETATM   17  N1  UNL     1      -5.881   3.417  14.321  1.00  0.00     0.080 N 
HETATM   18  C1  UNL     1      -6.297   4.744  14.016  1.00  0.00     0.309 C 
HETATM   19  C2  UNL     1      -6.285   3.049  15.679  1.00  0.00     0.309 C 
ENDBRANCH  16  17
ENDBRANCH   1  16
BRANCH   2  20
HETATM   20  C6  UNL     1      -2.796   5.560  14.057  1.00  0.00     0.170 C 
BRANCH  20  21
HETATM   21  O1  UNL     1      -3.252   6.676  13.292  1.00  0.00    -0.400 OA
ATOM     22  H1  UNL     1      -4.118   6.931  13.584  1.00  0.00     0.209 HD
ENDBRANCH  20  21
ENDBRANCH   2  20
TORSDOF 4
ENDMDL
MODEL 5
REMARK VINA RESULT: -5.394239604      2.602      4.407
REMARK  4 active torsions:
REMARK  status: ('A' for Active; 'I' for Inactive)
REMARK    1  A    between atoms: N1_2  and  C3_4 
REMARK    2  A    between atoms: C3_4  and  C4_5 
REMARK    3  A    between atoms: C5_6  and  C6_7 
REMARK    4  A    between atoms: C6_7  and  O1_8 
ROOT
HETATM    1  C4  UNL     1      -2.114   3.571  11.454  1.00  0.00     0.072 C 
HETATM    2  C5  UNL     1      -1.457   2.344  10.981  1.00  0.00     0.037 C 
HETATM    3  C7  UNL     1      -2.376   1.398  10.189  1.00  0.00     0.134 C 
HETATM    4  N2  UNL     1      -2.955   0.573  11.224  1.00  0.00    -0.338 N 
HETATM    5  C8  UNL     1      -2.655  -0.828  11.127  1.00  0.00     0.154 C 
HETATM    6  C9  UNL     1      -3.765   0.971  12.304  1.00  0.00     0.321 C 
HETATM    7  O2  UNL     1      -4.476   0.105  12.883  1.00  0.00    -0.247 OA
HETATM    8  N3  UNL     1      -3.826   2.329  12.794  1.00  0.00    -0.305 N 
HETATM    9  C10 UNL     1      -4.931   2.425  13.761  1.00  0.00     0.131 C 
HETATM   10  C11 UNL     1      -4.881   3.713  14.508  1.00  0.00     0.047 C 
HETATM   11  C12 UNL     1      -3.511   4.200  14.827  1.00  0.00     0.236 C 
HETATM   12  N4  UNL     1      -2.505   3.894  13.853  1.00  0.00    -0.053 N 
ATOM     13  H41 UNL     1      -1.863   3.180  14.198  1.00  0.00     0.279 HD
ATOM     14  H42 UNL     1      -1.847   4.666  13.748  1.00  0.00     0.279 HD
HETATM   15  C13 UNL     1      -3.087   3.507  12.554  1.00  0.00     0.296 C 
ENDROOT
BRANCH   1  16
HETATM   16  C3  UNL     1      -1.015   4.536  11.913  1.00  0.00     0.280 C 
BRANCH  16  17
HETATM   17  N1  UNL     1      -1.240   5.890  11.430  1.00  0.00     0.080 N 
HETATM   18  C1  UNL     1      -0.305   6.174  10.395  1.00  0.00     0.309 C 
HETATM   19  C2  UNL     1      -0.995   6.745  12.594  1.00  0.00     0.309 C 
ENDBRANCH  16  17
ENDBRANCH   1  16
BRANCH   2  20
HETATM   20  C6  UNL     1      -0.331   2.665  10.026  1.00  0.00     0.170 C 
BRANCH  20  21
HETATM   21  O1  UNL     1      -0.869   3.019   8.752  1.00  0.00    -0.400 OA
ATOM     22  H1  UNL     1      -0.181   2.996   8.098  1.00  0.00     0.209 HD
ENDBRANCH  20  21
ENDBRANCH   2  20
TORSDOF 4
ENDMDL
