MODEL 1
REMARK VINA RESULT: -7.737982156      0.000      0.000
REMARK  8 active torsions:
REMARK  status: ('A' for Active; 'I' for Inactive)
REMARK    1  A    between atoms: C9_10  and  C10_11 
REMARK    2  A    between atoms: C10_11  and  C11_12 
REMARK    3  A    between atoms: C11_12  and  N1_13 
REMARK    4  A    between atoms: N1_13  and  C12_16 
REMARK    5  A    between atoms: C12_16  and  C13_17 
REMARK    6  A    between atoms: C13_17  and  C14_18 
REMARK    7  A    between atoms: C14_18  and  N2_19 
REMARK    8  A    between atoms: C20_26  and  O2_27 
ROOT
HETATM    1  C1  UNL     1      -2.298   9.415  80.538  1.00  0.00     0.020 C 
HETATM    2  C2  UNL     1      -2.665   8.574  79.641  1.00  0.00    -0.051 C 
HETATM    3  C3  UNL     1      -3.490   7.349  79.997  1.00  0.00     0.076 C 
HETATM    4  C4  UNL     1      -4.565   7.142  78.966  1.00  0.00     0.064 C 
HETATM    5  C5  UNL     1      -4.437   5.739  78.421  1.00  0.00     0.046 C 
HETATM    6  C6  UNL     1      -5.909   7.322  79.683  1.00  0.00     0.046 C 
HETATM    7  O1  UNL     1      -4.493   8.034  77.869  1.00  0.00    -0.340 OA
HETATM    8  C7  UNL     1      -3.303   8.466  77.314  1.00  0.00     0.081 A 
HETATM    9  C8  UNL     1      -3.041   8.622  75.983  1.00  0.00     0.047 A 
HETATM   10  C9  UNL     1      -1.801   9.066  75.595  1.00  0.00    -0.020 A 
HETATM   11  C20 UNL     1      -0.817   9.353  76.540  1.00  0.00     0.079 A 
HETATM   12  C21 UNL     1      -1.051   9.203  77.916  1.00  0.00    -0.015 A 
HETATM   13  C22 UNL     1      -0.022   9.451  78.940  1.00  0.00     0.052 C 
HETATM   14  C23 UNL     1      -2.306   8.761  78.248  1.00  0.00     0.012 A 
ENDROOT
BRANCH  10  15
HETATM   15  C10 UNL     1      -1.451   9.274  74.144  1.00  0.00     0.069 C 
BRANCH  15  16
HETATM   16  C11 UNL     1      -0.711   8.049  73.643  1.00  0.00     0.237 C 
BRANCH  16  17
HETATM   17  N1  UNL     1       0.709   8.349  73.421  1.00  0.00    -0.075 N 
ATOM     18  H12 UNL     1       1.007   9.173  73.943  1.00  0.00     0.277 HD
ATOM     19  H11 UNL     1       1.315   7.659  73.865  1.00  0.00     0.277 HD
BRANCH  17  20
HETATM   20  C12 UNL     1       0.992   8.478  72.019  1.00  0.00     0.234 C 
BRANCH  20  21
HETATM   21  C13 UNL     1       1.326   9.886  71.665  1.00  0.00     0.057 C 
BRANCH  21  22
HETATM   22  C14 UNL     1       0.182  10.564  70.990  1.00  0.00     0.274 C 
BRANCH  22  23
HETATM   23  N2  UNL     1       0.033  11.945  71.355  1.00  0.00     0.091 N 
HETATM   24  C15 UNL     1       1.261  12.615  71.669  1.00  0.00     0.302 C 
HETATM   25  C16 UNL     1       0.954  14.085  71.868  1.00  0.00     0.302 C 
HETATM   26  N3  UNL     1      -0.173  14.330  72.710  1.00  0.00     0.087 N 
HETATM   27  C17 UNL     1       0.129  14.321  74.107  1.00  0.00     0.310 C 
HETATM   28  C18 UNL     1      -1.341  13.562  72.414  1.00  0.00     0.302 C 
HETATM   29  C19 UNL     1      -0.949  12.087  72.385  1.00  0.00     0.302 C 
ENDBRANCH  22  23
ENDBRANCH  21  22
ENDBRANCH  20  21
ENDBRANCH  17  20
ENDBRANCH  16  17
ENDBRANCH  15  16
ENDBRANCH  10  15
BRANCH  11  30
HETATM   30  O2  UNL     1       0.417   9.797  76.104  1.00  0.00    -0.360 OA
ATOM     31  H2  UNL     1       1.020   9.173  75.717  1.00  0.00     0.217 HD
ENDBRANCH  11  30
TORSDOF 8
ENDMDL
MODEL 2
REMARK VINA RESULT: -7.682255618      3.130      8.391
REMARK  8 active torsions:
REMARK  status: ('A' for Active; 'I' for Inactive)
REMARK    1  A    between atoms: C9_10  and  C10_11 
REMARK    2  A    between atoms: C10_11  and  C11_12 
REMARK    3  A    between atoms: C11_12  and  N1_13 
REMARK    4  A    between atoms: N1_13  and  C12_16 
REMARK    5  A    between atoms: C12_16  and  C13_17 
REMARK    6  A    between atoms: C13_17  and  C14_18 
REMARK    7  A    between atoms: C14_18  and  N2_19 
REMARK    8  A    between atoms: C20_26  and  O2_27 
ROOT
HETATM    1  C1  UNL     1       0.777  10.152  70.366  1.00  0.00     0.020 C 
HETATM    2  C2  UNL     1       0.495  10.631  71.522  1.00  0.00    -0.051 C 
HETATM    3  C3  UNL     1       0.929  12.030  71.925  1.00  0.00     0.076 C 
HETATM    4  C4  UNL     1      -0.189  12.720  72.657  1.00  0.00     0.064 C 
HETATM    5  C5  UNL     1       0.336  13.185  73.995  1.00  0.00     0.046 C 
HETATM    6  C6  UNL     1      -0.612  13.916  71.796  1.00  0.00     0.046 C 
HETATM    7  O1  UNL     1      -1.313  11.895  72.904  1.00  0.00    -0.340 OA
HETATM    8  C7  UNL     1      -1.221  10.553  73.221  1.00  0.00     0.081 A 
HETATM    9  C8  UNL     1      -1.969   9.888  74.150  1.00  0.00     0.047 A 
HETATM   10  C9  UNL     1      -1.753   8.547  74.344  1.00  0.00    -0.020 A 
HETATM   11  C20 UNL     1      -0.784   7.865  73.609  1.00  0.00     0.079 A 
HETATM   12  C21 UNL     1       0.006   8.517  72.648  1.00  0.00    -0.015 A 
HETATM   13  C22 UNL     1       1.070   7.842  71.887  1.00  0.00     0.052 C 
HETATM   14  C23 UNL     1      -0.254   9.854  72.492  1.00  0.00     0.012 A 
ENDROOT
BRANCH  10  15
HETATM   15  C10 UNL     1      -2.554   7.750  75.341  1.00  0.00     0.069 C 
BRANCH  15  16
HETATM   16  C11 UNL     1      -2.511   8.463  76.678  1.00  0.00     0.237 C 
BRANCH  16  17
HETATM   17  N1  UNL     1      -1.195   8.312  77.312  1.00  0.00    -0.075 N 
ATOM     18  H12 UNL     1      -1.214   7.617  78.058  1.00  0.00     0.277 HD
ATOM     19  H11 UNL     1      -0.528   7.853  76.692  1.00  0.00     0.277 HD
BRANCH  17  20
HETATM   20  C12 UNL     1      -0.703   9.578  77.778  1.00  0.00     0.234 C 
BRANCH  20  21
HETATM   21  C13 UNL     1      -1.584  10.139  78.840  1.00  0.00     0.057 C 
BRANCH  21  22
HETATM   22  C14 UNL     1      -1.584   9.279  80.058  1.00  0.00     0.274 C 
BRANCH  22  23
HETATM   23  N2  UNL     1      -2.834   9.279  80.764  1.00  0.00     0.091 N 
HETATM   24  C15 UNL     1      -2.716   9.144  82.187  1.00  0.00     0.302 C 
HETATM   25  C16 UNL     1      -4.094   9.328  82.790  1.00  0.00     0.302 C 
HETATM   26  N3  UNL     1      -5.116   8.579  82.132  1.00  0.00     0.087 N 
HETATM   27  C17 UNL     1      -5.227   7.225  82.579  1.00  0.00     0.310 C 
HETATM   28  C18 UNL     1      -5.126   8.672  80.706  1.00  0.00     0.302 C 
HETATM   29  C19 UNL     1      -3.731   8.321  80.195  1.00  0.00     0.302 C 
ENDBRANCH  22  23
ENDBRANCH  21  22
ENDBRANCH  20  21
ENDBRANCH  17  20
ENDBRANCH  16  17
ENDBRANCH  15  16
ENDBRANCH  10  15
BRANCH  11  30
HETATM   30  O2  UNL     1      -0.600   6.515  73.838  1.00  0.00    -0.360 OA
ATOM     31  H2  UNL     1       0.191   6.098  73.515  1.00  0.00     0.217 HD
ENDBRANCH  11  30
TORSDOF 8
ENDMDL
MODEL 3
REMARK VINA RESULT: -7.658563693      3.045      8.326
REMARK  8 active torsions:
REMARK  status: ('A' for Active; 'I' for Inactive)
REMARK    1  A    between atoms: C9_10  and  C10_11 
REMARK    2  A    between atoms: C10_11  and  C11_12 
REMARK    3  A    between atoms: C11_12  and  N1_13 
REMARK    4  A    between atoms: N1_13  and  C12_16 
REMARK    5  A    between atoms: C12_16  and  C13_17 
REMARK    6  A    between atoms: C13_17  and  C14_18 
REMARK    7  A    between atoms: C14_18  and  N2_19 
REMARK    8  A    between atoms: C20_26  and  O2_27 
ROOT
HETATM    1  C1  UNL     1       0.842  10.123  70.423  1.00  0.00     0.020 C 
HETATM    2  C2  UNL     1       0.521  10.601  71.570  1.00  0.00    -0.051 C 
HETATM    3  C3  UNL     1       0.927  12.006  71.982  1.00  0.00     0.076 C 
HETATM    4  C4  UNL     1      -0.219  12.683  72.681  1.00  0.00     0.064 C 
HETATM    5  C5  UNL     1       0.262  13.158  74.033  1.00  0.00     0.046 C 
HETATM    6  C6  UNL     1      -0.632  13.873  71.807  1.00  0.00     0.046 C 
HETATM    7  O1  UNL     1      -1.340  11.846  72.898  1.00  0.00    -0.340 OA
HETATM    8  C7  UNL     1      -1.241  10.506  73.220  1.00  0.00     0.081 A 
HETATM    9  C8  UNL     1      -2.007   9.833  74.129  1.00  0.00     0.047 A 
HETATM   10  C9  UNL     1      -1.781   8.495  74.332  1.00  0.00    -0.020 A 
HETATM   11  C20 UNL     1      -0.783   7.824  73.626  1.00  0.00     0.079 A 
HETATM   12  C21 UNL     1       0.026   8.483  72.686  1.00  0.00    -0.015 A 
HETATM   13  C22 UNL     1       1.119   7.819  71.957  1.00  0.00     0.052 C 
HETATM   14  C23 UNL     1      -0.246   9.817  72.520  1.00  0.00     0.012 A 
ENDROOT
BRANCH  10  15
HETATM   15  C10 UNL     1      -2.599   7.690  75.308  1.00  0.00     0.069 C 
BRANCH  15  16
HETATM   16  C11 UNL     1      -2.485   8.328  76.678  1.00  0.00     0.237 C 
BRANCH  16  17
HETATM   17  N1  UNL     1      -1.142   8.130  77.238  1.00  0.00    -0.075 N 
ATOM     18  H12 UNL     1      -1.133   7.397  77.947  1.00  0.00     0.277 HD
ATOM     19  H11 UNL     1      -0.511   7.698  76.563  1.00  0.00     0.277 HD
BRANCH  17  20
HETATM   20  C12 UNL     1      -0.612   9.365  77.745  1.00  0.00     0.234 C 
BRANCH  20  21
HETATM   21  C13 UNL     1      -1.140   9.658  79.107  1.00  0.00     0.057 C 
BRANCH  21  22
HETATM   22  C14 UNL     1      -0.945   8.500  80.026  1.00  0.00     0.274 C 
BRANCH  22  23
HETATM   23  N2  UNL     1      -2.058   8.265  80.902  1.00  0.00     0.091 N 
HETATM   24  C15 UNL     1      -3.163   7.583  80.294  1.00  0.00     0.302 C 
HETATM   25  C16 UNL     1      -4.173   7.268  81.378  1.00  0.00     0.302 C 
HETATM   26  N3  UNL     1      -4.462   8.373  82.235  1.00  0.00     0.087 N 
HETATM   27  C17 UNL     1      -5.459   9.262  81.724  1.00  0.00     0.310 C 
HETATM   28  C18 UNL     1      -3.325   9.079  82.735  1.00  0.00     0.302 C 
HETATM   29  C19 UNL     1      -2.452   9.479  81.548  1.00  0.00     0.302 C 
ENDBRANCH  22  23
ENDBRANCH  21  22
ENDBRANCH  20  21
ENDBRANCH  17  20
ENDBRANCH  16  17
ENDBRANCH  15  16
ENDBRANCH  10  15
BRANCH  11  30
HETATM   30  O2  UNL     1      -0.589   6.476  73.862  1.00  0.00    -0.360 OA
ATOM     31  H2  UNL     1       0.267   6.177  74.147  1.00  0.00     0.217 HD
ENDBRANCH  11  30
TORSDOF 8
ENDMDL
MODEL 4
REMARK VINA RESULT: -7.511741346      3.002      8.399
REMARK  8 active torsions:
REMARK  status: ('A' for Active; 'I' for Inactive)
REMARK    1  A    between atoms: C9_10  and  C10_11 
REMARK    2  A    between atoms: C10_11  and  C11_12 
REMARK    3  A    between atoms: C11_12  and  N1_13 
REMARK    4  A    between atoms: N1_13  and  C12_16 
REMARK    5  A    between atoms: C12_16  and  C13_17 
REMARK    6  A    between atoms: C13_17  and  C14_18 
REMARK    7  A    between atoms: C14_18  and  N2_19 
REMARK    8  A    between atoms: C20_26  and  O2_27 
ROOT
HETATM    1  C1  UNL     1       0.786  10.148  70.387  1.00  0.00     0.020 C 
HETATM    2  C2  UNL     1       0.505  10.639  71.539  1.00  0.00    -0.051 C 
HETATM    3  C3  UNL     1       0.952  12.036  71.933  1.00  0.00     0.076 C 
HETATM    4  C4  UNL     1      -0.160  12.743  72.657  1.00  0.00     0.064 C 
HETATM    5  C5  UNL     1       0.366  13.213  73.994  1.00  0.00     0.046 C 
HETATM    6  C6  UNL     1      -0.568  13.937  71.787  1.00  0.00     0.046 C 
HETATM    7  O1  UNL     1      -1.294  11.932  72.906  1.00  0.00    -0.340 OA
HETATM    8  C7  UNL     1      -1.217  10.591  73.234  1.00  0.00     0.081 A 
HETATM    9  C8  UNL     1      -1.974   9.941  74.165  1.00  0.00     0.047 A 
HETATM   10  C9  UNL     1      -1.773   8.598  74.369  1.00  0.00    -0.020 A 
HETATM   11  C20 UNL     1      -0.808   7.902  73.643  1.00  0.00     0.079 A 
HETATM   12  C21 UNL     1      -0.010   8.538  72.678  1.00  0.00    -0.015 A 
HETATM   13  C22 UNL     1       1.050   7.846  71.926  1.00  0.00     0.052 C 
HETATM   14  C23 UNL     1      -0.255   9.877  72.512  1.00  0.00     0.012 A 
ENDROOT
BRANCH  10  15
HETATM   15  C10 UNL     1      -2.584   7.817  75.370  1.00  0.00     0.069 C 
BRANCH  15  16
HETATM   16  C11 UNL     1      -2.382   8.429  76.743  1.00  0.00     0.237 C 
BRANCH  16  17
HETATM   17  N1  UNL     1      -1.128   7.960  77.346  1.00  0.00    -0.075 N 
ATOM     18  H12 UNL     1      -1.130   6.949  77.482  1.00  0.00     0.277 HD
ATOM     19  H11 UNL     1      -0.347   8.025  76.693  1.00  0.00     0.277 HD
BRANCH  17  20
HETATM   20  C12 UNL     1      -0.856   8.661  78.570  1.00  0.00     0.234 C 
BRANCH  20  21
HETATM   21  C13 UNL     1      -1.307   7.874  79.751  1.00  0.00     0.057 C 
BRANCH  21  22
HETATM   22  C14 UNL     1      -2.040   8.729  80.729  1.00  0.00     0.274 C 
BRANCH  22  23
HETATM   23  N2  UNL     1      -3.454   8.797  80.489  1.00  0.00     0.091 N 
HETATM   24  C15 UNL     1      -4.225   9.278  81.598  1.00  0.00     0.302 C 
HETATM   25  C16 UNL     1      -5.657   9.446  81.134  1.00  0.00     0.302 C 
HETATM   26  N3  UNL     1      -6.163   8.325  80.407  1.00  0.00     0.087 N 
HETATM   27  C17 UNL     1      -6.674   7.276  81.233  1.00  0.00     0.310 C 
HETATM   28  C18 UNL     1      -5.309   7.824  79.376  1.00  0.00     0.302 C 
HETATM   29  C19 UNL     1      -3.937   7.548  79.986  1.00  0.00     0.302 C 
ENDBRANCH  22  23
ENDBRANCH  21  22
ENDBRANCH  20  21
ENDBRANCH  17  20
ENDBRANCH  16  17
ENDBRANCH  15  16
ENDBRANCH  10  15
BRANCH  11  30
HETATM   30  O2  UNL     1      -0.639   6.551  73.881  1.00  0.00    -0.360 OA
ATOM     31  H2  UNL     1      -0.476   6.258  74.770  1.00  0.00     0.217 HD
ENDBRANCH  11  30
TORSDOF 8
ENDMDL
MODEL 5
REMARK VINA RESULT: -7.497784801      4.815      7.900
REMARK  8 active torsions:
REMARK  status: ('A' for Active; 'I' for Inactive)
REMARK    1  A    between atoms: C9_10  and  C10_11 
REMARK    2  A    between atoms: C10_11  and  C11_12 
REMARK    3  A    between atoms: C11_12  and  N1_13 
REMARK    4  A    between atoms: N1_13  and  C12_16 
REMARK    5  A    between atoms: C12_16  and  C13_17 
REMARK    6  A    between atoms: C13_17  and  C14_18 
REMARK    7  A    between atoms: C14_18  and  N2_19 
REMARK    8  A    between atoms: C20_26  and  O2_27 
ROOT
HETATM    1  C1  UNL     1       0.008   9.835  75.000  1.00  0.00     0.020 C 
HETATM    2  C2  UNL     1      -0.178  10.317  73.826  1.00  0.00    -0.051 C 
HETATM    3  C3  UNL     1      -0.826  11.675  73.622  1.00  0.00     0.076 C 
HETATM    4  C4  UNL     1      -0.098  12.431  72.545  1.00  0.00     0.064 C 
HETATM    5  C5  UNL     1      -1.100  12.839  71.490  1.00  0.00     0.046 C 
HETATM    6  C6  UNL     1       0.520  13.667  73.210  1.00  0.00     0.046 C 
HETATM    7  O1  UNL     1       0.918  11.684  71.901  1.00  0.00    -0.340 OA
HETATM    8  C7  UNL     1       0.814  10.335  71.622  1.00  0.00     0.081 A 
HETATM    9  C8  UNL     1       1.224   9.711  70.479  1.00  0.00     0.047 A 
HETATM   10  C9  UNL     1       1.048   8.355  70.360  1.00  0.00    -0.020 A 
HETATM   11  C20 UNL     1       0.458   7.617  71.386  1.00  0.00     0.079 A 
HETATM   12  C21 UNL     1       0.023   8.226  72.575  1.00  0.00    -0.015 A 
HETATM   13  C22 UNL     1      -0.646   7.489  73.659  1.00  0.00     0.052 C 
HETATM   14  C23 UNL     1       0.226   9.581  72.642  1.00  0.00     0.012 A 
ENDROOT
BRANCH  10  15
HETATM   15  C10 UNL     1       1.491   7.602  69.132  1.00  0.00     0.069 C 
BRANCH  15  16
HETATM   16  C11 UNL     1       0.349   7.583  68.136  1.00  0.00     0.237 C 
BRANCH  16  17
HETATM   17  N1  UNL     1       0.706   8.317  66.915  1.00  0.00    -0.075 N 
ATOM     18  H12 UNL     1       0.697   9.326  67.065  1.00  0.00     0.277 HD
ATOM     19  H11 UNL     1       1.693   8.206  66.683  1.00  0.00     0.277 HD
BRANCH  17  20
HETATM   20  C12 UNL     1      -0.143   7.935  65.821  1.00  0.00     0.234 C 
BRANCH  20  21
HETATM   21  C13 UNL     1      -1.218   7.009  66.274  1.00  0.00     0.057 C 
BRANCH  21  22
HETATM   22  C14 UNL     1      -2.571   7.557  65.970  1.00  0.00     0.274 C 
BRANCH  22  23
HETATM   23  N2  UNL     1      -3.544   7.290  66.993  1.00  0.00     0.091 N 
HETATM   24  C15 UNL     1      -3.680   5.906  67.341  1.00  0.00     0.302 C 
HETATM   25  C16 UNL     1      -4.611   5.812  68.533  1.00  0.00     0.302 C 
HETATM   26  N3  UNL     1      -5.804   6.586  68.395  1.00  0.00     0.087 N 
HETATM   27  C17 UNL     1      -6.847   5.926  67.674  1.00  0.00     0.310 C 
HETATM   28  C18 UNL     1      -5.617   7.931  67.950  1.00  0.00     0.302 C 
HETATM   29  C19 UNL     1      -4.796   7.899  66.664  1.00  0.00     0.302 C 
ENDBRANCH  22  23
ENDBRANCH  21  22
ENDBRANCH  20  21
ENDBRANCH  17  20
ENDBRANCH  16  17
ENDBRANCH  15  16
ENDBRANCH  10  15
BRANCH  11  30
HETATM   30  O2  UNL     1       0.300   6.254  71.223  1.00  0.00    -0.360 OA
ATOM     31  H2  UNL     1       0.976   5.764  70.770  1.00  0.00     0.217 HD
ENDBRANCH  11  30
TORSDOF 8
ENDMDL
