MODEL 1
REMARK VINA RESULT: -4.666232251      0.000      0.000
REMARK  1 active torsions:
REMARK  status: ('A' for Active; 'I' for Inactive)
REMARK    1  A    between atoms: C2_2  and  C3_3 
ROOT
HETATM    1  C3  UNL     1       1.019   9.270  33.230  1.00  0.00     0.215 C 
HETATM    2  C4  UNL     1       2.240  10.086  32.951  1.00  0.00     0.058 C 
HETATM    3  C5  UNL     1       1.033   8.090  32.271  1.00  0.00     0.262 C 
HETATM    4  O1  UNL     1       1.687   7.944  31.220  1.00  0.00    -0.270 OA
HETATM    5  N1  UNL     1       0.104   7.181  32.872  1.00  0.00    -0.271 N 
ATOM      6  H1  UNL     1      -0.311   6.355  32.441  1.00  0.00     0.173 HD
HETATM    7  C6  UNL     1      -0.128   7.666  34.211  1.00  0.00     0.422 C 
HETATM    8  O2  UNL     1      -1.074   7.327  34.932  1.00  0.00    -0.239 OA
HETATM    9  N2  UNL     1       0.959   8.587  34.462  1.00  0.00     0.024 N 
HETATM   10  C7  UNL     1       2.099   7.744  34.735  1.00  0.00     0.286 C 
HETATM   11  C8  UNL     1       0.644   9.331  35.631  1.00  0.00     0.286 C 
ENDROOT
BRANCH   1  12
HETATM   12  C2  UNL     1      -0.215  10.026  32.901  1.00  0.00     0.045 C 
HETATM   13  C1  UNL     1      -0.085  11.494  32.726  1.00  0.00     0.008 C 
ENDBRANCH   1  12
TORSDOF 1
ENDMDL
MODEL 2
REMARK VINA RESULT: -3.993960976      2.738      3.982
REMARK  1 active torsions:
REMARK  status: ('A' for Active; 'I' for Inactive)
REMARK    1  A    between atoms: C2_2  and  C3_3 
ROOT
HETATM    1  C3  UNL     1       0.705  11.086  33.313  1.00  0.00     0.215 C 
HETATM    2  C4  UNL     1       2.168  10.780  33.349  1.00  0.00     0.058 C 
HETATM    3  C5  UNL     1       0.068  10.396  34.509  1.00  0.00     0.262 C 
HETATM    4  O1  UNL     1       0.522   9.475  35.214  1.00  0.00    -0.270 OA
HETATM    5  N1  UNL     1      -1.192  11.067  34.628  1.00  0.00    -0.271 N 
ATOM      6  H1  UNL     1      -1.992  10.772  35.188  1.00  0.00     0.173 HD
HETATM    7  C6  UNL     1      -1.104  12.245  33.800  1.00  0.00     0.422 C 
HETATM    8  O2  UNL     1      -2.070  12.914  33.416  1.00  0.00    -0.239 OA
HETATM    9  N2  UNL     1       0.312  12.418  33.557  1.00  0.00     0.024 N 
HETATM   10  C7  UNL     1       0.829  12.980  34.783  1.00  0.00     0.286 C 
HETATM   11  C8  UNL     1       0.466  13.369  32.512  1.00  0.00     0.286 C 
ENDROOT
BRANCH   1  12
HETATM   12  C2  UNL     1       0.061  10.478  32.123  1.00  0.00     0.045 C 
HETATM   13  C1  UNL     1       0.753   9.327  31.490  1.00  0.00     0.008 C 
ENDBRANCH   1  12
TORSDOF 1
ENDMDL
MODEL 3
REMARK VINA RESULT: -3.891542157      2.373      3.519
REMARK  1 active torsions:
REMARK  status: ('A' for Active; 'I' for Inactive)
REMARK    1  A    between atoms: C2_2  and  C3_3 
ROOT
HETATM    1  C3  UNL     1       0.228  10.469  33.913  1.00  0.00     0.215 C 
HETATM    2  C4  UNL     1      -0.533  10.770  32.662  1.00  0.00     0.058 C 
HETATM    3  C5  UNL     1       0.065  11.663  34.841  1.00  0.00     0.262 C 
HETATM    4  O1  UNL     1      -0.307  12.821  34.568  1.00  0.00    -0.270 OA
HETATM    5  N1  UNL     1       0.447  11.129  36.114  1.00  0.00    -0.271 N 
ATOM      6  H1  UNL     1       0.656  11.658  36.962  1.00  0.00     0.173 HD
HETATM    7  C6  UNL     1       0.477   9.695  35.960  1.00  0.00     0.422 C 
HETATM    8  O2  UNL     1       1.035   8.912  36.737  1.00  0.00    -0.239 OA
HETATM    9  N2  UNL     1      -0.263   9.441  34.743  1.00  0.00     0.024 N 
HETATM   10  C7  UNL     1      -1.650   9.587  35.120  1.00  0.00     0.286 C 
HETATM   11  C8  UNL     1      -0.028   8.093  34.359  1.00  0.00     0.286 C 
ENDROOT
BRANCH   1  12
HETATM   12  C2  UNL     1       1.685  10.380  33.644  1.00  0.00     0.045 C 
HETATM   13  C1  UNL     1       2.102  10.163  32.236  1.00  0.00     0.008 C 
ENDBRANCH   1  12
TORSDOF 1
ENDMDL
MODEL 4
REMARK VINA RESULT: -3.868185550      2.815      3.992
REMARK  1 active torsions:
REMARK  status: ('A' for Active; 'I' for Inactive)
REMARK    1  A    between atoms: C2_2  and  C3_3 
ROOT
HETATM    1  C3  UNL     1       0.356  12.398  33.478  1.00  0.00     0.215 C 
HETATM    2  C4  UNL     1       0.485  13.316  32.305  1.00  0.00     0.058 C 
HETATM    3  C5  UNL     1      -1.128  12.262  33.784  1.00  0.00     0.262 C 
HETATM    4  O1  UNL     1      -2.072  12.988  33.418  1.00  0.00    -0.270 OA
HETATM    5  N1  UNL     1      -1.176  11.088  34.603  1.00  0.00    -0.271 N 
ATOM      6  H1  UNL     1      -1.962  10.768  35.170  1.00  0.00     0.173 HD
HETATM    7  C6  UNL     1       0.109  10.446  34.466  1.00  0.00     0.422 C 
HETATM    8  O2  UNL     1       0.552   9.580  35.229  1.00  0.00    -0.239 OA
HETATM    9  N2  UNL     1       0.694  11.043  33.285  1.00  0.00     0.024 N 
HETATM   10  C7  UNL     1       0.019  10.408  32.178  1.00  0.00     0.286 C 
HETATM   11  C8  UNL     1       2.071  10.691  33.251  1.00  0.00     0.286 C 
ENDROOT
BRANCH   1  12
HETATM   12  C2  UNL     1       0.952  13.001  34.696  1.00  0.00     0.045 C 
HETATM   13  C1  UNL     1       0.860  14.475  34.838  1.00  0.00     0.008 C 
ENDBRANCH   1  12
TORSDOF 1
ENDMDL
MODEL 5
REMARK VINA RESULT: -3.832778456      5.788      7.137
REMARK  1 active torsions:
REMARK  status: ('A' for Active; 'I' for Inactive)
REMARK    1  A    between atoms: C2_2  and  C3_3 
ROOT
HETATM    1  C3  UNL     1      -2.392   7.863  38.844  1.00  0.00     0.215 C 
HETATM    2  C4  UNL     1      -2.438   6.490  38.254  1.00  0.00     0.058 C 
HETATM    3  C5  UNL     1      -3.492   7.943  39.891  1.00  0.00     0.262 C 
HETATM    4  O1  UNL     1      -4.482   7.203  40.044  1.00  0.00    -0.270 OA
HETATM    5  N1  UNL     1      -3.110   9.088  40.663  1.00  0.00    -0.271 N 
ATOM      6  H1  UNL     1      -3.686   9.588  41.341  1.00  0.00     0.173 HD
HETATM    7  C6  UNL     1      -1.749   9.391  40.293  1.00  0.00     0.422 C 
HETATM    8  O2  UNL     1      -1.177  10.464  40.520  1.00  0.00    -0.239 OA
HETATM    9  N2  UNL     1      -1.272   8.195  39.634  1.00  0.00     0.024 N 
HETATM   10  C7  UNL     1      -1.000   7.268  40.707  1.00  0.00     0.286 C 
HETATM   11  C8  UNL     1      -0.053   8.512  38.976  1.00  0.00     0.286 C 
ENDROOT
BRANCH   1  12
HETATM   12  C2  UNL     1      -2.740   8.890  37.832  1.00  0.00     0.045 C 
HETATM   13  C1  UNL     1      -2.496   8.550  36.407  1.00  0.00     0.008 C 
ENDBRANCH   1  12
TORSDOF 1
ENDMDL
