MODEL 1
REMARK VINA RESULT: -7.236508964      0.000      0.000
REMARK  3 active torsions:
REMARK  status: ('A' for Active; 'I' for Inactive)
REMARK    1  A    between atoms: C1_1  and  C6_14 
REMARK    2  A    between atoms: N1_2  and  N2_4 
REMARK    3  A    between atoms: N2_4  and  C2_6 
ROOT
HETATM    1  C1  UNL     1      -9.288  39.597  22.306  1.00  0.00     0.119 C 
HETATM    2  N1  UNL     1      -8.644  38.679  21.790  1.00  0.00    -0.309 N 
ATOM      3  H1  UNL     1      -8.221  38.933  20.898  1.00  0.00     0.186 HD
ENDROOT
BRANCH   2   4
HETATM    4  N2  UNL     1      -8.386  37.410  22.164  1.00  0.00    -0.285 N 
ATOM      5  H2  UNL     1      -9.113  36.696  22.103  1.00  0.00     0.188 HD
BRANCH   4   6
HETATM    6  C2  UNL     1      -7.192  37.100  22.607  1.00  0.00     0.134 A 
HETATM    7  C3  UNL     1      -7.027  36.450  23.813  1.00  0.00     0.052 A 
HETATM    8  C4  UNL     1      -5.774  36.124  24.279  1.00  0.00     0.022 A 
HETATM    9  C5  UNL     1      -4.675  36.462  23.512  1.00  0.00     0.107 A 
HETATM   10  N3  UNL     1      -4.897  37.092  22.348  1.00  0.00    -0.310 N 
HETATM   11  N4  UNL     1      -6.087  37.409  21.890  1.00  0.00    -0.285 N 
ATOM     12  H3  UNL     1      -4.087  37.343  21.781  1.00  0.00     0.186 HD
ATOM     13  H4  UNL     1      -6.178  37.888  20.995  1.00  0.00     0.188 HD
ENDBRANCH   4   6
ENDBRANCH   2   4
BRANCH   1  14
HETATM   14  C6  UNL     1     -10.015  39.602  23.555  1.00  0.00    -0.004 A 
HETATM   15  C7  UNL     1      -9.618  38.937  24.694  1.00  0.00     0.015 A 
HETATM   16  C8  UNL     1     -10.403  39.011  25.855  1.00  0.00     0.018 A 
HETATM   17  C9  UNL     1     -11.566  39.746  25.854  1.00  0.00     0.087 A 
HETATM   18  N5  UNL     1     -11.943  40.386  24.749  1.00  0.00    -0.374 N 
HETATM   19  C10 UNL     1     -11.216  40.329  23.642  1.00  0.00     0.100 A 
ATOM     20  H5  UNL     1     -12.807  40.930  24.755  1.00  0.00     0.164 HD
ENDBRANCH   1  14
TORSDOF 3
ENDMDL
MODEL 2
REMARK VINA RESULT: -7.107342632      1.137      1.333
REMARK  3 active torsions:
REMARK  status: ('A' for Active; 'I' for Inactive)
REMARK    1  A    between atoms: C1_1  and  C6_14 
REMARK    2  A    between atoms: N1_2  and  N2_4 
REMARK    3  A    between atoms: N2_4  and  C2_6 
ROOT
HETATM    1  C1  UNL     1      -9.481  37.110  22.501  1.00  0.00     0.119 C 
HETATM    2  N1  UNL     1      -8.395  36.908  21.951  1.00  0.00    -0.309 N 
ATOM      3  H1  UNL     1      -8.391  36.083  21.351  1.00  0.00     0.186 HD
ENDROOT
BRANCH   2   4
HETATM    4  N2  UNL     1      -7.212  37.554  21.980  1.00  0.00    -0.285 N 
ATOM      5  H2  UNL     1      -7.083  38.418  21.454  1.00  0.00     0.188 HD
BRANCH   4   6
HETATM    6  C2  UNL     1      -6.227  37.061  22.692  1.00  0.00     0.134 A 
HETATM    7  C3  UNL     1      -6.445  36.576  23.966  1.00  0.00     0.052 A 
HETATM    8  C4  UNL     1      -5.412  36.058  24.714  1.00  0.00     0.022 A 
HETATM    9  C5  UNL     1      -4.146  36.031  24.163  1.00  0.00     0.107 A 
HETATM   10  N3  UNL     1      -3.996  36.515  22.920  1.00  0.00    -0.310 N 
HETATM   11  N4  UNL     1      -4.971  37.012  22.194  1.00  0.00    -0.285 N 
ATOM     12  H3  UNL     1      -3.060  36.496  22.512  1.00  0.00     0.186 HD
ATOM     13  H4  UNL     1      -4.781  37.361  21.255  1.00  0.00     0.188 HD
ENDBRANCH   4   6
ENDBRANCH   2   4
BRANCH   1  14
HETATM   14  C6  UNL     1      -9.852  38.171  23.408  1.00  0.00    -0.004 A 
HETATM   15  C7  UNL     1      -9.800  38.082  24.781  1.00  0.00     0.015 A 
HETATM   16  C8  UNL     1     -10.186  39.178  25.568  1.00  0.00     0.018 A 
HETATM   17  C9  UNL     1     -10.616  40.339  24.968  1.00  0.00     0.087 A 
HETATM   18  N5  UNL     1     -10.664  40.418  23.640  1.00  0.00    -0.374 N 
HETATM   19  C10 UNL     1     -10.304  39.395  22.878  1.00  0.00     0.100 A 
ATOM     20  H5  UNL     1     -10.983  41.282  23.201  1.00  0.00     0.164 HD
ENDBRANCH   1  14
TORSDOF 3
ENDMDL
MODEL 3
REMARK VINA RESULT: -7.082512433      2.739      5.409
REMARK  3 active torsions:
REMARK  status: ('A' for Active; 'I' for Inactive)
REMARK    1  A    between atoms: C1_1  and  C6_14 
REMARK    2  A    between atoms: N1_2  and  N2_4 
REMARK    3  A    between atoms: N2_4  and  C2_6 
ROOT
HETATM    1  C1  UNL     1      -8.627  36.826  22.743  1.00  0.00     0.119 C 
HETATM    2  N1  UNL     1      -9.318  37.799  22.427  1.00  0.00    -0.309 N 
ATOM      3  H1  UNL     1     -10.277  37.553  22.183  1.00  0.00     0.186 HD
ENDROOT
BRANCH   2   4
HETATM    4  N2  UNL     1      -9.064  39.120  22.338  1.00  0.00    -0.285 N 
ATOM      5  H2  UNL     1      -9.049  39.700  23.178  1.00  0.00     0.188 HD
BRANCH   4   6
HETATM    6  C2  UNL     1      -8.837  39.653  21.162  1.00  0.00     0.134 A 
HETATM    7  C3  UNL     1      -9.872  39.910  20.286  1.00  0.00     0.052 A 
HETATM    8  C4  UNL     1      -9.635  40.470  19.051  1.00  0.00     0.022 A 
HETATM    9  C5  UNL     1      -8.333  40.773  18.702  1.00  0.00     0.107 A 
HETATM   10  N3  UNL     1      -7.369  40.501  19.595  1.00  0.00    -0.310 N 
HETATM   11  N4  UNL     1      -7.580  39.967  20.777  1.00  0.00    -0.285 N 
ATOM     12  H3  UNL     1      -6.406  40.724  19.339  1.00  0.00     0.186 HD
ATOM     13  H4  UNL     1      -6.795  39.790  21.404  1.00  0.00     0.188 HD
ENDBRANCH   4   6
ENDBRANCH   2   4
BRANCH   1  14
HETATM   14  C6  UNL     1      -7.240  36.793  23.144  1.00  0.00    -0.004 A 
HETATM   15  C7  UNL     1      -6.176  37.036  22.304  1.00  0.00     0.015 A 
HETATM   16  C8  UNL     1      -4.865  36.977  22.801  1.00  0.00     0.018 A 
HETATM   17  C9  UNL     1      -4.644  36.677  24.125  1.00  0.00     0.087 A 
HETATM   18  N5  UNL     1      -5.677  36.443  24.932  1.00  0.00    -0.374 N 
HETATM   19  C10 UNL     1      -6.923  36.494  24.482  1.00  0.00     0.100 A 
ATOM     20  H5  UNL     1      -5.506  36.221  25.913  1.00  0.00     0.164 HD
ENDBRANCH   1  14
TORSDOF 3
ENDMDL
MODEL 4
REMARK VINA RESULT: -7.014985715      1.092      1.257
REMARK  3 active torsions:
REMARK  status: ('A' for Active; 'I' for Inactive)
REMARK    1  A    between atoms: C1_1  and  C6_14 
REMARK    2  A    between atoms: N1_2  and  N2_4 
REMARK    3  A    between atoms: N2_4  and  C2_6 
ROOT
HETATM    1  C1  UNL     1      -9.221  39.255  22.278  1.00  0.00     0.119 C 
HETATM    2  N1  UNL     1      -8.547  38.302  21.875  1.00  0.00    -0.309 N 
ATOM      3  H1  UNL     1      -8.135  38.457  20.955  1.00  0.00     0.186 HD
ENDROOT
BRANCH   2   4
HETATM    4  N2  UNL     1      -8.244  37.099  22.402  1.00  0.00    -0.285 N 
ATOM      5  H2  UNL     1      -8.925  36.340  22.379  1.00  0.00     0.188 HD
BRANCH   4   6
HETATM    6  C2  UNL     1      -7.065  36.914  22.945  1.00  0.00     0.134 A 
HETATM    7  C3  UNL     1      -5.909  37.181  22.242  1.00  0.00     0.052 A 
HETATM    8  C4  UNL     1      -4.670  36.988  22.810  1.00  0.00     0.022 A 
HETATM    9  C5  UNL     1      -4.605  36.517  24.108  1.00  0.00     0.107 A 
HETATM   10  N3  UNL     1      -5.763  36.275  24.742  1.00  0.00    -0.310 N 
HETATM   11  N4  UNL     1      -6.952  36.456  24.212  1.00  0.00    -0.285 N 
ATOM     12  H3  UNL     1      -5.717  35.927  25.700  1.00  0.00     0.186 HD
ATOM     13  H4  UNL     1      -7.789  36.250  24.757  1.00  0.00     0.188 HD
ENDBRANCH   4   6
ENDBRANCH   2   4
BRANCH   1  14
HETATM   14  C6  UNL     1      -9.943  39.391  23.521  1.00  0.00    -0.004 A 
HETATM   15  C7  UNL     1      -9.597  38.768  24.700  1.00  0.00     0.015 A 
HETATM   16  C8  UNL     1     -10.373  38.971  25.852  1.00  0.00     0.018 A 
HETATM   17  C9  UNL     1     -11.477  39.791  25.802  1.00  0.00     0.087 A 
HETATM   18  N5  UNL     1     -11.805  40.390  24.660  1.00  0.00    -0.374 N 
HETATM   19  C10 UNL     1     -11.086  40.211  23.561  1.00  0.00     0.100 A 
ATOM     20  H5  UNL     1     -12.625  40.997  24.630  1.00  0.00     0.164 HD
ENDBRANCH   1  14
TORSDOF 3
ENDMDL
MODEL 5
REMARK VINA RESULT: -7.006470611      1.834      5.757
REMARK  3 active torsions:
REMARK  status: ('A' for Active; 'I' for Inactive)
REMARK    1  A    between atoms: C1_1  and  C6_14 
REMARK    2  A    between atoms: N1_2  and  N2_4 
REMARK    3  A    between atoms: N2_4  and  C2_6 
ROOT
HETATM    1  C1  UNL     1      -8.642  36.496  22.488  1.00  0.00     0.119 C 
HETATM    2  N1  UNL     1      -9.372  37.313  21.920  1.00  0.00    -0.309 N 
ATOM      3  H1  UNL     1     -10.295  36.943  21.693  1.00  0.00     0.186 HD
ENDROOT
BRANCH   2   4
HETATM    4  N2  UNL     1      -9.200  38.595  21.539  1.00  0.00    -0.285 N 
ATOM      5  H2  UNL     1      -8.409  38.856  20.950  1.00  0.00     0.188 HD
BRANCH   4   6
HETATM    6  C2  UNL     1     -10.058  39.504  21.934  1.00  0.00     0.134 A 
HETATM    7  C3  UNL     1     -10.099  39.920  23.249  1.00  0.00     0.052 A 
HETATM    8  C4  UNL     1     -11.000  40.874  23.665  1.00  0.00     0.022 A 
HETATM    9  C5  UNL     1     -11.869  41.412  22.735  1.00  0.00     0.107 A 
HETATM   10  N3  UNL     1     -11.782  40.969  21.471  1.00  0.00    -0.310 N 
HETATM   11  N4  UNL     1     -10.927  40.059  21.059  1.00  0.00    -0.285 N 
ATOM     12  H3  UNL     1     -12.423  41.365  20.783  1.00  0.00     0.186 HD
ATOM     13  H4  UNL     1     -10.920  39.772  20.081  1.00  0.00     0.188 HD
ENDBRANCH   4   6
ENDBRANCH   2   4
BRANCH   1  14
HETATM   14  C6  UNL     1      -7.285  36.665  22.954  1.00  0.00    -0.004 A 
HETATM   15  C7  UNL     1      -6.224  37.034  22.158  1.00  0.00     0.015 A 
HETATM   16  C8  UNL     1      -4.944  37.169  22.717  1.00  0.00     0.018 A 
HETATM   17  C9  UNL     1      -4.751  36.933  24.058  1.00  0.00     0.087 A 
HETATM   18  N5  UNL     1      -5.780  36.576  24.822  1.00  0.00    -0.374 N 
HETATM   19  C10 UNL     1      -6.998  36.443  24.314  1.00  0.00     0.100 A 
ATOM     20  H5  UNL     1      -5.631  36.403  25.817  1.00  0.00     0.164 HD
ENDBRANCH   1  14
TORSDOF 3
ENDMDL
