MODEL 1
REMARK VINA RESULT: -5.287486911      0.000      0.000
REMARK  9 active torsions:
REMARK  status: ('A' for Active; 'I' for Inactive)
REMARK    1  A    between atoms: N1_2  and  C2_4 
REMARK    2  A    between atoms: C3_5  and  O1_6 
REMARK    3  A    between atoms: C7_13  and  C8_15 
REMARK    4  A    between atoms: C8_15  and  C9_16 
REMARK    5  A    between atoms: C8_15  and  O3_20 
REMARK    6  A    between atoms: C9_16  and  N3_17 
REMARK    7  A    between atoms: O3_20  and  C12_21 
REMARK    8  A    between atoms: C12_21  and  C13_23 
REMARK    9  A    between atoms: C13_23  and  N4_24 
ROOT
HETATM    1  C8  UNL     1     103.575  21.787  33.763  1.00  0.00     0.219 C 
ENDROOT
BRANCH   1   2
HETATM    2  C7  UNL     1     103.493  20.764  34.919  1.00  0.00     0.231 C 
HETATM    3  C2  UNL     1     103.581  19.379  34.375  1.00  0.00     0.165 C 
HETATM    4  C3  UNL     1     102.690  18.390  35.028  1.00  0.00     0.146 C 
HETATM    5  C4  UNL     1     102.530  18.770  36.490  1.00  0.00     0.058 C 
HETATM    6  C5  UNL     1     101.817  20.076  36.518  1.00  0.00     0.118 C 
HETATM    7  C6  UNL     1     102.128  20.968  37.699  1.00  0.00     0.216 C 
HETATM    8  N2  UNL     1     102.338  21.080  35.658  1.00  0.00    -0.146 NA
HETATM    9  O2  UNL     1     102.472  21.911  36.714  1.00  0.00    -0.298 OA
HETATM   10  F1  UNL     1     104.611  21.001  35.696  1.00  0.00    -0.218 F 
BRANCH   3  11
HETATM   11  N1  UNL     1     104.946  18.903  34.351  1.00  0.00    -0.415 N 
HETATM   12  C1  UNL     1     105.533  18.818  33.051  1.00  0.00     0.140 C 
ATOM     13  H1  UNL     1     105.452  18.647  35.199  1.00  0.00     0.153 HD
ENDBRANCH   3  11
BRANCH   4  14
HETATM   14  O1  UNL     1     103.151  17.085  35.006  1.00  0.00    -0.393 OA
ATOM     15  H1  UNL     1     102.799  16.548  34.305  1.00  0.00     0.210 HD
ENDBRANCH   4  14
ENDBRANCH   1   2
BRANCH   1  16
HETATM   16  C9  UNL     1     104.959  22.360  33.666  1.00  0.00     0.308 C 
BRANCH  16  17
HETATM   17  N3  UNL     1     104.845  23.811  33.648  1.00  0.00     0.082 N 
HETATM   18  C10 UNL     1     105.290  24.323  32.342  1.00  0.00     0.309 C 
HETATM   19  C11 UNL     1     105.744  24.397  34.649  1.00  0.00     0.309 C 
ENDBRANCH  16  17
ENDBRANCH   1  16
BRANCH   1  20
HETATM   20  O3  UNL     1     103.255  21.177  32.546  1.00  0.00    -0.307 OA
BRANCH  20  21
HETATM   21  C12 UNL     1     102.310  21.556  31.637  1.00  0.00     0.295 C 
HETATM   22  O4  UNL     1     101.102  21.484  31.965  1.00  0.00    -0.262 OA
BRANCH  21  23
HETATM   23  C13 UNL     1     102.618  22.053  30.273  1.00  0.00     0.210 C 
HETATM   24  C14 UNL     1     101.731  21.504  29.208  1.00  0.00     0.049 C 
HETATM   25  C15 UNL     1     101.667  22.601  28.155  1.00  0.00     0.003 C 
HETATM   26  C16 UNL     1     102.360  23.804  28.743  1.00  0.00     0.003 C 
HETATM   27  C17 UNL     1     102.267  23.536  30.242  1.00  0.00     0.049 C 
BRANCH  23  28
HETATM   28  N4  UNL     1     104.020  21.861  29.950  1.00  0.00    -0.061 N 
ATOM     29  H43 UNL     1     104.627  22.215  30.689  1.00  0.00     0.275 HD
ATOM     30  H42 UNL     1     104.283  20.876  29.990  1.00  0.00     0.275 HD
ATOM     31  H41 UNL     1     104.250  22.274  29.046  1.00  0.00     0.275 HD
ENDBRANCH  23  28
ENDBRANCH  21  23
ENDBRANCH  20  21
ENDBRANCH   1  20
TORSDOF 9
ENDMDL
MODEL 2
REMARK VINA RESULT: -5.164623875      0.914      1.287
REMARK  9 active torsions:
REMARK  status: ('A' for Active; 'I' for Inactive)
REMARK    1  A    between atoms: N1_2  and  C2_4 
REMARK    2  A    between atoms: C3_5  and  O1_6 
REMARK    3  A    between atoms: C7_13  and  C8_15 
REMARK    4  A    between atoms: C8_15  and  C9_16 
REMARK    5  A    between atoms: C8_15  and  O3_20 
REMARK    6  A    between atoms: C9_16  and  N3_17 
REMARK    7  A    between atoms: O3_20  and  C12_21 
REMARK    8  A    between atoms: C12_21  and  C13_23 
REMARK    9  A    between atoms: C13_23  and  N4_24 
ROOT
HETATM    1  C8  UNL     1     103.891  21.827  33.674  1.00  0.00     0.219 C 
ENDROOT
BRANCH   1   2
HETATM    2  C7  UNL     1     103.757  20.829  34.847  1.00  0.00     0.231 C 
HETATM    3  C2  UNL     1     103.736  19.433  34.322  1.00  0.00     0.165 C 
HETATM    4  C3  UNL     1     102.788  18.519  35.005  1.00  0.00     0.146 C 
HETATM    5  C4  UNL     1     102.681  18.930  36.464  1.00  0.00     0.058 C 
HETATM    6  C5  UNL     1     102.063  20.284  36.484  1.00  0.00     0.118 C 
HETATM    7  C6  UNL     1     102.457  21.168  37.645  1.00  0.00     0.216 C 
HETATM    8  N2  UNL     1     102.639  21.236  35.600  1.00  0.00    -0.146 NA
HETATM    9  O2  UNL     1     102.850  22.071  36.641  1.00  0.00    -0.298 OA
HETATM   10  F1  UNL     1     104.901  20.996  35.602  1.00  0.00    -0.218 F 
BRANCH   3  11
HETATM   11  N1  UNL     1     105.064  18.861  34.284  1.00  0.00    -0.415 N 
HETATM   12  C1  UNL     1     105.643  18.769  32.981  1.00  0.00     0.140 C 
ATOM     13  H1  UNL     1     105.549  18.546  35.124  1.00  0.00     0.153 HD
ENDBRANCH   3  11
BRANCH   4  14
HETATM   14  O1  UNL     1     103.155  17.185  34.995  1.00  0.00    -0.393 OA
ATOM     15  H1  UNL     1     102.433  16.571  35.062  1.00  0.00     0.210 HD
ENDBRANCH   4  14
ENDBRANCH   1   2
BRANCH   1  16
HETATM   16  C9  UNL     1     105.336  22.133  33.409  1.00  0.00     0.308 C 
BRANCH  16  17
HETATM   17  N3  UNL     1     105.486  23.580  33.354  1.00  0.00     0.082 N 
HETATM   18  C10 UNL     1     104.382  24.218  34.088  1.00  0.00     0.309 C 
HETATM   19  C11 UNL     1     105.380  24.042  31.965  1.00  0.00     0.309 C 
ENDBRANCH  16  17
ENDBRANCH   1  16
BRANCH   1  20
HETATM   20  O3  UNL     1     103.323  21.296  32.512  1.00  0.00    -0.307 OA
BRANCH  20  21
HETATM   21  C12 UNL     1     102.082  21.534  31.996  1.00  0.00     0.295 C 
HETATM   22  O4  UNL     1     101.081  21.152  32.647  1.00  0.00    -0.262 OA
BRANCH  21  23
HETATM   23  C13 UNL     1     101.835  22.221  30.704  1.00  0.00     0.210 C 
HETATM   24  C14 UNL     1     101.957  23.705  30.769  1.00  0.00     0.049 C 
HETATM   25  C15 UNL     1     102.424  24.115  29.379  1.00  0.00     0.003 C 
HETATM   26  C16 UNL     1     102.734  22.841  28.635  1.00  0.00     0.003 C 
HETATM   27  C17 UNL     1     102.980  21.851  29.769  1.00  0.00     0.049 C 
BRANCH  23  28
HETATM   28  N4  UNL     1     100.565  21.816  30.129  1.00  0.00    -0.061 N 
ATOM     29  H43 UNL     1     100.690  21.110  29.405  1.00  0.00     0.275 HD
ATOM     30  H42 UNL     1     100.013  21.267  30.788  1.00  0.00     0.275 HD
ATOM     31  H41 UNL     1     100.044  22.621  29.782  1.00  0.00     0.275 HD
ENDBRANCH  23  28
ENDBRANCH  21  23
ENDBRANCH  20  21
ENDBRANCH   1  20
TORSDOF 9
ENDMDL
MODEL 3
REMARK VINA RESULT: -4.839258326      2.868      6.835
REMARK  9 active torsions:
REMARK  status: ('A' for Active; 'I' for Inactive)
REMARK    1  A    between atoms: N1_2  and  C2_4 
REMARK    2  A    between atoms: C3_5  and  O1_6 
REMARK    3  A    between atoms: C7_13  and  C8_15 
REMARK    4  A    between atoms: C8_15  and  C9_16 
REMARK    5  A    between atoms: C8_15  and  O3_20 
REMARK    6  A    between atoms: C9_16  and  N3_17 
REMARK    7  A    between atoms: O3_20  and  C12_21 
REMARK    8  A    between atoms: C12_21  and  C13_23 
REMARK    9  A    between atoms: C13_23  and  N4_24 
ROOT
HETATM    1  C8  UNL     1     103.414  21.181  36.223  1.00  0.00     0.219 C 
ENDROOT
BRANCH   1   2
HETATM    2  C7  UNL     1     103.847  21.036  34.747  1.00  0.00     0.231 C 
HETATM    3  C2  UNL     1     104.356  19.656  34.503  1.00  0.00     0.165 C 
HETATM    4  C3  UNL     1     105.539  19.571  33.612  1.00  0.00     0.146 C 
HETATM    5  C4  UNL     1     105.459  20.691  32.588  1.00  0.00     0.058 C 
HETATM    6  C5  UNL     1     105.577  21.969  33.340  1.00  0.00     0.118 C 
HETATM    7  C6  UNL     1     104.873  23.159  32.728  1.00  0.00     0.216 C 
HETATM    8  N2  UNL     1     104.736  22.093  34.479  1.00  0.00    -0.146 NA
HETATM    9  O2  UNL     1     104.224  23.236  33.974  1.00  0.00    -0.298 OA
HETATM   10  F1  UNL     1     102.693  21.213  34.007  1.00  0.00    -0.218 F 
BRANCH   3  11
HETATM   11  N1  UNL     1     103.305  18.774  34.045  1.00  0.00    -0.415 N 
HETATM   12  C1  UNL     1     102.931  17.752  34.971  1.00  0.00     0.140 C 
ATOM     13  H1  UNL     1     102.865  18.875  33.131  1.00  0.00     0.153 HD
ENDBRANCH   3  11
BRANCH   4  14
HETATM   14  O1  UNL     1     105.650  18.390  32.900  1.00  0.00    -0.393 OA
ATOM     15  H1  UNL     1     106.116  17.694  33.350  1.00  0.00     0.210 HD
ENDBRANCH   4  14
ENDBRANCH   1   2
BRANCH   1  16
HETATM   16  C9  UNL     1     101.920  21.104  36.342  1.00  0.00     0.308 C 
BRANCH  16  17
HETATM   17  N3  UNL     1     101.482  22.176  37.225  1.00  0.00     0.082 N 
HETATM   18  C10 UNL     1     102.542  23.191  37.328  1.00  0.00     0.309 C 
HETATM   19  C11 UNL     1     101.277  21.654  38.581  1.00  0.00     0.309 C 
ENDBRANCH  16  17
ENDBRANCH   1  16
BRANCH   1  20
HETATM   20  O3  UNL     1     103.980  20.166  37.002  1.00  0.00    -0.307 OA
BRANCH  20  21
HETATM   21  C12 UNL     1     104.813  20.294  38.075  1.00  0.00     0.295 C 
HETATM   22  O4  UNL     1     105.654  21.223  38.071  1.00  0.00    -0.262 OA
BRANCH  21  23
HETATM   23  C13 UNL     1     104.790  19.398  39.258  1.00  0.00     0.210 C 
HETATM   24  C14 UNL     1     104.021  19.936  40.416  1.00  0.00     0.049 C 
HETATM   25  C15 UNL     1     103.486  18.703  41.130  1.00  0.00     0.003 C 
HETATM   26  C16 UNL     1     103.806  17.522  40.250  1.00  0.00     0.003 C 
HETATM   27  C17 UNL     1     103.971  18.170  38.879  1.00  0.00     0.049 C 
BRANCH  23  28
HETATM   28  N4  UNL     1     106.133  19.007  39.645  1.00  0.00    -0.061 N 
ATOM     29  H43 UNL     1     106.817  19.723  39.403  1.00  0.00     0.275 HD
ATOM     30  H42 UNL     1     106.249  19.018  40.659  1.00  0.00     0.275 HD
ATOM     31  H41 UNL     1     106.382  18.101  39.249  1.00  0.00     0.275 HD
ENDBRANCH  23  28
ENDBRANCH  21  23
ENDBRANCH  20  21
ENDBRANCH   1  20
TORSDOF 9
ENDMDL
MODEL 4
REMARK VINA RESULT: -4.780635889      1.326      1.730
REMARK  9 active torsions:
REMARK  status: ('A' for Active; 'I' for Inactive)
REMARK    1  A    between atoms: N1_2  and  C2_4 
REMARK    2  A    between atoms: C3_5  and  O1_6 
REMARK    3  A    between atoms: C7_13  and  C8_15 
REMARK    4  A    between atoms: C8_15  and  C9_16 
REMARK    5  A    between atoms: C8_15  and  O3_20 
REMARK    6  A    between atoms: C9_16  and  N3_17 
REMARK    7  A    between atoms: O3_20  and  C12_21 
REMARK    8  A    between atoms: C12_21  and  C13_23 
REMARK    9  A    between atoms: C13_23  and  N4_24 
ROOT
HETATM    1  C8  UNL     1     104.322  21.996  34.431  1.00  0.00     0.219 C 
ENDROOT
BRANCH   1   2
HETATM    2  C7  UNL     1     103.980  20.756  35.289  1.00  0.00     0.231 C 
HETATM    3  C2  UNL     1     103.860  19.555  34.414  1.00  0.00     0.165 C 
HETATM    4  C3  UNL     1     102.764  18.622  34.775  1.00  0.00     0.146 C 
HETATM    5  C4  UNL     1     102.571  18.658  36.282  1.00  0.00     0.058 C 
HETATM    6  C5  UNL     1     102.100  20.027  36.622  1.00  0.00     0.118 C 
HETATM    7  C6  UNL     1     102.479  20.530  37.996  1.00  0.00     0.216 C 
HETATM    8  N2  UNL     1     102.849  21.094  36.056  1.00  0.00    -0.146 NA
HETATM    9  O2  UNL     1     103.053  21.602  37.290  1.00  0.00    -0.298 OA
HETATM   10  F1  UNL     1     105.064  20.581  36.127  1.00  0.00    -0.218 F 
BRANCH   3  11
HETATM   11  N1  UNL     1     105.118  18.850  34.304  1.00  0.00    -0.415 N 
HETATM   12  C1  UNL     1     105.749  18.941  33.026  1.00  0.00     0.140 C 
ATOM     13  H1  UNL     1     105.523  18.327  35.080  1.00  0.00     0.153 HD
ENDBRANCH   3  11
BRANCH   4  14
HETATM   14  O1  UNL     1     102.988  17.300  34.435  1.00  0.00    -0.393 OA
ATOM     15  H1  UNL     1     103.894  17.019  34.495  1.00  0.00     0.210 HD
ENDBRANCH   4  14
ENDBRANCH   1   2
BRANCH   1  16
HETATM   16  C9  UNL     1     105.754  22.396  34.634  1.00  0.00     0.308 C 
BRANCH  16  17
HETATM   17  N3  UNL     1     105.770  23.703  35.274  1.00  0.00     0.082 N 
HETATM   18  C10 UNL     1     106.225  23.564  36.666  1.00  0.00     0.309 C 
HETATM   19  C11 UNL     1     104.408  24.247  35.337  1.00  0.00     0.309 C 
ENDBRANCH  16  17
ENDBRANCH   1  16
BRANCH   1  20
HETATM   20  O3  UNL     1     104.119  21.723  33.074  1.00  0.00    -0.307 OA
BRANCH  20  21
HETATM   21  C12 UNL     1     103.551  22.528  32.129  1.00  0.00     0.295 C 
HETATM   22  O4  UNL     1     103.980  23.700  32.007  1.00  0.00    -0.262 OA
BRANCH  21  23
HETATM   23  C13 UNL     1     102.450  22.106  31.229  1.00  0.00     0.210 C 
HETATM   24  C14 UNL     1     101.650  23.234  30.672  1.00  0.00     0.049 C 
HETATM   25  C15 UNL     1     101.168  22.735  29.318  1.00  0.00     0.003 C 
HETATM   26  C16 UNL     1     101.867  21.422  29.069  1.00  0.00     0.003 C 
HETATM   27  C17 UNL     1     103.090  21.525  29.974  1.00  0.00     0.049 C 
BRANCH  23  28
HETATM   28  N4  UNL     1     101.602  21.116  31.866  1.00  0.00    -0.061 N 
ATOM     29  H43 UNL     1     102.125  20.275  32.108  1.00  0.00     0.275 HD
ATOM     30  H42 UNL     1     101.328  21.405  32.805  1.00  0.00     0.275 HD
ATOM     31  H41 UNL     1     100.790  20.899  31.288  1.00  0.00     0.275 HD
ENDBRANCH  23  28
ENDBRANCH  21  23
ENDBRANCH  20  21
ENDBRANCH   1  20
TORSDOF 9
ENDMDL
MODEL 5
REMARK VINA RESULT: -4.623429191      2.280      4.315
REMARK  9 active torsions:
REMARK  status: ('A' for Active; 'I' for Inactive)
REMARK    1  A    between atoms: N1_2  and  C2_4 
REMARK    2  A    between atoms: C3_5  and  O1_6 
REMARK    3  A    between atoms: C7_13  and  C8_15 
REMARK    4  A    between atoms: C8_15  and  C9_16 
REMARK    5  A    between atoms: C8_15  and  O3_20 
REMARK    6  A    between atoms: C9_16  and  N3_17 
REMARK    7  A    between atoms: O3_20  and  C12_21 
REMARK    8  A    between atoms: C12_21  and  C13_23 
REMARK    9  A    between atoms: C13_23  and  N4_24 
ROOT
HETATM    1  C8  UNL     1     102.991  20.455  35.889  1.00  0.00     0.219 C 
ENDROOT
BRANCH   1   2
HETATM    2  C7  UNL     1     103.382  21.229  37.169  1.00  0.00     0.231 C 
HETATM    3  C2  UNL     1     103.063  20.410  38.373  1.00  0.00     0.165 C 
HETATM    4  C3  UNL     1     102.510  21.169  39.521  1.00  0.00     0.146 C 
HETATM    5  C4  UNL     1     103.115  22.563  39.519  1.00  0.00     0.058 C 
HETATM    6  C5  UNL     1     102.633  23.238  38.285  1.00  0.00     0.118 C 
HETATM    7  C6  UNL     1     103.560  24.282  37.703  1.00  0.00     0.216 C 
HETATM    8  N2  UNL     1     102.766  22.491  37.083  1.00  0.00    -0.146 NA
HETATM    9  O2  UNL     1     103.473  23.503  36.535  1.00  0.00    -0.298 OA
HETATM   10  F1  UNL     1     104.753  21.386  37.097  1.00  0.00    -0.218 F 
BRANCH   3  11
HETATM   11  N1  UNL     1     104.194  19.608  38.785  1.00  0.00    -0.415 N 
HETATM   12  C1  UNL     1     103.915  18.217  38.958  1.00  0.00     0.140 C 
ATOM     13  H1  UNL     1     105.120  20.005  38.941  1.00  0.00     0.153 HD
ENDBRANCH   3  11
BRANCH   4  14
HETATM   14  O1  UNL     1     102.775  20.622  40.764  1.00  0.00    -0.393 OA
ATOM     15  H1  UNL     1     102.009  20.334  41.246  1.00  0.00     0.210 HD
ENDBRANCH   4  14
ENDBRANCH   1   2
BRANCH   1  16
HETATM   16  C9  UNL     1     101.988  19.386  36.210  1.00  0.00     0.308 C 
BRANCH  16  17
HETATM   17  N3  UNL     1     102.310  18.212  35.411  1.00  0.00     0.082 N 
HETATM   18  C10 UNL     1     101.742  17.014  36.047  1.00  0.00     0.309 C 
HETATM   19  C11 UNL     1     103.763  18.012  35.377  1.00  0.00     0.309 C 
ENDBRANCH  16  17
ENDBRANCH   1  16
BRANCH   1  20
HETATM   20  O3  UNL     1     102.439  21.322  34.942  1.00  0.00    -0.307 OA
BRANCH  20  21
HETATM   21  C12 UNL     1     102.111  21.054  33.644  1.00  0.00     0.295 C 
HETATM   22  O4  UNL     1     100.920  20.772  33.375  1.00  0.00    -0.262 OA
BRANCH  21  23
HETATM   23  C13 UNL     1     103.080  21.074  32.520  1.00  0.00     0.210 C 
HETATM   24  C14 UNL     1     102.503  21.538  31.226  1.00  0.00     0.049 C 
HETATM   25  C15 UNL     1     103.668  22.192  30.496  1.00  0.00     0.003 C 
HETATM   26  C16 UNL     1     104.813  22.248  31.476  1.00  0.00     0.003 C 
HETATM   27  C17 UNL     1     104.099  22.167  32.821  1.00  0.00     0.049 C 
BRANCH  23  28
HETATM   28  N4  UNL     1     103.744  19.792  32.378  1.00  0.00    -0.061 N 
ATOM     29  H43 UNL     1     104.758  19.888  32.432  1.00  0.00     0.275 HD
ATOM     30  H42 UNL     1     103.600  19.202  33.197  1.00  0.00     0.275 HD
ATOM     31  H41 UNL     1     103.457  19.321  31.520  1.00  0.00     0.275 HD
ENDBRANCH  23  28
ENDBRANCH  21  23
ENDBRANCH  20  21
ENDBRANCH   1  20
TORSDOF 9
ENDMDL
