MODEL 1
REMARK VINA RESULT: -5.882248797      0.000      0.000
REMARK  10 active torsions:
REMARK  status: ('A' for Active; 'I' for Inactive)
REMARK    1  A    between atoms: C2_2  and  C3_3 
REMARK    2  A    between atoms: C3_3  and  C4_4 
REMARK    3  A    between atoms: C4_4  and  C5_5 
REMARK       I    between atoms: C5_5  and  N1_7 
REMARK    4  A    between atoms: N1_7  and  C6_9 
REMARK    5  A    between atoms: C8_12  and  C9_13 
REMARK    6  A    between atoms: C9_13  and  O3_15 
REMARK    7  A    between atoms: C11_17  and  O4_18 
REMARK    8  A    between atoms: C12_20  and  O5_21 
REMARK    9  A    between atoms: C13_23  and  O6_24 
REMARK   10  A    between atoms: O6_24  and  C14_25 
ROOT
HETATM    1  C6  UNL     1      95.531  15.852  30.856  1.00  0.00     0.148 C 
HETATM    2  C7  UNL     1      94.882  15.022  29.740  1.00  0.00     0.301 C 
HETATM    3  N2  UNL     1      94.683  16.290  29.043  1.00  0.00     0.117 N 
HETATM    4  C8  UNL     1      93.404  16.380  28.448  1.00  0.00     0.353 C 
HETATM    5  C11 UNL     1      92.874  17.794  28.675  1.00  0.00     0.193 C 
HETATM    6  C12 UNL     1      92.496  17.817  30.146  1.00  0.00     0.180 C 
HETATM    7  C13 UNL     1      93.733  17.551  30.949  1.00  0.00     0.189 C 
HETATM    8  C15 UNL     1      94.911  17.091  30.192  1.00  0.00     0.279 C 
ENDROOT
BRANCH   1   9
HETATM    9  N1  UNL     1      96.950  15.772  30.741  1.00  0.00    -0.353 N 
HETATM   10  C5  UNL     1      97.746  14.731  31.326  1.00  0.00     0.217 C 
HETATM   11  O1  UNL     1      97.104  13.865  31.966  1.00  0.00    -0.274 OA
ATOM     12  H1  UNL     1      97.429  16.499  30.211  1.00  0.00     0.163 HD
BRANCH  10  13
HETATM   13  C4  UNL     1      99.197  14.693  31.179  1.00  0.00     0.103 C 
BRANCH  13  14
HETATM   14  C3  UNL     1      99.953  13.986  32.243  1.00  0.00     0.009 C 
BRANCH  14  15
HETATM   15  C2  UNL     1      99.848  14.631  33.597  1.00  0.00    -0.004 C 
HETATM   16  C1  UNL     1      99.813  13.550  34.680  1.00  0.00     0.005 C 
ENDBRANCH  14  15
ENDBRANCH  13  14
ENDBRANCH  10  13
ENDBRANCH   1   9
BRANCH   7  17
HETATM   17  O6  UNL     1      93.399  16.679  31.980  1.00  0.00    -0.366 OA
BRANCH  17  18
HETATM   18  C14 UNL     1      94.241  16.789  33.078  1.00  0.00     0.282 C 
HETATM   19 CL1  UNL     1      94.704  18.474  33.406  1.00  0.00    -0.102 Cl
ENDBRANCH  17  18
ENDBRANCH   7  17
BRANCH   4  20
HETATM   20  C9  UNL     1      93.414  16.130  26.996  1.00  0.00     0.295 C 
HETATM   21  O2  UNL     1      93.422  17.162  26.246  1.00  0.00    -0.263 OA
BRANCH  20  22
HETATM   22  O3  UNL     1      93.418  14.876  26.430  1.00  0.00    -0.325 OA
HETATM   23  C10 UNL     1      94.227  14.678  25.274  1.00  0.00     0.213 C 
ENDBRANCH  20  22
ENDBRANCH   4  20
BRANCH   6  24
HETATM   24  O5  UNL     1      91.597  16.753  30.330  1.00  0.00    -0.390 OA
ATOM     25  H5  UNL     1      91.759  16.422  31.205  1.00  0.00     0.210 HD
ENDBRANCH   6  24
BRANCH   5  26
HETATM   26  O4  UNL     1      91.795  18.084  27.869  1.00  0.00    -0.390 OA
ATOM     27  H4  UNL     1      91.005  18.248  28.370  1.00  0.00     0.210 HD
ENDBRANCH   5  26
TORSDOF 10
ENDMDL
MODEL 2
REMARK VINA RESULT: -5.676930805      7.464     10.875
REMARK  10 active torsions:
REMARK  status: ('A' for Active; 'I' for Inactive)
REMARK    1  A    between atoms: C2_2  and  C3_3 
REMARK    2  A    between atoms: C3_3  and  C4_4 
REMARK    3  A    between atoms: C4_4  and  C5_5 
REMARK       I    between atoms: C5_5  and  N1_7 
REMARK    4  A    between atoms: N1_7  and  C6_9 
REMARK    5  A    between atoms: C8_12  and  C9_13 
REMARK    6  A    between atoms: C9_13  and  O3_15 
REMARK    7  A    between atoms: C11_17  and  O4_18 
REMARK    8  A    between atoms: C12_20  and  O5_21 
REMARK    9  A    between atoms: C13_23  and  O6_24 
REMARK   10  A    between atoms: O6_24  and  C14_25 
ROOT
HETATM    1  C6  UNL     1     102.341  17.718  35.471  1.00  0.00     0.148 C 
HETATM    2  C7  UNL     1     101.954  19.138  35.037  1.00  0.00     0.301 C 
HETATM    3  N2  UNL     1     103.294  19.227  34.466  1.00  0.00     0.117 N 
HETATM    4  C8  UNL     1     103.908  20.473  34.728  1.00  0.00     0.353 C 
HETATM    5  C11 UNL     1     105.372  20.217  35.078  1.00  0.00     0.193 C 
HETATM    6  C12 UNL     1     105.321  19.634  36.480  1.00  0.00     0.180 C 
HETATM    7  C13 UNL     1     104.531  18.362  36.427  1.00  0.00     0.189 C 
HETATM    8  C15 UNL     1     103.798  18.106  35.175  1.00  0.00     0.279 C 
ENDROOT
BRANCH   1   9
HETATM    9  N1  UNL     1     101.786  16.776  34.555  1.00  0.00    -0.353 N 
HETATM   10  C5  UNL     1     100.774  15.820  34.900  1.00  0.00     0.217 C 
HETATM   11  O1  UNL     1     100.388  15.859  36.093  1.00  0.00    -0.274 OA
ATOM     12  H1  UNL     1     102.131  16.782  33.595  1.00  0.00     0.163 HD
BRANCH  10  13
HETATM   13  C4  UNL     1     100.237  14.876  33.926  1.00  0.00     0.103 C 
BRANCH  13  14
HETATM   14  C3  UNL     1      99.511  15.457  32.769  1.00  0.00     0.009 C 
BRANCH  14  15
HETATM   15  C2  UNL     1      99.194  14.461  31.686  1.00  0.00    -0.004 C 
HETATM   16  C1  UNL     1      98.108  13.500  32.175  1.00  0.00     0.005 C 
ENDBRANCH  14  15
ENDBRANCH  13  14
ENDBRANCH  10  13
ENDBRANCH   1   9
BRANCH   7  17
HETATM   17  O6  UNL     1     103.697  18.327  37.540  1.00  0.00    -0.366 OA
BRANCH  17  18
HETATM   18  C14 UNL     1     104.261  17.661  38.620  1.00  0.00     0.282 C 
HETATM   19 CL1  UNL     1     103.785  18.376  40.176  1.00  0.00    -0.102 Cl
ENDBRANCH  17  18
ENDBRANCH   7  17
BRANCH   4  20
HETATM   20  C9  UNL     1     103.874  21.396  33.579  1.00  0.00     0.295 C 
HETATM   21  O2  UNL     1     104.057  22.631  33.841  1.00  0.00    -0.263 OA
BRANCH  20  22
HETATM   22  O3  UNL     1     103.664  20.999  32.278  1.00  0.00    -0.325 OA
HETATM   23  C10 UNL     1     102.467  21.436  31.643  1.00  0.00     0.213 C 
ENDBRANCH  20  22
ENDBRANCH   4  20
BRANCH   6  24
HETATM   24  O5  UNL     1     104.625  20.571  37.262  1.00  0.00    -0.390 OA
ATOM     25  H5  UNL     1     104.509  20.166  38.113  1.00  0.00     0.210 HD
ENDBRANCH   6  24
BRANCH   5  26
HETATM   26  O4  UNL     1     106.130  21.366  35.033  1.00  0.00    -0.390 OA
ATOM     27  H4  UNL     1     107.061  21.187  35.084  1.00  0.00     0.210 HD
ENDBRANCH   5  26
TORSDOF 10
ENDMDL
MODEL 3
REMARK VINA RESULT: -5.528132912      8.453     11.827
REMARK  10 active torsions:
REMARK  status: ('A' for Active; 'I' for Inactive)
REMARK    1  A    between atoms: C2_2  and  C3_3 
REMARK    2  A    between atoms: C3_3  and  C4_4 
REMARK    3  A    between atoms: C4_4  and  C5_5 
REMARK       I    between atoms: C5_5  and  N1_7 
REMARK    4  A    between atoms: N1_7  and  C6_9 
REMARK    5  A    between atoms: C8_12  and  C9_13 
REMARK    6  A    between atoms: C9_13  and  O3_15 
REMARK    7  A    between atoms: C11_17  and  O4_18 
REMARK    8  A    between atoms: C12_20  and  O5_21 
REMARK    9  A    between atoms: C13_23  and  O6_24 
REMARK   10  A    between atoms: O6_24  and  C14_25 
ROOT
HETATM    1  C6  UNL     1     103.946  20.919  32.822  1.00  0.00     0.148 C 
HETATM    2  C7  UNL     1     104.469  19.576  33.349  1.00  0.00     0.301 C 
HETATM    3  N2  UNL     1     103.341  19.608  34.275  1.00  0.00     0.117 N 
HETATM    4  C8  UNL     1     103.707  19.206  35.581  1.00  0.00     0.353 C 
HETATM    5  C11 UNL     1     103.007  20.131  36.575  1.00  0.00     0.193 C 
HETATM    6  C12 UNL     1     103.771  21.439  36.465  1.00  0.00     0.180 C 
HETATM    7  C13 UNL     1     103.642  21.937  35.058  1.00  0.00     0.189 C 
HETATM    8  C15 UNL     1     103.073  20.988  34.084  1.00  0.00     0.279 C 
ENDROOT
BRANCH   1   9
HETATM    9  N1  UNL     1     103.218  20.702  31.615  1.00  0.00    -0.353 N 
HETATM   10  C5  UNL     1     102.675  21.754  30.805  1.00  0.00     0.217 C 
HETATM   11  O1  UNL     1     102.882  22.916  31.230  1.00  0.00    -0.274 OA
ATOM     12  H1  UNL     1     103.075  19.740  31.309  1.00  0.00     0.163 HD
BRANCH  10  13
HETATM   13  C4  UNL     1     101.937  21.481  29.576  1.00  0.00     0.103 C 
BRANCH  13  14
HETATM   14  C3  UNL     1     100.619  22.148  29.431  1.00  0.00     0.009 C 
BRANCH  14  15
HETATM   15  C2  UNL     1      99.979  21.946  28.085  1.00  0.00    -0.004 C 
HETATM   16  C1  UNL     1      98.486  21.661  28.264  1.00  0.00     0.005 C 
ENDBRANCH  14  15
ENDBRANCH  13  14
ENDBRANCH  10  13
ENDBRANCH   1   9
BRANCH   7  17
HETATM   17  O6  UNL     1     104.884  22.419  34.656  1.00  0.00    -0.366 OA
BRANCH  17  18
HETATM   18  C14 UNL     1     104.920  23.802  34.549  1.00  0.00     0.282 C 
HETATM   19 CL1  UNL     1     105.535  24.342  32.971  1.00  0.00    -0.102 Cl
ENDBRANCH  17  18
ENDBRANCH   7  17
BRANCH   4  20
HETATM   20  C9  UNL     1     103.314  17.822  35.899  1.00  0.00     0.295 C 
HETATM   21  O2  UNL     1     103.925  17.272  36.874  1.00  0.00    -0.263 OA
BRANCH  20  22
HETATM   22  O3  UNL     1     102.347  17.119  35.217  1.00  0.00    -0.325 OA
HETATM   23  C10 UNL     1     101.223  16.657  35.958  1.00  0.00     0.213 C 
ENDBRANCH  20  22
ENDBRANCH   4  20
BRANCH   6  24
HETATM   24  O5  UNL     1     105.117  21.122  36.715  1.00  0.00    -0.390 OA
ATOM     25  H5  UNL     1     105.123  20.629  37.526  1.00  0.00     0.210 HD
ENDBRANCH   6  24
BRANCH   5  26
HETATM   26  O4  UNL     1     103.034  19.633  37.859  1.00  0.00    -0.390 OA
ATOM     27  H4  UNL     1     103.918  19.476  38.167  1.00  0.00     0.210 HD
ENDBRANCH   5  26
TORSDOF 10
ENDMDL
MODEL 4
REMARK VINA RESULT: -5.504909321      7.884     11.570
REMARK  10 active torsions:
REMARK  status: ('A' for Active; 'I' for Inactive)
REMARK    1  A    between atoms: C2_2  and  C3_3 
REMARK    2  A    between atoms: C3_3  and  C4_4 
REMARK    3  A    between atoms: C4_4  and  C5_5 
REMARK       I    between atoms: C5_5  and  N1_7 
REMARK    4  A    between atoms: N1_7  and  C6_9 
REMARK    5  A    between atoms: C8_12  and  C9_13 
REMARK    6  A    between atoms: C9_13  and  O3_15 
REMARK    7  A    between atoms: C11_17  and  O4_18 
REMARK    8  A    between atoms: C12_20  and  O5_21 
REMARK    9  A    between atoms: C13_23  and  O6_24 
REMARK   10  A    between atoms: O6_24  and  C14_25 
ROOT
HETATM    1  C6  UNL     1     102.503  17.782  35.749  1.00  0.00     0.148 C 
HETATM    2  C7  UNL     1     102.080  19.257  35.734  1.00  0.00     0.301 C 
HETATM    3  N2  UNL     1     103.391  19.529  35.154  1.00  0.00     0.117 N 
HETATM    4  C8  UNL     1     104.002  20.672  35.719  1.00  0.00     0.353 C 
HETATM    5  C11 UNL     1     105.483  20.365  35.926  1.00  0.00     0.193 C 
HETATM    6  C12 UNL     1     105.504  19.422  37.117  1.00  0.00     0.180 C 
HETATM    7  C13 UNL     1     104.727  18.194  36.753  1.00  0.00     0.189 C 
HETATM    8  C15 UNL     1     103.940  18.270  35.510  1.00  0.00     0.279 C 
ENDROOT
BRANCH   1   9
HETATM    9  N1  UNL     1     101.917  17.111  34.635  1.00  0.00    -0.353 N 
HETATM   10  C5  UNL     1     100.902  16.104  34.747  1.00  0.00     0.217 C 
HETATM   11  O1  UNL     1     100.543  15.836  35.919  1.00  0.00    -0.274 OA
ATOM     12  H1  UNL     1     102.240  17.362  33.701  1.00  0.00     0.163 HD
BRANCH  10  13
HETATM   13  C4  UNL     1     100.333  15.446  33.576  1.00  0.00     0.103 C 
BRANCH  13  14
HETATM   14  C3  UNL     1      99.725  14.110  33.794  1.00  0.00     0.009 C 
BRANCH  14  15
HETATM   15  C2  UNL     1      98.740  13.707  32.731  1.00  0.00    -0.004 C 
HETATM   16  C1  UNL     1      98.709  14.770  31.631  1.00  0.00     0.005 C 
ENDBRANCH  14  15
ENDBRANCH  13  14
ENDBRANCH  10  13
ENDBRANCH   1   9
BRANCH   7  17
HETATM   17  O6  UNL     1     103.946  17.839  37.848  1.00  0.00    -0.366 OA
BRANCH  17  18
HETATM   18  C14 UNL     1     104.686  17.294  38.888  1.00  0.00     0.282 C 
HETATM   19 CL1  UNL     1     103.953  17.613  40.476  1.00  0.00    -0.102 Cl
ENDBRANCH  17  18
ENDBRANCH   7  17
BRANCH   4  20
HETATM   20  C9  UNL     1     103.905  21.870  34.867  1.00  0.00     0.295 C 
HETATM   21  O2  UNL     1     103.721  21.665  33.622  1.00  0.00    -0.263 OA
BRANCH  20  22
HETATM   22  O3  UNL     1     103.998  23.161  35.338  1.00  0.00    -0.325 OA
HETATM   23  C10 UNL     1     103.392  23.447  36.595  1.00  0.00     0.213 C 
ENDBRANCH  20  22
ENDBRANCH   4  20
BRANCH   6  24
HETATM   24  O5  UNL     1     104.834  20.095  38.153  1.00  0.00    -0.390 OA
ATOM     25  H5  UNL     1     104.025  19.619  38.292  1.00  0.00     0.210 HD
ENDBRANCH   6  24
BRANCH   5  26
HETATM   26  O4  UNL     1     106.225  21.501  36.163  1.00  0.00    -0.390 OA
ATOM     27  H4  UNL     1     106.892  21.642  35.502  1.00  0.00     0.210 HD
ENDBRANCH   5  26
TORSDOF 10
ENDMDL
MODEL 5
REMARK VINA RESULT: -5.481630784      8.476     10.904
REMARK  10 active torsions:
REMARK  status: ('A' for Active; 'I' for Inactive)
REMARK    1  A    between atoms: C2_2  and  C3_3 
REMARK    2  A    between atoms: C3_3  and  C4_4 
REMARK    3  A    between atoms: C4_4  and  C5_5 
REMARK       I    between atoms: C5_5  and  N1_7 
REMARK    4  A    between atoms: N1_7  and  C6_9 
REMARK    5  A    between atoms: C8_12  and  C9_13 
REMARK    6  A    between atoms: C9_13  and  O3_15 
REMARK    7  A    between atoms: C11_17  and  O4_18 
REMARK    8  A    between atoms: C12_20  and  O5_21 
REMARK    9  A    between atoms: C13_23  and  O6_24 
REMARK   10  A    between atoms: O6_24  and  C14_25 
ROOT
HETATM    1  C6  UNL     1     102.910  18.228  35.177  1.00  0.00     0.148 C 
HETATM    2  C7  UNL     1     102.348  19.598  34.772  1.00  0.00     0.301 C 
HETATM    3  N2  UNL     1     103.444  19.657  33.810  1.00  0.00     0.117 N 
HETATM    4  C8  UNL     1     104.054  20.932  33.770  1.00  0.00     0.353 C 
HETATM    5  C11 UNL     1     105.565  20.732  33.671  1.00  0.00     0.193 C 
HETATM    6  C12 UNL     1     105.970  20.276  35.062  1.00  0.00     0.180 C 
HETATM    7  C13 UNL     1     105.258  18.991  35.357  1.00  0.00     0.189 C 
HETATM    8  C15 UNL     1     104.188  18.612  34.417  1.00  0.00     0.279 C 
ENDROOT
BRANCH   1   9
HETATM    9  N1  UNL     1     102.143  17.199  34.555  1.00  0.00    -0.353 N 
HETATM   10  C5  UNL     1     101.147  16.419  35.232  1.00  0.00     0.217 C 
HETATM   11  O1  UNL     1     100.981  16.701  36.443  1.00  0.00    -0.274 OA
ATOM     12  H1  UNL     1     102.313  17.007  33.568  1.00  0.00     0.163 HD
BRANCH  10  13
HETATM   13  C4  UNL     1     100.388  15.377  34.550  1.00  0.00     0.103 C 
BRANCH  13  14
HETATM   14  C3  UNL     1     100.125  14.135  35.321  1.00  0.00     0.009 C 
BRANCH  14  15
HETATM   15  C2  UNL     1      99.657  12.982  34.477  1.00  0.00    -0.004 C 
HETATM   16  C1  UNL     1      99.829  11.674  35.253  1.00  0.00     0.005 C 
ENDBRANCH  14  15
ENDBRANCH  13  14
ENDBRANCH  10  13
ENDBRANCH   1   9
BRANCH   7  17
HETATM   17  O6  UNL     1     104.806  19.042  36.672  1.00  0.00    -0.366 OA
BRANCH  17  18
HETATM   18  C14 UNL     1     105.568  18.269  37.537  1.00  0.00     0.282 C 
HETATM   19 CL1  UNL     1     104.596  17.573  38.853  1.00  0.00    -0.102 Cl
ENDBRANCH  17  18
ENDBRANCH   7  17
BRANCH   4  20
HETATM   20  C9  UNL     1     103.631  21.748  32.618  1.00  0.00     0.295 C 
HETATM   21  O2  UNL     1     103.828  23.005  32.713  1.00  0.00    -0.263 OA
BRANCH  20  22
HETATM   22  O3  UNL     1     103.054  21.233  31.479  1.00  0.00    -0.325 OA
HETATM   23  C10 UNL     1     101.805  21.780  31.069  1.00  0.00     0.213 C 
ENDBRANCH  20  22
ENDBRANCH   4  20
BRANCH   6  24
HETATM   24  O5  UNL     1     105.507  21.267  35.943  1.00  0.00    -0.390 OA
ATOM     25  H5  UNL     1     104.859  21.765  35.459  1.00  0.00     0.210 HD
ENDBRANCH   6  24
BRANCH   5  26
HETATM   26  O4  UNL     1     106.222  21.885  33.303  1.00  0.00    -0.390 OA
ATOM     27  H4  UNL     1     107.124  21.898  33.602  1.00  0.00     0.210 HD
ENDBRANCH   5  26
TORSDOF 10
ENDMDL
