MODEL 1
REMARK VINA RESULT: -6.527976247      0.000      0.000
REMARK  8 active torsions:
REMARK  status: ('A' for Active; 'I' for Inactive)
REMARK    1  A    between atoms: O1_2  and  C2_3 
REMARK    2  A    between atoms: C3_5  and  C4_6 
REMARK       I    between atoms: C4_6  and  N1_8 
REMARK    3  A    between atoms: N1_8  and  C5_10 
REMARK    4  A    between atoms: C5_10  and  C6_11 
REMARK    5  A    between atoms: C7_13  and  O4_14 
REMARK    6  A    between atoms: O4_14  and  C8_15 
REMARK       I    between atoms: C8_15  and  N2_17 
REMARK    7  A    between atoms: N2_17  and  C9_19 
REMARK    8  A    between atoms: C14_25  and  O7_26 
ROOT
HETATM    1  C2  UNL     1     103.463  20.641  33.763  1.00  0.00     0.315 C 
HETATM    2  O2  UNL     1     104.521  20.121  34.493  1.00  0.00    -0.337 OA
HETATM    3  C3  UNL     1     104.356  18.825  34.888  1.00  0.00     0.272 C 
HETATM    4  C7  UNL     1     102.974  18.338  34.636  1.00  0.00     0.312 C 
HETATM    5  O6  UNL     1     102.089  19.280  35.208  1.00  0.00    -0.323 OA
HETATM    6  C14 UNL     1     102.117  20.385  34.392  1.00  0.00     0.315 C 
ENDROOT
BRANCH   4   7
HETATM    7  O4  UNL     1     102.684  17.086  35.187  1.00  0.00    -0.269 OA
BRANCH   7   8
HETATM    8  C8  UNL     1     101.476  16.422  35.044  1.00  0.00     0.363 C 
HETATM    9  O5  UNL     1     100.754  16.327  36.065  1.00  0.00    -0.238 OA
HETATM   10  N2  UNL     1     101.069  15.865  33.783  1.00  0.00    -0.332 N 
ATOM     11  H2  UNL     1     101.697  15.971  32.987  1.00  0.00     0.165 HD
BRANCH  10  12
HETATM   12  C9  UNL     1      99.842  15.175  33.579  1.00  0.00     0.086 C 
HETATM   13  C10 UNL     1      99.854  13.728  33.940  1.00  0.00     0.025 C 
HETATM   14  C11 UNL     1      98.622  13.203  33.232  1.00  0.00     0.002 C 
HETATM   15  C12 UNL     1      98.284  14.175  32.141  1.00  0.00     0.002 C 
HETATM   16  C13 UNL     1      99.470  15.142  32.107  1.00  0.00     0.025 C 
ENDBRANCH  10  12
ENDBRANCH   7   8
ENDBRANCH   4   7
BRANCH   3  17
HETATM   17  C4  UNL     1     104.786  18.587  36.294  1.00  0.00     0.251 C 
HETATM   18  O3  UNL     1     106.020  18.445  36.469  1.00  0.00    -0.270 OA
HETATM   19  N1  UNL     1     103.803  18.538  37.302  1.00  0.00    -0.358 N 
ATOM     20  H1  UNL     1     102.829  18.670  37.028  1.00  0.00     0.162 HD
BRANCH  19  21
HETATM   21  C5  UNL     1     104.087  18.314  38.699  1.00  0.00     0.137 C 
BRANCH  21  22
HETATM   22  C6  UNL     1     103.716  19.516  39.527  1.00  0.00     0.134 C 
HETATM   23 CL1  UNL     1     103.155  18.988  41.153  1.00  0.00    -0.129 Cl
ENDBRANCH  21  22
ENDBRANCH  19  21
ENDBRANCH   3  17
BRANCH   6  24
HETATM   24  O7  UNL     1     101.117  20.314  33.423  1.00  0.00    -0.367 OA
ATOM     25  H7  UNL     1     100.281  20.084  33.811  1.00  0.00     0.212 HD
ENDBRANCH   6  24
BRANCH   1  26
HETATM   26  O1  UNL     1     103.584  22.006  33.553  1.00  0.00    -0.361 OA
HETATM   27  C1  UNL     1     103.830  22.276  32.216  1.00  0.00     0.205 C 
ENDBRANCH   1  26
TORSDOF 8
ENDMDL
MODEL 2
REMARK VINA RESULT: -6.263659038      2.390      4.302
REMARK  8 active torsions:
REMARK  status: ('A' for Active; 'I' for Inactive)
REMARK    1  A    between atoms: O1_2  and  C2_3 
REMARK    2  A    between atoms: C3_5  and  C4_6 
REMARK       I    between atoms: C4_6  and  N1_8 
REMARK    3  A    between atoms: N1_8  and  C5_10 
REMARK    4  A    between atoms: C5_10  and  C6_11 
REMARK    5  A    between atoms: C7_13  and  O4_14 
REMARK    6  A    between atoms: O4_14  and  C8_15 
REMARK       I    between atoms: C8_15  and  N2_17 
REMARK    7  A    between atoms: N2_17  and  C9_19 
REMARK    8  A    between atoms: C14_25  and  O7_26 
ROOT
HETATM    1  C2  UNL     1     103.794  19.015  38.163  1.00  0.00     0.315 C 
HETATM    2  O2  UNL     1     103.058  19.826  37.314  1.00  0.00    -0.337 OA
HETATM    3  C3  UNL     1     102.473  19.172  36.268  1.00  0.00     0.272 C 
HETATM    4  C7  UNL     1     102.948  17.768  36.154  1.00  0.00     0.312 C 
HETATM    5  O6  UNL     1     104.361  17.805  36.152  1.00  0.00    -0.323 OA
HETATM    6  C14 UNL     1     104.744  18.094  37.440  1.00  0.00     0.315 C 
ENDROOT
BRANCH   4   7
HETATM    7  O4  UNL     1     102.534  17.102  34.998  1.00  0.00    -0.269 OA
BRANCH   7   8
HETATM    8  C8  UNL     1     101.359  16.377  34.883  1.00  0.00     0.363 C 
HETATM    9  O5  UNL     1     100.666  16.246  35.920  1.00  0.00    -0.238 OA
HETATM   10  N2  UNL     1     100.950  15.799  33.631  1.00  0.00    -0.332 N 
ATOM     11  H2  UNL     1     101.554  15.937  32.820  1.00  0.00     0.165 HD
BRANCH  10  12
HETATM   12  C9  UNL     1      99.756  15.048  33.455  1.00  0.00     0.086 C 
HETATM   13  C10 UNL     1      99.788  13.659  33.997  1.00  0.00     0.025 C 
HETATM   14  C11 UNL     1      98.611  13.007  33.302  1.00  0.00     0.002 C 
HETATM   15  C12 UNL     1      98.306  13.822  32.080  1.00  0.00     0.002 C 
HETATM   16  C13 UNL     1      99.465  14.817  31.983  1.00  0.00     0.025 C 
ENDBRANCH  10  12
ENDBRANCH   7   8
ENDBRANCH   4   7
BRANCH   3  17
HETATM   17  C4  UNL     1     102.593  19.911  34.981  1.00  0.00     0.251 C 
HETATM   18  O3  UNL     1     101.611  20.628  34.670  1.00  0.00    -0.270 OA
HETATM   19  N1  UNL     1     103.769  19.757  34.221  1.00  0.00    -0.358 N 
ATOM     20  H1  UNL     1     104.497  19.142  34.586  1.00  0.00     0.162 HD
BRANCH  19  21
HETATM   21  C5  UNL     1     104.009  20.414  32.959  1.00  0.00     0.137 C 
BRANCH  21  22
HETATM   22  C6  UNL     1     105.484  20.502  32.666  1.00  0.00     0.134 C 
HETATM   23 CL1  UNL     1     106.208  18.854  32.678  1.00  0.00    -0.129 Cl
ENDBRANCH  21  22
ENDBRANCH  19  21
ENDBRANCH   3  17
BRANCH   6  24
HETATM   24  O7  UNL     1     104.962  16.926  38.169  1.00  0.00    -0.367 OA
ATOM     25  H7  UNL     1     105.706  16.445  37.828  1.00  0.00     0.212 HD
ENDBRANCH   6  24
BRANCH   1  26
HETATM   26  O1  UNL     1     104.525  19.742  39.090  1.00  0.00    -0.361 OA
HETATM   27  C1  UNL     1     103.866  19.788  40.308  1.00  0.00     0.205 C 
ENDBRANCH   1  26
TORSDOF 8
ENDMDL
MODEL 3
REMARK VINA RESULT: -5.727180286      3.039      4.553
REMARK  8 active torsions:
REMARK  status: ('A' for Active; 'I' for Inactive)
REMARK    1  A    between atoms: O1_2  and  C2_3 
REMARK    2  A    between atoms: C3_5  and  C4_6 
REMARK       I    between atoms: C4_6  and  N1_8 
REMARK    3  A    between atoms: N1_8  and  C5_10 
REMARK    4  A    between atoms: C5_10  and  C6_11 
REMARK    5  A    between atoms: C7_13  and  O4_14 
REMARK    6  A    between atoms: O4_14  and  C8_15 
REMARK       I    between atoms: C8_15  and  N2_17 
REMARK    7  A    between atoms: N2_17  and  C9_19 
REMARK    8  A    between atoms: C14_25  and  O7_26 
ROOT
HETATM    1  C2  UNL     1     103.218  19.831  37.751  1.00  0.00     0.315 C 
HETATM    2  O2  UNL     1     102.932  20.431  36.535  1.00  0.00    -0.337 OA
HETATM    3  C3  UNL     1     102.505  19.571  35.564  1.00  0.00     0.272 C 
HETATM    4  C7  UNL     1     102.661  18.150  35.970  1.00  0.00     0.312 C 
HETATM    5  O6  UNL     1     103.997  17.985  36.403  1.00  0.00    -0.323 OA
HETATM    6  C14 UNL     1     104.088  18.606  37.626  1.00  0.00     0.315 C 
ENDROOT
BRANCH   4   7
HETATM    7  O4  UNL     1     102.421  17.221  34.955  1.00  0.00    -0.269 OA
BRANCH   7   8
HETATM    8  C8  UNL     1     101.292  16.422  34.867  1.00  0.00     0.363 C 
HETATM    9  O5  UNL     1     100.645  16.232  35.924  1.00  0.00    -0.238 OA
HETATM   10  N2  UNL     1     100.880  15.835  33.620  1.00  0.00    -0.332 N 
ATOM     11  H2  UNL     1     101.446  16.022  32.793  1.00  0.00     0.165 HD
BRANCH  10  12
HETATM   12  C9  UNL     1      99.732  15.009  33.472  1.00  0.00     0.086 C 
HETATM   13  C10 UNL     1      99.853  13.636  34.040  1.00  0.00     0.025 C 
HETATM   14  C11 UNL     1      98.712  12.901  33.370  1.00  0.00     0.002 C 
HETATM   15  C12 UNL     1      98.345  13.672  32.137  1.00  0.00     0.002 C 
HETATM   16  C13 UNL     1      99.441  14.733  32.008  1.00  0.00     0.025 C 
ENDBRANCH  10  12
ENDBRANCH   7   8
ENDBRANCH   4   7
BRANCH   3  17
HETATM   17  C4  UNL     1     103.119  19.845  34.235  1.00  0.00     0.251 C 
HETATM   18  O3  UNL     1     104.237  19.314  34.032  1.00  0.00    -0.270 OA
HETATM   19  N1  UNL     1     102.420  20.661  33.323  1.00  0.00    -0.358 N 
ATOM     20  H1  UNL     1     101.514  21.033  33.611  1.00  0.00     0.162 HD
BRANCH  19  21
HETATM   21  C5  UNL     1     102.904  21.004  32.008  1.00  0.00     0.137 C 
BRANCH  21  22
HETATM   22  C6  UNL     1     101.826  21.665  31.190  1.00  0.00     0.134 C 
HETATM   23 CL1  UNL     1     102.154  21.419  29.437  1.00  0.00    -0.129 Cl
ENDBRANCH  21  22
ENDBRANCH  19  21
ENDBRANCH   3  17
BRANCH   6  24
HETATM   24  O7  UNL     1     103.838  17.706  38.661  1.00  0.00    -0.367 OA
ATOM     25  H7  UNL     1     103.092  17.981  39.180  1.00  0.00     0.212 HD
ENDBRANCH   6  24
BRANCH   1  26
HETATM   26  O1  UNL     1     103.830  20.701  38.641  1.00  0.00    -0.361 OA
HETATM   27  C1  UNL     1     102.944  21.090  39.633  1.00  0.00     0.205 C 
ENDBRANCH   1  26
TORSDOF 8
ENDMDL
MODEL 4
REMARK VINA RESULT: -5.586751587      7.907     11.340
REMARK  8 active torsions:
REMARK  status: ('A' for Active; 'I' for Inactive)
REMARK    1  A    between atoms: O1_2  and  C2_3 
REMARK    2  A    between atoms: C3_5  and  C4_6 
REMARK       I    between atoms: C4_6  and  N1_8 
REMARK    3  A    between atoms: N1_8  and  C5_10 
REMARK    4  A    between atoms: C5_10  and  C6_11 
REMARK    5  A    between atoms: C7_13  and  O4_14 
REMARK    6  A    between atoms: O4_14  and  C8_15 
REMARK       I    between atoms: C8_15  and  N2_17 
REMARK    7  A    between atoms: N2_17  and  C9_19 
REMARK    8  A    between atoms: C14_25  and  O7_26 
ROOT
HETATM    1  C2  UNL     1      91.582  18.405  30.216  1.00  0.00     0.315 C 
HETATM    2  O2  UNL     1      91.579  17.625  29.069  1.00  0.00    -0.337 OA
HETATM    3  C3  UNL     1      92.537  16.654  29.040  1.00  0.00     0.272 C 
HETATM    4  C7  UNL     1      93.513  16.802  30.151  1.00  0.00     0.312 C 
HETATM    5  O6  UNL     1      93.979  18.136  30.123  1.00  0.00    -0.323 OA
HETATM    6  C14 UNL     1      92.949  18.917  30.589  1.00  0.00     0.315 C 
ENDROOT
BRANCH   4   7
HETATM    7  O4  UNL     1      94.624  15.957  30.072  1.00  0.00    -0.269 OA
BRANCH   7   8
HETATM    8  C8  UNL     1      95.465  15.658  31.132  1.00  0.00     0.363 C 
HETATM    9  O5  UNL     1      95.004  15.816  32.287  1.00  0.00    -0.238 OA
HETATM   10  N2  UNL     1      96.808  15.189  30.917  1.00  0.00    -0.332 N 
ATOM     11  H2  UNL     1      97.130  15.081  29.956  1.00  0.00     0.165 HD
BRANCH  10  12
HETATM   12  C9  UNL     1      97.713  14.867  31.966  1.00  0.00     0.086 C 
HETATM   13  C10 UNL     1      99.152  15.122  31.670  1.00  0.00     0.025 C 
HETATM   14  C11 UNL     1      99.856  14.310  32.736  1.00  0.00     0.002 C 
HETATM   15  C12 UNL     1      98.887  13.275  33.224  1.00  0.00     0.002 C 
HETATM   16  C13 UNL     1      97.700  13.378  32.263  1.00  0.00     0.025 C 
ENDBRANCH  10  12
ENDBRANCH   7   8
ENDBRANCH   4   7
BRANCH   3  17
HETATM   17  C4  UNL     1      93.209  16.540  27.716  1.00  0.00     0.251 C 
HETATM   18  O3  UNL     1      93.968  17.490  27.406  1.00  0.00    -0.270 OA
HETATM   19  N1  UNL     1      92.952  15.404  26.923  1.00  0.00    -0.358 N 
ATOM     20  H1  UNL     1      92.312  14.699  27.291  1.00  0.00     0.162 HD
BRANCH  19  21
HETATM   21  C5  UNL     1      93.536  15.175  25.624  1.00  0.00     0.137 C 
BRANCH  21  22
HETATM   22  C6  UNL     1      94.714  14.241  25.717  1.00  0.00     0.134 C 
HETATM   23 CL1  UNL     1      95.104  13.922  27.445  1.00  0.00    -0.129 Cl
ENDBRANCH  21  22
ENDBRANCH  19  21
ENDBRANCH   3  17
BRANCH   6  24
HETATM   24  O7  UNL     1      93.053  19.108  31.966  1.00  0.00    -0.367 OA
ATOM     25  H7  UNL     1      93.416  18.339  32.391  1.00  0.00     0.212 HD
ENDBRANCH   6  24
BRANCH   1  26
HETATM   26  O1  UNL     1      90.729  19.494  30.119  1.00  0.00    -0.361 OA
HETATM   27  C1  UNL     1      90.432  19.768  28.793  1.00  0.00     0.205 C 
ENDBRANCH   1  26
TORSDOF 8
ENDMDL
MODEL 5
REMARK VINA RESULT: -5.582523082      1.796      2.284
REMARK  8 active torsions:
REMARK  status: ('A' for Active; 'I' for Inactive)
REMARK    1  A    between atoms: O1_2  and  C2_3 
REMARK    2  A    between atoms: C3_5  and  C4_6 
REMARK       I    between atoms: C4_6  and  N1_8 
REMARK    3  A    between atoms: N1_8  and  C5_10 
REMARK    4  A    between atoms: C5_10  and  C6_11 
REMARK    5  A    between atoms: C7_13  and  O4_14 
REMARK    6  A    between atoms: O4_14  and  C8_15 
REMARK       I    between atoms: C8_15  and  N2_17 
REMARK    7  A    between atoms: N2_17  and  C9_19 
REMARK    8  A    between atoms: C14_25  and  O7_26 
ROOT
HETATM    1  C2  UNL     1     105.164  18.985  34.327  1.00  0.00     0.315 C 
HETATM    2  O2  UNL     1     105.212  18.671  35.677  1.00  0.00    -0.337 OA
HETATM    3  C3  UNL     1     104.095  18.048  36.156  1.00  0.00     0.272 C 
HETATM    4  C7  UNL     1     102.988  18.052  35.164  1.00  0.00     0.312 C 
HETATM    5  O6  UNL     1     102.818  19.388  34.734  1.00  0.00    -0.323 OA
HETATM    6  C14 UNL     1     103.885  19.671  33.916  1.00  0.00     0.315 C 
ENDROOT
BRANCH   4   7
HETATM    7  O4  UNL     1     101.760  17.600  35.656  1.00  0.00    -0.269 OA
BRANCH   7   8
HETATM    8  C8  UNL     1     101.114  16.451  35.228  1.00  0.00     0.363 C 
HETATM    9  O5  UNL     1     100.552  15.753  36.106  1.00  0.00    -0.238 OA
HETATM   10  N2  UNL     1     101.089  16.075  33.841  1.00  0.00    -0.332 N 
ATOM     11  H2  UNL     1     101.563  16.680  33.171  1.00  0.00     0.165 HD
BRANCH  10  12
HETATM   12  C9  UNL     1     100.441  14.909  33.346  1.00  0.00     0.086 C 
HETATM   13  C10 UNL     1      99.259  15.156  32.471  1.00  0.00     0.025 C 
HETATM   14  C11 UNL     1      98.562  13.812  32.472  1.00  0.00     0.002 C 
HETATM   15  C12 UNL     1      99.036  13.063  33.682  1.00  0.00     0.002 C 
HETATM   16  C13 UNL     1      99.845  14.091  34.477  1.00  0.00     0.025 C 
ENDBRANCH  10  12
ENDBRANCH   7   8
ENDBRANCH   4   7
BRANCH   3  17
HETATM   17  C4  UNL     1     103.663  18.570  37.481  1.00  0.00     0.251 C 
HETATM   18  O3  UNL     1     103.718  17.753  38.433  1.00  0.00    -0.270 OA
HETATM   19  N1  UNL     1     103.233  19.909  37.573  1.00  0.00    -0.358 N 
ATOM     20  H1  UNL     1     103.236  20.471  36.722  1.00  0.00     0.162 HD
BRANCH  19  21
HETATM   21  C5  UNL     1     102.788  20.534  38.795  1.00  0.00     0.137 C 
BRANCH  21  22
HETATM   22  C6  UNL     1     101.680  21.518  38.527  1.00  0.00     0.134 C 
HETATM   23 CL1  UNL     1     100.788  21.041  37.038  1.00  0.00    -0.129 Cl
ENDBRANCH  21  22
ENDBRANCH  19  21
ENDBRANCH   3  17
BRANCH   6  24
HETATM   24  O7  UNL     1     103.578  19.400  32.584  1.00  0.00    -0.367 OA
ATOM     25  H7  UNL     1     102.648  19.501  32.421  1.00  0.00     0.212 HD
ENDBRANCH   6  24
BRANCH   1  26
HETATM   26  O1  UNL     1     106.225  19.785  33.930  1.00  0.00    -0.361 OA
HETATM   27  C1  UNL     1     106.153  21.030  34.535  1.00  0.00     0.205 C 
ENDBRANCH   1  26
TORSDOF 8
ENDMDL
