MODEL 1
REMARK VINA RESULT: -6.795079061      0.000      0.000
REMARK  4 active torsions:
REMARK  status: ('A' for Active; 'I' for Inactive)
REMARK       I    between atoms: C1_2  and  N1_3 
REMARK    1  A    between atoms: C1_2  and  C9_19 
REMARK    2  A    between atoms: N1_3  and  C2_5 
REMARK    3  A    between atoms: C3_10  and  S1_11 
REMARK    4  A    between atoms: S1_11  and  C4_12 
ROOT
HETATM    1  C2  UNL     1     -29.868  -3.763   0.248  1.00  0.00     0.168 A 
HETATM    2  N2  UNL     1     -31.069  -3.864   0.826  1.00  0.00    -0.278 N 
ATOM      3  H2  UNL     1     -31.361  -4.736   1.266  1.00  0.00     0.189 HD
HETATM    4  N3  UNL     1     -31.839  -2.856   0.820  1.00  0.00    -0.286 N 
ATOM      5  H3  UNL     1     -32.758  -2.916   1.258  1.00  0.00     0.188 HD
HETATM    6  C3  UNL     1     -31.454  -1.725   0.245  1.00  0.00     0.132 A 
HETATM    7  S2  UNL     1     -29.893  -2.147  -0.311  1.00  0.00    -0.026 SA
ENDROOT
BRANCH   1   8
HETATM    8  N1  UNL     1     -28.945  -4.696   0.161  1.00  0.00    -0.304 N 
HETATM    9  C1  UNL     1     -28.876  -5.405  -1.066  1.00  0.00     0.252 C 
HETATM   10  O1  UNL     1     -29.937  -5.714  -1.647  1.00  0.00    -0.270 OA
ATOM     11  H1  UNL     1     -28.313  -4.899   0.935  1.00  0.00     0.171 HD
BRANCH   9  12
HETATM   12  C9  UNL     1     -27.556  -5.763  -1.636  1.00  0.00     0.213 C 
HETATM   13  C10 UNL     1     -26.691  -4.508  -1.518  1.00  0.00     0.044 C 
HETATM   14  C11 UNL     1     -27.119  -3.789  -2.781  1.00  0.00     0.029 C 
HETATM   15  C12 UNL     1     -27.298  -4.971  -3.723  1.00  0.00     0.168 C 
HETATM   16  O3  UNL     1     -27.684  -6.039  -2.968  1.00  0.00    -0.376 OA
ENDBRANCH   9  12
ENDBRANCH   1   8
BRANCH   6  17
HETATM   17  S1  UNL     1     -32.340  -0.165   0.093  1.00  0.00    -0.071 SA
BRANCH  17  18
HETATM   18  C4  UNL     1     -32.014   0.615  -1.478  1.00  0.00     0.189 C 
HETATM   19  C5  UNL     1     -31.009   1.735  -1.295  1.00  0.00     0.043 C 
HETATM   20  C6  UNL     1     -29.651   1.290  -1.792  1.00  0.00     0.005 C 
HETATM   21  C7  UNL     1     -29.730   0.873  -3.248  1.00  0.00     0.026 C 
HETATM   22  C8  UNL     1     -31.134   0.353  -3.532  1.00  0.00     0.169 C 
HETATM   23  O2  UNL     1     -31.523  -0.333  -2.365  1.00  0.00    -0.375 OA
ENDBRANCH  17  18
ENDBRANCH   6  17
TORSDOF 4
ENDMDL
MODEL 2
REMARK VINA RESULT: -6.543088223      1.973      2.412
REMARK  4 active torsions:
REMARK  status: ('A' for Active; 'I' for Inactive)
REMARK       I    between atoms: C1_2  and  N1_3 
REMARK    1  A    between atoms: C1_2  and  C9_19 
REMARK    2  A    between atoms: N1_3  and  C2_5 
REMARK    3  A    between atoms: C3_10  and  S1_11 
REMARK    4  A    between atoms: S1_11  and  C4_12 
ROOT
HETATM    1  C2  UNL     1     -31.124  -3.114  -0.752  1.00  0.00     0.168 A 
HETATM    2  N2  UNL     1     -32.452  -3.246  -0.684  1.00  0.00    -0.278 N 
ATOM      3  H2  UNL     1     -32.870  -4.053  -0.221  1.00  0.00     0.189 HD
HETATM    4  N3  UNL     1     -33.185  -2.352  -1.206  1.00  0.00    -0.286 N 
ATOM      5  H3  UNL     1     -34.201  -2.438  -1.162  1.00  0.00     0.188 HD
HETATM    6  C3  UNL     1     -32.635  -1.306  -1.809  1.00  0.00     0.132 A 
HETATM    7  S2  UNL     1     -30.972  -1.639  -1.605  1.00  0.00    -0.026 SA
ENDROOT
BRANCH   1   8
HETATM    8  N1  UNL     1     -30.216  -3.934  -0.271  1.00  0.00    -0.304 N 
HETATM    9  C1  UNL     1     -29.727  -4.928  -1.157  1.00  0.00     0.252 C 
HETATM   10  O1  UNL     1     -30.526  -5.489  -1.938  1.00  0.00    -0.270 OA
ATOM     11  H1  UNL     1     -29.881  -3.861   0.689  1.00  0.00     0.171 HD
BRANCH   9  12
HETATM   12  C9  UNL     1     -28.289  -5.282  -1.146  1.00  0.00     0.213 C 
HETATM   13  C10 UNL     1     -27.529  -3.956  -1.186  1.00  0.00     0.044 C 
HETATM   14  C11 UNL     1     -27.528  -3.712  -2.681  1.00  0.00     0.029 C 
HETATM   15  C12 UNL     1     -27.371  -5.137  -3.192  1.00  0.00     0.168 C 
HETATM   16  O3  UNL     1     -27.969  -5.964  -2.286  1.00  0.00    -0.376 OA
ENDBRANCH   9  12
ENDBRANCH   1   8
BRANCH   6  17
HETATM   17  S1  UNL     1     -33.433   0.088  -2.622  1.00  0.00    -0.071 SA
BRANCH  17  18
HETATM   18  C4  UNL     1     -33.764   1.408  -1.468  1.00  0.00     0.189 C 
HETATM   19  C5  UNL     1     -32.567   1.603  -0.557  1.00  0.00     0.043 C 
HETATM   20  C6  UNL     1     -31.795   2.832  -0.983  1.00  0.00     0.005 C 
HETATM   21  C7  UNL     1     -32.692   4.056  -0.961  1.00  0.00     0.026 C 
HETATM   22  C8  UNL     1     -34.126   3.615  -1.228  1.00  0.00     0.169 C 
HETATM   23  O2  UNL     1     -34.029   2.574  -2.172  1.00  0.00    -0.375 OA
ENDBRANCH  17  18
ENDBRANCH   6  17
TORSDOF 4
ENDMDL
MODEL 3
REMARK VINA RESULT: -6.536144219      1.260      1.679
REMARK  4 active torsions:
REMARK  status: ('A' for Active; 'I' for Inactive)
REMARK       I    between atoms: C1_2  and  N1_3 
REMARK    1  A    between atoms: C1_2  and  C9_19 
REMARK    2  A    between atoms: N1_3  and  C2_5 
REMARK    3  A    between atoms: C3_10  and  S1_11 
REMARK    4  A    between atoms: S1_11  and  C4_12 
ROOT
HETATM    1  C2  UNL     1     -29.801  -3.712   0.257  1.00  0.00     0.168 A 
HETATM    2  N2  UNL     1     -30.971  -3.717   0.904  1.00  0.00    -0.278 N 
ATOM      3  H2  UNL     1     -31.297  -4.558   1.381  1.00  0.00     0.189 HD
HETATM    4  N3  UNL     1     -31.670  -2.658   0.916  1.00  0.00    -0.286 N 
ATOM      5  H3  UNL     1     -32.564  -2.645   1.406  1.00  0.00     0.188 HD
HETATM    6  C3  UNL     1     -31.241  -1.568   0.293  1.00  0.00     0.132 A 
HETATM    7  S2  UNL     1     -29.748  -2.110  -0.339  1.00  0.00    -0.026 SA
ENDROOT
BRANCH   1   8
HETATM    8  N1  UNL     1     -28.952  -4.709   0.141  1.00  0.00    -0.304 N 
HETATM    9  C1  UNL     1     -28.923  -5.374  -1.111  1.00  0.00     0.252 C 
HETATM   10  O1  UNL     1     -29.998  -5.578  -1.713  1.00  0.00    -0.270 OA
ATOM     11  H1  UNL     1     -28.346  -4.990   0.912  1.00  0.00     0.171 HD
BRANCH   9  12
HETATM   12  C9  UNL     1     -27.628  -5.810  -1.684  1.00  0.00     0.213 C 
HETATM   13  C10 UNL     1     -26.669  -4.633  -1.502  1.00  0.00     0.044 C 
HETATM   14  C11 UNL     1     -27.023  -3.829  -2.736  1.00  0.00     0.029 C 
HETATM   15  C12 UNL     1     -27.282  -4.951  -3.731  1.00  0.00     0.168 C 
HETATM   16  O3  UNL     1     -27.760  -6.017  -3.028  1.00  0.00    -0.376 OA
ENDBRANCH   9  12
ENDBRANCH   1   8
BRANCH   6  17
HETATM   17  S1  UNL     1     -32.025   0.046   0.154  1.00  0.00    -0.071 SA
BRANCH  17  18
HETATM   18  C4  UNL     1     -31.034   1.165  -0.822  1.00  0.00     0.189 C 
HETATM   19  C5  UNL     1     -31.816   2.436  -1.093  1.00  0.00     0.043 C 
HETATM   20  C6  UNL     1     -31.310   3.548  -0.201  1.00  0.00     0.005 C 
HETATM   21  C7  UNL     1     -29.826   3.772  -0.423  1.00  0.00     0.026 C 
HETATM   22  C8  UNL     1     -29.193   2.457  -0.863  1.00  0.00     0.169 C 
HETATM   23  O2  UNL     1     -29.864   1.456  -0.135  1.00  0.00    -0.375 OA
ENDBRANCH  17  18
ENDBRANCH   6  17
TORSDOF 4
ENDMDL
MODEL 4
REMARK VINA RESULT: -6.511115855      2.985      3.736
REMARK  4 active torsions:
REMARK  status: ('A' for Active; 'I' for Inactive)
REMARK       I    between atoms: C1_2  and  N1_3 
REMARK    1  A    between atoms: C1_2  and  C9_19 
REMARK    2  A    between atoms: N1_3  and  C2_5 
REMARK    3  A    between atoms: C3_10  and  S1_11 
REMARK    4  A    between atoms: S1_11  and  C4_12 
ROOT
HETATM    1  C2  UNL     1     -29.419  -4.598   0.811  1.00  0.00     0.168 A 
HETATM    2  N2  UNL     1     -30.529  -4.816   1.523  1.00  0.00    -0.278 N 
ATOM      3  H2  UNL     1     -30.853  -5.767   1.699  1.00  0.00     0.189 HD
HETATM    4  N3  UNL     1     -31.173  -3.822   1.975  1.00  0.00    -0.286 N 
ATOM      5  H3  UNL     1     -32.021  -3.972   2.522  1.00  0.00     0.188 HD
HETATM    6  C3  UNL     1     -30.747  -2.587   1.741  1.00  0.00     0.132 A 
HETATM    7  S2  UNL     1     -29.340  -2.889   0.818  1.00  0.00    -0.026 SA
ENDROOT
BRANCH   1   8
HETATM    8  N1  UNL     1     -28.630  -5.499   0.268  1.00  0.00    -0.304 N 
HETATM    9  C1  UNL     1     -28.727  -5.662  -1.137  1.00  0.00     0.252 C 
HETATM   10  O1  UNL     1     -29.853  -5.612  -1.676  1.00  0.00    -0.270 OA
ATOM     11  H1  UNL     1     -27.983  -6.053   0.829  1.00  0.00     0.171 HD
BRANCH   9  12
HETATM   12  C9  UNL     1     -27.501  -5.884  -1.939  1.00  0.00     0.213 C 
HETATM   13  C10 UNL     1     -26.544  -4.752  -1.567  1.00  0.00     0.044 C 
HETATM   14  C11 UNL     1     -27.049  -3.677  -2.508  1.00  0.00     0.029 C 
HETATM   15  C12 UNL     1     -27.406  -4.521  -3.723  1.00  0.00     0.168 C 
HETATM   16  O3  UNL     1     -27.785  -5.749  -3.269  1.00  0.00    -0.376 OA
ENDBRANCH   9  12
ENDBRANCH   1   8
BRANCH   6  17
HETATM   17  S1  UNL     1     -31.463  -1.019   2.258  1.00  0.00    -0.071 SA
BRANCH  17  18
HETATM   18  C4  UNL     1     -33.199  -1.192   2.633  1.00  0.00     0.189 C 
HETATM   19  C5  UNL     1     -34.025  -0.790   1.426  1.00  0.00     0.043 C 
HETATM   20  C6  UNL     1     -34.555  -2.027   0.734  1.00  0.00     0.005 C 
HETATM   21  C7  UNL     1     -35.381  -2.859   1.697  1.00  0.00     0.026 C 
HETATM   22  C8  UNL     1     -34.859  -2.633   3.111  1.00  0.00     0.169 C 
HETATM   23  O2  UNL     1     -33.462  -2.509   2.980  1.00  0.00    -0.375 OA
ENDBRANCH  17  18
ENDBRANCH   6  17
TORSDOF 4
ENDMDL
MODEL 5
REMARK VINA RESULT: -6.501467181      2.806      3.518
REMARK  4 active torsions:
REMARK  status: ('A' for Active; 'I' for Inactive)
REMARK       I    between atoms: C1_2  and  N1_3 
REMARK    1  A    between atoms: C1_2  and  C9_19 
REMARK    2  A    between atoms: N1_3  and  C2_5 
REMARK    3  A    between atoms: C3_10  and  S1_11 
REMARK    4  A    between atoms: S1_11  and  C4_12 
ROOT
HETATM    1  C2  UNL     1     -31.084  -3.068  -0.840  1.00  0.00     0.168 A 
HETATM    2  N2  UNL     1     -32.400  -3.274  -0.953  1.00  0.00    -0.278 N 
ATOM      3  H2  UNL     1     -32.818  -4.148  -0.632  1.00  0.00     0.189 HD
HETATM    4  N3  UNL     1     -33.121  -2.366  -1.467  1.00  0.00    -0.286 N 
ATOM      5  H3  UNL     1     -34.127  -2.507  -1.559  1.00  0.00     0.188 HD
HETATM    6  C3  UNL     1     -32.571  -1.233  -1.884  1.00  0.00     0.132 A 
HETATM    7  S2  UNL     1     -30.926  -1.502  -1.508  1.00  0.00    -0.026 SA
ENDROOT
BRANCH   1   8
HETATM    8  N1  UNL     1     -30.190  -3.890  -0.337  1.00  0.00    -0.304 N 
HETATM    9  C1  UNL     1     -29.717  -4.915  -1.196  1.00  0.00     0.252 C 
HETATM   10  O1  UNL     1     -30.525  -5.483  -1.961  1.00  0.00    -0.270 OA
ATOM     11  H1  UNL     1     -29.853  -3.797   0.622  1.00  0.00     0.171 HD
BRANCH   9  12
HETATM   12  C9  UNL     1     -28.285  -5.292  -1.175  1.00  0.00     0.213 C 
HETATM   13  C10 UNL     1     -27.503  -3.979  -1.222  1.00  0.00     0.044 C 
HETATM   14  C11 UNL     1     -27.492  -3.747  -2.719  1.00  0.00     0.029 C 
HETATM   15  C12 UNL     1     -27.356  -5.178  -3.218  1.00  0.00     0.168 C 
HETATM   16  O3  UNL     1     -27.970  -5.988  -2.309  1.00  0.00    -0.376 OA
ENDBRANCH   9  12
ENDBRANCH   1   8
BRANCH   6  17
HETATM   17  S1  UNL     1     -33.353   0.201  -2.641  1.00  0.00    -0.071 SA
BRANCH  17  18
HETATM   18  C4  UNL     1     -34.819   0.687  -1.746  1.00  0.00     0.189 C 
HETATM   19  C5  UNL     1     -35.732   1.486  -2.655  1.00  0.00     0.043 C 
HETATM   20  C6  UNL     1     -36.890   0.623  -3.104  1.00  0.00     0.005 C 
HETATM   21  C7  UNL     1     -37.655   0.095  -1.904  1.00  0.00     0.026 C 
HETATM   22  C8  UNL     1     -36.693  -0.028  -0.728  1.00  0.00     0.169 C 
HETATM   23  O2  UNL     1     -35.471  -0.449  -1.286  1.00  0.00    -0.375 OA
ENDBRANCH  17  18
ENDBRANCH   6  17
TORSDOF 4
ENDMDL
