MODEL 1
REMARK VINA RESULT: -5.472451932      0.000      0.000
REMARK  6 active torsions:
REMARK  status: ('A' for Active; 'I' for Inactive)
REMARK    1  A    between atoms: C1_2  and  C2_4 
REMARK    2  A    between atoms: C2_4  and  C3_5 
REMARK    3  A    between atoms: C3_5  and  S1_6 
REMARK    4  A    between atoms: S1_6  and  C4_7 
REMARK    5  A    between atoms: C4_7  and  S2_9 
REMARK    6  A    between atoms: S2_9  and  C5_10 
ROOT
HETATM    1  S1  UNL     1      -4.360   2.573  15.000  1.00  0.00    -0.080 SA
ENDROOT
BRANCH   1   2
HETATM    2  C3  UNL     1      -6.081   3.028  15.345  1.00  0.00     0.092 C 
BRANCH   2   3
HETATM    3  C2  UNL     1      -6.439   2.859  16.790  1.00  0.00     0.110 C 
BRANCH   3   4
HETATM    4  C1  UNL     1      -6.463   1.416  17.125  1.00  0.00     0.231 C 
HETATM    5  N1  UNL     1      -5.457   0.905  17.983  1.00  0.00    -0.062 NA
HETATM    6  O1  UNL     1      -7.356   0.675  16.654  1.00  0.00    -0.277 OA
ENDBRANCH   3   4
ENDBRANCH   2   3
ENDBRANCH   1   2
BRANCH   1   7
HETATM    7  C4  UNL     1      -4.379   1.027  14.125  1.00  0.00     0.247 C 
HETATM    8  O2  UNL     1      -4.728  -0.009  14.646  1.00  0.00    -0.273 OA
BRANCH   7   9
HETATM    9  S2  UNL     1      -3.872   0.979  12.422  1.00  0.00    -0.066 SA
BRANCH   9  10
HETATM   10  C5  UNL     1      -4.415  -0.575  11.674  1.00  0.00     0.197 C 
HETATM   11 CL1  UNL     1      -3.000  -1.630  11.421  1.00  0.00    -0.119 Cl
ENDBRANCH   9  10
ENDBRANCH   7   9
ENDBRANCH   1   7
TORSDOF 6
ENDMDL
MODEL 2
REMARK VINA RESULT: -5.417372784      1.284      1.284
REMARK  6 active torsions:
REMARK  status: ('A' for Active; 'I' for Inactive)
REMARK    1  A    between atoms: C1_2  and  C2_4 
REMARK    2  A    between atoms: C2_4  and  C3_5 
REMARK    3  A    between atoms: C3_5  and  S1_6 
REMARK    4  A    between atoms: S1_6  and  C4_7 
REMARK    5  A    between atoms: C4_7  and  S2_9 
REMARK    6  A    between atoms: S2_9  and  C5_10 
ROOT
HETATM    1  S1  UNL     1      -4.679   2.499  14.522  1.00  0.00    -0.080 SA
ENDROOT
BRANCH   1   2
HETATM    2  C3  UNL     1      -4.358   2.174  16.277  1.00  0.00     0.092 C 
BRANCH   2   3
HETATM    3  C2  UNL     1      -5.598   2.270  17.113  1.00  0.00     0.110 C 
BRANCH   3   4
HETATM    4  C1  UNL     1      -6.399   1.034  16.946  1.00  0.00     0.231 C 
HETATM    5  N1  UNL     1      -7.740   1.154  16.502  1.00  0.00    -0.062 NA
HETATM    6  O1  UNL     1      -5.892  -0.083  17.195  1.00  0.00    -0.277 OA
ENDBRANCH   3   4
ENDBRANCH   2   3
ENDBRANCH   1   2
BRANCH   1   7
HETATM    7  C4  UNL     1      -4.390   0.986  13.636  1.00  0.00     0.247 C 
HETATM    8  O2  UNL     1      -4.751  -0.091  14.057  1.00  0.00    -0.273 OA
BRANCH   7   9
HETATM    9  S2  UNL     1      -3.544   1.034  12.074  1.00  0.00    -0.066 SA
BRANCH   9  10
HETATM   10  C5  UNL     1      -4.102  -0.340  11.041  1.00  0.00     0.197 C 
HETATM   11 CL1  UNL     1      -3.090  -1.770  11.369  1.00  0.00    -0.119 Cl
ENDBRANCH   9  10
ENDBRANCH   7   9
ENDBRANCH   1   7
TORSDOF 6
ENDMDL
MODEL 3
REMARK VINA RESULT: -5.359318759      1.356      1.385
REMARK  6 active torsions:
REMARK  status: ('A' for Active; 'I' for Inactive)
REMARK    1  A    between atoms: C1_2  and  C2_4 
REMARK    2  A    between atoms: C2_4  and  C3_5 
REMARK    3  A    between atoms: C3_5  and  S1_6 
REMARK    4  A    between atoms: S1_6  and  C4_7 
REMARK    5  A    between atoms: C4_7  and  S2_9 
REMARK    6  A    between atoms: S2_9  and  C5_10 
ROOT
HETATM    1  S1  UNL     1      -4.439   2.575  14.938  1.00  0.00    -0.080 SA
ENDROOT
BRANCH   1   2
HETATM    2  C3  UNL     1      -6.149   3.058  15.301  1.00  0.00     0.092 C 
BRANCH   2   3
HETATM    3  C2  UNL     1      -6.494   2.895  16.751  1.00  0.00     0.110 C 
BRANCH   3   4
HETATM    4  C1  UNL     1      -6.468   1.456  17.102  1.00  0.00     0.231 C 
HETATM    5  N1  UNL     1      -5.441   0.989  17.961  1.00  0.00    -0.062 NA
HETATM    6  O1  UNL     1      -7.338   0.680  16.645  1.00  0.00    -0.277 OA
ENDBRANCH   3   4
ENDBRANCH   2   3
ENDBRANCH   1   2
BRANCH   1   7
HETATM    7  C4  UNL     1      -4.491   0.997  14.124  1.00  0.00     0.247 C 
HETATM    8  O2  UNL     1      -4.650  -0.041  14.729  1.00  0.00    -0.273 OA
BRANCH   7   9
HETATM    9  S2  UNL     1      -4.305   0.915  12.358  1.00  0.00    -0.066 SA
BRANCH   9  10
HETATM   10  C5  UNL     1      -3.189   2.226  11.807  1.00  0.00     0.197 C 
HETATM   11 CL1  UNL     1      -1.726   1.494  11.100  1.00  0.00    -0.119 Cl
ENDBRANCH   9  10
ENDBRANCH   7   9
ENDBRANCH   1   7
TORSDOF 6
ENDMDL
MODEL 4
REMARK VINA RESULT: -5.358910471      2.079      2.409
REMARK  6 active torsions:
REMARK  status: ('A' for Active; 'I' for Inactive)
REMARK    1  A    between atoms: C1_2  and  C2_4 
REMARK    2  A    between atoms: C2_4  and  C3_5 
REMARK    3  A    between atoms: C3_5  and  S1_6 
REMARK    4  A    between atoms: S1_6  and  C4_7 
REMARK    5  A    between atoms: C4_7  and  S2_9 
REMARK    6  A    between atoms: S2_9  and  C5_10 
ROOT
HETATM    1  S1  UNL     1      -4.623   3.425  13.273  1.00  0.00    -0.080 SA
ENDROOT
BRANCH   1   2
HETATM    2  C3  UNL     1      -5.805   3.011  14.585  1.00  0.00     0.092 C 
BRANCH   2   3
HETATM    3  C2  UNL     1      -5.128   2.674  15.879  1.00  0.00     0.110 C 
BRANCH   3   4
HETATM    4  C1  UNL     1      -4.408   1.386  15.736  1.00  0.00     0.231 C 
HETATM    5  N1  UNL     1      -5.115   0.272  15.217  1.00  0.00    -0.062 NA
HETATM    6  O1  UNL     1      -3.205   1.297  16.069  1.00  0.00    -0.277 OA
ENDBRANCH   3   4
ENDBRANCH   2   3
ENDBRANCH   1   2
BRANCH   1   7
HETATM    7  C4  UNL     1      -4.827   2.231  11.973  1.00  0.00     0.247 C 
HETATM    8  O2  UNL     1      -5.804   2.211  11.257  1.00  0.00    -0.273 OA
BRANCH   7   9
HETATM    9  S2  UNL     1      -3.561   1.014  11.696  1.00  0.00    -0.066 SA
BRANCH   9  10
HETATM   10  C5  UNL     1      -4.304  -0.634  11.663  1.00  0.00     0.197 C 
HETATM   11 CL1  UNL     1      -3.039  -1.842  11.319  1.00  0.00    -0.119 Cl
ENDBRANCH   9  10
ENDBRANCH   7   9
ENDBRANCH   1   7
TORSDOF 6
ENDMDL
MODEL 5
REMARK VINA RESULT: -5.357297033      2.098      2.398
REMARK  6 active torsions:
REMARK  status: ('A' for Active; 'I' for Inactive)
REMARK    1  A    between atoms: C1_2  and  C2_4 
REMARK    2  A    between atoms: C2_4  and  C3_5 
REMARK    3  A    between atoms: C3_5  and  S1_6 
REMARK    4  A    between atoms: S1_6  and  C4_7 
REMARK    5  A    between atoms: C4_7  and  S2_9 
REMARK    6  A    between atoms: S2_9  and  C5_10 
ROOT
HETATM    1  S1  UNL     1      -4.537   3.963  12.809  1.00  0.00    -0.080 SA
ENDROOT
BRANCH   1   2
HETATM    2  C3  UNL     1      -4.300   3.465  14.537  1.00  0.00     0.092 C 
BRANCH   2   3
HETATM    3  C2  UNL     1      -5.310   2.452  14.983  1.00  0.00     0.110 C 
BRANCH   3   4
HETATM    4  C1  UNL     1      -4.608   1.232  15.449  1.00  0.00     0.231 C 
HETATM    5  N1  UNL     1      -3.363   1.381  16.111  1.00  0.00    -0.062 NA
HETATM    6  O1  UNL     1      -5.113   0.103  15.257  1.00  0.00    -0.277 OA
ENDBRANCH   3   4
ENDBRANCH   2   3
ENDBRANCH   1   2
BRANCH   1   7
HETATM    7  C4  UNL     1      -4.815   2.487  11.860  1.00  0.00     0.247 C 
HETATM    8  O2  UNL     1      -5.861   2.269  11.290  1.00  0.00    -0.273 OA
BRANCH   7   9
HETATM    9  S2  UNL     1      -3.522   1.274  11.729  1.00  0.00    -0.066 SA
BRANCH   9  10
HETATM   10  C5  UNL     1      -4.219  -0.379  11.952  1.00  0.00     0.197 C 
HETATM   11 CL1  UNL     1      -3.089  -1.587  11.289  1.00  0.00    -0.119 Cl
ENDBRANCH   9  10
ENDBRANCH   7   9
ENDBRANCH   1   7
TORSDOF 6
ENDMDL
