MODEL 1
REMARK VINA RESULT: -6.271821487      0.000      0.000
REMARK  2 active torsions:
REMARK  status: ('A' for Active; 'I' for Inactive)
REMARK    1  A    between atoms: N2_9  and  C6_11 
REMARK    2  A    between atoms: C6_11  and  C7_12 
ROOT
HETATM    1  C1  UNL     1      -3.641   5.723  14.501  1.00  0.00     0.002 C 
HETATM    2  C2  UNL     1      -2.990   5.573  13.145  1.00  0.00     0.027 C 
HETATM    3  C3  UNL     1      -3.132   4.176  12.598  1.00  0.00     0.232 C 
HETATM    4  N1  UNL     1      -3.511   3.214  13.608  1.00  0.00    -0.070 N 
ATOM      5  H11 UNL     1      -3.159   3.466  14.531  1.00  0.00     0.277 HD
ATOM      6  H12 UNL     1      -3.017   2.328  13.501  1.00  0.00     0.277 HD
HETATM    7  C4  UNL     1      -4.969   3.043  13.596  1.00  0.00     0.284 C 
HETATM    8  C5  UNL     1      -5.501   3.719  14.801  1.00  0.00     0.008 C 
HETATM    9  N2  UNL     1      -5.554   3.046  15.863  1.00  0.00    -0.395 N 
ATOM     10  H2  UNL     1      -5.922   3.516  16.690  1.00  0.00     0.159 HD
HETATM   11  C10 UNL     1      -6.015   5.108  15.022  1.00  0.00     0.054 C 
HETATM   12  C11 UNL     1      -5.083   6.142  14.402  1.00  0.00     0.006 C 
ENDROOT
BRANCH   9  13
HETATM   13  C6  UNL     1      -5.148   1.688  16.020  1.00  0.00     0.123 C 
BRANCH  13  14
HETATM   14  C7  UNL     1      -6.007   1.108  17.152  1.00  0.00     0.003 A 
HETATM   15  C8  UNL     1      -6.424   2.131  18.167  1.00  0.00     0.007 A 
HETATM   16  C9  UNL     1      -7.438   1.538  17.186  1.00  0.00     0.007 A 
ENDBRANCH  13  14
ENDBRANCH   9  13
TORSDOF 2
ENDMDL
MODEL 2
REMARK VINA RESULT: -5.871504029      2.086      4.874
REMARK  2 active torsions:
REMARK  status: ('A' for Active; 'I' for Inactive)
REMARK    1  A    between atoms: N2_9  and  C6_11 
REMARK    2  A    between atoms: C6_11  and  C7_12 
ROOT
HETATM    1  C1  UNL     1      -7.135   2.813  16.446  1.00  0.00     0.002 C 
HETATM    2  C2  UNL     1      -6.851   2.131  17.764  1.00  0.00     0.027 C 
HETATM    3  C3  UNL     1      -5.647   1.228  17.688  1.00  0.00     0.232 C 
HETATM    4  N1  UNL     1      -5.260   0.921  16.330  1.00  0.00    -0.070 N 
ATOM      5  H11 UNL     1      -6.058   0.915  15.694  1.00  0.00     0.277 HD
ATOM      6  H12 UNL     1      -4.979  -0.053  16.220  1.00  0.00     0.277 HD
HETATM    7  C4  UNL     1      -4.212   1.854  15.898  1.00  0.00     0.284 C 
HETATM    8  C5  UNL     1      -4.832   2.800  14.943  1.00  0.00     0.008 C 
HETATM    9  N2  UNL     1      -4.857   2.461  13.731  1.00  0.00    -0.395 N 
ATOM     10  H2  UNL     1      -5.284   3.117  13.077  1.00  0.00     0.159 HD
HETATM   11  C10 UNL     1      -5.463   4.144  15.135  1.00  0.00     0.054 C 
HETATM   12  C11 UNL     1      -6.425   4.134  16.318  1.00  0.00     0.006 C 
ENDROOT
BRANCH   9  13
HETATM   13  C6  UNL     1      -4.345   1.248  13.186  1.00  0.00     0.123 C 
BRANCH  13  14
HETATM   14  C7  UNL     1      -4.424   1.391  11.660  1.00  0.00     0.003 A 
HETATM   15  C8  UNL     1      -3.278   0.742  10.941  1.00  0.00     0.007 A 
HETATM   16  C9  UNL     1      -4.682   0.136  10.889  1.00  0.00     0.007 A 
ENDBRANCH  13  14
ENDBRANCH   9  13
TORSDOF 2
ENDMDL
MODEL 3
REMARK VINA RESULT: -5.744397054      2.670      4.364
REMARK  2 active torsions:
REMARK  status: ('A' for Active; 'I' for Inactive)
REMARK    1  A    between atoms: N2_9  and  C6_11 
REMARK    2  A    between atoms: C6_11  and  C7_12 
ROOT
HETATM    1  C1  UNL     1      -2.245   0.629  11.221  1.00  0.00     0.002 C 
HETATM    2  C2  UNL     1      -3.198  -0.181  10.372  1.00  0.00     0.027 C 
HETATM    3  C3  UNL     1      -4.636   0.195  10.617  1.00  0.00     0.232 C 
HETATM    4  N1  UNL     1      -4.819   0.950  11.836  1.00  0.00    -0.070 N 
ATOM      5  H11 UNL     1      -4.132   0.705  12.548  1.00  0.00     0.277 HD
ATOM      6  H12 UNL     1      -5.660   0.668  12.341  1.00  0.00     0.277 HD
HETATM    7  C4  UNL     1      -4.812   2.385  11.526  1.00  0.00     0.284 C 
HETATM    8  C5  UNL     1      -3.525   2.932  12.011  1.00  0.00     0.008 C 
HETATM    9  N2  UNL     1      -3.476   3.316  13.209  1.00  0.00    -0.395 N 
ATOM     10  H2  UNL     1      -2.588   3.693  13.537  1.00  0.00     0.159 HD
HETATM   11  C10 UNL     1      -2.205   3.134  11.331  1.00  0.00     0.054 C 
HETATM   12  C11 UNL     1      -1.803   1.896  10.538  1.00  0.00     0.006 C 
ENDROOT
BRANCH   9  13
HETATM   13  C6  UNL     1      -4.546   3.273  14.149  1.00  0.00     0.123 C 
BRANCH  13  14
HETATM   14  C7  UNL     1      -3.981   2.621  15.419  1.00  0.00     0.003 A 
HETATM   15  C8  UNL     1      -5.007   2.428  16.496  1.00  0.00     0.007 A 
HETATM   16  C9  UNL     1      -4.452   1.233  15.717  1.00  0.00     0.007 A 
ENDBRANCH  13  14
ENDBRANCH   9  13
TORSDOF 2
ENDMDL
MODEL 4
REMARK VINA RESULT: -5.625626679      1.462      2.759
REMARK  2 active torsions:
REMARK  status: ('A' for Active; 'I' for Inactive)
REMARK    1  A    between atoms: N2_9  and  C6_11 
REMARK    2  A    between atoms: C6_11  and  C7_12 
ROOT
HETATM    1  C1  UNL     1      -4.910   2.489  11.762  1.00  0.00     0.002 C 
HETATM    2  C2  UNL     1      -4.020   3.538  11.137  1.00  0.00     0.027 C 
HETATM    3  C3  UNL     1      -3.677   4.642  12.103  1.00  0.00     0.232 C 
HETATM    4  N1  UNL     1      -4.543   4.664  13.260  1.00  0.00    -0.070 N 
ATOM      5  H11 UNL     1      -5.479   4.320  13.048  1.00  0.00     0.277 HD
ATOM      6  H12 UNL     1      -4.796   5.613  13.535  1.00  0.00     0.277 HD
HETATM    7  C4  UNL     1      -3.913   3.918  14.356  1.00  0.00     0.284 C 
HETATM    8  C5  UNL     1      -4.645   2.639  14.496  1.00  0.00     0.008 C 
HETATM    9  N2  UNL     1      -5.659   2.634  15.241  1.00  0.00    -0.395 N 
ATOM     10  H2  UNL     1      -6.160   1.751  15.335  1.00  0.00     0.159 HD
HETATM   11  C10 UNL     1      -4.411   1.284  13.903  1.00  0.00     0.054 C 
HETATM   12  C11 UNL     1      -4.123   1.381  12.409  1.00  0.00     0.006 C 
ENDROOT
BRANCH   9  13
HETATM   13  C6  UNL     1      -6.175   3.748  15.967  1.00  0.00     0.123 C 
BRANCH  13  14
HETATM   14  C7  UNL     1      -6.876   3.171  17.204  1.00  0.00     0.003 A 
HETATM   15  C8  UNL     1      -7.332   1.753  17.023  1.00  0.00     0.007 A 
HETATM   16  C9  UNL     1      -6.148   2.087  17.933  1.00  0.00     0.007 A 
ENDBRANCH  13  14
ENDBRANCH   9  13
TORSDOF 2
ENDMDL
MODEL 5
REMARK VINA RESULT: -5.619516844      1.042      1.426
REMARK  2 active torsions:
REMARK  status: ('A' for Active; 'I' for Inactive)
REMARK    1  A    between atoms: N2_9  and  C6_11 
REMARK    2  A    between atoms: C6_11  and  C7_12 
ROOT
HETATM    1  C1  UNL     1      -2.151   5.433  14.178  1.00  0.00     0.002 C 
HETATM    2  C2  UNL     1      -1.769   5.035  12.771  1.00  0.00     0.027 C 
HETATM    3  C3  UNL     1      -2.692   3.986  12.208  1.00  0.00     0.232 C 
HETATM    4  N1  UNL     1      -3.484   3.331  13.223  1.00  0.00    -0.070 N 
ATOM      5  H11 UNL     1      -3.002   3.288  14.120  1.00  0.00     0.277 HD
ATOM      6  H12 UNL     1      -3.572   2.328  13.057  1.00  0.00     0.277 HD
HETATM    7  C4  UNL     1      -4.791   3.993  13.326  1.00  0.00     0.284 C 
HETATM    8  C5  UNL     1      -4.790   4.772  14.585  1.00  0.00     0.008 C 
HETATM    9  N2  UNL     1      -5.149   4.175  15.633  1.00  0.00    -0.395 N 
ATOM     10  H2  UNL     1      -5.147   4.716  16.497  1.00  0.00     0.159 HD
HETATM   11  C10 UNL     1      -4.434   6.197  14.878  1.00  0.00     0.054 C 
HETATM   12  C11 UNL     1      -3.121   6.583  14.206  1.00  0.00     0.006 C 
ENDROOT
BRANCH   9  13
HETATM   13  C6  UNL     1      -5.556   2.812  15.726  1.00  0.00     0.123 C 
BRANCH  13  14
HETATM   14  C7  UNL     1      -6.700   2.771  16.750  1.00  0.00     0.003 A 
HETATM   15  C8  UNL     1      -7.083   1.379  17.159  1.00  0.00     0.007 A 
HETATM   16  C9  UNL     1      -6.341   2.306  18.125  1.00  0.00     0.007 A 
ENDBRANCH  13  14
ENDBRANCH   9  13
TORSDOF 2
ENDMDL
