MODEL 1
REMARK VINA RESULT: -6.573611474      0.000      0.000
REMARK  4 active torsions:
REMARK  status: ('A' for Active; 'I' for Inactive)
REMARK    1  A    between atoms: C4_4  and  C6_7 
REMARK    2  A    between atoms: C6_7  and  C7_8 
REMARK    3  A    between atoms: C6_7  and  C8_11 
REMARK    4  A    between atoms: C7_8  and  O1_9 
ROOT
HETATM    1  C1  UNL     1      -6.384   3.295  16.270  1.00  0.00     0.044 C 
HETATM    2  C2  UNL     1      -5.730   3.785  14.999  1.00  0.00    -0.070 C 
HETATM    3  C3  UNL     1      -6.372   4.968  14.422  1.00  0.00     0.044 C 
HETATM    4  C4  UNL     1      -4.653   3.198  14.598  1.00  0.00     0.030 C 
HETATM    5  C5  UNL     1      -4.239   2.090  15.534  1.00  0.00     0.096 C 
HETATM    6  N1  UNL     1      -3.941   1.220  16.269  1.00  0.00    -0.192 NA
ENDROOT
BRANCH   4   7
HETATM    7  C6  UNL     1      -3.818   3.256  13.425  1.00  0.00     0.057 C 
BRANCH   7   8
HETATM    8  C7  UNL     1      -3.222   4.659  13.323  1.00  0.00     0.174 C 
BRANCH   8   9
HETATM    9  O1  UNL     1      -1.956   4.613  13.898  1.00  0.00    -0.400 OA
ATOM     10  H1  UNL     1      -1.655   5.509  13.991  1.00  0.00     0.209 HD
ENDBRANCH   8   9
ENDBRANCH   7   8
BRANCH   7  11
HETATM   11  C8  UNL     1      -4.364   2.786  12.129  1.00  0.00    -0.003 C 
HETATM   12  C9  UNL     1      -3.357   2.916  10.994  1.00  0.00     0.005 C 
HETATM   13  C10 UNL     1      -2.295   1.856  11.083  1.00  0.00     0.000 C 
HETATM   14  C11 UNL     1      -2.834   0.524  10.590  1.00  0.00     0.000 C 
HETATM   15  C12 UNL     1      -4.325   0.542  10.954  1.00  0.00     0.000 C 
HETATM   16  C13 UNL     1      -4.430   1.240  12.284  1.00  0.00     0.005 C 
ENDBRANCH   7  11
ENDBRANCH   4   7
TORSDOF 4
ENDMDL
MODEL 2
REMARK VINA RESULT: -6.380120023      1.453      2.001
REMARK  4 active torsions:
REMARK  status: ('A' for Active; 'I' for Inactive)
REMARK    1  A    between atoms: C4_4  and  C6_7 
REMARK    2  A    between atoms: C6_7  and  C7_8 
REMARK    3  A    between atoms: C6_7  and  C8_11 
REMARK    4  A    between atoms: C7_8  and  O1_9 
ROOT
HETATM    1  C1  UNL     1      -6.164   2.957  16.266  1.00  0.00     0.044 C 
HETATM    2  C2  UNL     1      -5.071   2.516  15.321  1.00  0.00    -0.070 C 
HETATM    3  C3  UNL     1      -4.419   1.264  15.713  1.00  0.00     0.044 C 
HETATM    4  C4  UNL     1      -4.874   3.205  14.248  1.00  0.00     0.030 C 
HETATM    5  C5  UNL     1      -5.832   4.364  14.144  1.00  0.00     0.096 C 
HETATM    6  N1  UNL     1      -6.580   5.273  14.089  1.00  0.00    -0.192 NA
ENDROOT
BRANCH   4   7
HETATM    7  C6  UNL     1      -3.897   3.214  13.188  1.00  0.00     0.057 C 
BRANCH   7   8
HETATM    8  C7  UNL     1      -3.225   4.585  13.159  1.00  0.00     0.174 C 
BRANCH   8   9
HETATM    9  O1  UNL     1      -2.159   4.542  14.051  1.00  0.00    -0.400 OA
ATOM     10  H1  UNL     1      -2.526   4.530  14.927  1.00  0.00     0.209 HD
ENDBRANCH   8   9
ENDBRANCH   7   8
BRANCH   7  11
HETATM   11  C8  UNL     1      -4.301   2.760  11.835  1.00  0.00    -0.003 C 
HETATM   12  C9  UNL     1      -3.138   2.765  10.850  1.00  0.00     0.005 C 
HETATM   13  C10 UNL     1      -2.204   1.615  11.103  1.00  0.00     0.000 C 
HETATM   14  C11 UNL     1      -2.794   0.325  10.559  1.00  0.00     0.000 C 
HETATM   15  C12 UNL     1      -4.313   0.491  10.709  1.00  0.00     0.000 C 
HETATM   16  C13 UNL     1      -4.534   1.231  12.001  1.00  0.00     0.005 C 
ENDBRANCH   7  11
ENDBRANCH   4   7
TORSDOF 4
ENDMDL
MODEL 3
REMARK VINA RESULT: -6.368920023      2.206      3.773
REMARK  4 active torsions:
REMARK  status: ('A' for Active; 'I' for Inactive)
REMARK    1  A    between atoms: C4_4  and  C6_7 
REMARK    2  A    between atoms: C6_7  and  C7_8 
REMARK    3  A    between atoms: C6_7  and  C8_11 
REMARK    4  A    between atoms: C7_8  and  O1_9 
ROOT
HETATM    1  C1  UNL     1      -6.354   1.696  17.407  1.00  0.00     0.044 C 
HETATM    2  C2  UNL     1      -6.143   2.850  16.455  1.00  0.00    -0.070 C 
HETATM    3  C3  UNL     1      -6.996   4.009  16.732  1.00  0.00     0.044 C 
HETATM    4  C4  UNL     1      -5.207   2.753  15.572  1.00  0.00     0.030 C 
HETATM    5  C5  UNL     1      -4.467   1.444  15.683  1.00  0.00     0.096 C 
HETATM    6  N1  UNL     1      -3.913   0.409  15.777  1.00  0.00    -0.192 NA
ENDROOT
BRANCH   4   7
HETATM    7  C6  UNL     1      -4.770   3.527  14.437  1.00  0.00     0.057 C 
BRANCH   7   8
HETATM    8  C7  UNL     1      -4.552   2.580  13.259  1.00  0.00     0.174 C 
BRANCH   8   9
HETATM    9  O1  UNL     1      -5.620   2.754  12.386  1.00  0.00    -0.400 OA
ATOM     10  H1  UNL     1      -5.263   3.056  11.559  1.00  0.00     0.209 HD
ENDBRANCH   8   9
ENDBRANCH   7   8
BRANCH   7  11
HETATM   11  C8  UNL     1      -3.643   4.476  14.606  1.00  0.00    -0.003 C 
HETATM   12  C9  UNL     1      -2.941   4.783  13.290  1.00  0.00     0.005 C 
HETATM   13  C10 UNL     1      -3.764   5.704  12.434  1.00  0.00     0.000 C 
HETATM   14  C11 UNL     1      -3.660   7.132  12.940  1.00  0.00     0.000 C 
HETATM   15  C12 UNL     1      -3.479   7.000  14.459  1.00  0.00     0.000 C 
HETATM   16  C13 UNL     1      -4.337   5.840  14.890  1.00  0.00     0.005 C 
ENDBRANCH   7  11
ENDBRANCH   4   7
TORSDOF 4
ENDMDL
MODEL 4
REMARK VINA RESULT: -6.166879491      1.962      3.583
REMARK  4 active torsions:
REMARK  status: ('A' for Active; 'I' for Inactive)
REMARK    1  A    between atoms: C4_4  and  C6_7 
REMARK    2  A    between atoms: C6_7  and  C7_8 
REMARK    3  A    between atoms: C6_7  and  C8_11 
REMARK    4  A    between atoms: C7_8  and  O1_9 
ROOT
HETATM    1  C1  UNL     1      -6.236   2.855  16.628  1.00  0.00     0.044 C 
HETATM    2  C2  UNL     1      -5.869   3.614  15.374  1.00  0.00    -0.070 C 
HETATM    3  C3  UNL     1      -6.348   4.998  15.359  1.00  0.00     0.044 C 
HETATM    4  C4  UNL     1      -5.122   3.029  14.500  1.00  0.00     0.030 C 
HETATM    5  C5  UNL     1      -4.736   1.638  14.935  1.00  0.00     0.096 C 
HETATM    6  N1  UNL     1      -4.459   0.548  15.287  1.00  0.00    -0.192 NA
ENDROOT
BRANCH   4   7
HETATM    7  C6  UNL     1      -4.662   3.325  13.166  1.00  0.00     0.057 C 
BRANCH   7   8
HETATM    8  C7  UNL     1      -4.737   2.047  12.332  1.00  0.00     0.174 C 
BRANCH   8   9
HETATM    9  O1  UNL     1      -5.586   2.304  11.260  1.00  0.00    -0.400 OA
ATOM     10  H1  UNL     1      -6.157   3.018  11.517  1.00  0.00     0.209 HD
ENDBRANCH   8   9
ENDBRANCH   7   8
BRANCH   7  11
HETATM   11  C8  UNL     1      -3.370   4.031  12.992  1.00  0.00    -0.003 C 
HETATM   12  C9  UNL     1      -3.489   5.244  12.078  1.00  0.00     0.005 C 
HETATM   13  C10 UNL     1      -4.173   6.386  12.774  1.00  0.00     0.000 C 
HETATM   14  C11 UNL     1      -3.213   7.074  13.730  1.00  0.00     0.000 C 
HETATM   15  C12 UNL     1      -2.279   5.959  14.221  1.00  0.00     0.000 C 
HETATM   16  C13 UNL     1      -3.129   4.724  14.363  1.00  0.00     0.005 C 
ENDBRANCH   7  11
ENDBRANCH   4   7
TORSDOF 4
ENDMDL
MODEL 5
REMARK VINA RESULT: -6.066697569      0.934      1.108
REMARK  4 active torsions:
REMARK  status: ('A' for Active; 'I' for Inactive)
REMARK    1  A    between atoms: C4_4  and  C6_7 
REMARK    2  A    between atoms: C6_7  and  C7_8 
REMARK    3  A    between atoms: C6_7  and  C8_11 
REMARK    4  A    between atoms: C7_8  and  O1_9 
ROOT
HETATM    1  C1  UNL     1      -6.590   3.432  16.283  1.00  0.00     0.044 C 
HETATM    2  C2  UNL     1      -5.711   4.120  15.265  1.00  0.00    -0.070 C 
HETATM    3  C3  UNL     1      -6.264   5.380  14.761  1.00  0.00     0.044 C 
HETATM    4  C4  UNL     1      -4.557   3.606  15.004  1.00  0.00     0.030 C 
HETATM    5  C5  UNL     1      -4.302   2.363  15.819  1.00  0.00     0.096 C 
HETATM    6  N1  UNL     1      -4.128   1.387  16.454  1.00  0.00    -0.192 NA
ENDROOT
BRANCH   4   7
HETATM    7  C6  UNL     1      -3.506   3.852  14.049  1.00  0.00     0.057 C 
BRANCH   7   8
HETATM    8  C7  UNL     1      -2.665   5.028  14.544  1.00  0.00     0.174 C 
BRANCH   8   9
HETATM    9  O1  UNL     1      -1.440   4.515  14.954  1.00  0.00    -0.400 OA
ATOM     10  H1  UNL     1      -0.933   5.240  15.303  1.00  0.00     0.209 HD
ENDBRANCH   8   9
ENDBRANCH   7   8
BRANCH   7  11
HETATM   11  C8  UNL     1      -3.854   3.980  12.613  1.00  0.00    -0.003 C 
HETATM   12  C9  UNL     1      -2.626   4.165  11.732  1.00  0.00     0.005 C 
HETATM   13  C10 UNL     1      -1.871   2.875  11.571  1.00  0.00     0.000 C 
HETATM   14  C11 UNL     1      -2.577   1.970  10.575  1.00  0.00     0.000 C 
HETATM   15  C12 UNL     1      -4.069   2.295  10.734  1.00  0.00     0.000 C 
HETATM   16  C13 UNL     1      -4.295   2.547  12.201  1.00  0.00     0.005 C 
ENDBRANCH   7  11
ENDBRANCH   4   7
TORSDOF 4
ENDMDL
