MODEL 1
REMARK VINA RESULT: -5.600665477      0.000      0.000
REMARK  3 active torsions:
REMARK  status: ('A' for Active; 'I' for Inactive)
REMARK    1  A    between atoms: N1_4  and  C4_6 
REMARK    2  A    between atoms: C5_7  and  C6_8 
REMARK    3  A    between atoms: C7_9  and  N2_11 
ROOT
HETATM    1  C6  UNL     1      -4.361   5.544  14.606  1.00  0.00     0.039 C 
HETATM    2  C7  UNL     1      -4.575   4.307  14.177  1.00  0.00     0.079 C 
HETATM    3  S1  UNL     1      -4.017   3.882  12.542  1.00  0.00    -0.033 SA
ENDROOT
BRANCH   1   4
HETATM    4  C5  UNL     1      -3.699   6.533  13.793  1.00  0.00     0.020 C 
HETATM    5  C4  UNL     1      -2.911   7.426  14.351  1.00  0.00     0.088 C 
BRANCH   5   6
HETATM    6  N1  UNL     1      -2.233   8.422  13.603  1.00  0.00    -0.373 N 
HETATM    7  C2  UNL     1      -1.565   9.317  14.244  1.00  0.00    -0.022 C 
HETATM    8  C1  UNL     1      -0.849  10.365  13.493  1.00  0.00     0.062 C 
HETATM    9  C3  UNL     1      -1.494   9.328  15.720  1.00  0.00     0.062 C 
ATOM     10  H1  UNL     1      -2.273   8.429  12.583  1.00  0.00     0.164 HD
ENDBRANCH   5   6
ENDBRANCH   1   4
BRANCH   2  11
HETATM   11  N2  UNL     1      -5.220   3.307  14.944  1.00  0.00    -0.375 N 
HETATM   12  C8  UNL     1      -6.348   3.671  15.749  1.00  0.00     0.123 C 
HETATM   13  C9  UNL     1      -6.615   2.763  16.899  1.00  0.00     0.020 C 
HETATM   14  C10 UNL     1      -6.075   1.385  16.762  1.00  0.00     0.003 C 
HETATM   15  C11 UNL     1      -4.655   1.368  16.267  1.00  0.00     0.020 C 
HETATM   16  C12 UNL     1      -4.684   1.965  14.856  1.00  0.00     0.123 C 
ENDBRANCH   2  11
TORSDOF 3
ENDMDL
MODEL 2
REMARK VINA RESULT: -5.570623011      2.666      3.403
REMARK  3 active torsions:
REMARK  status: ('A' for Active; 'I' for Inactive)
REMARK    1  A    between atoms: N1_4  and  C4_6 
REMARK    2  A    between atoms: C5_7  and  C6_8 
REMARK    3  A    between atoms: C7_9  and  N2_11 
ROOT
HETATM    1  C6  UNL     1      -4.874   5.104  14.609  1.00  0.00     0.039 C 
HETATM    2  C7  UNL     1      -4.973   3.781  14.571  1.00  0.00     0.079 C 
HETATM    3  S1  UNL     1      -4.623   2.960  13.032  1.00  0.00    -0.033 SA
ENDROOT
BRANCH   1   4
HETATM    4  C5  UNL     1      -4.495   5.876  13.452  1.00  0.00     0.020 C 
HETATM    5  C4  UNL     1      -5.367   6.680  12.882  1.00  0.00     0.088 C 
BRANCH   5   6
HETATM    6  N1  UNL     1      -5.053   7.464  11.742  1.00  0.00    -0.373 N 
HETATM    7  C2  UNL     1      -5.991   8.169  11.210  1.00  0.00    -0.022 C 
HETATM    8  C1  UNL     1      -5.694   8.995  10.025  1.00  0.00     0.062 C 
HETATM    9  C3  UNL     1      -7.364   8.174  11.753  1.00  0.00     0.062 C 
ATOM     10  H1  UNL     1      -4.109   7.470  11.355  1.00  0.00     0.164 HD
ENDBRANCH   5   6
ENDBRANCH   1   4
BRANCH   2  11
HETATM   11  N2  UNL     1      -5.341   2.986  15.684  1.00  0.00    -0.375 N 
HETATM   12  C8  UNL     1      -4.569   1.819  15.987  1.00  0.00     0.123 C 
HETATM   13  C9  UNL     1      -5.291   0.775  16.766  1.00  0.00     0.020 C 
HETATM   14  C10 UNL     1      -6.449   1.262  17.562  1.00  0.00     0.003 C 
HETATM   15  C11 UNL     1      -7.338   2.188  16.779  1.00  0.00     0.020 C 
HETATM   16  C12 UNL     1      -6.491   3.421  16.448  1.00  0.00     0.123 C 
ENDBRANCH   2  11
TORSDOF 3
ENDMDL
MODEL 3
REMARK VINA RESULT: -5.448160226      1.168      1.746
REMARK  3 active torsions:
REMARK  status: ('A' for Active; 'I' for Inactive)
REMARK    1  A    between atoms: N1_4  and  C4_6 
REMARK    2  A    between atoms: C5_7  and  C6_8 
REMARK    3  A    between atoms: C7_9  and  N2_11 
ROOT
HETATM    1  C6  UNL     1      -3.731   4.649  14.742  1.00  0.00     0.039 C 
HETATM    2  C7  UNL     1      -4.975   4.319  15.070  1.00  0.00     0.079 C 
HETATM    3  S1  UNL     1      -6.304   5.266  14.362  1.00  0.00    -0.033 SA
ENDROOT
BRANCH   1   4
HETATM    4  C5  UNL     1      -3.440   5.736  13.842  1.00  0.00     0.020 C 
HETATM    5  C4  UNL     1      -2.795   6.797  14.277  1.00  0.00     0.088 C 
BRANCH   5   6
HETATM    6  N1  UNL     1      -2.480   7.898  13.440  1.00  0.00    -0.373 N 
HETATM    7  C2  UNL     1      -1.987   8.956  13.984  1.00  0.00    -0.022 C 
HETATM    8  C1  UNL     1      -1.648  10.116  13.138  1.00  0.00     0.062 C 
HETATM    9  C3  UNL     1      -1.749   9.046  15.439  1.00  0.00     0.062 C 
ATOM     10  H1  UNL     1      -2.639   7.852  12.433  1.00  0.00     0.164 HD
ENDBRANCH   5   6
ENDBRANCH   1   4
BRANCH   2  11
HETATM   11  N2  UNL     1      -5.304   3.259  15.949  1.00  0.00    -0.375 N 
HETATM   12  C8  UNL     1      -4.456   2.105  15.990  1.00  0.00     0.123 C 
HETATM   13  C9  UNL     1      -5.115   0.861  16.474  1.00  0.00     0.020 C 
HETATM   14  C10 UNL     1      -6.317   1.067  17.326  1.00  0.00     0.003 C 
HETATM   15  C11 UNL     1      -7.257   2.094  16.758  1.00  0.00     0.020 C 
HETATM   16  C12 UNL     1      -6.493   3.423  16.757  1.00  0.00     0.123 C 
ENDBRANCH   2  11
TORSDOF 3
ENDMDL
MODEL 4
REMARK VINA RESULT: -5.426480611      4.015      4.630
REMARK  3 active torsions:
REMARK  status: ('A' for Active; 'I' for Inactive)
REMARK    1  A    between atoms: N1_4  and  C4_6 
REMARK    2  A    between atoms: C5_7  and  C6_8 
REMARK    3  A    between atoms: C7_9  and  N2_11 
ROOT
HETATM    1  C6  UNL     1      -4.384   2.061  13.138  1.00  0.00     0.039 C 
HETATM    2  C7  UNL     1      -4.770   2.956  14.039  1.00  0.00     0.079 C 
HETATM    3  S1  UNL     1      -4.745   4.674  13.572  1.00  0.00    -0.033 SA
ENDROOT
BRANCH   1   4
HETATM    4  C5  UNL     1      -3.954   2.440  11.817  1.00  0.00     0.020 C 
HETATM    5  C4  UNL     1      -2.698   2.278  11.460  1.00  0.00     0.088 C 
BRANCH   5   6
HETATM    6  N1  UNL     1      -2.215   2.632  10.174  1.00  0.00    -0.373 N 
HETATM    7  C2  UNL     1      -1.111   3.290  10.097  1.00  0.00    -0.022 C 
HETATM    8  C1  UNL     1      -0.584   3.671   8.774  1.00  0.00     0.062 C 
HETATM    9  C3  UNL     1      -0.350   3.678  11.302  1.00  0.00     0.062 C 
ATOM     10  H1  UNL     1      -2.730   2.372   9.332  1.00  0.00     0.164 HD
ENDBRANCH   5   6
ENDBRANCH   1   4
BRANCH   2  11
HETATM   11  N2  UNL     1      -5.200   2.626  15.347  1.00  0.00    -0.375 N 
HETATM   12  C8  UNL     1      -4.732   1.410  15.942  1.00  0.00     0.123 C 
HETATM   13  C9  UNL     1      -5.607   0.863  17.017  1.00  0.00     0.020 C 
HETATM   14  C10 UNL     1      -6.492   1.854  17.684  1.00  0.00     0.003 C 
HETATM   15  C11 UNL     1      -7.192   2.754  16.704  1.00  0.00     0.020 C 
HETATM   16  C12 UNL     1      -6.095   3.558  15.998  1.00  0.00     0.123 C 
ENDBRANCH   2  11
TORSDOF 3
ENDMDL
MODEL 5
REMARK VINA RESULT: -5.389487883      2.663      3.108
REMARK  3 active torsions:
REMARK  status: ('A' for Active; 'I' for Inactive)
REMARK    1  A    between atoms: N1_4  and  C4_6 
REMARK    2  A    between atoms: C5_7  and  C6_8 
REMARK    3  A    between atoms: C7_9  and  N2_11 
ROOT
HETATM    1  C6  UNL     1      -5.762   5.404  14.210  1.00  0.00     0.039 C 
HETATM    2  C7  UNL     1      -4.985   4.475  14.754  1.00  0.00     0.079 C 
HETATM    3  S1  UNL     1      -3.222   4.698  14.657  1.00  0.00    -0.033 SA
ENDROOT
BRANCH   1   4
HETATM    4  C5  UNL     1      -5.220   6.568  13.557  1.00  0.00     0.020 C 
HETATM    5  C4  UNL     1      -5.363   6.723  12.258  1.00  0.00     0.088 C 
BRANCH   5   6
HETATM    6  N1  UNL     1      -4.852   7.847  11.560  1.00  0.00    -0.373 N 
HETATM    7  C2  UNL     1      -5.691   8.675  11.040  1.00  0.00    -0.022 C 
HETATM    8  C1  UNL     1      -5.188   9.852  10.309  1.00  0.00     0.062 C 
HETATM    9  C3  UNL     1      -7.151   8.479  11.153  1.00  0.00     0.062 C 
ATOM     10  H1  UNL     1      -3.847   7.995  11.472  1.00  0.00     0.164 HD
ENDBRANCH   5   6
ENDBRANCH   1   4
BRANCH   2  11
HETATM   11  N2  UNL     1      -5.477   3.317  15.404  1.00  0.00    -0.375 N 
HETATM   12  C8  UNL     1      -6.576   3.448  16.314  1.00  0.00     0.123 C 
HETATM   13  C9  UNL     1      -6.674   2.369  17.336  1.00  0.00     0.020 C 
HETATM   14  C10 UNL     1      -6.016   1.086  16.972  1.00  0.00     0.003 C 
HETATM   15  C11 UNL     1      -4.639   1.285  16.401  1.00  0.00     0.020 C 
HETATM   16  C12 UNL     1      -4.823   2.063  15.095  1.00  0.00     0.123 C 
ENDBRANCH   2  11
TORSDOF 3
ENDMDL
