MODEL 1
REMARK VINA RESULT: -6.533428427      0.000      0.000
REMARK  3 active torsions:
REMARK  status: ('A' for Active; 'I' for Inactive)
REMARK    1  A    between atoms: O1_1  and  C1_3 
REMARK    2  A    between atoms: C3_6  and  N1_7 
REMARK    3  A    between atoms: N1_7  and  N2_9 
ROOT
HETATM    1  N1  UNL     1      29.843   9.923  24.271  1.00  0.00    -0.280 N 
ATOM      2  H1  UNL     1      29.106  10.056  24.965  1.00  0.00     0.189 HD
ENDROOT
BRANCH   1   3
HETATM    3  C3  UNL     1      30.063  10.859  23.367  1.00  0.00     0.165 A 
HETATM    4  S1  UNL     1      31.499  11.709  23.013  1.00  0.00    -0.060 SA
HETATM    5  C2  UNL     1      30.899  12.690  21.750  1.00  0.00     0.109 A 
HETATM    6  C1  UNL     1      29.588  12.289  21.674  1.00  0.00     0.148 A 
HETATM    7  N3  UNL     1      29.192  11.366  22.500  1.00  0.00    -0.316 N 
ATOM      8  H3  UNL     1      28.226  11.037  22.483  1.00  0.00     0.170 HD
BRANCH   6   9
HETATM    9  O1  UNL     1      28.751  12.912  20.700  1.00  0.00    -0.346 OA
ATOM     10  H1  UNL     1      28.884  12.687  19.787  1.00  0.00     0.219 HD
ENDBRANCH   6   9
ENDBRANCH   1   3
BRANCH   1  11
HETATM   11  N2  UNL     1      30.596   8.773  24.289  1.00  0.00    -0.307 N 
HETATM   12  C4  UNL     1      31.137   8.382  25.384  1.00  0.00     0.004 C 
HETATM   13  C5  UNL     1      30.941   9.180  26.618  1.00  0.00     0.054 C 
HETATM   14  C9  UNL     1      31.966   7.152  25.497  1.00  0.00     0.054 C 
HETATM   15  C6  UNL     1      30.885   8.187  27.772  1.00  0.00     0.006 C 
HETATM   16  C7  UNL     1      32.284   7.632  27.940  1.00  0.00     0.001 C 
HETATM   17  C8  UNL     1      32.936   7.328  26.629  1.00  0.00     0.006 C 
ATOM     18  H2  UNL     1      30.723   8.232  23.434  1.00  0.00     0.186 HD
ENDBRANCH   1  11
TORSDOF 3
ENDMDL
MODEL 2
REMARK VINA RESULT: -6.419474037      0.871      1.613
REMARK  3 active torsions:
REMARK  status: ('A' for Active; 'I' for Inactive)
REMARK    1  A    between atoms: O1_1  and  C1_3 
REMARK    2  A    between atoms: C3_6  and  N1_7 
REMARK    3  A    between atoms: N1_7  and  N2_9 
ROOT
HETATM    1  N1  UNL     1      29.036  10.337  24.279  1.00  0.00    -0.280 N 
ATOM      2  H1  UNL     1      28.307   9.669  24.028  1.00  0.00     0.189 HD
ENDROOT
BRANCH   1   3
HETATM    3  C3  UNL     1      29.552  11.120  23.351  1.00  0.00     0.165 A 
HETATM    4  S1  UNL     1      31.161  11.654  23.154  1.00  0.00    -0.060 SA
HETATM    5  C2  UNL     1      30.936  12.594  21.745  1.00  0.00     0.109 A 
HETATM    6  C1  UNL     1      29.594  12.433  21.504  1.00  0.00     0.148 A 
HETATM    7  N3  UNL     1      28.920  11.686  22.327  1.00  0.00    -0.316 N 
ATOM      8  H3  UNL     1      27.920  11.538  22.190  1.00  0.00     0.170 HD
BRANCH   6   9
HETATM    9  O1  UNL     1      29.031  13.095  20.371  1.00  0.00    -0.346 OA
ATOM     10  H1  UNL     1      28.161  13.465  20.458  1.00  0.00     0.219 HD
ENDBRANCH   6   9
ENDBRANCH   1   3
BRANCH   1  11
HETATM   11  N2  UNL     1      29.470  10.413  25.582  1.00  0.00    -0.307 N 
HETATM   12  C4  UNL     1      30.276   9.527  26.038  1.00  0.00     0.004 C 
HETATM   13  C5  UNL     1      30.729   8.429  25.150  1.00  0.00     0.054 C 
HETATM   14  C9  UNL     1      30.798   9.529  27.432  1.00  0.00     0.054 C 
HETATM   15  C6  UNL     1      32.164   8.111  25.550  1.00  0.00     0.006 C 
HETATM   16  C7  UNL     1      32.102   7.449  26.911  1.00  0.00     0.001 C 
HETATM   17  C8  UNL     1      31.126   8.118  27.825  1.00  0.00     0.006 C 
ATOM     18  H2  UNL     1      29.152  11.173  26.184  1.00  0.00     0.186 HD
ENDBRANCH   1  11
TORSDOF 3
ENDMDL
MODEL 3
REMARK VINA RESULT: -6.363127969      3.389      6.288
REMARK  3 active torsions:
REMARK  status: ('A' for Active; 'I' for Inactive)
REMARK    1  A    between atoms: O1_1  and  C1_3 
REMARK    2  A    between atoms: C3_6  and  N1_7 
REMARK    3  A    between atoms: N1_7  and  N2_9 
ROOT
HETATM    1  N1  UNL     1      30.829  10.260  25.609  1.00  0.00    -0.280 N 
ATOM      2  H1  UNL     1      29.809  10.284  25.591  1.00  0.00     0.189 HD
ENDROOT
BRANCH   1   3
HETATM    3  C3  UNL     1      31.448   9.288  26.251  1.00  0.00     0.165 A 
HETATM    4  S1  UNL     1      30.860   8.246  27.469  1.00  0.00    -0.060 SA
HETATM    5  C2  UNL     1      32.283   7.333  27.718  1.00  0.00     0.109 A 
HETATM    6  C1  UNL     1      33.150   7.903  26.819  1.00  0.00     0.148 A 
HETATM    7  N3  UNL     1      32.706   8.886  26.093  1.00  0.00    -0.316 N 
ATOM      8  H3  UNL     1      33.313   9.342  25.413  1.00  0.00     0.170 HD
BRANCH   6   9
HETATM    9  O1  UNL     1      34.477   7.382  26.744  1.00  0.00    -0.346 OA
ATOM     10  H1  UNL     1      35.016   7.637  26.004  1.00  0.00     0.219 HD
ENDBRANCH   6   9
ENDBRANCH   1   3
BRANCH   1  11
HETATM   11  N2  UNL     1      31.544  11.240  24.962  1.00  0.00    -0.307 N 
HETATM   12  C4  UNL     1      31.142  11.679  23.827  1.00  0.00     0.004 C 
HETATM   13  C5  UNL     1      29.907  11.120  23.226  1.00  0.00     0.054 C 
HETATM   14  C9  UNL     1      31.851  12.737  23.057  1.00  0.00     0.054 C 
HETATM   15  C6  UNL     1      29.232  12.264  22.480  1.00  0.00     0.006 C 
HETATM   16  C7  UNL     1      30.094  12.567  21.273  1.00  0.00     0.001 C 
HETATM   17  C8  UNL     1      31.554  12.551  21.597  1.00  0.00     0.006 C 
ATOM     18  H2  UNL     1      32.392  11.618  25.385  1.00  0.00     0.186 HD
ENDBRANCH   1  11
TORSDOF 3
ENDMDL
MODEL 4
REMARK VINA RESULT: -6.313406598      3.437      6.142
REMARK  3 active torsions:
REMARK  status: ('A' for Active; 'I' for Inactive)
REMARK    1  A    between atoms: O1_1  and  C1_3 
REMARK    2  A    between atoms: C3_6  and  N1_7 
REMARK    3  A    between atoms: N1_7  and  N2_9 
ROOT
HETATM    1  N1  UNL     1      30.043  10.499  26.266  1.00  0.00    -0.280 N 
ATOM      2  H1  UNL     1      29.999  11.320  26.870  1.00  0.00     0.189 HD
ENDROOT
BRANCH   1   3
HETATM    3  C3  UNL     1      30.674   9.417  26.680  1.00  0.00     0.165 A 
HETATM    4  S1  UNL     1      31.612   8.301  25.792  1.00  0.00    -0.060 SA
HETATM    5  C2  UNL     1      32.029   7.254  27.076  1.00  0.00     0.109 A 
HETATM    6  C1  UNL     1      31.401   7.847  28.144  1.00  0.00     0.148 A 
HETATM    7  N3  UNL     1      30.725   8.934  27.918  1.00  0.00    -0.316 N 
ATOM      8  H3  UNL     1      30.240   9.410  28.680  1.00  0.00     0.170 HD
BRANCH   6   9
HETATM    9  O1  UNL     1      31.530   7.231  29.425  1.00  0.00    -0.346 OA
ATOM     10  H1  UNL     1      30.770   7.218  29.994  1.00  0.00     0.219 HD
ENDBRANCH   6   9
ENDBRANCH   1   3
BRANCH   1  11
HETATM   11  N2  UNL     1      29.444  10.532  25.028  1.00  0.00    -0.307 N 
HETATM   12  C4  UNL     1      30.014  11.151  24.061  1.00  0.00     0.004 C 
HETATM   13  C5  UNL     1      31.314  11.825  24.293  1.00  0.00     0.054 C 
HETATM   14  C9  UNL     1      29.441  11.239  22.690  1.00  0.00     0.054 C 
HETATM   15  C6  UNL     1      32.109  11.691  23.000  1.00  0.00     0.006 C 
HETATM   16  C7  UNL     1      31.436  12.586  21.980  1.00  0.00     0.001 C 
HETATM   17  C8  UNL     1      29.945  12.494  22.037  1.00  0.00     0.006 C 
ATOM     18  H2  UNL     1      28.550  10.065  24.880  1.00  0.00     0.186 HD
ENDBRANCH   1  11
TORSDOF 3
ENDMDL
MODEL 5
REMARK VINA RESULT: -6.203739014      3.220      6.012
REMARK  3 active torsions:
REMARK  status: ('A' for Active; 'I' for Inactive)
REMARK    1  A    between atoms: O1_1  and  C1_3 
REMARK    2  A    between atoms: C3_6  and  N1_7 
REMARK    3  A    between atoms: N1_7  and  N2_9 
ROOT
HETATM    1  N1  UNL     1      30.362  10.581  26.199  1.00  0.00    -0.280 N 
ATOM      2  H1  UNL     1      30.303  11.403  26.801  1.00  0.00     0.189 HD
ENDROOT
BRANCH   1   3
HETATM    3  C3  UNL     1      31.100   9.552  26.570  1.00  0.00     0.165 A 
HETATM    4  S1  UNL     1      30.718   8.267  27.626  1.00  0.00    -0.060 SA
HETATM    5  C2  UNL     1      32.200   7.422  27.531  1.00  0.00     0.109 A 
HETATM    6  C1  UNL     1      32.921   8.205  26.664  1.00  0.00     0.148 A 
HETATM    7  N3  UNL     1      32.345   9.272  26.194  1.00  0.00    -0.316 N 
ATOM      8  H3  UNL     1      32.841   9.886  25.548  1.00  0.00     0.170 HD
BRANCH   6   9
HETATM    9  O1  UNL     1      34.250   7.798  26.339  1.00  0.00    -0.346 OA
ATOM     10  H1  UNL     1      34.970   8.330  26.656  1.00  0.00     0.219 HD
ENDBRANCH   6   9
ENDBRANCH   1   3
BRANCH   1  11
HETATM   11  N2  UNL     1      29.672  10.558  25.010  1.00  0.00    -0.307 N 
HETATM   12  C4  UNL     1      30.125  11.201  23.998  1.00  0.00     0.004 C 
HETATM   13  C5  UNL     1      31.390  11.962  24.125  1.00  0.00     0.054 C 
HETATM   14  C9  UNL     1      29.446  11.232  22.673  1.00  0.00     0.054 C 
HETATM   15  C6  UNL     1      32.093  11.865  22.777  1.00  0.00     0.006 C 
HETATM   16  C7  UNL     1      31.287  12.699  21.803  1.00  0.00     0.001 C 
HETATM   17  C8  UNL     1      29.814  12.509  21.974  1.00  0.00     0.006 C 
ATOM     18  H2  UNL     1      28.802  10.030  24.934  1.00  0.00     0.186 HD
ENDBRANCH   1  11
TORSDOF 3
ENDMDL
