MODEL 1
REMARK VINA RESULT: -7.195066687      0.000      0.000
REMARK  3 active torsions:
REMARK  status: ('A' for Active; 'I' for Inactive)
REMARK    1  A    between atoms: O1_1  and  C1_3 
REMARK    2  A    between atoms: C5_8  and  O3_9 
REMARK    3  A    between atoms: C6_11  and  C7_12 
ROOT
HETATM    1  C1  UNL     1      31.696   7.119  27.087  1.00  0.00     0.194 A 
HETATM    2  O2  UNL     1      32.851   7.219  27.704  1.00  0.00    -0.297 OA
HETATM    3  C2  UNL     1      33.542   8.226  27.226  1.00  0.00     0.182 A 
HETATM    4  C3  UNL     1      32.795   8.828  26.231  1.00  0.00     0.105 A 
HETATM    5  C4  UNL     1      31.621   8.107  26.159  1.00  0.00     0.066 A 
HETATM    6  C5  UNL     1      30.825   8.787  25.060  1.00  0.00     0.188 C 
HETATM    7  C6  UNL     1      31.353  10.165  25.190  1.00  0.00     0.166 C 
HETATM    8  O4  UNL     1      32.762   9.874  25.277  1.00  0.00    -0.340 OA
ENDROOT
BRANCH   7   9
HETATM    9  C7  UNL     1      30.993  11.172  24.190  1.00  0.00     0.018 C 
HETATM   10  C8  UNL     1      29.744  10.982  23.409  1.00  0.00     0.007 C 
HETATM   11  C9  UNL     1      29.455  12.325  22.706  1.00  0.00     0.000 C 
HETATM   12  C10 UNL     1      30.515  12.442  21.632  1.00  0.00     0.000 C 
HETATM   13  C11 UNL     1      31.871  12.565  22.298  1.00  0.00     0.000 C 
HETATM   14  C12 UNL     1      32.156  11.454  23.246  1.00  0.00     0.007 C 
ENDBRANCH   7   9
BRANCH   6  15
HETATM   15  O3  UNL     1      31.232   8.115  23.912  1.00  0.00    -0.388 OA
ATOM     16  H3  UNL     1      31.913   8.678  23.563  1.00  0.00     0.210 HD
ENDBRANCH   6  15
BRANCH   1  17
HETATM   17  O1  UNL     1      30.683   6.185  27.302  1.00  0.00    -0.340 OA
ATOM     18  H1  UNL     1      30.573   5.334  26.894  1.00  0.00     0.220 HD
ENDBRANCH   1  17
TORSDOF 3
ENDMDL
MODEL 2
REMARK VINA RESULT: -6.755070800      1.967      5.716
REMARK  3 active torsions:
REMARK  status: ('A' for Active; 'I' for Inactive)
REMARK    1  A    between atoms: O1_1  and  C1_3 
REMARK    2  A    between atoms: C5_8  and  O3_9 
REMARK    3  A    between atoms: C6_11  and  C7_12 
ROOT
HETATM    1  C1  UNL     1      30.063  11.324  23.011  1.00  0.00     0.194 A 
HETATM    2  O2  UNL     1      30.991  11.975  22.351  1.00  0.00    -0.297 OA
HETATM    3  C2  UNL     1      32.147  11.878  22.965  1.00  0.00     0.182 A 
HETATM    4  C3  UNL     1      31.966  11.114  24.103  1.00  0.00     0.105 A 
HETATM    5  C4  UNL     1      30.630  10.771  24.113  1.00  0.00     0.066 A 
HETATM    6  C5  UNL     1      30.461   9.938  25.371  1.00  0.00     0.188 C 
HETATM    7  C6  UNL     1      31.824   9.365  25.472  1.00  0.00     0.166 C 
HETATM    8  O4  UNL     1      32.602  10.556  25.239  1.00  0.00    -0.340 OA
ENDROOT
BRANCH   7   9
HETATM    9  C7  UNL     1      32.201   8.607  26.666  1.00  0.00     0.018 C 
HETATM   10  C8  UNL     1      33.580   8.063  26.756  1.00  0.00     0.007 C 
HETATM   11  C9  UNL     1      33.788   7.627  28.221  1.00  0.00     0.000 C 
HETATM   12  C10 UNL     1      32.922   6.396  28.391  1.00  0.00     0.000 C 
HETATM   13  C11 UNL     1      31.469   6.799  28.243  1.00  0.00     0.000 C 
HETATM   14  C12 UNL     1      31.189   7.507  26.964  1.00  0.00     0.007 C 
ENDBRANCH   7   9
BRANCH   6  15
HETATM   15  O3  UNL     1      30.157  10.887  26.341  1.00  0.00    -0.388 OA
ATOM     16  H3  UNL     1      30.444  10.472  27.146  1.00  0.00     0.210 HD
ENDBRANCH   6  15
BRANCH   1  17
HETATM   17  O1  UNL     1      28.712  11.187  22.688  1.00  0.00    -0.340 OA
ATOM     18  H1  UNL     1      28.038  10.723  23.170  1.00  0.00     0.220 HD
ENDBRANCH   1  17
TORSDOF 3
ENDMDL
MODEL 3
REMARK VINA RESULT: -6.656347061      2.365      5.746
REMARK  3 active torsions:
REMARK  status: ('A' for Active; 'I' for Inactive)
REMARK    1  A    between atoms: O1_1  and  C1_3 
REMARK    2  A    between atoms: C5_8  and  O3_9 
REMARK    3  A    between atoms: C6_11  and  C7_12 
ROOT
HETATM    1  C1  UNL     1      30.051  12.261  21.671  1.00  0.00     0.194 A 
HETATM    2  O2  UNL     1      31.163  12.933  21.488  1.00  0.00    -0.297 OA
HETATM    3  C2  UNL     1      32.023  12.667  22.443  1.00  0.00     0.182 A 
HETATM    4  C3  UNL     1      31.439  11.762  23.309  1.00  0.00     0.105 A 
HETATM    5  C4  UNL     1      30.182  11.516  22.798  1.00  0.00     0.066 A 
HETATM    6  C5  UNL     1      29.565  10.524  23.768  1.00  0.00     0.188 C 
HETATM    7  C6  UNL     1      30.796   9.849  24.244  1.00  0.00     0.166 C 
HETATM    8  O4  UNL     1      31.622  11.003  24.491  1.00  0.00    -0.340 OA
ENDROOT
BRANCH   7   9
HETATM    9  C7  UNL     1      30.713   8.901  25.358  1.00  0.00     0.018 C 
HETATM   10  C8  UNL     1      31.166   9.344  26.702  1.00  0.00     0.007 C 
HETATM   11  C9  UNL     1      30.655   8.292  27.708  1.00  0.00     0.000 C 
HETATM   12  C10 UNL     1      31.498   7.061  27.451  1.00  0.00     0.000 C 
HETATM   13  C11 UNL     1      31.190   6.542  26.061  1.00  0.00     0.000 C 
HETATM   14  C12 UNL     1      31.369   7.572  25.002  1.00  0.00     0.007 C 
ENDBRANCH   7   9
BRANCH   6  15
HETATM   15  O3  UNL     1      28.951  11.342  24.710  1.00  0.00    -0.388 OA
ATOM     16  H3  UNL     1      28.134  10.891  24.887  1.00  0.00     0.210 HD
ENDBRANCH   6  15
BRANCH   1  17
HETATM   17  O1  UNL     1      28.901  12.267  20.881  1.00  0.00    -0.340 OA
ATOM     18  H1  UNL     1      28.601  11.599  20.276  1.00  0.00     0.220 HD
ENDBRANCH   1  17
TORSDOF 3
ENDMDL
MODEL 4
REMARK VINA RESULT: -6.614279117      1.493      2.315
REMARK  3 active torsions:
REMARK  status: ('A' for Active; 'I' for Inactive)
REMARK    1  A    between atoms: O1_1  and  C1_3 
REMARK    2  A    between atoms: C5_8  and  O3_9 
REMARK    3  A    between atoms: C6_11  and  C7_12 
ROOT
HETATM    1  C1  UNL     1      34.191   6.675  26.074  1.00  0.00     0.194 A 
HETATM    2  O2  UNL     1      33.957   6.749  27.363  1.00  0.00    -0.297 OA
HETATM    3  C2  UNL     1      33.280   7.837  27.646  1.00  0.00     0.182 A 
HETATM    4  C3  UNL     1      33.053   8.522  26.467  1.00  0.00     0.105 A 
HETATM    5  C4  UNL     1      33.643   7.764  25.477  1.00  0.00     0.066 A 
HETATM    6  C5  UNL     1      33.382   8.540  24.198  1.00  0.00     0.188 C 
HETATM    7  C6  UNL     1      32.113   9.209  24.571  1.00  0.00     0.166 C 
HETATM    8  O4  UNL     1      32.466   9.674  25.889  1.00  0.00    -0.340 OA
ENDROOT
BRANCH   7   9
HETATM    9  C7  UNL     1      31.550  10.232  23.688  1.00  0.00     0.018 C 
HETATM   10  C8  UNL     1      32.165  11.584  23.685  1.00  0.00     0.007 C 
HETATM   11  C9  UNL     1      31.607  12.320  22.450  1.00  0.00     0.000 C 
HETATM   12  C10 UNL     1      30.157  12.604  22.784  1.00  0.00     0.000 C 
HETATM   13  C11 UNL     1      29.417  11.286  22.895  1.00  0.00     0.000 C 
HETATM   14  C12 UNL     1      30.041  10.349  23.868  1.00  0.00     0.007 C 
ENDBRANCH   7   9
BRANCH   6  15
HETATM   15  O3  UNL     1      34.481   9.388  24.113  1.00  0.00    -0.388 OA
ATOM     16  H3  UNL     1      34.086  10.252  24.099  1.00  0.00     0.210 HD
ENDBRANCH   6  15
BRANCH   1  17
HETATM   17  O1  UNL     1      34.877   5.678  25.379  1.00  0.00    -0.340 OA
ATOM     18  H1  UNL     1      34.558   5.133  24.670  1.00  0.00     0.220 HD
ENDBRANCH   1  17
TORSDOF 3
ENDMDL
MODEL 5
REMARK VINA RESULT: -6.600742410      0.522      1.312
REMARK  3 active torsions:
REMARK  status: ('A' for Active; 'I' for Inactive)
REMARK    1  A    between atoms: O1_1  and  C1_3 
REMARK    2  A    between atoms: C5_8  and  O3_9 
REMARK    3  A    between atoms: C6_11  and  C7_12 
ROOT
HETATM    1  C1  UNL     1      31.846   7.027  27.366  1.00  0.00     0.194 A 
HETATM    2  O2  UNL     1      32.988   7.183  27.991  1.00  0.00    -0.297 OA
HETATM    3  C2  UNL     1      33.725   8.086  27.387  1.00  0.00     0.182 A 
HETATM    4  C3  UNL     1      33.021   8.553  26.293  1.00  0.00     0.105 A 
HETATM    5  C4  UNL     1      31.825   7.865  26.298  1.00  0.00     0.066 A 
HETATM    6  C5  UNL     1      31.077   8.396  25.088  1.00  0.00     0.188 C 
HETATM    7  C6  UNL     1      31.650   9.761  25.024  1.00  0.00     0.166 C 
HETATM    8  O4  UNL     1      33.045   9.444  25.192  1.00  0.00    -0.340 OA
ENDROOT
BRANCH   7   9
HETATM    9  C7  UNL     1      31.347  10.617  23.875  1.00  0.00     0.018 C 
HETATM   10  C8  UNL     1      32.028  11.933  23.771  1.00  0.00     0.007 C 
HETATM   11  C9  UNL     1      31.785  12.442  22.335  1.00  0.00     0.000 C 
HETATM   12  C10 UNL     1      30.318  12.812  22.292  1.00  0.00     0.000 C 
HETATM   13  C11 UNL     1      29.493  11.553  22.469  1.00  0.00     0.000 C 
HETATM   14  C12 UNL     1      29.843  10.796  23.702  1.00  0.00     0.007 C 
ENDBRANCH   7   9
BRANCH   6  15
HETATM   15  O3  UNL     1      31.486   7.547  24.066  1.00  0.00    -0.388 OA
ATOM     16  H3  UNL     1      32.150   7.011  24.483  1.00  0.00     0.210 HD
ENDBRANCH   6  15
BRANCH   1  17
HETATM   17  O1  UNL     1      30.796   6.168  27.691  1.00  0.00    -0.340 OA
ATOM     18  H1  UNL     1      29.954   6.081  27.260  1.00  0.00     0.220 HD
ENDBRANCH   1  17
TORSDOF 3
ENDMDL
