MODEL 1
REMARK VINA RESULT: -8.143447808      0.000      0.000
REMARK  2 active torsions:
REMARK  status: ('A' for Active; 'I' for Inactive)
REMARK    1  A    between atoms: C6_6  and  C7_7 
REMARK    2  A    between atoms: C11_14  and  O1_15 
ROOT
HETATM    1  C7  UNL     1      31.102   8.975  24.675  1.00  0.00     0.077 C 
HETATM    2  N1  UNL     1      31.168   7.715  24.410  1.00  0.00    -0.308 N 
ATOM      3  H1  UNL     1      30.501   7.076  24.845  1.00  0.00     0.177 HD
HETATM    4  C8  UNL     1      32.136   7.207  23.539  1.00  0.00     0.181 C 
HETATM    5  N2  UNL     1      32.948   6.782  22.834  1.00  0.00    -0.172 NA
ENDROOT
BRANCH   1   6
HETATM    6  C6  UNL     1      32.049   9.889  24.057  1.00  0.00     0.029 C 
HETATM    7  C5  UNL     1      33.452   9.717  24.654  1.00  0.00     0.010 C 
HETATM    8  C4  UNL     1      34.366  10.463  23.710  1.00  0.00     0.001 C 
HETATM    9  C3  UNL     1      34.027  11.894  23.547  1.00  0.00     0.010 C 
HETATM   10  C2  UNL     1      32.587  12.245  23.480  1.00  0.00    -0.040 C 
HETATM   11  C1  UNL     1      32.486  13.663  24.061  1.00  0.00     0.015 C 
HETATM   12  C9  UNL     1      31.706  11.357  24.322  1.00  0.00     0.005 C 
HETATM   13  C13 UNL     1      32.160  12.332  22.050  1.00  0.00     0.012 C 
HETATM   14  C10 UNL     1      30.268  11.627  24.192  1.00  0.00     0.037 C 
HETATM   15  C11 UNL     1      29.812  12.293  22.952  1.00  0.00     0.118 C 
HETATM   16  C12 UNL     1      30.728  12.161  21.782  1.00  0.00     0.032 C 
BRANCH  15  17
HETATM   17  O1  UNL     1      28.574  11.735  22.558  1.00  0.00    -0.396 OA
ATOM     18  H1  UNL     1      27.908  12.413  22.580  1.00  0.00     0.210 HD
ENDBRANCH  15  17
ENDBRANCH   1   6
TORSDOF 2
ENDMDL
MODEL 2
REMARK VINA RESULT: -7.073752821      2.561      4.266
REMARK  2 active torsions:
REMARK  status: ('A' for Active; 'I' for Inactive)
REMARK    1  A    between atoms: C6_6  and  C7_7 
REMARK    2  A    between atoms: C11_14  and  O1_15 
ROOT
HETATM    1  C7  UNL     1      29.861  10.382  23.878  1.00  0.00     0.077 C 
HETATM    2  N1  UNL     1      29.067  10.223  24.882  1.00  0.00    -0.308 N 
ATOM      3  H1  UNL     1      28.070  10.086  24.714  1.00  0.00     0.177 HD
HETATM    4  C8  UNL     1      29.547  10.236  26.194  1.00  0.00     0.181 C 
HETATM    5  N2  UNL     1      29.939  10.265  27.283  1.00  0.00    -0.172 NA
ENDROOT
BRANCH   1   6
HETATM    6  C6  UNL     1      31.284  10.575  24.111  1.00  0.00     0.029 C 
HETATM    7  C5  UNL     1      31.827  11.736  23.267  1.00  0.00     0.010 C 
HETATM    8  C4  UNL     1      33.191  12.029  23.849  1.00  0.00     0.001 C 
HETATM    9  C3  UNL     1      34.116  10.875  23.829  1.00  0.00     0.010 C 
HETATM   10  C2  UNL     1      33.543   9.543  24.141  1.00  0.00    -0.040 C 
HETATM   11  C1  UNL     1      34.400   8.538  23.356  1.00  0.00     0.015 C 
HETATM   12  C9  UNL     1      32.120   9.370  23.674  1.00  0.00     0.005 C 
HETATM   13  C13 UNL     1      33.740   9.240  25.591  1.00  0.00     0.012 C 
HETATM   14  C10 UNL     1      31.504   8.093  24.059  1.00  0.00     0.037 C 
HETATM   15  C11 UNL     1      32.071   7.393  25.233  1.00  0.00     0.118 C 
HETATM   16  C12 UNL     1      32.831   8.254  26.185  1.00  0.00     0.032 C 
BRANCH  15  17
HETATM   17  O1  UNL     1      31.017   6.808  25.973  1.00  0.00    -0.396 OA
ATOM     18  H1  UNL     1      30.298   7.425  26.029  1.00  0.00     0.210 HD
ENDBRANCH  15  17
ENDBRANCH   1   6
TORSDOF 2
ENDMDL
MODEL 3
REMARK VINA RESULT: -7.017951208      2.783      4.861
REMARK  2 active torsions:
REMARK  status: ('A' for Active; 'I' for Inactive)
REMARK    1  A    between atoms: C6_6  and  C7_7 
REMARK    2  A    between atoms: C11_14  and  O1_15 
ROOT
HETATM    1  C7  UNL     1      32.266  11.700  23.172  1.00  0.00     0.077 C 
HETATM    2  N1  UNL     1      31.538  12.255  22.265  1.00  0.00    -0.308 N 
ATOM      3  H1  UNL     1      31.950  12.963  21.656  1.00  0.00     0.177 HD
HETATM    4  C8  UNL     1      30.196  11.905  22.098  1.00  0.00     0.181 C 
HETATM    5  N2  UNL     1      29.079  11.631  21.971  1.00  0.00    -0.172 NA
ENDROOT
BRANCH   1   6
HETATM    6  C6  UNL     1      31.685  10.688  24.041  1.00  0.00     0.029 C 
HETATM    7  C5  UNL     1      30.797  11.329  25.116  1.00  0.00     0.010 C 
HETATM    8  C4  UNL     1      30.017  10.178  25.707  1.00  0.00     0.001 C 
HETATM    9  C3  UNL     1      30.863   9.109  26.282  1.00  0.00     0.010 C 
HETATM   10  C2  UNL     1      32.098   8.753  25.542  1.00  0.00    -0.040 C 
HETATM   11  C1  UNL     1      33.089   8.271  26.612  1.00  0.00     0.015 C 
HETATM   12  C9  UNL     1      32.742   9.920  24.838  1.00  0.00     0.005 C 
HETATM   13  C13 UNL     1      31.827   7.587  24.647  1.00  0.00     0.012 C 
HETATM   14  C10 UNL     1      33.911   9.569  24.021  1.00  0.00     0.037 C 
HETATM   15  C11 UNL     1      34.013   8.171  23.547  1.00  0.00     0.118 C 
HETATM   16  C12 UNL     1      32.727   7.417  23.500  1.00  0.00     0.032 C 
BRANCH  15  17
HETATM   17  O1  UNL     1      34.530   8.166  22.231  1.00  0.00    -0.396 OA
ATOM     18  H1  UNL     1      35.232   7.529  22.176  1.00  0.00     0.210 HD
ENDBRANCH  15  17
ENDBRANCH   1   6
TORSDOF 2
ENDMDL
MODEL 4
REMARK VINA RESULT: -7.012436514      7.159      9.871
REMARK  2 active torsions:
REMARK  status: ('A' for Active; 'I' for Inactive)
REMARK    1  A    between atoms: C6_6  and  C7_7 
REMARK    2  A    between atoms: C11_14  and  O1_15 
ROOT
HETATM    1  C7  UNL     1      38.044   4.101  23.234  1.00  0.00     0.077 C 
HETATM    2  N1  UNL     1      37.520   5.256  23.000  1.00  0.00    -0.308 N 
ATOM      3  H1  UNL     1      37.935   5.860  22.291  1.00  0.00     0.177 HD
HETATM    4  C8  UNL     1      36.394   5.695  23.701  1.00  0.00     0.181 C 
HETATM    5  N2  UNL     1      35.473   6.069  24.294  1.00  0.00    -0.172 NA
ENDROOT
BRANCH   1   6
HETATM    6  C6  UNL     1      37.455   3.235  24.243  1.00  0.00     0.029 C 
HETATM    7  C5  UNL     1      38.523   2.717  25.216  1.00  0.00     0.010 C 
HETATM    8  C4  UNL     1      37.741   2.130  26.369  1.00  0.00     0.001 C 
HETATM    9  C3  UNL     1      36.807   1.052  25.976  1.00  0.00     0.010 C 
HETATM   10  C2  UNL     1      36.066   1.228  24.704  1.00  0.00    -0.040 C 
HETATM   11  C1  UNL     1      35.822  -0.193  24.175  1.00  0.00     0.015 C 
HETATM   12  C9  UNL     1      36.846   1.966  23.645  1.00  0.00     0.005 C 
HETATM   13  C13 UNL     1      34.724   1.822  24.984  1.00  0.00     0.012 C 
HETATM   14  C10 UNL     1      36.094   2.235  22.412  1.00  0.00     0.037 C 
HETATM   15  C11 UNL     1      34.617   2.263  22.510  1.00  0.00     0.118 C 
HETATM   16  C12 UNL     1      34.073   2.526  23.874  1.00  0.00     0.032 C 
BRANCH  15  17
HETATM   17  O1  UNL     1      34.120   3.289  21.674  1.00  0.00    -0.396 OA
ATOM     18  H1  UNL     1      33.649   2.896  20.948  1.00  0.00     0.210 HD
ENDBRANCH  15  17
ENDBRANCH   1   6
TORSDOF 2
ENDMDL
MODEL 5
REMARK VINA RESULT: -6.616592491      2.588      4.345
REMARK  2 active torsions:
REMARK  status: ('A' for Active; 'I' for Inactive)
REMARK    1  A    between atoms: C6_6  and  C7_7 
REMARK    2  A    between atoms: C11_14  and  O1_15 
ROOT
HETATM    1  C7  UNL     1      34.151  11.287  23.780  1.00  0.00     0.077 C 
HETATM    2  N1  UNL     1      35.101  10.482  23.444  1.00  0.00    -0.308 N 
ATOM      3  H1  UNL     1      36.070  10.797  23.505  1.00  0.00     0.177 HD
HETATM    4  C8  UNL     1      34.829   9.186  22.996  1.00  0.00     0.181 C 
HETATM    5  N2  UNL     1      34.605   8.120  22.607  1.00  0.00    -0.172 NA
ENDROOT
BRANCH   1   6
HETATM    6  C6  UNL     1      32.769  10.842  23.697  1.00  0.00     0.029 C 
HETATM    7  C5  UNL     1      31.870  11.943  23.121  1.00  0.00     0.010 C 
HETATM    8  C4  UNL     1      30.572  11.245  22.785  1.00  0.00     0.001 C 
HETATM    9  C3  UNL     1      29.930  10.579  23.939  1.00  0.00     0.010 C 
HETATM   10  C2  UNL     1      30.819   9.883  24.901  1.00  0.00    -0.040 C 
HETATM   11  C1  UNL     1      30.101   9.970  26.255  1.00  0.00     0.015 C 
HETATM   12  C9  UNL     1      32.164  10.544  25.070  1.00  0.00     0.005 C 
HETATM   13  C13 UNL     1      30.902   8.434  24.547  1.00  0.00     0.012 C 
HETATM   14  C10 UNL     1      33.094   9.816  25.944  1.00  0.00     0.037 C 
HETATM   15  C11 UNL     1      32.868   8.363  26.115  1.00  0.00     0.118 C 
HETATM   16  C12 UNL     1      32.081   7.707  25.031  1.00  0.00     0.032 C 
BRANCH  15  17
HETATM   17  O1  UNL     1      34.119   7.705  26.160  1.00  0.00    -0.396 OA
ATOM     18  H1  UNL     1      34.058   6.892  25.671  1.00  0.00     0.210 HD
ENDBRANCH  15  17
ENDBRANCH   1   6
TORSDOF 2
ENDMDL
