MODEL 1
REMARK VINA RESULT: -5.821946607      0.000      0.000
REMARK  4 active torsions:
REMARK  status: ('A' for Active; 'I' for Inactive)
REMARK    1  A    between atoms: C2_2  and  O1_3 
REMARK    2  A    between atoms: C2_2  and  C3_5 
REMARK    3  A    between atoms: C9_13  and  O2_15 
REMARK    4  A    between atoms: O2_15  and  O3_16 
ROOT
HETATM    1  C3  UNL     1       4.618   8.919  23.285  1.00  0.00     0.058 C 
HETATM    2  C4  UNL     1       5.797   9.624  23.839  1.00  0.00     0.030 C 
HETATM    3  C5  UNL     1       6.055  10.990  23.389  1.00  0.00     0.129 C 
HETATM    4  N1  UNL     1       7.442  11.311  23.394  1.00  0.00    -0.178 NA
HETATM    5  S1  UNL     1       8.354   9.805  23.515  1.00  0.00    -0.056 SA
HETATM    6  C6  UNL     1       6.919   8.704  23.410  1.00  0.00     0.029 C 
HETATM    7  C7  UNL     1       7.044   7.496  24.281  1.00  0.00     0.029 C 
HETATM    8  C8  UNL     1       6.529   8.389  21.989  1.00  0.00     0.063 C 
HETATM    9  C9  UNL     1       5.004   8.391  21.936  1.00  0.00     0.100 C 
HETATM   10  C10 UNL     1       4.562   6.961  21.715  1.00  0.00     0.050 C 
ENDROOT
BRANCH   1  11
HETATM   11  C2  UNL     1       3.332   9.657  23.271  1.00  0.00     0.121 C 
HETATM   12  C1  UNL     1       2.704   9.745  24.638  1.00  0.00     0.040 C 
BRANCH  11  13
HETATM   13  O1  UNL     1       3.361  10.872  22.604  1.00  0.00    -0.395 OA
ATOM     14  H1  UNL     1       2.528  11.104  22.211  1.00  0.00     0.210 HD
ENDBRANCH  11  13
ENDBRANCH   1  11
BRANCH   9  15
HETATM   15  O2  UNL     1       4.539   9.155  20.883  1.00  0.00    -0.232 OA
BRANCH  15  16
HETATM   16  O3  UNL     1       4.848   8.581  19.764  1.00  0.00    -0.250 OA
ATOM     17  H3  UNL     1       4.661   9.171  19.043  1.00  0.00     0.253 HD
ENDBRANCH  15  16
ENDBRANCH   9  15
TORSDOF 4
ENDMDL
MODEL 2
REMARK VINA RESULT: -5.668160711      5.232      6.532
REMARK  4 active torsions:
REMARK  status: ('A' for Active; 'I' for Inactive)
REMARK    1  A    between atoms: C2_2  and  O1_3 
REMARK    2  A    between atoms: C2_2  and  C3_5 
REMARK    3  A    between atoms: C9_13  and  O2_15 
REMARK    4  A    between atoms: O2_15  and  O3_16 
ROOT
HETATM    1  C3  UNL     1       0.024  11.321  25.055  1.00  0.00     0.058 C 
HETATM    2  C4  UNL     1      -0.412  12.292  24.024  1.00  0.00     0.030 C 
HETATM    3  C5  UNL     1      -1.488  11.896  23.119  1.00  0.00     0.129 C 
HETATM    4  N1  UNL     1      -1.375  12.509  21.839  1.00  0.00    -0.178 NA
HETATM    5  S1  UNL     1       0.258  13.162  21.685  1.00  0.00    -0.056 SA
HETATM    6  C6  UNL     1       0.874  12.505  23.257  1.00  0.00     0.029 C 
HETATM    7  C7  UNL     1       1.816  13.436  23.951  1.00  0.00     0.029 C 
HETATM    8  C8  UNL     1       1.394  11.096  23.135  1.00  0.00     0.063 C 
HETATM    9  C9  UNL     1       0.953  10.349  24.390  1.00  0.00     0.100 C 
HETATM   10  C10 UNL     1       2.197  10.073  25.207  1.00  0.00     0.050 C 
ENDROOT
BRANCH   1  11
HETATM   11  C2  UNL     1      -1.036  10.657  25.850  1.00  0.00     0.121 C 
HETATM   12  C1  UNL     1      -0.574  10.297  27.239  1.00  0.00     0.040 C 
BRANCH  11  13
HETATM   13  O1  UNL     1      -2.269  11.291  25.831  1.00  0.00    -0.395 OA
ATOM     14  H1  UNL     1      -2.202  12.238  25.790  1.00  0.00     0.210 HD
ENDBRANCH  11  13
ENDBRANCH   1  11
BRANCH   9  15
HETATM   15  O2  UNL     1       0.365   9.140  24.076  1.00  0.00    -0.232 OA
BRANCH  15  16
HETATM   16  O3  UNL     1       1.268   8.324  23.631  1.00  0.00    -0.250 OA
ATOM     17  H3  UNL     1       1.656   7.854  24.360  1.00  0.00     0.253 HD
ENDBRANCH  15  16
ENDBRANCH   9  15
TORSDOF 4
ENDMDL
MODEL 3
REMARK VINA RESULT: -5.553846188      3.673      5.111
REMARK  4 active torsions:
REMARK  status: ('A' for Active; 'I' for Inactive)
REMARK    1  A    between atoms: C2_2  and  O1_3 
REMARK    2  A    between atoms: C2_2  and  C3_5 
REMARK    3  A    between atoms: C9_13  and  O2_15 
REMARK    4  A    between atoms: O2_15  and  O3_16 
ROOT
HETATM    1  C3  UNL     1       5.699  13.044  24.255  1.00  0.00     0.058 C 
HETATM    2  C4  UNL     1       5.097  11.790  23.746  1.00  0.00     0.030 C 
HETATM    3  C5  UNL     1       4.156  11.081  24.610  1.00  0.00     0.129 C 
HETATM    4  N1  UNL     1       4.173   9.674  24.393  1.00  0.00    -0.178 NA
HETATM    5  S1  UNL     1       5.633   9.276  23.485  1.00  0.00    -0.056 SA
HETATM    6  C6  UNL     1       6.330  10.948  23.503  1.00  0.00     0.029 C 
HETATM    7  C7  UNL     1       7.032  11.303  22.232  1.00  0.00     0.029 C 
HETATM    8  C8  UNL     1       7.140  11.228  24.742  1.00  0.00     0.063 C 
HETATM    9  C9  UNL     1       6.832  12.663  25.160  1.00  0.00     0.100 C 
HETATM   10  C10 UNL     1       8.082  13.480  24.914  1.00  0.00     0.050 C 
ENDROOT
BRANCH   1  11
HETATM   11  C2  UNL     1       4.782  14.038  24.863  1.00  0.00     0.121 C 
HETATM   12  C1  UNL     1       5.401  15.408  24.961  1.00  0.00     0.040 C 
BRANCH  11  13
HETATM   13  O1  UNL     1       3.501  14.054  24.334  1.00  0.00    -0.395 OA
ATOM     14  H1  UNL     1       3.464  13.765  23.430  1.00  0.00     0.210 HD
ENDBRANCH  11  13
ENDBRANCH   1  11
BRANCH   9  15
HETATM   15  O2  UNL     1       6.523  12.740  26.504  1.00  0.00    -0.232 OA
BRANCH  15  16
HETATM   16  O3  UNL     1       7.591  12.521  27.206  1.00  0.00    -0.250 OA
ATOM     17  H3  UNL     1       8.317  12.325  26.625  1.00  0.00     0.253 HD
ENDBRANCH  15  16
ENDBRANCH   9  15
TORSDOF 4
ENDMDL
MODEL 4
REMARK VINA RESULT: -5.501512474      5.344      6.440
REMARK  4 active torsions:
REMARK  status: ('A' for Active; 'I' for Inactive)
REMARK    1  A    between atoms: C2_2  and  O1_3 
REMARK    2  A    between atoms: C2_2  and  C3_5 
REMARK    3  A    between atoms: C9_13  and  O2_15 
REMARK    4  A    between atoms: O2_15  and  O3_16 
ROOT
HETATM    1  C3  UNL     1       0.123  11.362  23.268  1.00  0.00     0.058 C 
HETATM    2  C4  UNL     1      -0.501  10.598  24.374  1.00  0.00     0.030 C 
HETATM    3  C5  UNL     1      -1.128  11.349  25.458  1.00  0.00     0.129 C 
HETATM    4  N1  UNL     1      -1.069  10.659  26.703  1.00  0.00    -0.178 NA
HETATM    5  S1  UNL     1       0.125   9.367  26.558  1.00  0.00    -0.056 SA
HETATM    6  C6  UNL     1       0.682   9.808  24.891  1.00  0.00     0.029 C 
HETATM    7  C7  UNL     1       0.997   8.617  24.046  1.00  0.00     0.029 C 
HETATM    8  C8  UNL     1       1.767  10.853  24.897  1.00  0.00     0.063 C 
HETATM    9  C9  UNL     1       1.479  11.801  23.736  1.00  0.00     0.100 C 
HETATM   10  C10 UNL     1       2.559  11.580  22.699  1.00  0.00     0.050 C 
ENDROOT
BRANCH   1  11
HETATM   11  C2  UNL     1      -0.670  12.465  22.676  1.00  0.00     0.121 C 
HETATM   12  C1  UNL     1      -0.050  13.006  21.413  1.00  0.00     0.040 C 
BRANCH  11  13
HETATM   13  O1  UNL     1      -2.027  12.212  22.553  1.00  0.00    -0.395 OA
ATOM     14  H1  UNL     1      -2.290  11.383  22.935  1.00  0.00     0.210 HD
ENDBRANCH  11  13
ENDBRANCH   1  11
BRANCH   9  15
HETATM   15  O2  UNL     1       1.530  13.120  24.140  1.00  0.00    -0.232 OA
BRANCH  15  16
HETATM   16  O3  UNL     1       2.761  13.525  24.138  1.00  0.00    -0.250 OA
ATOM     17  H3  UNL     1       3.340  12.777  24.044  1.00  0.00     0.253 HD
ENDBRANCH  15  16
ENDBRANCH   9  15
TORSDOF 4
ENDMDL
MODEL 5
REMARK VINA RESULT: -5.478178530      2.646      3.506
REMARK  4 active torsions:
REMARK  status: ('A' for Active; 'I' for Inactive)
REMARK    1  A    between atoms: C2_2  and  O1_3 
REMARK    2  A    between atoms: C2_2  and  C3_5 
REMARK    3  A    between atoms: C9_13  and  O2_15 
REMARK    4  A    between atoms: O2_15  and  O3_16 
ROOT
HETATM    1  C3  UNL     1       6.422   9.076  23.357  1.00  0.00     0.058 C 
HETATM    2  C4  UNL     1       6.826   7.719  23.792  1.00  0.00     0.030 C 
HETATM    3  C5  UNL     1       7.863   7.033  23.025  1.00  0.00     0.129 C 
HETATM    4  N1  UNL     1       7.706   5.617  23.043  1.00  0.00    -0.178 NA
HETATM    5  S1  UNL     1       6.074   5.253  23.610  1.00  0.00    -0.056 SA
HETATM    6  C6  UNL     1       5.513   6.974  23.692  1.00  0.00     0.029 C 
HETATM    7  C7  UNL     1       4.607   7.238  24.852  1.00  0.00     0.029 C 
HETATM    8  C8  UNL     1       4.977   7.475  22.377  1.00  0.00     0.063 C 
HETATM    9  C9  UNL     1       5.459   8.914  22.219  1.00  0.00     0.100 C 
HETATM   10  C10 UNL     1       4.245   9.809  22.343  1.00  0.00     0.050 C 
ENDROOT
BRANCH   1  11
HETATM   11  C2  UNL     1       7.506  10.044  23.065  1.00  0.00     0.121 C 
HETATM   12  C1  UNL     1       7.035  11.474  23.137  1.00  0.00     0.040 C 
BRANCH  11  13
HETATM   13  O1  UNL     1       8.690   9.823  23.750  1.00  0.00    -0.395 OA
ATOM     14  H1  UNL     1       8.626  10.010  24.680  1.00  0.00     0.210 HD
ENDBRANCH  11  13
ENDBRANCH   1  11
BRANCH   9  15
HETATM   15  O2  UNL     1       6.024   9.122  20.976  1.00  0.00    -0.232 OA
BRANCH  15  16
HETATM   16  O3  UNL     1       5.182   8.769  20.055  1.00  0.00    -0.250 OA
ATOM     17  H3  UNL     1       5.587   8.869  19.201  1.00  0.00     0.253 HD
ENDBRANCH  15  16
ENDBRANCH   9  15
TORSDOF 4
ENDMDL
