MODEL 1
REMARK VINA RESULT: -5.720387262      0.000      0.000
REMARK  3 active torsions:
REMARK  status: ('A' for Active; 'I' for Inactive)
REMARK    1  A    between atoms: C2_2  and  N1_3 
REMARK    2  A    between atoms: C4_8  and  N3_9 
REMARK    3  A    between atoms: N4_12  and  C5_13 
ROOT
HETATM    1  N1  UNL     1       6.533  12.638  25.077  1.00  0.00    -0.300 N 
HETATM    2  C3  UNL     1       7.852  12.561  25.332  1.00  0.00     0.195 A 
HETATM    3  S1  UNL     1       8.561  13.694  26.286  1.00  0.00    -0.040 SA
HETATM    4  N2  UNL     1       8.615  11.576  24.826  1.00  0.00    -0.166 N 
ATOM      5  H2  UNL     1       9.615  11.528  25.026  1.00  0.00     0.186 HD
HETATM    6  C4  UNL     1       8.019  10.660  24.049  1.00  0.00     0.682 A 
HETATM    7  N4  UNL     1       6.679  10.741  23.791  1.00  0.00    -0.154 N 
HETATM    8  C8  UNL     1       5.916  11.733  24.303  1.00  0.00     0.198 A 
HETATM    9  S2  UNL     1       4.312  11.806  23.978  1.00  0.00    -0.040 SA
ENDROOT
BRANCH   6  10
HETATM   10  N3  UNL     1       8.730   9.712  23.557  1.00  0.00    -0.234 N 
ATOM     11  H32 UNL     1       9.452   9.254  24.114  1.00  0.00     0.174 HD
ATOM     12  H31 UNL     1       8.562   9.423  22.593  1.00  0.00     0.174 HD
ENDBRANCH   6  10
BRANCH   7  13
HETATM   13  C5  UNL     1       6.044   9.765  22.964  1.00  0.00     0.102 C 
HETATM   14  C6  UNL     1       6.720   9.634  21.607  1.00  0.00     0.033 C 
HETATM   15  C7  UNL     1       5.918   8.415  23.646  1.00  0.00     0.033 C 
ENDBRANCH   7  13
BRANCH   1  16
HETATM   16  C2  UNL     1       5.749  13.728  25.652  1.00  0.00     0.129 C 
HETATM   17  C1  UNL     1       5.837  14.986  24.839  1.00  0.00     0.027 C 
ENDBRANCH   1  16
TORSDOF 3
ENDMDL
MODEL 2
REMARK VINA RESULT: -5.543852091      1.786      4.225
REMARK  3 active torsions:
REMARK  status: ('A' for Active; 'I' for Inactive)
REMARK    1  A    between atoms: C2_2  and  N1_3 
REMARK    2  A    between atoms: C4_8  and  N3_9 
REMARK    3  A    between atoms: N4_12  and  C5_13 
ROOT
HETATM    1  N1  UNL     1       5.826  10.452  23.108  1.00  0.00    -0.300 N 
HETATM    2  C3  UNL     1       7.098  10.025  23.019  1.00  0.00     0.195 A 
HETATM    3  S1  UNL     1       7.453   8.727  22.077  1.00  0.00    -0.040 SA
HETATM    4  N2  UNL     1       8.099  10.633  23.682  1.00  0.00    -0.166 N 
ATOM      5  H2  UNL     1       9.060  10.299  23.606  1.00  0.00     0.186 HD
HETATM    6  C4  UNL     1       7.790  11.691  24.445  1.00  0.00     0.682 A 
HETATM    7  N4  UNL     1       6.496  12.123  24.535  1.00  0.00    -0.154 N 
HETATM    8  C8  UNL     1       5.495  11.509  23.866  1.00  0.00     0.198 A 
HETATM    9  S2  UNL     1       3.953  12.048  23.991  1.00  0.00    -0.040 SA
ENDROOT
BRANCH   6  10
HETATM   10  N3  UNL     1       8.730  12.283  25.085  1.00  0.00    -0.234 N 
ATOM     11  H32 UNL     1       9.685  11.922  25.071  1.00  0.00     0.174 HD
ATOM     12  H31 UNL     1       8.507  13.128  25.613  1.00  0.00     0.174 HD
ENDBRANCH   6  10
BRANCH   7  13
HETATM   13  C5  UNL     1       6.168  13.250  25.348  1.00  0.00     0.102 C 
HETATM   14  C6  UNL     1       6.645  13.082  26.783  1.00  0.00     0.033 C 
HETATM   15  C7  UNL     1       6.659  14.558  24.757  1.00  0.00     0.033 C 
ENDBRANCH   7  13
BRANCH   1  16
HETATM   16  C2  UNL     1       4.776   9.758  22.368  1.00  0.00     0.129 C 
HETATM   17  C1  UNL     1       4.123   8.677  23.179  1.00  0.00     0.027 C 
ENDBRANCH   1  16
TORSDOF 3
ENDMDL
MODEL 3
REMARK VINA RESULT: -5.541325166      2.764      4.898
REMARK  3 active torsions:
REMARK  status: ('A' for Active; 'I' for Inactive)
REMARK    1  A    between atoms: C2_2  and  N1_3 
REMARK    2  A    between atoms: C4_8  and  N3_9 
REMARK    3  A    between atoms: N4_12  and  C5_13 
ROOT
HETATM    1  N1  UNL     1       4.050  11.871  23.834  1.00  0.00    -0.300 N 
HETATM    2  C3  UNL     1       3.229  12.919  24.031  1.00  0.00     0.195 A 
HETATM    3  S1  UNL     1       1.636  12.782  23.656  1.00  0.00    -0.040 SA
HETATM    4  N2  UNL     1       3.676  14.085  24.530  1.00  0.00    -0.166 N 
ATOM      5  H2  UNL     1       3.044  14.873  24.674  1.00  0.00     0.186 HD
HETATM    6  C4  UNL     1       4.980  14.178  24.830  1.00  0.00     0.682 A 
HETATM    7  N4  UNL     1       5.812  13.112  24.629  1.00  0.00    -0.154 N 
HETATM    8  C8  UNL     1       5.357  11.941  24.127  1.00  0.00     0.198 A 
HETATM    9  S2  UNL     1       6.376  10.680  23.896  1.00  0.00    -0.040 SA
ENDROOT
BRANCH   6  10
HETATM   10  N3  UNL     1       5.425  15.282  25.307  1.00  0.00    -0.234 N 
ATOM     11  H32 UNL     1       5.863  15.977  24.702  1.00  0.00     0.174 HD
ATOM     12  H31 UNL     1       5.333  15.456  26.308  1.00  0.00     0.174 HD
ENDBRANCH   6  10
BRANCH   7  13
HETATM   13  C5  UNL     1       7.200  13.211  24.949  1.00  0.00     0.102 C 
HETATM   14  C6  UNL     1       7.930  14.192  24.044  1.00  0.00     0.033 C 
HETATM   15  C7  UNL     1       7.439  13.532  26.412  1.00  0.00     0.033 C 
ENDBRANCH   7  13
BRANCH   1  16
HETATM   16  C2  UNL     1       3.514  10.626  23.290  1.00  0.00     0.129 C 
HETATM   17  C1  UNL     1       3.102   9.663  24.365  1.00  0.00     0.027 C 
ENDBRANCH   1  16
TORSDOF 3
ENDMDL
MODEL 4
REMARK VINA RESULT: -5.531234195      5.400      7.375
REMARK  3 active torsions:
REMARK  status: ('A' for Active; 'I' for Inactive)
REMARK    1  A    between atoms: C2_2  and  N1_3 
REMARK    2  A    between atoms: C4_8  and  N3_9 
REMARK    3  A    between atoms: N4_12  and  C5_13 
ROOT
HETATM    1  N1  UNL     1       1.758   9.342  24.194  1.00  0.00    -0.300 N 
HETATM    2  C3  UNL     1       0.510   9.000  24.564  1.00  0.00     0.195 A 
HETATM    3  S1  UNL     1       0.239   7.527  25.238  1.00  0.00    -0.040 SA
HETATM    4  N2  UNL     1      -0.533   9.833  24.396  1.00  0.00    -0.166 N 
ATOM      5  H2  UNL     1      -1.474   9.563  24.679  1.00  0.00     0.186 HD
HETATM    6  C4  UNL     1      -0.292  11.031  23.843  1.00  0.00     0.682 A 
HETATM    7  N4  UNL     1       0.977  11.376  23.469  1.00  0.00    -0.154 N 
HETATM    8  C8  UNL     1       2.021  10.534  23.640  1.00  0.00     0.198 A 
HETATM    9  S2  UNL     1       3.531  10.974  23.183  1.00  0.00    -0.040 SA
ENDROOT
BRANCH   6  10
HETATM   10  N3  UNL     1      -1.274  11.840  23.675  1.00  0.00    -0.234 N 
ATOM     11  H32 UNL     1      -2.236  11.502  23.663  1.00  0.00     0.174 HD
ATOM     12  H31 UNL     1      -1.074  12.833  23.553  1.00  0.00     0.174 HD
ENDBRANCH   6  10
BRANCH   7  13
HETATM   13  C5  UNL     1       1.233  12.652  22.881  1.00  0.00     0.102 C 
HETATM   14  C6  UNL     1       0.290  12.951  21.724  1.00  0.00     0.033 C 
HETATM   15  C7  UNL     1       1.223  13.776  23.899  1.00  0.00     0.033 C 
ENDBRANCH   7  13
BRANCH   1  16
HETATM   16  C2  UNL     1       2.855   8.400  24.399  1.00  0.00     0.129 C 
HETATM   17  C1  UNL     1       3.097   7.535  23.197  1.00  0.00     0.027 C 
ENDBRANCH   1  16
TORSDOF 3
ENDMDL
MODEL 5
REMARK VINA RESULT: -5.469015888      1.845      4.081
REMARK  3 active torsions:
REMARK  status: ('A' for Active; 'I' for Inactive)
REMARK    1  A    between atoms: C2_2  and  N1_3 
REMARK    2  A    between atoms: C4_8  and  N3_9 
REMARK    3  A    between atoms: N4_12  and  C5_13 
ROOT
HETATM    1  N1  UNL     1       4.894  11.301  23.454  1.00  0.00    -0.300 N 
HETATM    2  C3  UNL     1       5.667  10.253  23.116  1.00  0.00     0.195 A 
HETATM    3  S1  UNL     1       5.012   8.999  22.283  1.00  0.00    -0.040 SA
HETATM    4  N2  UNL     1       6.971  10.198  23.443  1.00  0.00    -0.166 N 
ATOM      5  H2  UNL     1       7.546   9.398  23.181  1.00  0.00     0.186 HD
HETATM    6  C4  UNL     1       7.488  11.232  24.124  1.00  0.00     0.682 A 
HETATM    7  N4  UNL     1       6.701  12.296  24.466  1.00  0.00    -0.154 N 
HETATM    8  C8  UNL     1       5.391  12.345  24.135  1.00  0.00     0.198 A 
HETATM    9  S2  UNL     1       4.471  13.633  24.557  1.00  0.00    -0.040 SA
ENDROOT
BRANCH   6  10
HETATM   10  N3  UNL     1       8.730  11.198  24.444  1.00  0.00    -0.234 N 
ATOM     11  H32 UNL     1       9.455  11.136  23.729  1.00  0.00     0.174 HD
ATOM     12  H31 UNL     1       8.982  11.235  25.432  1.00  0.00     0.174 HD
ENDBRANCH   6  10
BRANCH   7  13
HETATM   13  C5  UNL     1       7.252  13.396  25.191  1.00  0.00     0.102 C 
HETATM   14  C6  UNL     1       7.757  12.983  26.566  1.00  0.00     0.033 C 
HETATM   15  C7  UNL     1       8.327  14.129  24.410  1.00  0.00     0.033 C 
ENDBRANCH   7  13
BRANCH   1  16
HETATM   16  C2  UNL     1       3.484  11.312  23.075  1.00  0.00     0.129 C 
HETATM   17  C1  UNL     1       2.613  10.638  24.095  1.00  0.00     0.027 C 
ENDBRANCH   1  16
TORSDOF 3
ENDMDL
