MODEL 1
REMARK VINA RESULT: -5.763273307      0.000      0.000
REMARK  3 active torsions:
REMARK  status: ('A' for Active; 'I' for Inactive)
REMARK    1  A    between atoms: C4_8  and  C5_9 
REMARK    2  A    between atoms: C5_9  and  N2_10 
REMARK    3  A    between atoms: C9_14  and  C10_15 
ROOT
HETATM    1  N1  UNL     1      -4.335   0.469  15.281  1.00  0.00    -0.383 N 
ATOM      2  H11 UNL     1      -4.167   0.625  14.287  1.00  0.00     0.158 HD
ATOM      3  H12 UNL     1      -4.012  -0.471  15.511  1.00  0.00     0.158 HD
HETATM    4  C1  UNL     1      -4.850   1.265  16.148  1.00  0.00     0.117 C 
HETATM    5  O1  UNL     1      -5.076   1.055  17.487  1.00  0.00    -0.339 OA
HETATM    6  C2  UNL     1      -6.086   1.912  17.980  1.00  0.00     0.178 C 
HETATM    7  C3  UNL     1      -6.200   3.023  16.913  1.00  0.00     0.041 C 
HETATM    8  C4  UNL     1      -5.327   2.652  15.808  1.00  0.00     0.090 C 
ENDROOT
BRANCH   8   9
HETATM    9  C5  UNL     1      -4.255   3.495  15.284  1.00  0.00     0.285 C 
BRANCH   9  10
HETATM   10  N2  UNL     1      -4.428   4.281  14.114  1.00  0.00     0.096 N 
HETATM   11  C6  UNL     1      -5.658   3.767  13.460  1.00  0.00     0.273 C 
HETATM   12  C7  UNL     1      -6.597   4.925  13.305  1.00  0.00     0.032 C 
HETATM   13  C8  UNL     1      -6.142   5.813  14.438  1.00  0.00     0.040 C 
HETATM   14  C9  UNL     1      -4.615   5.678  14.274  1.00  0.00     0.251 C 
BRANCH  14  15
HETATM   15  C10 UNL     1      -4.147   6.466  13.057  1.00  0.00     0.257 C 
HETATM   16  F1  UNL     1      -3.370   7.495  13.493  1.00  0.00    -0.253 F 
ENDBRANCH  14  15
ENDBRANCH   9  10
ENDBRANCH   8   9
TORSDOF 3
ENDMDL
MODEL 2
REMARK VINA RESULT: -5.718543108      1.738      1.891
REMARK  3 active torsions:
REMARK  status: ('A' for Active; 'I' for Inactive)
REMARK    1  A    between atoms: C4_8  and  C5_9 
REMARK    2  A    between atoms: C5_9  and  N2_10 
REMARK    3  A    between atoms: C9_14  and  C10_15 
ROOT
HETATM    1  N1  UNL     1      -4.419   0.606  15.220  1.00  0.00    -0.383 N 
ATOM      2  H11 UNL     1      -4.480   0.654  14.203  1.00  0.00     0.158 HD
ATOM      3  H12 UNL     1      -3.851  -0.205  15.464  1.00  0.00     0.158 HD
HETATM    4  C1  UNL     1      -4.933   1.391  16.097  1.00  0.00     0.117 C 
HETATM    5  O1  UNL     1      -4.851   1.327  17.468  1.00  0.00    -0.339 OA
HETATM    6  C2  UNL     1      -5.921   2.018  18.081  1.00  0.00     0.178 C 
HETATM    7  C3  UNL     1      -6.485   2.922  16.962  1.00  0.00     0.041 C 
HETATM    8  C4  UNL     1      -5.771   2.589  15.737  1.00  0.00     0.090 C 
ENDROOT
BRANCH   8   9
HETATM    9  C5  UNL     1      -5.039   3.554  14.919  1.00  0.00     0.285 C 
BRANCH   9  10
HETATM   10  N2  UNL     1      -5.395   3.811  13.569  1.00  0.00     0.096 N 
HETATM   11  C6  UNL     1      -6.645   4.610  13.627  1.00  0.00     0.273 C 
HETATM   12  C7  UNL     1      -6.395   5.882  12.874  1.00  0.00     0.032 C 
HETATM   13  C8  UNL     1      -4.898   6.013  13.028  1.00  0.00     0.040 C 
HETATM   14  C9  UNL     1      -4.484   4.550  12.772  1.00  0.00     0.251 C 
BRANCH  14  15
HETATM   15  C10 UNL     1      -4.614   4.220  11.290  1.00  0.00     0.257 C 
HETATM   16  F1  UNL     1      -5.120   2.962  11.180  1.00  0.00    -0.253 F 
ENDBRANCH  14  15
ENDBRANCH   9  10
ENDBRANCH   8   9
TORSDOF 3
ENDMDL
MODEL 3
REMARK VINA RESULT: -5.679917285      2.776      3.408
REMARK  3 active torsions:
REMARK  status: ('A' for Active; 'I' for Inactive)
REMARK    1  A    between atoms: C4_8  and  C5_9 
REMARK    2  A    between atoms: C5_9  and  N2_10 
REMARK    3  A    between atoms: C9_14  and  C10_15 
ROOT
HETATM    1  N1  UNL     1      -4.184   0.235  15.289  1.00  0.00    -0.383 N 
ATOM      2  H11 UNL     1      -4.070   0.118  14.283  1.00  0.00     0.158 HD
ATOM      3  H12 UNL     1      -3.818  -0.600  15.747  1.00  0.00     0.158 HD
HETATM    4  C1  UNL     1      -4.684   1.226  15.936  1.00  0.00     0.117 C 
HETATM    5  O1  UNL     1      -4.838   1.384  17.292  1.00  0.00    -0.339 OA
HETATM    6  C2  UNL     1      -5.851   2.323  17.590  1.00  0.00     0.178 C 
HETATM    7  C3  UNL     1      -6.056   3.099  16.270  1.00  0.00     0.041 C 
HETATM    8  C4  UNL     1      -5.225   2.458  15.260  1.00  0.00     0.090 C 
ENDROOT
BRANCH   8   9
HETATM    9  C5  UNL     1      -4.210   3.148  14.467  1.00  0.00     0.285 C 
BRANCH   9  10
HETATM   10  N2  UNL     1      -4.307   3.249  13.054  1.00  0.00     0.096 N 
HETATM   11  C6  UNL     1      -3.041   3.886  12.608  1.00  0.00     0.273 C 
HETATM   12  C7  UNL     1      -2.406   2.964  11.611  1.00  0.00     0.032 C 
HETATM   13  C8  UNL     1      -2.970   1.636  12.055  1.00  0.00     0.040 C 
HETATM   14  C9  UNL     1      -4.432   2.048  12.310  1.00  0.00     0.251 C 
BRANCH  14  15
HETATM   15  C10 UNL     1      -5.155   2.263  10.986  1.00  0.00     0.257 C 
HETATM   16  F1  UNL     1      -4.899   1.192  10.186  1.00  0.00    -0.253 F 
ENDBRANCH  14  15
ENDBRANCH   9  10
ENDBRANCH   8   9
TORSDOF 3
ENDMDL
MODEL 4
REMARK VINA RESULT: -5.648183872      1.549      2.022
REMARK  3 active torsions:
REMARK  status: ('A' for Active; 'I' for Inactive)
REMARK    1  A    between atoms: C4_8  and  C5_9 
REMARK    2  A    between atoms: C5_9  and  N2_10 
REMARK    3  A    between atoms: C9_14  and  C10_15 
ROOT
HETATM    1  N1  UNL     1      -4.349   0.518  15.246  1.00  0.00    -0.383 N 
ATOM      2  H11 UNL     1      -4.194   0.662  14.249  1.00  0.00     0.158 HD
ATOM      3  H12 UNL     1      -4.013  -0.415  15.485  1.00  0.00     0.158 HD
HETATM    4  C1  UNL     1      -4.862   1.320  16.108  1.00  0.00     0.117 C 
HETATM    5  O1  UNL     1      -5.070   1.126  17.453  1.00  0.00    -0.339 OA
HETATM    6  C2  UNL     1      -6.082   1.979  17.946  1.00  0.00     0.178 C 
HETATM    7  C3  UNL     1      -6.221   3.075  16.865  1.00  0.00     0.041 C 
HETATM    8  C4  UNL     1      -5.357   2.697  15.756  1.00  0.00     0.090 C 
ENDROOT
BRANCH   8   9
HETATM    9  C5  UNL     1      -4.301   3.544  15.207  1.00  0.00     0.285 C 
BRANCH   9  10
HETATM   10  N2  UNL     1      -4.558   4.486  14.175  1.00  0.00     0.096 N 
HETATM   11  C6  UNL     1      -3.386   4.416  13.265  1.00  0.00     0.273 C 
HETATM   12  C7  UNL     1      -3.906   4.105  11.894  1.00  0.00     0.032 C 
HETATM   13  C8  UNL     1      -5.185   3.378  12.234  1.00  0.00     0.040 C 
HETATM   14  C9  UNL     1      -5.705   4.287  13.365  1.00  0.00     0.251 C 
BRANCH  14  15
HETATM   15  C10 UNL     1      -6.236   5.592  12.787  1.00  0.00     0.257 C 
HETATM   16  F1  UNL     1      -7.545   5.710  13.140  1.00  0.00    -0.253 F 
ENDBRANCH  14  15
ENDBRANCH   9  10
ENDBRANCH   8   9
TORSDOF 3
ENDMDL
MODEL 5
REMARK VINA RESULT: -5.627342761      2.988      3.910
REMARK  3 active torsions:
REMARK  status: ('A' for Active; 'I' for Inactive)
REMARK    1  A    between atoms: C4_8  and  C5_9 
REMARK    2  A    between atoms: C5_9  and  N2_10 
REMARK    3  A    between atoms: C9_14  and  C10_15 
ROOT
HETATM    1  N1  UNL     1      -4.378   0.583  15.156  1.00  0.00    -0.383 N 
ATOM      2  H11 UNL     1      -4.251   1.332  15.835  1.00  0.00     0.158 HD
ATOM      3  H12 UNL     1      -4.638  -0.262  15.665  1.00  0.00     0.158 HD
HETATM    4  C1  UNL     1      -4.255   0.622  13.878  1.00  0.00     0.117 C 
HETATM    5  O1  UNL     1      -4.426  -0.388  12.962  1.00  0.00    -0.339 OA
HETATM    6  C2  UNL     1      -3.729  -0.120  11.762  1.00  0.00     0.178 C 
HETATM    7  C3  UNL     1      -3.431   1.395  11.823  1.00  0.00     0.041 C 
HETATM    8  C4  UNL     1      -3.872   1.869  13.128  1.00  0.00     0.090 C 
ENDROOT
BRANCH   8   9
HETATM    9  C5  UNL     1      -4.826   2.956  13.332  1.00  0.00     0.285 C 
BRANCH   9  10
HETATM   10  N2  UNL     1      -5.005   3.565  14.602  1.00  0.00     0.096 N 
HETATM   11  C6  UNL     1      -4.018   4.674  14.660  1.00  0.00     0.273 C 
HETATM   12  C7  UNL     1      -4.781   5.934  14.936  1.00  0.00     0.032 C 
HETATM   13  C8  UNL     1      -6.131   5.581  14.359  1.00  0.00     0.040 C 
HETATM   14  C9  UNL     1      -6.269   4.141  14.890  1.00  0.00     0.251 C 
BRANCH  14  15
HETATM   15  C10 UNL     1      -6.568   4.160  16.384  1.00  0.00     0.257 C 
HETATM   16  F1  UNL     1      -7.301   3.054  16.683  1.00  0.00    -0.253 F 
ENDBRANCH  14  15
ENDBRANCH   9  10
ENDBRANCH   8   9
TORSDOF 3
ENDMDL
