MODEL 1
REMARK VINA RESULT: -9.230498376      0.000      0.000
REMARK  11 active torsions:
REMARK  status: ('A' for Active; 'I' for Inactive)
REMARK    1  A    between atoms: N1_5  and  C5_6 
REMARK    2  A    between atoms: C5_6  and  O1_7 
REMARK    3  A    between atoms: C5_6  and  C6_9 
REMARK    4  A    between atoms: C6_9  and  O2_10 
REMARK    5  A    between atoms: O2_10  and  C7_11 
REMARK    6  A    between atoms: C7_11  and  C8_13 
REMARK    7  A    between atoms: C8_13  and  C9_14 
REMARK    8  A    between atoms: C9_14  and  C10_15 
REMARK    9  A    between atoms: C10_15  and  C11_16 
REMARK       I    between atoms: C11_16  and  N2_18 
REMARK   10  A    between atoms: N2_18  and  C12_20 
REMARK   11  A    between atoms: C13_25  and  C14_26 
ROOT
HETATM    1  C10 UNL     1      18.785  63.934  31.998  1.00  0.00     0.103 C 
ENDROOT
BRANCH   1   2
HETATM    2  C9  UNL     1      18.155  64.844  30.998  1.00  0.00     0.019 C 
BRANCH   2   3
HETATM    3  C8  UNL     1      16.700  65.105  31.192  1.00  0.00     0.112 C 
BRANCH   3   4
HETATM    4  C7  UNL     1      16.016  64.885  29.882  1.00  0.00     0.263 C 
HETATM    5  O3  UNL     1      16.604  64.322  28.934  1.00  0.00    -0.265 OA
BRANCH   4   6
HETATM    6  O2  UNL     1      14.696  65.305  29.680  1.00  0.00    -0.287 OA
BRANCH   6   7
HETATM    7  C6  UNL     1      13.585  64.478  29.680  1.00  0.00     0.201 C 
BRANCH   7   8
HETATM    8  C5  UNL     1      12.578  64.628  30.711  1.00  0.00     0.161 C 
BRANCH   8   9
HETATM    9  N1  UNL     1      12.364  65.675  31.570  1.00  0.00    -0.360 N 
HETATM   10  C4  UNL     1      12.970  65.663  32.915  1.00  0.00     0.125 C 
HETATM   11  C3  UNL     1      14.066  66.671  32.948  1.00  0.00     0.024 C 
HETATM   12  C2  UNL     1      13.780  67.779  31.971  1.00  0.00    -0.015 C 
HETATM   13  C1  UNL     1      14.556  69.018  32.374  1.00  0.00     0.010 C 
HETATM   14  C20 UNL     1      12.316  68.069  31.938  1.00  0.00     0.024 C 
HETATM   15  C19 UNL     1      11.622  66.867  31.260  1.00  0.00     0.125 C 
ENDBRANCH   8   9
BRANCH   8  16
HETATM   16  O1  UNL     1      11.764  63.617  30.837  1.00  0.00    -0.345 OA
ATOM     17  H1  UNL     1      11.931  62.879  30.262  1.00  0.00     0.219 HD
ENDBRANCH   8  16
ENDBRANCH   7   8
ENDBRANCH   6   7
ENDBRANCH   4   6
ENDBRANCH   3   4
ENDBRANCH   2   3
ENDBRANCH   1   2
BRANCH   1  18
HETATM   18  C11 UNL     1      19.592  64.604  33.030  1.00  0.00     0.223 C 
HETATM   19  O4  UNL     1      19.040  65.313  33.899  1.00  0.00    -0.273 OA
HETATM   20  N2  UNL     1      20.982  64.456  33.046  1.00  0.00    -0.306 N 
ATOM     21  H2  UNL     1      21.591  65.181  32.668  1.00  0.00     0.171 HD
BRANCH  20  22
HETATM   22  C12 UNL     1      21.481  63.356  33.563  1.00  0.00     0.167 A 
HETATM   23  N3  UNL     1      22.220  62.420  32.961  1.00  0.00    -0.279 N 
HETATM   24  N4  UNL     1      22.610  61.420  33.638  1.00  0.00    -0.295 N 
ATOM     25  H3  UNL     1      22.465  62.507  31.976  1.00  0.00     0.189 HD
HETATM   26  C13 UNL     1      22.297  61.301  34.907  1.00  0.00     0.076 A 
ATOM     27  H4  UNL     1      23.175  60.699  33.189  1.00  0.00     0.187 HD
HETATM   28  S1  UNL     1      21.368  62.738  35.153  1.00  0.00    -0.037 SA
BRANCH  26  29
HETATM   29  C14 UNL     1      22.637  60.226  35.904  1.00  0.00     0.078 C 
HETATM   30  C15 UNL     1      21.600  60.189  36.963  1.00  0.00     0.014 C 
HETATM   31  C16 UNL     1      22.154  60.835  38.195  1.00  0.00     0.004 C 
HETATM   32  C17 UNL     1      23.415  61.534  37.731  1.00  0.00     0.038 C 
HETATM   33  C18 UNL     1      23.893  60.667  36.605  1.00  0.00     0.180 C 
HETATM   34  F1  UNL     1      24.630  61.427  35.717  1.00  0.00    -0.249 F 
ENDBRANCH  26  29
ENDBRANCH  20  22
ENDBRANCH   1  18
TORSDOF 11
ENDMDL
MODEL 2
REMARK VINA RESULT: -9.217272477      3.462      4.618
REMARK  11 active torsions:
REMARK  status: ('A' for Active; 'I' for Inactive)
REMARK    1  A    between atoms: N1_5  and  C5_6 
REMARK    2  A    between atoms: C5_6  and  O1_7 
REMARK    3  A    between atoms: C5_6  and  C6_9 
REMARK    4  A    between atoms: C6_9  and  O2_10 
REMARK    5  A    between atoms: O2_10  and  C7_11 
REMARK    6  A    between atoms: C7_11  and  C8_13 
REMARK    7  A    between atoms: C8_13  and  C9_14 
REMARK    8  A    between atoms: C9_14  and  C10_15 
REMARK    9  A    between atoms: C10_15  and  C11_16 
REMARK       I    between atoms: C11_16  and  N2_18 
REMARK   10  A    between atoms: N2_18  and  C12_20 
REMARK   11  A    between atoms: C13_25  and  C14_26 
ROOT
HETATM    1  C10 UNL     1      18.707  64.033  31.600  1.00  0.00     0.103 C 
ENDROOT
BRANCH   1   2
HETATM    2  C9  UNL     1      17.809  63.787  30.435  1.00  0.00     0.019 C 
BRANCH   2   3
HETATM    3  C8  UNL     1      17.742  64.885  29.429  1.00  0.00     0.112 C 
BRANCH   3   4
HETATM    4  C7  UNL     1      18.282  64.358  28.140  1.00  0.00     0.263 C 
HETATM    5  O3  UNL     1      19.012  65.062  27.409  1.00  0.00    -0.265 OA
BRANCH   4   6
HETATM    6  O2  UNL     1      17.985  63.057  27.713  1.00  0.00    -0.287 OA
BRANCH   6   7
HETATM    7  C6  UNL     1      16.872  62.692  26.975  1.00  0.00     0.201 C 
BRANCH   7   8
HETATM    8  C5  UNL     1      15.603  62.487  27.642  1.00  0.00     0.161 C 
BRANCH   8   9
HETATM    9  N1  UNL     1      14.372  63.014  27.349  1.00  0.00    -0.360 N 
HETATM   10  C4  UNL     1      14.217  63.943  26.213  1.00  0.00     0.125 C 
HETATM   11  C3  UNL     1      13.485  63.239  25.124  1.00  0.00     0.024 C 
HETATM   12  C2  UNL     1      12.585  62.181  25.704  1.00  0.00    -0.015 C 
HETATM   13  C1  UNL     1      11.483  61.860  24.713  1.00  0.00     0.010 C 
HETATM   14  C20 UNL     1      12.002  62.656  26.994  1.00  0.00     0.024 C 
HETATM   15  C19 UNL     1      13.147  62.695  28.031  1.00  0.00     0.125 C 
ENDBRANCH   8   9
BRANCH   8  16
HETATM   16  O1  UNL     1      15.646  61.688  28.672  1.00  0.00    -0.345 OA
ATOM     17  H1  UNL     1      16.504  61.559  29.059  1.00  0.00     0.219 HD
ENDBRANCH   8  16
ENDBRANCH   7   8
ENDBRANCH   6   7
ENDBRANCH   4   6
ENDBRANCH   3   4
ENDBRANCH   2   3
ENDBRANCH   1   2
BRANCH   1  18
HETATM   18  C11 UNL     1      18.085  64.745  32.728  1.00  0.00     0.223 C 
HETATM   19  O4  UNL     1      16.842  64.767  32.851  1.00  0.00    -0.273 OA
HETATM   20  N2  UNL     1      18.880  65.404  33.670  1.00  0.00    -0.306 N 
ATOM     21  H2  UNL     1      19.015  66.414  33.628  1.00  0.00     0.171 HD
BRANCH  20  22
HETATM   22  C12 UNL     1      19.448  64.686  34.612  1.00  0.00     0.167 A 
HETATM   23  N3  UNL     1      20.522  64.985  35.348  1.00  0.00    -0.279 N 
HETATM   24  N4  UNL     1      20.920  64.151  36.216  1.00  0.00    -0.295 N 
ATOM     25  H3  UNL     1      21.012  65.869  35.214  1.00  0.00     0.189 HD
HETATM   26  C13 UNL     1      20.294  63.012  36.395  1.00  0.00     0.076 A 
ATOM     27  H4  UNL     1      21.740  64.369  36.784  1.00  0.00     0.187 HD
HETATM   28  S1  UNL     1      19.030  63.145  35.223  1.00  0.00    -0.037 SA
BRANCH  26  29
HETATM   29  C14 UNL     1      20.569  61.880  37.347  1.00  0.00     0.078 C 
HETATM   30  C15 UNL     1      21.071  62.425  38.631  1.00  0.00     0.014 C 
HETATM   31  C16 UNL     1      22.551  62.203  38.697  1.00  0.00     0.004 C 
HETATM   32  C17 UNL     1      22.946  61.809  37.289  1.00  0.00     0.038 C 
HETATM   33  C18 UNL     1      21.726  61.105  36.775  1.00  0.00     0.180 C 
HETATM   34  F1  UNL     1      21.672  61.217  35.399  1.00  0.00    -0.249 F 
ENDBRANCH  26  29
ENDBRANCH  20  22
ENDBRANCH   1  18
TORSDOF 11
ENDMDL
MODEL 3
REMARK VINA RESULT: -9.112387711      3.181      3.932
REMARK  11 active torsions:
REMARK  status: ('A' for Active; 'I' for Inactive)
REMARK    1  A    between atoms: N1_5  and  C5_6 
REMARK    2  A    between atoms: C5_6  and  O1_7 
REMARK    3  A    between atoms: C5_6  and  C6_9 
REMARK    4  A    between atoms: C6_9  and  O2_10 
REMARK    5  A    between atoms: O2_10  and  C7_11 
REMARK    6  A    between atoms: C7_11  and  C8_13 
REMARK    7  A    between atoms: C8_13  and  C9_14 
REMARK    8  A    between atoms: C9_14  and  C10_15 
REMARK    9  A    between atoms: C10_15  and  C11_16 
REMARK       I    between atoms: C11_16  and  N2_18 
REMARK   10  A    between atoms: N2_18  and  C12_20 
REMARK   11  A    between atoms: C13_25  and  C14_26 
ROOT
HETATM    1  C10 UNL     1      18.161  63.915  31.515  1.00  0.00     0.103 C 
ENDROOT
BRANCH   1   2
HETATM    2  C9  UNL     1      18.137  64.562  30.171  1.00  0.00     0.019 C 
BRANCH   2   3
HETATM    3  C8  UNL     1      16.916  64.306  29.354  1.00  0.00     0.112 C 
BRANCH   3   4
HETATM    4  C7  UNL     1      17.289  63.367  28.255  1.00  0.00     0.263 C 
HETATM    5  O3  UNL     1      18.415  63.421  27.713  1.00  0.00    -0.265 OA
BRANCH   4   6
HETATM    6  O2  UNL     1      16.388  62.397  27.798  1.00  0.00    -0.287 OA
BRANCH   6   7
HETATM    7  C6  UNL     1      15.435  62.592  26.812  1.00  0.00     0.201 C 
BRANCH   7   8
HETATM    8  C5  UNL     1      14.032  62.409  27.122  1.00  0.00     0.161 C 
BRANCH   8   9
HETATM    9  N1  UNL     1      13.251  63.068  28.037  1.00  0.00    -0.360 N 
HETATM   10  C4  UNL     1      12.921  64.492  27.837  1.00  0.00     0.125 C 
HETATM   11  C3  UNL     1      11.483  64.595  27.464  1.00  0.00     0.024 C 
HETATM   12  C2  UNL     1      10.712  63.444  28.051  1.00  0.00    -0.015 C 
HETATM   13  C1  UNL     1       9.245  63.818  28.147  1.00  0.00     0.010 C 
HETATM   14  C20 UNL     1      11.250  63.102  29.401  1.00  0.00     0.024 C 
HETATM   15  C19 UNL     1      12.645  62.471  29.196  1.00  0.00     0.125 C 
ENDBRANCH   8   9
BRANCH   8  16
HETATM   16  O1  UNL     1      13.432  61.480  26.432  1.00  0.00    -0.345 OA
ATOM     17  H1  UNL     1      13.913  61.148  25.682  1.00  0.00     0.219 HD
ENDBRANCH   8  16
ENDBRANCH   7   8
ENDBRANCH   6   7
ENDBRANCH   4   6
ENDBRANCH   3   4
ENDBRANCH   2   3
ENDBRANCH   1   2
BRANCH   1  18
HETATM   18  C11 UNL     1      17.731  64.774  32.629  1.00  0.00     0.223 C 
HETATM   19  O4  UNL     1      16.515  64.924  32.876  1.00  0.00    -0.273 OA
HETATM   20  N2  UNL     1      18.678  65.432  33.420  1.00  0.00    -0.306 N 
ATOM     21  H2  UNL     1      18.893  66.417  33.269  1.00  0.00     0.171 HD
BRANCH  20  22
HETATM   22  C12 UNL     1      19.283  64.744  34.362  1.00  0.00     0.167 A 
HETATM   23  N3  UNL     1      20.316  65.114  35.123  1.00  0.00    -0.279 N 
HETATM   24  N4  UNL     1      20.762  64.299  35.986  1.00  0.00    -0.295 N 
ATOM     25  H3  UNL     1      20.738  66.035  35.012  1.00  0.00     0.189 HD
HETATM   26  C13 UNL     1      20.224  63.111  36.134  1.00  0.00     0.076 A 
ATOM     27  H4  UNL     1      21.551  64.570  36.573  1.00  0.00     0.187 HD
HETATM   28  S1  UNL     1      18.975  63.165  34.940  1.00  0.00    -0.037 SA
BRANCH  26  29
HETATM   29  C14 UNL     1      20.570  61.988  37.074  1.00  0.00     0.078 C 
HETATM   30  C15 UNL     1      21.127  62.548  38.329  1.00  0.00     0.014 C 
HETATM   31  C16 UNL     1      22.612  62.353  38.319  1.00  0.00     0.004 C 
HETATM   32  C17 UNL     1      22.940  61.961  36.893  1.00  0.00     0.038 C 
HETATM   33  C18 UNL     1      21.709  61.232  36.446  1.00  0.00     0.180 C 
HETATM   34  F1  UNL     1      21.582  61.339  35.074  1.00  0.00    -0.249 F 
ENDBRANCH  26  29
ENDBRANCH  20  22
ENDBRANCH   1  18
TORSDOF 11
ENDMDL
MODEL 4
REMARK VINA RESULT: -9.086733567      3.490      9.449
REMARK  11 active torsions:
REMARK  status: ('A' for Active; 'I' for Inactive)
REMARK    1  A    between atoms: N1_5  and  C5_6 
REMARK    2  A    between atoms: C5_6  and  O1_7 
REMARK    3  A    between atoms: C5_6  and  C6_9 
REMARK    4  A    between atoms: C6_9  and  O2_10 
REMARK    5  A    between atoms: O2_10  and  C7_11 
REMARK    6  A    between atoms: C7_11  and  C8_13 
REMARK    7  A    between atoms: C8_13  and  C9_14 
REMARK    8  A    between atoms: C9_14  and  C10_15 
REMARK    9  A    between atoms: C10_15  and  C11_16 
REMARK       I    between atoms: C11_16  and  N2_18 
REMARK   10  A    between atoms: N2_18  and  C12_20 
REMARK   11  A    between atoms: C13_25  and  C14_26 
ROOT
HETATM    1  C10 UNL     1      17.573  63.758  28.183  1.00  0.00     0.103 C 
ENDROOT
BRANCH   1   2
HETATM    2  C9  UNL     1      17.845  64.620  29.371  1.00  0.00     0.019 C 
BRANCH   2   3
HETATM    3  C8  UNL     1      17.766  63.937  30.694  1.00  0.00     0.112 C 
BRANCH   3   4
HETATM    4  C7  UNL     1      17.307  64.941  31.700  1.00  0.00     0.263 C 
HETATM    5  O3  UNL     1      16.229  65.557  31.552  1.00  0.00    -0.265 OA
BRANCH   4   6
HETATM    6  O2  UNL     1      18.072  65.222  32.839  1.00  0.00    -0.287 OA
BRANCH   6   7
HETATM    7  C6  UNL     1      19.437  65.016  32.956  1.00  0.00     0.201 C 
BRANCH   7   8
HETATM    8  C5  UNL     1      20.011  64.723  34.253  1.00  0.00     0.161 C 
BRANCH   8   9
HETATM    9  N1  UNL     1      20.308  63.509  34.817  1.00  0.00    -0.360 N 
HETATM   10  C4  UNL     1      21.460  62.729  34.328  1.00  0.00     0.125 C 
HETATM   11  C3  UNL     1      22.532  62.772  35.361  1.00  0.00     0.024 C 
HETATM   12  C2  UNL     1      21.928  62.946  36.728  1.00  0.00    -0.015 C 
HETATM   13  C1  UNL     1      22.907  62.456  37.777  1.00  0.00     0.010 C 
HETATM   14  C20 UNL     1      20.644  62.190  36.821  1.00  0.00     0.024 C 
HETATM   15  C19 UNL     1      19.614  62.917  35.929  1.00  0.00     0.125 C 
ENDBRANCH   8   9
BRANCH   8  16
HETATM   16  O1  UNL     1      20.276  65.768  34.986  1.00  0.00    -0.345 OA
ATOM     17  H1  UNL     1      19.542  66.131  35.469  1.00  0.00     0.219 HD
ENDBRANCH   8  16
ENDBRANCH   7   8
ENDBRANCH   6   7
ENDBRANCH   4   6
ENDBRANCH   3   4
ENDBRANCH   2   3
ENDBRANCH   1   2
BRANCH   1  18
HETATM   18  C11 UNL     1      16.430  62.843  28.325  1.00  0.00     0.223 C 
HETATM   19  O4  UNL     1      16.587  61.713  28.836  1.00  0.00    -0.273 OA
HETATM   20  N2  UNL     1      15.159  63.228  27.889  1.00  0.00    -0.306 N 
ATOM     21  H2  UNL     1      14.792  62.907  26.993  1.00  0.00     0.171 HD
BRANCH  20  22
HETATM   22  C12 UNL     1      14.450  64.017  28.665  1.00  0.00     0.167 A 
HETATM   23  N3  UNL     1      14.637  65.314  28.919  1.00  0.00    -0.279 N 
HETATM   24  N4  UNL     1      13.837  65.905  29.705  1.00  0.00    -0.295 N 
ATOM     25  H3  UNL     1      15.410  65.821  28.488  1.00  0.00     0.189 HD
HETATM   26  C13 UNL     1      12.840  65.260  30.264  1.00  0.00     0.076 A 
ATOM     27  H4  UNL     1      13.969  66.897  29.907  1.00  0.00     0.187 HD
HETATM   28  S1  UNL     1      13.066  63.676  29.610  1.00  0.00    -0.037 SA
BRANCH  26  29
HETATM   29  C14 UNL     1      11.774  65.734  31.215  1.00  0.00     0.078 C 
HETATM   30  C15 UNL     1      11.414  67.136  30.894  1.00  0.00     0.014 C 
HETATM   31  C16 UNL     1      12.045  68.034  31.913  1.00  0.00     0.004 C 
HETATM   32  C17 UNL     1      13.040  67.154  32.641  1.00  0.00     0.038 C 
HETATM   33  C18 UNL     1      12.406  65.797  32.578  1.00  0.00     0.180 C 
HETATM   34  F1  UNL     1      13.388  64.826  32.635  1.00  0.00    -0.249 F 
ENDBRANCH  26  29
ENDBRANCH  20  22
ENDBRANCH   1  18
TORSDOF 11
ENDMDL
MODEL 5
REMARK VINA RESULT: -9.081982139      3.516      4.786
REMARK  11 active torsions:
REMARK  status: ('A' for Active; 'I' for Inactive)
REMARK    1  A    between atoms: N1_5  and  C5_6 
REMARK    2  A    between atoms: C5_6  and  O1_7 
REMARK    3  A    between atoms: C5_6  and  C6_9 
REMARK    4  A    between atoms: C6_9  and  O2_10 
REMARK    5  A    between atoms: O2_10  and  C7_11 
REMARK    6  A    between atoms: C7_11  and  C8_13 
REMARK    7  A    between atoms: C8_13  and  C9_14 
REMARK    8  A    between atoms: C9_14  and  C10_15 
REMARK    9  A    between atoms: C10_15  and  C11_16 
REMARK       I    between atoms: C11_16  and  N2_18 
REMARK   10  A    between atoms: N2_18  and  C12_20 
REMARK   11  A    between atoms: C13_25  and  C14_26 
ROOT
HETATM    1  C10 UNL     1      19.952  64.456  33.287  1.00  0.00     0.103 C 
ENDROOT
BRANCH   1   2
HETATM    2  C9  UNL     1      18.649  64.693  32.602  1.00  0.00     0.019 C 
BRANCH   2   3
HETATM    3  C8  UNL     1      18.431  63.921  31.345  1.00  0.00     0.112 C 
BRANCH   3   4
HETATM    4  C7  UNL     1      17.569  64.744  30.446  1.00  0.00     0.263 C 
HETATM    5  O3  UNL     1      16.456  65.168  30.827  1.00  0.00    -0.265 OA
BRANCH   4   6
HETATM    6  O2  UNL     1      17.983  65.065  29.147  1.00  0.00    -0.287 OA
BRANCH   6   7
HETATM    7  C6  UNL     1      18.270  64.149  28.149  1.00  0.00     0.201 C 
BRANCH   7   8
HETATM    8  C5  UNL     1      17.203  63.359  27.570  1.00  0.00     0.161 C 
BRANCH   8   9
HETATM    9  N1  UNL     1      15.847  63.559  27.623  1.00  0.00    -0.360 N 
HETATM   10  C4  UNL     1      15.201  64.496  26.683  1.00  0.00     0.125 C 
HETATM   11  C3  UNL     1      14.419  63.705  25.692  1.00  0.00     0.024 C 
HETATM   12  C2  UNL     1      13.971  62.406  26.304  1.00  0.00    -0.015 C 
HETATM   13  C1  UNL     1      12.772  61.877  25.539  1.00  0.00     0.010 C 
HETATM   14  C20 UNL     1      13.622  62.609  27.741  1.00  0.00     0.024 C 
HETATM   15  C19 UNL     1      14.939  62.874  28.503  1.00  0.00     0.125 C 
ENDBRANCH   8   9
BRANCH   8  16
HETATM   16  O1  UNL     1      17.594  62.306  26.909  1.00  0.00    -0.345 OA
ATOM     17  H1  UNL     1      18.515  62.084  26.993  1.00  0.00     0.219 HD
ENDBRANCH   8  16
ENDBRANCH   7   8
ENDBRANCH   6   7
ENDBRANCH   4   6
ENDBRANCH   3   4
ENDBRANCH   2   3
ENDBRANCH   1   2
BRANCH   1  18
HETATM   18  C11 UNL     1      20.326  63.041  33.444  1.00  0.00     0.223 C 
HETATM   19  O4  UNL     1      21.135  62.512  32.652  1.00  0.00    -0.273 OA
HETATM   20  N2  UNL     1      19.778  62.276  34.478  1.00  0.00    -0.306 N 
ATOM     21  H2  UNL     1      19.002  61.637  34.304  1.00  0.00     0.171 HD
BRANCH  20  22
HETATM   22  C12 UNL     1      20.290  62.404  35.681  1.00  0.00     0.167 A 
HETATM   23  N3  UNL     1      19.791  63.067  36.727  1.00  0.00    -0.279 N 
HETATM   24  N4  UNL     1      20.442  63.074  37.815  1.00  0.00    -0.295 N 
ATOM     25  H3  UNL     1      18.901  63.560  36.652  1.00  0.00     0.189 HD
HETATM   26  C13 UNL     1      21.588  62.442  37.919  1.00  0.00     0.076 A 
ATOM     27  H4  UNL     1      20.071  63.577  38.621  1.00  0.00     0.187 HD
HETATM   28  S1  UNL     1      21.746  61.785  36.328  1.00  0.00    -0.037 SA
BRANCH  26  29
HETATM   29  C14 UNL     1      22.531  62.305  39.084  1.00  0.00     0.078 C 
HETATM   30  C15 UNL     1      23.930  62.352  38.595  1.00  0.00     0.014 C 
HETATM   31  C16 UNL     1      24.484  60.960  38.605  1.00  0.00     0.004 C 
HETATM   32  C17 UNL     1      23.277  60.066  38.801  1.00  0.00     0.038 C 
HETATM   33  C18 UNL     1      22.353  60.912  39.624  1.00  0.00     0.180 C 
HETATM   34  F1  UNL     1      21.046  60.531  39.390  1.00  0.00    -0.249 F 
ENDBRANCH  26  29
ENDBRANCH  20  22
ENDBRANCH   1  18
TORSDOF 11
ENDMDL
