MODEL 1
REMARK VINA RESULT: -8.374311035      0.000      0.000
REMARK  8 active torsions:
REMARK  status: ('A' for Active; 'I' for Inactive)
REMARK    1  A    between atoms: C2_2  and  C3_3 
REMARK    2  A    between atoms: C3_3  and  C4_5 
REMARK    3  A    between atoms: C9_11  and  O3_12 
REMARK    4  A    between atoms: O3_12  and  C10_13 
REMARK    5  A    between atoms: C23_27  and  O5_28 
REMARK    6  A    between atoms: O5_28  and  S1_29 
REMARK    7  A    between atoms: C24_33  and  O9_34 
REMARK    8  A    between atoms: O9_34  and  C25_35 
ROOT
HETATM    1  C4  UNL     1      13.450  63.755  28.772  1.00  0.00     0.132 C 
HETATM    2  C5  UNL     1      12.738  63.520  27.498  1.00  0.00     0.143 C 
HETATM    3  O2  UNL     1      11.510  63.429  27.522  1.00  0.00    -0.297 OA
HETATM    4  C6  UNL     1      13.372  63.377  26.162  1.00  0.00     0.066 C 
HETATM    5  C7  UNL     1      12.539  64.004  25.106  1.00  0.00     0.008 C 
HETATM    6  C8  UNL     1      12.082  62.857  24.187  1.00  0.00     0.038 C 
HETATM    7  C9  UNL     1      11.283  63.369  23.022  1.00  0.00     0.132 C 
HETATM    8  C12 UNL     1      12.059  64.370  22.197  1.00  0.00     0.033 C 
HETATM    9  C13 UNL     1      13.354  64.669  22.917  1.00  0.00     0.012 C 
HETATM   10  C14 UNL     1      13.089  65.140  24.354  1.00  0.00    -0.040 C 
HETATM   11  C15 UNL     1      12.050  66.265  24.195  1.00  0.00     0.015 C 
HETATM   12  C16 UNL     1      14.325  65.778  24.846  1.00  0.00     0.010 C 
HETATM   13  C17 UNL     1      14.708  65.392  26.266  1.00  0.00     0.007 C 
HETATM   14  C18 UNL     1      14.787  63.901  26.258  1.00  0.00     0.006 C 
HETATM   15  C19 UNL     1      15.506  63.270  27.376  1.00  0.00    -0.032 C 
HETATM   16  C20 UNL     1      15.555  61.780  27.110  1.00  0.00     0.016 C 
HETATM   17  C21 UNL     1      16.953  63.723  27.425  1.00  0.00     0.012 C 
HETATM   18  C22 UNL     1      17.670  63.295  28.673  1.00  0.00     0.037 C 
HETATM   19  C23 UNL     1      16.997  63.868  29.905  1.00  0.00     0.175 C 
HETATM   20  C24 UNL     1      15.695  64.557  29.460  1.00  0.00     0.168 C 
HETATM   21  C27 UNL     1      14.912  63.485  28.736  1.00  0.00     0.045 C 
ENDROOT
BRANCH  19  22
HETATM   22  O5  UNL     1      17.763  64.785  30.577  1.00  0.00    -0.249 OA
BRANCH  22  23
HETATM   23  S1  UNL     1      18.292  64.223  32.067  1.00  0.00     0.252 S 
HETATM   24  O6  UNL     1      18.394  62.728  32.007  1.00  0.00    -0.572 OA
HETATM   25  O7  UNL     1      19.644  64.769  32.418  1.00  0.00    -0.572 OA
HETATM   26  O8  UNL     1      17.133  64.624  33.200  1.00  0.00    -0.572 OA
ENDBRANCH  22  23
ENDBRANCH  19  22
BRANCH  20  27
HETATM   27  O9  UNL     1      14.982  64.910  30.625  1.00  0.00    -0.313 OA
BRANCH  27  28
HETATM   28  C25 UNL     1      14.701  66.210  30.978  1.00  0.00     0.255 C 
HETATM   29  C26 UNL     1      13.997  67.077  30.005  1.00  0.00     0.126 C 
HETATM   30  O10 UNL     1      15.025  66.652  32.081  1.00  0.00    -0.266 OA
ENDBRANCH  27  28
ENDBRANCH  20  27
BRANCH   1  31
HETATM   31  C3  UNL     1      12.713  62.969  29.809  1.00  0.00     0.138 C 
HETATM   32  O1  UNL     1      12.622  61.764  29.699  1.00  0.00    -0.297 OA
BRANCH  31  33
HETATM   33  C2  UNL     1      12.074  63.603  30.989  1.00  0.00     0.074 C 
HETATM   34  C1  UNL     1      11.129  64.698  30.552  1.00  0.00     0.013 C 
ENDBRANCH  31  33
ENDBRANCH   1  31
BRANCH   7  35
HETATM   35  O3  UNL     1      10.890  62.246  22.265  1.00  0.00    -0.316 OA
BRANCH  35  36
HETATM   36  C10 UNL     1       9.959  61.344  22.700  1.00  0.00     0.255 C 
HETATM   37  C11 UNL     1       8.714  61.725  23.414  1.00  0.00     0.126 C 
HETATM   38  O4  UNL     1      10.156  60.129  22.489  1.00  0.00    -0.266 OA
ENDBRANCH  35  36
ENDBRANCH   7  35
TORSDOF 8
ENDMDL
MODEL 2
REMARK VINA RESULT: -8.094994815      3.026      8.621
REMARK  8 active torsions:
REMARK  status: ('A' for Active; 'I' for Inactive)
REMARK    1  A    between atoms: C2_2  and  C3_3 
REMARK    2  A    between atoms: C3_3  and  C4_5 
REMARK    3  A    between atoms: C9_11  and  O3_12 
REMARK    4  A    between atoms: O3_12  and  C10_13 
REMARK    5  A    between atoms: C23_27  and  O5_28 
REMARK    6  A    between atoms: O5_28  and  S1_29 
REMARK    7  A    between atoms: C24_33  and  O9_34 
REMARK    8  A    between atoms: O9_34  and  C25_35 
ROOT
HETATM    1  C4  UNL     1      14.706  65.055  25.971  1.00  0.00     0.132 C 
HETATM    2  C5  UNL     1      15.514  65.118  27.208  1.00  0.00     0.143 C 
HETATM    3  O2  UNL     1      16.473  65.889  27.242  1.00  0.00    -0.297 OA
HETATM    4  C6  UNL     1      15.276  64.324  28.442  1.00  0.00     0.066 C 
HETATM    5  C7  UNL     1      15.571  65.124  29.656  1.00  0.00     0.008 C 
HETATM    6  C8  UNL     1      16.769  64.438  30.338  1.00  0.00     0.038 C 
HETATM    7  C9  UNL     1      17.126  65.112  31.633  1.00  0.00     0.132 C 
HETATM    8  C12 UNL     1      15.966  65.135  32.601  1.00  0.00     0.033 C 
HETATM    9  C13 UNL     1      14.743  64.613  31.882  1.00  0.00     0.012 C 
HETATM   10  C14 UNL     1      14.479  65.410  30.596  1.00  0.00    -0.040 C 
HETATM   11  C15 UNL     1      14.501  66.879  31.054  1.00  0.00     0.015 C 
HETATM   12  C16 UNL     1      13.094  65.124  30.174  1.00  0.00     0.010 C 
HETATM   13  C17 UNL     1      12.932  64.871  28.683  1.00  0.00     0.007 C 
HETATM   14  C18 UNL     1      13.877  63.757  28.371  1.00  0.00     0.006 C 
HETATM   15  C19 UNL     1      13.662  63.045  27.102  1.00  0.00    -0.032 C 
HETATM   16  C20 UNL     1      14.653  61.901  27.043  1.00  0.00     0.016 C 
HETATM   17  C21 UNL     1      12.290  62.397  27.060  1.00  0.00     0.012 C 
HETATM   18  C22 UNL     1      11.928  61.854  25.707  1.00  0.00     0.037 C 
HETATM   19  C23 UNL     1      11.915  62.960  24.669  1.00  0.00     0.175 C 
HETATM   20  C24 UNL     1      12.451  64.241  25.330  1.00  0.00     0.168 C 
HETATM   21  C27 UNL     1      13.819  63.867  25.859  1.00  0.00     0.045 C 
ENDROOT
BRANCH  19  22
HETATM   22  O5  UNL     1      10.670  63.224  24.160  1.00  0.00    -0.249 OA
BRANCH  22  23
HETATM   23  S1  UNL     1      10.562  62.919  22.514  1.00  0.00     0.252 S 
HETATM   24  O6  UNL     1       9.282  63.511  22.001  1.00  0.00    -0.572 OA
HETATM   25  O7  UNL     1      11.699  63.539  21.758  1.00  0.00    -0.572 OA
HETATM   26  O8  UNL     1      10.493  61.264  22.309  1.00  0.00    -0.572 OA
ENDBRANCH  22  23
ENDBRANCH  19  22
BRANCH  20  27
HETATM   27  O9  UNL     1      12.622  65.204  24.313  1.00  0.00    -0.313 OA
BRANCH  27  28
HETATM   28  C25 UNL     1      11.860  66.345  24.213  1.00  0.00     0.255 C 
HETATM   29  C26 UNL     1      11.581  67.127  25.439  1.00  0.00     0.126 C 
HETATM   30  O10 UNL     1      11.414  66.716  23.127  1.00  0.00    -0.266 OA
ENDBRANCH  27  28
ENDBRANCH  20  27
BRANCH   1  31
HETATM   31  C3  UNL     1      15.673  65.200  24.839  1.00  0.00     0.138 C 
HETATM   32  O1  UNL     1      15.565  66.133  24.071  1.00  0.00    -0.297 OA
BRANCH  31  33
HETATM   33  C2  UNL     1      16.780  64.240  24.606  1.00  0.00     0.074 C 
HETATM   34  C1  UNL     1      18.069  64.977  24.328  1.00  0.00     0.013 C 
ENDBRANCH  31  33
ENDBRANCH   1  31
BRANCH   7  35
HETATM   35  O3  UNL     1      18.245  64.432  32.157  1.00  0.00    -0.316 OA
BRANCH  35  36
HETATM   36  C10 UNL     1      18.442  64.242  33.496  1.00  0.00     0.255 C 
HETATM   37  C11 UNL     1      18.043  63.009  34.221  1.00  0.00     0.126 C 
HETATM   38  O4  UNL     1      18.987  65.150  34.157  1.00  0.00    -0.266 OA
ENDBRANCH  35  36
ENDBRANCH   7  35
TORSDOF 8
ENDMDL
MODEL 3
REMARK VINA RESULT: -7.836876182      5.109      7.920
REMARK  8 active torsions:
REMARK  status: ('A' for Active; 'I' for Inactive)
REMARK    1  A    between atoms: C2_2  and  C3_3 
REMARK    2  A    between atoms: C3_3  and  C4_5 
REMARK    3  A    between atoms: C9_11  and  O3_12 
REMARK    4  A    between atoms: O3_12  and  C10_13 
REMARK    5  A    between atoms: C23_27  and  O5_28 
REMARK    6  A    between atoms: O5_28  and  S1_29 
REMARK    7  A    between atoms: C24_33  and  O9_34 
REMARK    8  A    between atoms: O9_34  and  C25_35 
ROOT
HETATM    1  C4  UNL     1      11.613  66.865  30.496  1.00  0.00     0.132 C 
HETATM    2  C5  UNL     1      10.720  68.033  30.652  1.00  0.00     0.143 C 
HETATM    3  O2  UNL     1      10.778  68.679  31.699  1.00  0.00    -0.297 OA
HETATM    4  C6  UNL     1       9.737  68.516  29.647  1.00  0.00     0.066 C 
HETATM    5  C7  UNL     1       9.668  69.998  29.637  1.00  0.00     0.008 C 
HETATM    6  C8  UNL     1       8.248  70.363  30.104  1.00  0.00     0.038 C 
HETATM    7  C9  UNL     1       8.019  71.848  30.068  1.00  0.00     0.132 C 
HETATM    8  C12 UNL     1       8.236  72.422  28.687  1.00  0.00     0.033 C 
HETATM    9  C13 UNL     1       8.787  71.326  27.803  1.00  0.00     0.012 C 
HETATM   10  C14 UNL     1      10.056  70.714  28.413  1.00  0.00    -0.040 C 
HETATM   11  C15 UNL     1      10.945  71.930  28.732  1.00  0.00     0.015 C 
HETATM   12  C16 UNL     1      10.743  69.962  27.345  1.00  0.00     0.010 C 
HETATM   13  C17 UNL     1      11.265  68.599  27.774  1.00  0.00     0.007 C 
HETATM   14  C18 UNL     1      10.075  67.879  28.319  1.00  0.00     0.006 C 
HETATM   15  C19 UNL     1      10.190  66.418  28.450  1.00  0.00    -0.032 C 
HETATM   16  C20 UNL     1       8.847  65.891  28.914  1.00  0.00     0.016 C 
HETATM   17  C21 UNL     1      10.441  65.763  27.104  1.00  0.00     0.012 C 
HETATM   18  C22 UNL     1      10.794  64.307  27.208  1.00  0.00     0.037 C 
HETATM   19  C23 UNL     1      12.057  64.115  28.023  1.00  0.00     0.175 C 
HETATM   20  C24 UNL     1      12.453  65.477  28.619  1.00  0.00     0.168 C 
HETATM   21  C27 UNL     1      11.240  65.930  29.402  1.00  0.00     0.045 C 
ENDROOT
BRANCH  19  22
HETATM   22  O5  UNL     1      13.117  63.636  27.297  1.00  0.00    -0.249 OA
BRANCH  22  23
HETATM   23  S1  UNL     1      13.537  62.066  27.715  1.00  0.00     0.252 S 
HETATM   24  O6  UNL     1      13.409  61.197  26.499  1.00  0.00    -0.572 OA
HETATM   25  O7  UNL     1      14.952  61.981  28.203  1.00  0.00    -0.572 OA
HETATM   26  O8  UNL     1      12.440  61.536  28.857  1.00  0.00    -0.572 OA
ENDBRANCH  22  23
ENDBRANCH  19  22
BRANCH  20  27
HETATM   27  O9  UNL     1      13.505  65.253  29.530  1.00  0.00    -0.313 OA
BRANCH  27  28
HETATM   28  C25 UNL     1      14.833  65.441  29.219  1.00  0.00     0.255 C 
HETATM   29  C26 UNL     1      15.864  64.895  30.130  1.00  0.00     0.126 C 
HETATM   30  O10 UNL     1      15.164  66.054  28.203  1.00  0.00    -0.266 OA
ENDBRANCH  27  28
ENDBRANCH  20  27
BRANCH   1  31
HETATM   31  C3  UNL     1      11.690  66.222  31.844  1.00  0.00     0.138 C 
HETATM   32  O1  UNL     1      10.960  65.291  32.110  1.00  0.00    -0.297 OA
BRANCH  31  33
HETATM   33  C2  UNL     1      12.636  66.678  32.893  1.00  0.00     0.074 C 
HETATM   34  C1  UNL     1      13.864  67.294  32.265  1.00  0.00     0.013 C 
ENDBRANCH  31  33
ENDBRANCH   1  31
BRANCH   7  35
HETATM   35  O3  UNL     1       6.711  72.075  30.541  1.00  0.00    -0.316 OA
BRANCH  35  36
HETATM   36  C10 UNL     1       6.407  73.046  31.455  1.00  0.00     0.255 C 
HETATM   37  C11 UNL     1       5.656  72.788  32.710  1.00  0.00     0.126 C 
HETATM   38  O4  UNL     1       6.777  74.217  31.232  1.00  0.00    -0.266 OA
ENDBRANCH  35  36
ENDBRANCH   7  35
TORSDOF 8
ENDMDL
MODEL 4
REMARK VINA RESULT: -7.702405081      3.747      8.870
REMARK  8 active torsions:
REMARK  status: ('A' for Active; 'I' for Inactive)
REMARK    1  A    between atoms: C2_2  and  C3_3 
REMARK    2  A    between atoms: C3_3  and  C4_5 
REMARK    3  A    between atoms: C9_11  and  O3_12 
REMARK    4  A    between atoms: O3_12  and  C10_13 
REMARK    5  A    between atoms: C23_27  and  O5_28 
REMARK    6  A    between atoms: O5_28  and  S1_29 
REMARK    7  A    between atoms: C24_33  and  O9_34 
REMARK    8  A    between atoms: O9_34  and  C25_35 
ROOT
HETATM    1  C4  UNL     1      10.322  65.109  26.072  1.00  0.00     0.132 C 
HETATM    2  C5  UNL     1      10.956  65.774  27.231  1.00  0.00     0.143 C 
HETATM    3  O2  UNL     1      10.637  66.935  27.486  1.00  0.00    -0.297 OA
HETATM    4  C6  UNL     1      11.964  65.165  28.137  1.00  0.00     0.066 C 
HETATM    5  C7  UNL     1      11.762  65.612  29.538  1.00  0.00     0.008 C 
HETATM    6  C8  UNL     1      13.013  66.427  29.911  1.00  0.00     0.038 C 
HETATM    7  C9  UNL     1      12.969  66.881  31.342  1.00  0.00     0.132 C 
HETATM    8  C12 UNL     1      12.845  65.721  32.302  1.00  0.00     0.033 C 
HETATM    9  C13 UNL     1      12.631  64.462  31.493  1.00  0.00     0.012 C 
HETATM   10  C14 UNL     1      11.423  64.608  30.557  1.00  0.00    -0.040 C 
HETATM   11  C15 UNL     1      10.292  65.102  31.477  1.00  0.00     0.015 C 
HETATM   12  C16 UNL     1      11.040  63.255  30.113  1.00  0.00     0.010 C 
HETATM   13  C17 UNL     1      10.722  63.148  28.629  1.00  0.00     0.007 C 
HETATM   14  C18 UNL     1      11.935  63.668  27.931  1.00  0.00     0.006 C 
HETATM   15  C19 UNL     1      12.073  63.331  26.505  1.00  0.00    -0.032 C 
HETATM   16  C20 UNL     1      13.411  63.861  26.033  1.00  0.00     0.016 C 
HETATM   17  C21 UNL     1      12.134  61.829  26.298  1.00  0.00     0.012 C 
HETATM   18  C22 UNL     1      12.043  61.423  24.855  1.00  0.00     0.037 C 
HETATM   19  C23 UNL     1      10.735  61.889  24.245  1.00  0.00     0.175 C 
HETATM   20  C24 UNL     1      10.018  62.778  25.276  1.00  0.00     0.168 C 
HETATM   21  C27 UNL     1      11.007  63.876  25.602  1.00  0.00     0.045 C 
ENDROOT
BRANCH  19  22
HETATM   22  O5  UNL     1       9.891  60.866  23.897  1.00  0.00    -0.249 OA
BRANCH  22  23
HETATM   23  S1  UNL     1       9.736  60.687  22.236  1.00  0.00     0.252 S 
HETATM   24  O6  UNL     1       8.288  60.826  21.873  1.00  0.00    -0.572 OA
HETATM   25  O7  UNL     1      10.508  61.734  21.490  1.00  0.00    -0.572 OA
HETATM   26  O8  UNL     1      10.228  59.139  21.846  1.00  0.00    -0.572 OA
ENDBRANCH  22  23
ENDBRANCH  19  22
BRANCH  20  27
HETATM   27  O9  UNL     1       8.908  63.365  24.633  1.00  0.00    -0.313 OA
BRANCH  27  28
HETATM   28  C25 UNL     1       7.604  63.129  25.004  1.00  0.00     0.255 C 
HETATM   29  C26 UNL     1       7.097  63.738  26.255  1.00  0.00     0.126 C 
HETATM   30  O10 UNL     1       6.867  62.425  24.313  1.00  0.00    -0.266 OA
ENDBRANCH  27  28
ENDBRANCH  20  27
BRANCH   1  31
HETATM   31  C3  UNL     1      10.177  66.162  25.021  1.00  0.00     0.138 C 
HETATM   32  O1  UNL     1       9.112  66.726  24.876  1.00  0.00    -0.297 OA
BRANCH  31  33
HETATM   33  C2  UNL     1      11.294  66.560  24.129  1.00  0.00     0.074 C 
HETATM   34  C1  UNL     1      11.591  68.033  24.279  1.00  0.00     0.013 C 
ENDBRANCH  31  33
ENDBRANCH   1  31
BRANCH   7  35
HETATM   35  O3  UNL     1      14.136  67.640  31.570  1.00  0.00    -0.316 OA
BRANCH  35  36
HETATM   36  C10 UNL     1      14.116  68.987  31.801  1.00  0.00     0.255 C 
HETATM   37  C11 UNL     1      13.789  69.995  30.760  1.00  0.00     0.126 C 
HETATM   38  O4  UNL     1      14.385  69.405  32.946  1.00  0.00    -0.266 OA
ENDBRANCH  35  36
ENDBRANCH   7  35
TORSDOF 8
ENDMDL
MODEL 5
REMARK VINA RESULT: -7.692763005      4.031      8.370
REMARK  8 active torsions:
REMARK  status: ('A' for Active; 'I' for Inactive)
REMARK    1  A    between atoms: C2_2  and  C3_3 
REMARK    2  A    between atoms: C3_3  and  C4_5 
REMARK    3  A    between atoms: C9_11  and  O3_12 
REMARK    4  A    between atoms: O3_12  and  C10_13 
REMARK    5  A    between atoms: C23_27  and  O5_28 
REMARK    6  A    between atoms: O5_28  and  S1_29 
REMARK    7  A    between atoms: C24_33  and  O9_34 
REMARK    8  A    between atoms: O9_34  and  C25_35 
ROOT
HETATM    1  C4  UNL     1      10.868  64.937  25.816  1.00  0.00     0.132 C 
HETATM    2  C5  UNL     1      12.325  65.058  26.034  1.00  0.00     0.143 C 
HETATM    3  O2  UNL     1      12.744  66.029  26.664  1.00  0.00    -0.297 OA
HETATM    4  C6  UNL     1      13.358  64.102  25.556  1.00  0.00     0.066 C 
HETATM    5  C7  UNL     1      14.450  63.956  26.549  1.00  0.00     0.008 C 
HETATM    6  C8  UNL     1      15.718  64.509  25.873  1.00  0.00     0.038 C 
HETATM    7  C9  UNL     1      16.926  64.351  26.753  1.00  0.00     0.132 C 
HETATM    8  C12 UNL     1      17.169  62.908  27.129  1.00  0.00     0.033 C 
HETATM    9  C13 UNL     1      16.002  62.088  26.630  1.00  0.00     0.012 C 
HETATM   10  C14 UNL     1      14.673  62.640  27.165  1.00  0.00    -0.040 C 
HETATM   11  C15 UNL     1      14.900  62.762  28.683  1.00  0.00     0.015 C 
HETATM   12  C16 UNL     1      13.650  61.593  26.978  1.00  0.00     0.010 C 
HETATM   13  C17 UNL     1      12.322  62.102  26.440  1.00  0.00     0.007 C 
HETATM   14  C18 UNL     1      12.662  62.816  25.173  1.00  0.00     0.006 C 
HETATM   15  C19 UNL     1      11.552  63.076  24.242  1.00  0.00    -0.032 C 
HETATM   16  C20 UNL     1      12.136  63.704  22.993  1.00  0.00     0.016 C 
HETATM   17  C21 UNL     1      10.905  61.782  23.783  1.00  0.00     0.012 C 
HETATM   18  C22 UNL     1       9.629  61.993  23.018  1.00  0.00     0.037 C 
HETATM   19  C23 UNL     1       8.602  62.709  23.872  1.00  0.00     0.175 C 
HETATM   20  C24 UNL     1       9.284  63.134  25.184  1.00  0.00     0.168 C 
HETATM   21  C27 UNL     1      10.468  63.974  24.757  1.00  0.00     0.045 C 
ENDROOT
BRANCH  19  22
HETATM   22  O5  UNL     1       7.509  61.942  24.183  1.00  0.00    -0.249 OA
BRANCH  22  23
HETATM   23  S1  UNL     1       6.092  62.517  23.490  1.00  0.00     0.252 S 
HETATM   24  O6  UNL     1       4.926  61.937  24.235  1.00  0.00    -0.572 OA
HETATM   25  O7  UNL     1       6.002  64.011  23.571  1.00  0.00    -0.572 OA
HETATM   26  O8  UNL     1       6.037  61.962  21.916  1.00  0.00    -0.572 OA
ENDBRANCH  22  23
ENDBRANCH  19  22
BRANCH  20  27
HETATM   27  O9  UNL     1       8.384  63.968  25.880  1.00  0.00    -0.313 OA
BRANCH  27  28
HETATM   28  C25 UNL     1       7.821  63.633  27.091  1.00  0.00     0.255 C 
HETATM   29  C26 UNL     1       8.692  63.558  28.286  1.00  0.00     0.126 C 
HETATM   30  O10 UNL     1       6.616  63.400  27.186  1.00  0.00    -0.266 OA
ENDBRANCH  27  28
ENDBRANCH  20  27
BRANCH   1  31
HETATM   31  C3  UNL     1      10.367  66.329  25.593  1.00  0.00     0.138 C 
HETATM   32  O1  UNL     1       9.836  66.930  26.503  1.00  0.00    -0.297 OA
BRANCH  31  33
HETATM   33  C2  UNL     1      10.490  67.022  24.287  1.00  0.00     0.074 C 
HETATM   34  C1  UNL     1      11.241  68.322  24.449  1.00  0.00     0.013 C 
ENDBRANCH  31  33
ENDBRANCH   1  31
BRANCH   7  35
HETATM   35  O3  UNL     1      18.017  64.913  26.060  1.00  0.00    -0.316 OA
BRANCH  35  36
HETATM   36  C10 UNL     1      18.003  65.149  24.714  1.00  0.00     0.255 C 
HETATM   37  C11 UNL     1      17.608  66.447  24.109  1.00  0.00     0.126 C 
HETATM   38  O4  UNL     1      18.340  64.230  23.939  1.00  0.00    -0.266 OA
ENDBRANCH  35  36
ENDBRANCH   7  35
TORSDOF 8
ENDMDL
