MODEL 1
REMARK VINA RESULT: -8.677212796      0.000      0.000
REMARK  6 active torsions:
REMARK  status: ('A' for Active; 'I' for Inactive)
REMARK    1  A    between atoms: N2_4  and  O1_6 
REMARK    2  A    between atoms: O1_6  and  C1_7 
REMARK    3  A    between atoms: C1_7  and  C2_8 
REMARK    4  A    between atoms: C2_8  and  N3_9 
REMARK    5  A    between atoms: C10_26  and  O4_27 
REMARK    6  A    between atoms: O4_27  and  S1_28 
ROOT
HETATM    1  N3  UNL     1      15.335   3.975  22.849  1.00  0.00    -0.375 N 
ATOM      2  H3  UNL     1      14.461   3.586  22.495  1.00  0.00     0.160 HD
HETATM    3  C3  UNL     1      16.419   3.800  22.178  1.00  0.00     0.124 C 
HETATM    4  N4  UNL     1      17.652   4.346  22.673  1.00  0.00    -0.295 N 
ATOM      5  H4  UNL     1      17.766   4.539  23.668  1.00  0.00     0.172 HD
HETATM    6  C4  UNL     1      18.713   4.615  21.764  1.00  0.00     0.328 C 
HETATM    7  O2  UNL     1      19.802   5.098  22.205  1.00  0.00    -0.247 OA
HETATM    8  N5  UNL     1      18.554   4.346  20.377  1.00  0.00    -0.276 N 
ATOM      9  H5  UNL     1      19.306   4.533  19.713  1.00  0.00     0.173 HD
HETATM   10  C5  UNL     1      17.312   3.807  19.946  1.00  0.00     0.266 C 
HETATM   11  O3  UNL     1      16.926   3.971  18.737  1.00  0.00    -0.269 OA
HETATM   12  C6  UNL     1      16.491   3.064  20.910  1.00  0.00     0.201 A 
HETATM   13  N6  UNL     1      16.972   1.704  21.036  1.00  0.00    -0.362 N 
ATOM     14  H6  UNL     1      17.833   1.255  21.348  1.00  0.00     0.161 HD
HETATM   15  C7  UNL     1      15.712   1.269  20.531  1.00  0.00     0.039 A 
HETATM   16  C8  UNL     1      14.932   0.176  20.183  1.00  0.00     0.032 A 
HETATM   17  C9  UNL     1      13.656   0.374  19.699  1.00  0.00     0.040 A 
HETATM   18  C10 UNL     1      13.190   1.667  19.577  1.00  0.00     0.092 A 
HETATM   19  C11 UNL     1      13.944   2.752  19.915  1.00  0.00     0.051 A 
HETATM   20  C12 UNL     1      15.208   2.546  20.393  1.00  0.00     0.016 A 
ENDROOT
BRANCH   1  21
HETATM   21  C2  UNL     1      15.329   4.710  24.091  1.00  0.00     0.150 C 
BRANCH  21  22
HETATM   22  C1  UNL     1      13.925   4.710  24.653  1.00  0.00     0.222 C 
BRANCH  22  23
HETATM   23  O1  UNL     1      12.970   4.311  23.696  1.00  0.00    -0.264 OA
BRANCH  23  24
HETATM   24  N2  UNL     1      11.655   4.330  24.026  1.00  0.00    -0.214 N 
HETATM   25  N1  UNL     1      10.882   5.073  23.330  1.00  0.00    -0.326 N 
ATOM     26  H12 UNL     1      11.256   5.624  22.558  1.00  0.00     0.178 HD
ATOM     27  H11 UNL     1       9.893   5.088  23.579  1.00  0.00     0.178 HD
ATOM     28  H2  UNL     1      11.297   3.774  24.802  1.00  0.00     0.215 HD
ENDBRANCH  23  24
ENDBRANCH  22  23
ENDBRANCH  21  22
ENDBRANCH   1  21
BRANCH  18  29
HETATM   29  O4  UNL     1      11.882   1.821  19.079  1.00  0.00    -0.214 OA
BRANCH  29  30
HETATM   30  S1  UNL     1      11.066   3.318  19.180  1.00  0.00     0.256 S 
HETATM   31  O5  UNL     1       9.595   3.111  18.870  1.00  0.00    -0.572 OA
HETATM   32  O6  UNL     1      11.629   4.301  18.170  1.00  0.00    -0.572 OA
HETATM   33  O7  UNL     1      11.261   3.940  20.729  1.00  0.00    -0.572 OA
ENDBRANCH  29  30
ENDBRANCH  18  29
TORSDOF 6
ENDMDL
MODEL 2
REMARK VINA RESULT: -8.675346494      1.441      1.782
REMARK  6 active torsions:
REMARK  status: ('A' for Active; 'I' for Inactive)
REMARK    1  A    between atoms: N2_4  and  O1_6 
REMARK    2  A    between atoms: O1_6  and  C1_7 
REMARK    3  A    between atoms: C1_7  and  C2_8 
REMARK    4  A    between atoms: C2_8  and  N3_9 
REMARK    5  A    between atoms: C10_26  and  O4_27 
REMARK    6  A    between atoms: O4_27  and  S1_28 
ROOT
HETATM    1  N3  UNL     1      14.329   3.701  22.010  1.00  0.00    -0.375 N 
ATOM      2  H3  UNL     1      13.701   3.139  21.435  1.00  0.00     0.160 HD
HETATM    3  C3  UNL     1      15.596   3.646  21.796  1.00  0.00     0.124 C 
HETATM    4  N4  UNL     1      16.484   4.436  22.604  1.00  0.00    -0.295 N 
ATOM      5  H4  UNL     1      16.198   4.739  23.535  1.00  0.00     0.172 HD
HETATM    6  C4  UNL     1      17.765   4.790  22.097  1.00  0.00     0.328 C 
HETATM    7  O2  UNL     1      18.547   5.488  22.814  1.00  0.00    -0.247 OA
HETATM    8  N5  UNL     1      18.163   4.366  20.798  1.00  0.00    -0.276 N 
ATOM      9  H5  UNL     1      19.078   4.613  20.421  1.00  0.00     0.173 HD
HETATM   10  C5  UNL     1      17.243   3.588  20.045  1.00  0.00     0.266 C 
HETATM   11  O3  UNL     1      17.314   3.570  18.768  1.00  0.00    -0.269 OA
HETATM   12  C6  UNL     1      16.221   2.815  20.760  1.00  0.00     0.201 A 
HETATM   13  N6  UNL     1      16.782   1.573  21.249  1.00  0.00    -0.362 N 
ATOM     14  H6  UNL     1      17.514   1.306  21.906  1.00  0.00     0.161 HD
HETATM   15  C7  UNL     1      15.860   0.887  20.405  1.00  0.00     0.039 A 
HETATM   16  C8  UNL     1      15.402  -0.349  19.974  1.00  0.00     0.032 A 
HETATM   17  C9  UNL     1      14.380  -0.415  19.049  1.00  0.00     0.040 A 
HETATM   18  C10 UNL     1      13.840   0.765  18.579  1.00  0.00     0.092 A 
HETATM   19  C11 UNL     1      14.279   1.987  18.993  1.00  0.00     0.051 A 
HETATM   20  C12 UNL     1      15.292   2.042  19.909  1.00  0.00     0.016 A 
ENDROOT
BRANCH   1  21
HETATM   21  C2  UNL     1      13.775   4.540  23.046  1.00  0.00     0.150 C 
BRANCH  21  22
HETATM   22  C1  UNL     1      13.050   3.668  24.046  1.00  0.00     0.222 C 
BRANCH  22  23
HETATM   23  O1  UNL     1      11.690   4.018  24.167  1.00  0.00    -0.264 OA
BRANCH  23  24
HETATM   24  N2  UNL     1      11.251   5.168  23.599  1.00  0.00    -0.214 N 
HETATM   25  N1  UNL     1      10.178   5.112  22.905  1.00  0.00    -0.326 N 
ATOM     26  H12 UNL     1       9.683   4.228  22.794  1.00  0.00     0.178 HD
ATOM     27  H11 UNL     1       9.848   5.978  22.478  1.00  0.00     0.178 HD
ATOM     28  H2  UNL     1      11.757   6.044  23.720  1.00  0.00     0.215 HD
ENDBRANCH  23  24
ENDBRANCH  22  23
ENDBRANCH  21  22
ENDBRANCH   1  21
BRANCH  18  29
HETATM   29  O4  UNL     1      12.800   0.649  17.637  1.00  0.00    -0.214 OA
BRANCH  29  30
HETATM   30  S1  UNL     1      11.175   0.471  18.129  1.00  0.00     0.256 S 
HETATM   31  O5  UNL     1      10.321   0.118  16.926  1.00  0.00    -0.572 OA
HETATM   32  O6  UNL     1      10.651   1.768  18.718  1.00  0.00    -0.572 OA
HETATM   33  O7  UNL     1      11.089  -0.741  19.291  1.00  0.00    -0.572 OA
ENDBRANCH  29  30
ENDBRANCH  18  29
TORSDOF 6
ENDMDL
MODEL 3
REMARK VINA RESULT: -8.614201509      1.563      1.956
REMARK  6 active torsions:
REMARK  status: ('A' for Active; 'I' for Inactive)
REMARK    1  A    between atoms: N2_4  and  O1_6 
REMARK    2  A    between atoms: O1_6  and  C1_7 
REMARK    3  A    between atoms: C1_7  and  C2_8 
REMARK    4  A    between atoms: C2_8  and  N3_9 
REMARK    5  A    between atoms: C10_26  and  O4_27 
REMARK    6  A    between atoms: O4_27  and  S1_28 
ROOT
HETATM    1  N3  UNL     1      14.022   3.564  22.373  1.00  0.00    -0.375 N 
ATOM      2  H3  UNL     1      13.463   2.990  21.741  1.00  0.00     0.160 HD
HETATM    3  C3  UNL     1      15.290   3.665  22.174  1.00  0.00     0.124 C 
HETATM    4  N4  UNL     1      16.082   4.471  23.061  1.00  0.00    -0.295 N 
ATOM      5  H4  UNL     1      15.759   4.659  24.010  1.00  0.00     0.172 HD
HETATM    6  C4  UNL     1      17.320   5.004  22.605  1.00  0.00     0.328 C 
HETATM    7  O2  UNL     1      18.017   5.717  23.392  1.00  0.00    -0.247 OA
HETATM    8  N5  UNL     1      17.769   4.741  21.282  1.00  0.00    -0.276 N 
ATOM      9  H5  UNL     1      18.654   5.117  20.941  1.00  0.00     0.173 HD
HETATM   10  C5  UNL     1      16.943   3.938  20.450  1.00  0.00     0.266 C 
HETATM   11  O3  UNL     1      17.023   4.039  19.177  1.00  0.00    -0.269 OA
HETATM   12  C6  UNL     1      16.007   2.999  21.079  1.00  0.00     0.201 A 
HETATM   13  N6  UNL     1      16.696   1.787  21.467  1.00  0.00    -0.362 N 
ATOM     14  H6  UNL     1      17.450   1.544  22.111  1.00  0.00     0.161 HD
HETATM   15  C7  UNL     1      15.859   1.083  20.554  1.00  0.00     0.039 A 
HETATM   16  C8  UNL     1      15.541  -0.153  20.010  1.00  0.00     0.032 A 
HETATM   17  C9  UNL     1      14.538  -0.247  19.068  1.00  0.00     0.040 A 
HETATM   18  C10 UNL     1      13.876   0.904  18.693  1.00  0.00     0.092 A 
HETATM   19  C11 UNL     1      14.176   2.126  19.218  1.00  0.00     0.051 A 
HETATM   20  C12 UNL     1      15.172   2.209  20.151  1.00  0.00     0.016 A 
ENDROOT
BRANCH   1  21
HETATM   21  C2  UNL     1      13.375   4.244  23.468  1.00  0.00     0.150 C 
BRANCH  21  22
HETATM   22  C1  UNL     1      12.706   5.494  22.941  1.00  0.00     0.222 C 
BRANCH  22  23
HETATM   23  O1  UNL     1      11.505   5.207  22.263  1.00  0.00    -0.264 OA
BRANCH  23  24
HETATM   24  N2  UNL     1      10.380   4.970  22.983  1.00  0.00    -0.214 N 
HETATM   25  N1  UNL     1       9.312   5.573  22.625  1.00  0.00    -0.326 N 
ATOM     26  H12 UNL     1       9.321   6.206  21.826  1.00  0.00     0.178 HD
ATOM     27  H11 UNL     1       8.466   5.395  23.167  1.00  0.00     0.178 HD
ATOM     28  H2  UNL     1      10.387   4.334  23.780  1.00  0.00     0.215 HD
ENDBRANCH  23  24
ENDBRANCH  22  23
ENDBRANCH  21  22
ENDBRANCH   1  21
BRANCH  18  29
HETATM   29  O4  UNL     1      12.860   0.760  17.728  1.00  0.00    -0.214 OA
BRANCH  29  30
HETATM   30  S1  UNL     1      11.229   0.544  18.186  1.00  0.00     0.256 S 
HETATM   31  O5  UNL     1      11.145  -0.522  19.261  1.00  0.00    -0.572 OA
HETATM   32  O6  UNL     1      10.399   0.087  17.000  1.00  0.00    -0.572 OA
HETATM   33  O7  UNL     1      10.626   2.007  18.755  1.00  0.00    -0.572 OA
ENDBRANCH  29  30
ENDBRANCH  18  29
TORSDOF 6
ENDMDL
MODEL 4
REMARK VINA RESULT: -8.610239151      1.687      2.394
REMARK  6 active torsions:
REMARK  status: ('A' for Active; 'I' for Inactive)
REMARK    1  A    between atoms: N2_4  and  O1_6 
REMARK    2  A    between atoms: O1_6  and  C1_7 
REMARK    3  A    between atoms: C1_7  and  C2_8 
REMARK    4  A    between atoms: C2_8  and  N3_9 
REMARK    5  A    between atoms: C10_26  and  O4_27 
REMARK    6  A    between atoms: O4_27  and  S1_28 
ROOT
HETATM    1  N3  UNL     1      14.282   4.533  23.570  1.00  0.00    -0.375 N 
ATOM      2  H3  UNL     1      13.758   4.393  22.707  1.00  0.00     0.160 HD
HETATM    3  C3  UNL     1      15.565   4.430  23.550  1.00  0.00     0.124 C 
HETATM    4  N4  UNL     1      16.309   4.625  24.764  1.00  0.00    -0.295 N 
ATOM      5  H4  UNL     1      15.860   4.485  25.669  1.00  0.00     0.172 HD
HETATM    6  C4  UNL     1      17.674   5.017  24.693  1.00  0.00     0.328 C 
HETATM    7  O2  UNL     1      18.329   5.189  25.769  1.00  0.00    -0.247 OA
HETATM    8  N5  UNL     1      18.299   5.213  23.431  1.00  0.00    -0.276 N 
ATOM      9  H5  UNL     1      19.277   5.494  23.364  1.00  0.00     0.173 HD
HETATM   10  C5  UNL     1      17.514   5.006  22.265  1.00  0.00     0.266 C 
HETATM   11  O3  UNL     1      17.827   5.585  21.169  1.00  0.00    -0.269 OA
HETATM   12  C6  UNL     1      16.347   4.119  22.348  1.00  0.00     0.201 A 
HETATM   13  N6  UNL     1      16.760   2.735  22.245  1.00  0.00    -0.362 N 
ATOM     14  H6  UNL     1      17.343   2.100  22.790  1.00  0.00     0.161 HD
HETATM   15  C7  UNL     1      15.993   2.651  21.047  1.00  0.00     0.039 A 
HETATM   16  C8  UNL     1      15.584   1.834  20.003  1.00  0.00     0.032 A 
HETATM   17  C9  UNL     1      14.757   2.341  19.023  1.00  0.00     0.040 A 
HETATM   18  C10 UNL     1      14.358   3.659  19.113  1.00  0.00     0.092 A 
HETATM   19  C11 UNL     1      14.752   4.474  20.133  1.00  0.00     0.051 A 
HETATM   20  C12 UNL     1      15.572   3.963  21.099  1.00  0.00     0.016 A 
ENDROOT
BRANCH   1  21
HETATM   21  C2  UNL     1      13.571   4.842  24.787  1.00  0.00     0.150 C 
BRANCH  21  22
HETATM   22  C1  UNL     1      12.259   5.505  24.431  1.00  0.00     0.222 C 
BRANCH  22  23
HETATM   23  O1  UNL     1      11.812   5.142  23.145  1.00  0.00    -0.264 OA
BRANCH  23  24
HETATM   24  N2  UNL     1      10.480   5.090  22.899  1.00  0.00    -0.214 N 
HETATM   25  N1  UNL     1      10.109   4.753  21.723  1.00  0.00    -0.326 N 
ATOM     26  H12 UNL     1      10.802   4.534  21.008  1.00  0.00     0.178 HD
ATOM     27  H11 UNL     1       9.106   4.714  21.538  1.00  0.00     0.178 HD
ATOM     28  H2  UNL     1       9.799   5.312  23.625  1.00  0.00     0.215 HD
ENDBRANCH  23  24
ENDBRANCH  22  23
ENDBRANCH  21  22
ENDBRANCH   1  21
BRANCH  18  29
HETATM   29  O4  UNL     1      13.514   4.133  18.090  1.00  0.00    -0.214 OA
BRANCH  29  30
HETATM   30  S1  UNL     1      11.947   4.717  18.435  1.00  0.00     0.256 S 
HETATM   31  O5  UNL     1      12.012   5.664  19.619  1.00  0.00    -0.572 OA
HETATM   32  O6  UNL     1      11.018   3.571  18.795  1.00  0.00    -0.572 OA
HETATM   33  O7  UNL     1      11.351   5.509  17.077  1.00  0.00    -0.572 OA
ENDBRANCH  29  30
ENDBRANCH  18  29
TORSDOF 6
ENDMDL
MODEL 5
REMARK VINA RESULT: -8.579524553      1.633      2.109
REMARK  6 active torsions:
REMARK  status: ('A' for Active; 'I' for Inactive)
REMARK    1  A    between atoms: N2_4  and  O1_6 
REMARK    2  A    between atoms: O1_6  and  C1_7 
REMARK    3  A    between atoms: C1_7  and  C2_8 
REMARK    4  A    between atoms: C2_8  and  N3_9 
REMARK    5  A    between atoms: C10_26  and  O4_27 
REMARK    6  A    between atoms: O4_27  and  S1_28 
ROOT
HETATM    1  N3  UNL     1      14.612   3.437  22.679  1.00  0.00    -0.375 N 
ATOM      2  H3  UNL     1      13.866   2.850  22.305  1.00  0.00     0.160 HD
HETATM    3  C3  UNL     1      15.742   3.485  22.066  1.00  0.00     0.124 C 
HETATM    4  N4  UNL     1      16.796   4.310  22.590  1.00  0.00    -0.295 N 
ATOM      5  H4  UNL     1      16.809   4.558  23.579  1.00  0.00     0.172 HD
HETATM    6  C4  UNL     1      17.819   4.777  21.719  1.00  0.00     0.328 C 
HETATM    7  O2  UNL     1      18.748   5.506  22.186  1.00  0.00    -0.247 OA
HETATM    8  N5  UNL     1      17.798   4.430  20.340  1.00  0.00    -0.276 N 
ATOM      9  H5  UNL     1      18.525   4.757  19.703  1.00  0.00     0.173 HD
HETATM   10  C5  UNL     1      16.732   3.612  19.879  1.00  0.00     0.266 C 
HETATM   11  O3  UNL     1      16.386   3.643  18.648  1.00  0.00    -0.269 OA
HETATM   12  C6  UNL     1      16.045   2.739  20.839  1.00  0.00     0.201 A 
HETATM   13  N6  UNL     1      16.808   1.526  21.049  1.00  0.00    -0.362 N 
ATOM     14  H6  UNL     1      17.728   1.292  21.420  1.00  0.00     0.161 HD
HETATM   15  C7  UNL     1      15.704   0.804  20.509  1.00  0.00     0.039 A 
HETATM   16  C8  UNL     1      15.206  -0.448  20.177  1.00  0.00     0.032 A 
HETATM   17  C9  UNL     1      13.946  -0.557  19.627  1.00  0.00     0.040 A 
HETATM   18  C10 UNL     1      13.213   0.594  19.424  1.00  0.00     0.092 A 
HETATM   19  C11 UNL     1      13.688   1.830  19.745  1.00  0.00     0.051 A 
HETATM   20  C12 UNL     1      14.938   1.929  20.289  1.00  0.00     0.016 A 
ENDROOT
BRANCH   1  21
HETATM   21  C2  UNL     1      14.376   4.195  23.884  1.00  0.00     0.150 C 
BRANCH  21  22
HETATM   22  C1  UNL     1      13.165   3.627  24.590  1.00  0.00     0.222 C 
BRANCH  22  23
HETATM   23  O1  UNL     1      11.985   3.790  23.836  1.00  0.00    -0.264 OA
BRANCH  23  24
HETATM   24  N2  UNL     1      11.388   5.007  23.801  1.00  0.00    -0.214 N 
HETATM   25  N1  UNL     1      10.405   5.159  22.998  1.00  0.00    -0.326 N 
ATOM     26  H12 UNL     1      10.095   4.385  22.412  1.00  0.00     0.178 HD
ATOM     27  H11 UNL     1       9.955   6.074  22.972  1.00  0.00     0.178 HD
ATOM     28  H2  UNL     1      11.710   5.772  24.393  1.00  0.00     0.215 HD
ENDBRANCH  23  24
ENDBRANCH  22  23
ENDBRANCH  21  22
ENDBRANCH   1  21
BRANCH  18  29
HETATM   29  O4  UNL     1      11.932   0.433  18.861  1.00  0.00    -0.214 OA
BRANCH  29  30
HETATM   30  S1  UNL     1      11.732  -0.102  17.252  1.00  0.00     0.256 S 
HETATM   31  O5  UNL     1      10.339   0.258  16.772  1.00  0.00    -0.572 OA
HETATM   32  O6  UNL     1      11.888  -1.610  17.168  1.00  0.00    -0.572 OA
HETATM   33  O7  UNL     1      12.897   0.631  16.287  1.00  0.00    -0.572 OA
ENDBRANCH  29  30
ENDBRANCH  18  29
TORSDOF 6
ENDMDL
