MODEL 1
REMARK VINA RESULT: -5.955589513      0.000      0.000
REMARK  3 active torsions:
REMARK  status: ('A' for Active; 'I' for Inactive)
REMARK    1  A    between atoms: C2_2  and  N1_5 
REMARK    2  A    between atoms: N1_5  and  C5_7 
REMARK    3  A    between atoms: C5_7  and  N2_9 
REMARK       I    between atoms: N3_12  and  C8_13 
ROOT
HETATM    1  N2  UNL     1      45.479 131.206  17.026  1.00  0.00    -0.278 N 
HETATM    2  C6  UNL     1      46.306 130.021  17.099  1.00  0.00     0.162 C 
HETATM    3  C7  UNL     1      46.333 129.432  15.705  1.00  0.00     0.164 C 
HETATM    4  N3  UNL     1      46.763 130.499  14.801  1.00  0.00    -0.256 N 
HETATM    5  C8  UNL     1      47.619 130.425  13.698  1.00  0.00     0.342 C 
HETATM    6  N4  UNL     1      48.191 129.187  13.343  1.00  0.00    -0.039 NA
HETATM    7  O1  UNL     1      47.875 131.454  13.034  1.00  0.00    -0.250 OA
HETATM    8  S2  UNL     1      45.907 131.923  15.469  1.00  0.00     0.077 SA
ENDROOT
BRANCH   1   9
HETATM    9  C5  UNL     1      44.544 131.698  17.961  1.00  0.00     0.181 C 
HETATM   10  S1  UNL     1      42.961 131.575  17.588  1.00  0.00    -0.040 SA
BRANCH   9  11
HETATM   11  N1  UNL     1      45.011 132.268  19.163  1.00  0.00    -0.358 N 
ATOM     12  H1  UNL     1      45.347 133.231  19.141  1.00  0.00     0.162 HD
BRANCH  11  13
HETATM   13  C2  UNL     1      45.041 131.565  20.426  1.00  0.00     0.021 C 
HETATM   14  C1  UNL     1      45.608 130.176  20.297  1.00  0.00     0.037 C 
HETATM   15  C3  UNL     1      43.677 131.462  21.040  1.00  0.00     0.037 C 
HETATM   16  C4  UNL     1      45.966 132.341  21.350  1.00  0.00     0.037 C 
ENDBRANCH  11  13
ENDBRANCH   9  11
ENDBRANCH   1   9
TORSDOF 3
ENDMDL
MODEL 2
REMARK VINA RESULT: -5.934328286      2.061      2.651
REMARK  3 active torsions:
REMARK  status: ('A' for Active; 'I' for Inactive)
REMARK    1  A    between atoms: C2_2  and  N1_5 
REMARK    2  A    between atoms: N1_5  and  C5_7 
REMARK    3  A    between atoms: C5_7  and  N2_9 
REMARK       I    between atoms: N3_12  and  C8_13 
ROOT
HETATM    1  N2  UNL     1      45.268 131.211  17.682  1.00  0.00    -0.278 N 
HETATM    2  C6  UNL     1      44.786 131.946  16.532  1.00  0.00     0.162 C 
HETATM    3  C7  UNL     1      45.966 132.095  15.595  1.00  0.00     0.164 C 
HETATM    4  N3  UNL     1      46.495 130.751  15.361  1.00  0.00    -0.256 N 
HETATM    5  C8  UNL     1      46.983 130.192  14.176  1.00  0.00     0.342 C 
HETATM    6  N4  UNL     1      47.001 130.965  12.998  1.00  0.00    -0.039 NA
HETATM    7  O1  UNL     1      47.400 129.012  14.165  1.00  0.00    -0.250 OA
HETATM    8  S2  UNL     1      46.358 130.007  16.984  1.00  0.00     0.077 SA
ENDROOT
BRANCH   1   9
HETATM    9  C5  UNL     1      44.958 131.389  19.046  1.00  0.00     0.181 C 
HETATM   10  S1  UNL     1      45.739 130.452  20.129  1.00  0.00    -0.040 SA
BRANCH   9  11
HETATM   11  N1  UNL     1      43.999 132.356  19.411  1.00  0.00    -0.358 N 
ATOM     12  H1  UNL     1      44.243 133.340  19.301  1.00  0.00     0.162 HD
BRANCH  11  13
HETATM   13  C2  UNL     1      42.690 132.031  19.932  1.00  0.00     0.021 C 
HETATM   14  C1  UNL     1      41.894 133.259  20.289  1.00  0.00     0.037 C 
HETATM   15  C3  UNL     1      42.775 131.155  21.146  1.00  0.00     0.037 C 
HETATM   16  C4  UNL     1      41.932 131.313  18.827  1.00  0.00     0.037 C 
ENDBRANCH  11  13
ENDBRANCH   9  11
ENDBRANCH   1   9
TORSDOF 3
ENDMDL
MODEL 3
REMARK VINA RESULT: -5.730435658      1.471      1.572
REMARK  3 active torsions:
REMARK  status: ('A' for Active; 'I' for Inactive)
REMARK    1  A    between atoms: C2_2  and  N1_5 
REMARK    2  A    between atoms: N1_5  and  C5_7 
REMARK    3  A    between atoms: C5_7  and  N2_9 
REMARK       I    between atoms: N3_12  and  C8_13 
ROOT
HETATM    1  N2  UNL     1      44.580 131.398  17.208  1.00  0.00    -0.278 N 
HETATM    2  C6  UNL     1      44.116 131.690  15.868  1.00  0.00     0.162 C 
HETATM    3  C7  UNL     1      45.350 131.987  15.043  1.00  0.00     0.164 C 
HETATM    4  N3  UNL     1      46.255 130.849  15.208  1.00  0.00    -0.256 N 
HETATM    5  C8  UNL     1      47.067 130.226  14.256  1.00  0.00     0.342 C 
HETATM    6  N4  UNL     1      47.070 130.698  12.928  1.00  0.00    -0.039 NA
HETATM    7  O1  UNL     1      47.783 129.254  14.584  1.00  0.00    -0.250 OA
HETATM    8  S2  UNL     1      46.056 130.462  16.946  1.00  0.00     0.077 SA
ENDROOT
BRANCH   1   9
HETATM    9  C5  UNL     1      44.011 131.760  18.446  1.00  0.00     0.181 C 
HETATM   10  S1  UNL     1      42.399 131.585  18.620  1.00  0.00    -0.040 SA
BRANCH   9  11
HETATM   11  N1  UNL     1      44.849 132.251  19.469  1.00  0.00    -0.358 N 
ATOM     12  H1  UNL     1      45.246 133.184  19.359  1.00  0.00     0.162 HD
BRANCH  11  13
HETATM   13  C2  UNL     1      45.177 131.507  20.664  1.00  0.00     0.021 C 
HETATM   14  C1  UNL     1      45.666 130.116  20.358  1.00  0.00     0.037 C 
HETATM   15  C3  UNL     1      44.005 131.401  21.594  1.00  0.00     0.037 C 
HETATM   16  C4  UNL     1      46.318 132.240  21.351  1.00  0.00     0.037 C 
ENDBRANCH  11  13
ENDBRANCH   9  11
ENDBRANCH   1   9
TORSDOF 3
ENDMDL
MODEL 4
REMARK VINA RESULT: -5.670210303      3.223      6.338
REMARK  3 active torsions:
REMARK  status: ('A' for Active; 'I' for Inactive)
REMARK    1  A    between atoms: C2_2  and  N1_5 
REMARK    2  A    between atoms: N1_5  and  C5_7 
REMARK    3  A    between atoms: C5_7  and  N2_9 
REMARK       I    between atoms: N3_12  and  C8_13 
ROOT
HETATM    1  N2  UNL     1      44.734 131.203  18.134  1.00  0.00    -0.278 N 
HETATM    2  C6  UNL     1      45.599 130.577  19.112  1.00  0.00     0.162 C 
HETATM    3  C7  UNL     1      45.556 131.456  20.344  1.00  0.00     0.164 C 
HETATM    4  N3  UNL     1      44.146 131.621  20.700  1.00  0.00    -0.256 N 
HETATM    5  C8  UNL     1      43.555 131.641  21.966  1.00  0.00     0.342 C 
HETATM    6  N4  UNL     1      44.360 131.484  23.112  1.00  0.00    -0.039 NA
HETATM    7  O1  UNL     1      42.318 131.795  22.078  1.00  0.00    -0.250 OA
HETATM    8  S2  UNL     1      43.373 131.795  19.093  1.00  0.00     0.077 SA
ENDROOT
BRANCH   1   9
HETATM    9  C5  UNL     1      44.910 131.325  16.740  1.00  0.00     0.181 C 
HETATM   10  S1  UNL     1      43.628 131.807  15.854  1.00  0.00    -0.040 SA
BRANCH   9  11
HETATM   11  N1  UNL     1      46.169 131.030  16.179  1.00  0.00    -0.358 N 
ATOM     12  H1  UNL     1      46.998 131.432  16.617  1.00  0.00     0.162 HD
BRANCH  11  13
HETATM   13  C2  UNL     1      46.353 130.190  15.017  1.00  0.00     0.021 C 
HETATM   14  C1  UNL     1      47.732 129.587  14.957  1.00  0.00     0.037 C 
HETATM   15  C3  UNL     1      46.111 130.940  13.742  1.00  0.00     0.037 C 
HETATM   16  C4  UNL     1      45.368 129.038  15.135  1.00  0.00     0.037 C 
ENDBRANCH  11  13
ENDBRANCH   9  11
ENDBRANCH   1   9
TORSDOF 3
ENDMDL
MODEL 5
REMARK VINA RESULT: -5.593906238      1.048      1.435
REMARK  3 active torsions:
REMARK  status: ('A' for Active; 'I' for Inactive)
REMARK    1  A    between atoms: C2_2  and  N1_5 
REMARK    2  A    between atoms: N1_5  and  C5_7 
REMARK    3  A    between atoms: C5_7  and  N2_9 
REMARK       I    between atoms: N3_12  and  C8_13 
ROOT
HETATM    1  N2  UNL     1      45.037 131.320  17.866  1.00  0.00    -0.278 N 
HETATM    2  C6  UNL     1      45.945 130.193  17.901  1.00  0.00     0.162 C 
HETATM    3  C7  UNL     1      45.893 129.561  16.527  1.00  0.00     0.164 C 
HETATM    4  N3  UNL     1      46.175 130.622  15.560  1.00  0.00    -0.256 N 
HETATM    5  C8  UNL     1      46.939 130.566  14.391  1.00  0.00     0.342 C 
HETATM    6  N4  UNL     1      47.560 129.356  14.022  1.00  0.00    -0.039 NA
HETATM    7  O1  UNL     1      47.070 131.587  13.679  1.00  0.00    -0.250 OA
HETATM    8  S2  UNL     1      45.286 132.011  16.259  1.00  0.00     0.077 SA
ENDROOT
BRANCH   1   9
HETATM    9  C5  UNL     1      44.153 131.783  18.863  1.00  0.00     0.181 C 
HETATM   10  S1  UNL     1      42.582 131.956  18.463  1.00  0.00    -0.040 SA
BRANCH   9  11
HETATM   11  N1  UNL     1      44.659 132.072  20.148  1.00  0.00    -0.358 N 
ATOM     12  H1  UNL     1      45.244 132.901  20.259  1.00  0.00     0.162 HD
BRANCH  11  13
HETATM   13  C2  UNL     1      44.396 131.262  21.315  1.00  0.00     0.021 C 
HETATM   14  C1  UNL     1      42.947 130.870  21.428  1.00  0.00     0.037 C 
HETATM   15  C3  UNL     1      44.795 131.961  22.581  1.00  0.00     0.037 C 
HETATM   16  C4  UNL     1      45.195 129.978  21.160  1.00  0.00     0.037 C 
ENDBRANCH  11  13
ENDBRANCH   9  11
ENDBRANCH   1   9
TORSDOF 3
ENDMDL
