MODEL 1
REMARK VINA RESULT: -6.915631562      0.000      0.000
REMARK  13 active torsions:
REMARK  status: ('A' for Active; 'I' for Inactive)
REMARK    1  A    between atoms: C1_2  and  O2_4 
REMARK    2  A    between atoms: O2_4  and  C2_5 
REMARK    3  A    between atoms: C2_5  and  C3_6 
REMARK    4  A    between atoms: C3_6  and  N2_7 
REMARK    5  A    between atoms: C3_6  and  C4_11 
REMARK       I    between atoms: C4_11  and  N3_13 
REMARK    6  A    between atoms: N3_13  and  C5_15 
REMARK    7  A    between atoms: C5_15  and  O4_16 
REMARK    8  A    between atoms: C6_18  and  O5_19 
REMARK    9  A    between atoms: C6_18  and  C7_21 
REMARK   10  A    between atoms: C8_25  and  O6_26 
REMARK   11  A    between atoms: C9_28  and  N5_29 
REMARK   12  A    between atoms: N6_34  and  N7_35 
REMARK   13  A    between atoms: C14_41  and  C15_42 
ROOT
HETATM    1  C7  UNL     1     -13.699  70.441  27.281  1.00  0.00     0.287 C 
HETATM    2  N4  UNL     1     -12.346  69.925  27.239  1.00  0.00    -0.031 N 
ATOM      3  H41 UNL     1     -12.355  68.926  27.037  1.00  0.00     0.281 HD
ATOM      4  H42 UNL     1     -11.944  69.912  28.177  1.00  0.00     0.281 HD
HETATM    5  C8  UNL     1     -11.478  70.603  26.342  1.00  0.00     0.369 C 
HETATM    6  C9  UNL     1     -12.273  71.619  25.574  1.00  0.00     0.289 C 
HETATM    7  O9  UNL     1     -12.792  72.507  26.471  1.00  0.00    -0.345 OA
HETATM    8  C14 UNL     1     -13.849  71.879  27.205  1.00  0.00     0.250 C 
ENDROOT
BRANCH   1   9
HETATM    9  C6  UNL     1     -14.350  69.683  28.432  1.00  0.00     0.128 C 
HETATM   10  C5  UNL     1     -15.781  69.632  28.377  1.00  0.00     0.174 C 
BRANCH  10  11
HETATM   11  N3  UNL     1     -16.687  69.553  29.413  1.00  0.00    -0.304 N 
HETATM   12  C4  UNL     1     -16.723  70.104  30.704  1.00  0.00     0.256 C 
HETATM   13  O3  UNL     1     -15.890  70.854  31.257  1.00  0.00    -0.271 OA
ATOM     14  H3  UNL     1     -17.498  68.975  29.198  1.00  0.00     0.171 HD
BRANCH  12  15
HETATM   15  C3  UNL     1     -17.903  69.807  31.640  1.00  0.00     0.299 C 
BRANCH  15  16
HETATM   16  C2  UNL     1     -18.948  70.853  31.472  1.00  0.00     0.222 C 
BRANCH  16  17
HETATM   17  O2  UNL     1     -18.826  72.034  32.149  1.00  0.00    -0.304 OA
BRANCH  17  18
HETATM   18  C1  UNL     1     -18.559  73.295  31.733  1.00  0.00     0.372 C 
HETATM   19  N1  UNL     1     -17.269  73.859  31.981  1.00  0.00    -0.032 NA
HETATM   20  O1  UNL     1     -19.437  73.950  31.138  1.00  0.00    -0.242 OA
ENDBRANCH  17  18
ENDBRANCH  16  17
ENDBRANCH  15  16
BRANCH  15  21
HETATM   21  N2  UNL     1     -18.279  68.457  31.489  1.00  0.00    -0.064 N 
ATOM     22  H23 UNL     1     -18.615  68.102  32.385  1.00  0.00     0.275 HD
ATOM     23  H22 UNL     1     -19.129  68.410  30.928  1.00  0.00     0.275 HD
ATOM     24  H21 UNL     1     -17.594  67.805  31.109  1.00  0.00     0.275 HD
ENDBRANCH  15  21
ENDBRANCH  12  15
ENDBRANCH  10  11
BRANCH  10  25
HETATM   25  O4  UNL     1     -16.317  69.663  27.183  1.00  0.00    -0.344 OA
ATOM     26  H4  UNL     1     -16.113  68.912  26.637  1.00  0.00     0.219 HD
ENDBRANCH  10  25
BRANCH   9  27
HETATM   27  O5  UNL     1     -13.694  69.848  29.610  1.00  0.00    -0.359 OA
ATOM     28  H5  UNL     1     -13.321  69.110  30.076  1.00  0.00     0.217 HD
ENDBRANCH   9  27
ENDBRANCH   1   9
BRANCH   8  29
HETATM   29  C15 UNL     1     -13.973  72.683  28.423  1.00  0.00     0.262 C 
HETATM   30  N8  UNL     1     -15.120  73.470  28.728  1.00  0.00    -0.060 NA
HETATM   31  O10 UNL     1     -13.059  72.718  29.267  1.00  0.00    -0.274 OA
ENDBRANCH   8  29
BRANCH   5  32
HETATM   32  O6  UNL     1     -10.453  71.177  27.092  1.00  0.00    -0.366 OA
ATOM     33  H6  UNL     1     -10.808  71.941  27.532  1.00  0.00     0.212 HD
ENDBRANCH   5  32
BRANCH   6  34
HETATM   34  N5  UNL     1     -11.529  72.230  24.500  1.00  0.00    -0.276 N 
HETATM   35  C10 UNL     1     -11.093  73.493  24.645  1.00  0.00     0.104 A 
HETATM   36  C11 UNL     1     -10.378  74.100  23.633  1.00  0.00     0.094 A 
HETATM   37  C12 UNL     1     -10.134  73.375  22.484  1.00  0.00     0.271 A 
HETATM   38  O7  UNL     1      -9.474  73.937  21.551  1.00  0.00    -0.266 OA
HETATM   39  N6  UNL     1     -10.569  72.110  22.336  1.00  0.00    -0.175 N 
HETATM   40  C13 UNL     1     -11.267  71.560  23.361  1.00  0.00     0.352 A 
HETATM   41  O8  UNL     1     -11.679  70.376  23.233  1.00  0.00    -0.244 OA
BRANCH  39  42
HETATM   42  N7  UNL     1     -10.304  71.401  21.162  1.00  0.00    -0.332 N 
ATOM     43  H72 UNL     1     -10.007  71.870  20.306  1.00  0.00     0.177 HD
ATOM     44  H71 UNL     1     -10.403  70.387  21.135  1.00  0.00     0.177 HD
ENDBRANCH  39  42
ENDBRANCH   6  34
TORSDOF 13
ENDMDL
MODEL 2
REMARK VINA RESULT: -6.887770628      1.892      2.217
REMARK  13 active torsions:
REMARK  status: ('A' for Active; 'I' for Inactive)
REMARK    1  A    between atoms: C1_2  and  O2_4 
REMARK    2  A    between atoms: O2_4  and  C2_5 
REMARK    3  A    between atoms: C2_5  and  C3_6 
REMARK    4  A    between atoms: C3_6  and  N2_7 
REMARK    5  A    between atoms: C3_6  and  C4_11 
REMARK       I    between atoms: C4_11  and  N3_13 
REMARK    6  A    between atoms: N3_13  and  C5_15 
REMARK    7  A    between atoms: C5_15  and  O4_16 
REMARK    8  A    between atoms: C6_18  and  O5_19 
REMARK    9  A    between atoms: C6_18  and  C7_21 
REMARK   10  A    between atoms: C8_25  and  O6_26 
REMARK   11  A    between atoms: C9_28  and  N5_29 
REMARK   12  A    between atoms: N6_34  and  N7_35 
REMARK   13  A    between atoms: C14_41  and  C15_42 
ROOT
HETATM    1  C7  UNL     1     -14.806  71.698  27.502  1.00  0.00     0.287 C 
HETATM    2  N4  UNL     1     -13.449  71.390  27.905  1.00  0.00    -0.031 N 
ATOM      3  H41 UNL     1     -13.317  70.380  27.963  1.00  0.00     0.281 HD
ATOM      4  H42 UNL     1     -13.305  71.643  28.883  1.00  0.00     0.281 HD
HETATM    5  C8  UNL     1     -12.440  71.973  27.093  1.00  0.00     0.369 C 
HETATM    6  C9  UNL     1     -13.093  72.667  25.933  1.00  0.00     0.289 C 
HETATM    7  O9  UNL     1     -13.903  73.645  26.434  1.00  0.00    -0.345 OA
HETATM    8  C14 UNL     1     -15.055  73.045  27.036  1.00  0.00     0.250 C 
ENDROOT
BRANCH   1   9
HETATM    9  C6  UNL     1     -15.665  71.125  28.623  1.00  0.00     0.128 C 
HETATM   10  C5  UNL     1     -17.070  71.103  28.343  1.00  0.00     0.174 C 
BRANCH  10  11
HETATM   11  N3  UNL     1     -18.130  71.193  29.220  1.00  0.00    -0.304 N 
HETATM   12  C4  UNL     1     -19.453  71.646  29.089  1.00  0.00     0.256 C 
HETATM   13  O3  UNL     1     -20.025  72.101  28.075  1.00  0.00    -0.271 OA
ATOM     14  H3  UNL     1     -17.908  70.861  30.158  1.00  0.00     0.171 HD
BRANCH  12  15
HETATM   15  C3  UNL     1     -20.404  71.619  30.293  1.00  0.00     0.299 C 
BRANCH  15  16
HETATM   16  C2  UNL     1     -19.980  72.644  31.286  1.00  0.00     0.222 C 
BRANCH  16  17
HETATM   17  O2  UNL     1     -19.121  73.633  30.898  1.00  0.00    -0.304 OA
BRANCH  17  18
HETATM   18  C1  UNL     1     -17.839  73.907  31.239  1.00  0.00     0.372 C 
HETATM   19  N1  UNL     1     -17.000  72.857  31.727  1.00  0.00    -0.032 NA
HETATM   20  O1  UNL     1     -17.403  75.070  31.125  1.00  0.00    -0.242 OA
ENDBRANCH  17  18
ENDBRANCH  16  17
ENDBRANCH  15  16
BRANCH  15  21
HETATM   21  N2  UNL     1     -21.734  71.652  29.828  1.00  0.00    -0.064 N 
ATOM     22  H23 UNL     1     -22.244  72.380  30.328  1.00  0.00     0.275 HD
ATOM     23  H22 UNL     1     -21.745  72.022  28.878  1.00  0.00     0.275 HD
ATOM     24  H21 UNL     1     -22.276  70.788  29.854  1.00  0.00     0.275 HD
ENDBRANCH  15  21
ENDBRANCH  12  15
ENDBRANCH  10  11
BRANCH  10  25
HETATM   25  O4  UNL     1     -17.410  70.980  27.086  1.00  0.00    -0.344 OA
ATOM     26  H4  UNL     1     -17.460  70.084  26.774  1.00  0.00     0.219 HD
ENDBRANCH  10  25
BRANCH   9  27
HETATM   27  O5  UNL     1     -15.195  71.436  29.859  1.00  0.00    -0.359 OA
ATOM     28  H5  UNL     1     -14.803  72.282  30.040  1.00  0.00     0.217 HD
ENDBRANCH   9  27
ENDBRANCH   1   9
BRANCH   8  29
HETATM   29  C15 UNL     1     -15.562  74.071  27.951  1.00  0.00     0.262 C 
HETATM   30  N8  UNL     1     -16.695  74.885  27.665  1.00  0.00    -0.060 NA
HETATM   31  O10 UNL     1     -15.011  74.285  29.046  1.00  0.00    -0.274 OA
ENDBRANCH   8  29
BRANCH   5  32
HETATM   32  O6  UNL     1     -11.699  72.843  27.892  1.00  0.00    -0.366 OA
ATOM     33  H6  UNL     1     -12.296  73.494  28.243  1.00  0.00     0.212 HD
ENDBRANCH   5  32
BRANCH   6  34
HETATM   34  N5  UNL     1     -12.152  73.129  24.942  1.00  0.00    -0.276 N 
HETATM   35  C10 UNL     1     -11.731  74.404  24.989  1.00  0.00     0.104 A 
HETATM   36  C11 UNL     1     -10.829  74.871  24.053  1.00  0.00     0.094 A 
HETATM   37  C12 UNL     1     -10.385  73.994  23.084  1.00  0.00     0.271 A 
HETATM   38  O7  UNL     1      -9.553  74.426  22.222  1.00  0.00    -0.266 OA
HETATM   39  N6  UNL     1     -10.805  72.716  23.036  1.00  0.00    -0.175 N 
HETATM   40  C13 UNL     1     -11.691  72.308  23.979  1.00  0.00     0.352 A 
HETATM   41  O8  UNL     1     -12.091  71.114  23.943  1.00  0.00    -0.244 OA
BRANCH  39  42
HETATM   42  N7  UNL     1     -10.337  71.852  22.043  1.00  0.00    -0.332 N 
ATOM     43  H72 UNL     1     -10.093  70.883  22.246  1.00  0.00     0.177 HD
ATOM     44  H71 UNL     1     -10.228  72.177  21.083  1.00  0.00     0.177 HD
ENDBRANCH  39  42
ENDBRANCH   6  34
TORSDOF 13
ENDMDL
MODEL 3
REMARK VINA RESULT: -6.805216789      2.113      2.682
REMARK  13 active torsions:
REMARK  status: ('A' for Active; 'I' for Inactive)
REMARK    1  A    between atoms: C1_2  and  O2_4 
REMARK    2  A    between atoms: O2_4  and  C2_5 
REMARK    3  A    between atoms: C2_5  and  C3_6 
REMARK    4  A    between atoms: C3_6  and  N2_7 
REMARK    5  A    between atoms: C3_6  and  C4_11 
REMARK       I    between atoms: C4_11  and  N3_13 
REMARK    6  A    between atoms: N3_13  and  C5_15 
REMARK    7  A    between atoms: C5_15  and  O4_16 
REMARK    8  A    between atoms: C6_18  and  O5_19 
REMARK    9  A    between atoms: C6_18  and  C7_21 
REMARK   10  A    between atoms: C8_25  and  O6_26 
REMARK   11  A    between atoms: C9_28  and  N5_29 
REMARK   12  A    between atoms: N6_34  and  N7_35 
REMARK   13  A    between atoms: C14_41  and  C15_42 
ROOT
HETATM    1  C7  UNL     1     -14.768  71.630  27.510  1.00  0.00     0.287 C 
HETATM    2  N4  UNL     1     -13.414  71.366  27.953  1.00  0.00    -0.031 N 
ATOM      3  H41 UNL     1     -13.267  70.362  28.060  1.00  0.00     0.281 HD
ATOM      4  H42 UNL     1     -13.294  71.665  28.921  1.00  0.00     0.281 HD
HETATM    5  C8  UNL     1     -12.400  71.929  27.134  1.00  0.00     0.369 C 
HETATM    6  C9  UNL     1     -13.042  72.557  25.931  1.00  0.00     0.289 C 
HETATM    7  O9  UNL     1     -13.878  73.542  26.372  1.00  0.00    -0.345 OA
HETATM    8  C14 UNL     1     -15.032  72.949  26.978  1.00  0.00     0.250 C 
ENDROOT
BRANCH   1   9
HETATM    9  C6  UNL     1     -15.639  71.093  28.641  1.00  0.00     0.128 C 
HETATM   10  C5  UNL     1     -17.044  71.084  28.356  1.00  0.00     0.174 C 
BRANCH  10  11
HETATM   11  N3  UNL     1     -18.106  71.207  29.226  1.00  0.00    -0.304 N 
HETATM   12  C4  UNL     1     -19.421  71.677  29.080  1.00  0.00     0.256 C 
HETATM   13  O3  UNL     1     -19.982  72.120  28.055  1.00  0.00    -0.271 OA
ATOM     14  H3  UNL     1     -17.893  70.891  30.171  1.00  0.00     0.171 HD
BRANCH  12  15
HETATM   15  C3  UNL     1     -20.377  71.689  30.280  1.00  0.00     0.299 C 
BRANCH  15  16
HETATM   16  C2  UNL     1     -19.920  72.700  31.272  1.00  0.00     0.222 C 
BRANCH  16  17
HETATM   17  O2  UNL     1     -19.050  73.677  30.876  1.00  0.00    -0.304 OA
BRANCH  17  18
HETATM   18  C1  UNL     1     -17.767  73.944  31.219  1.00  0.00     0.372 C 
HETATM   19  N1  UNL     1     -16.946  72.897  31.743  1.00  0.00    -0.032 NA
HETATM   20  O1  UNL     1     -17.314  75.097  31.075  1.00  0.00    -0.242 OA
ENDBRANCH  17  18
ENDBRANCH  16  17
ENDBRANCH  15  16
BRANCH  15  21
HETATM   21  N2  UNL     1     -21.703  71.770  29.809  1.00  0.00    -0.064 N 
ATOM     22  H23 UNL     1     -21.921  72.743  29.591  1.00  0.00     0.275 HD
ATOM     23  H22 UNL     1     -21.754  71.346  28.883  1.00  0.00     0.275 HD
ATOM     24  H21 UNL     1     -22.447  71.386  30.392  1.00  0.00     0.275 HD
ENDBRANCH  15  21
ENDBRANCH  12  15
ENDBRANCH  10  11
BRANCH  10  25
HETATM   25  O4  UNL     1     -17.380  70.937  27.100  1.00  0.00    -0.344 OA
ATOM     26  H4  UNL     1     -17.153  71.670  26.540  1.00  0.00     0.219 HD
ENDBRANCH  10  25
BRANCH   9  27
HETATM   27  O5  UNL     1     -15.170  71.426  29.871  1.00  0.00    -0.359 OA
ATOM     28  H5  UNL     1     -15.754  71.719  30.561  1.00  0.00     0.217 HD
ENDBRANCH   9  27
ENDBRANCH   1   9
BRANCH   8  29
HETATM   29  C15 UNL     1     -15.574  74.007  27.836  1.00  0.00     0.262 C 
HETATM   30  N8  UNL     1     -16.740  74.757  27.512  1.00  0.00    -0.060 NA
HETATM   31  O10 UNL     1     -15.025  74.307  28.912  1.00  0.00    -0.274 OA
ENDBRANCH   8  29
BRANCH   5  32
HETATM   32  O6  UNL     1     -11.690  72.848  27.905  1.00  0.00    -0.366 OA
ATOM     33  H6  UNL     1     -11.032  73.248  27.349  1.00  0.00     0.212 HD
ENDBRANCH   5  32
BRANCH   6  34
HETATM   34  N5  UNL     1     -12.090  72.990  24.938  1.00  0.00    -0.276 N 
HETATM   35  C10 UNL     1     -11.634  72.099  24.040  1.00  0.00     0.104 A 
HETATM   36  C11 UNL     1     -10.723  72.489  23.079  1.00  0.00     0.094 A 
HETATM   37  C12 UNL     1     -10.303  73.803  23.076  1.00  0.00     0.271 A 
HETATM   38  O7  UNL     1      -9.463  74.160  22.188  1.00  0.00    -0.266 OA
HETATM   39  N6  UNL     1     -10.758  74.697  23.973  1.00  0.00    -0.175 N 
HETATM   40  C13 UNL     1     -11.653  74.263  24.897  1.00  0.00     0.352 A 
HETATM   41  O8  UNL     1     -12.085  75.091  25.742  1.00  0.00    -0.244 OA
BRANCH  39  42
HETATM   42  N7  UNL     1     -10.315  76.021  23.944  1.00  0.00    -0.332 N 
ATOM     43  H72 UNL     1     -10.922  76.797  24.207  1.00  0.00     0.177 HD
ATOM     44  H71 UNL     1      -9.363  76.243  23.655  1.00  0.00     0.177 HD
ENDBRANCH  39  42
ENDBRANCH   6  34
TORSDOF 13
ENDMDL
MODEL 4
REMARK VINA RESULT: -6.783475286      1.063      1.491
REMARK  13 active torsions:
REMARK  status: ('A' for Active; 'I' for Inactive)
REMARK    1  A    between atoms: C1_2  and  O2_4 
REMARK    2  A    between atoms: O2_4  and  C2_5 
REMARK    3  A    between atoms: C2_5  and  C3_6 
REMARK    4  A    between atoms: C3_6  and  N2_7 
REMARK    5  A    between atoms: C3_6  and  C4_11 
REMARK       I    between atoms: C4_11  and  N3_13 
REMARK    6  A    between atoms: N3_13  and  C5_15 
REMARK    7  A    between atoms: C5_15  and  O4_16 
REMARK    8  A    between atoms: C6_18  and  O5_19 
REMARK    9  A    between atoms: C6_18  and  C7_21 
REMARK   10  A    between atoms: C8_25  and  O6_26 
REMARK   11  A    between atoms: C9_28  and  N5_29 
REMARK   12  A    between atoms: N6_34  and  N7_35 
REMARK   13  A    between atoms: C14_41  and  C15_42 
ROOT
HETATM    1  C7  UNL     1     -13.627  70.101  27.448  1.00  0.00     0.287 C 
HETATM    2  N4  UNL     1     -12.242  69.673  27.435  1.00  0.00    -0.031 N 
ATOM      3  H41 UNL     1     -12.186  68.663  27.303  1.00  0.00     0.281 HD
ATOM      4  H42 UNL     1     -11.839  69.752  28.368  1.00  0.00     0.281 HD
HETATM    5  C8  UNL     1     -11.422  70.340  26.486  1.00  0.00     0.369 C 
HETATM    6  C9  UNL     1     -12.284  71.245  25.653  1.00  0.00     0.289 C 
HETATM    7  O9  UNL     1     -12.858  72.158  26.489  1.00  0.00    -0.345 OA
HETATM    8  C14 UNL     1     -13.870  71.516  27.272  1.00  0.00     0.250 C 
ENDROOT
BRANCH   1   9
HETATM    9  C6  UNL     1     -14.224  69.385  28.654  1.00  0.00     0.128 C 
HETATM   10  C5  UNL     1     -15.569  68.927  28.467  1.00  0.00     0.174 C 
BRANCH  10  11
HETATM   11  N3  UNL     1     -16.568  68.765  29.404  1.00  0.00    -0.304 N 
HETATM   12  C4  UNL     1     -17.968  68.705  29.318  1.00  0.00     0.256 C 
HETATM   13  O3  UNL     1     -18.692  68.785  28.302  1.00  0.00    -0.271 OA
ATOM     14  H3  UNL     1     -16.217  68.667  30.356  1.00  0.00     0.171 HD
BRANCH  12  15
HETATM   15  C3  UNL     1     -18.815  68.519  30.585  1.00  0.00     0.299 C 
BRANCH  15  16
HETATM   16  C2  UNL     1     -18.448  69.557  31.586  1.00  0.00     0.222 C 
BRANCH  16  17
HETATM   17  O2  UNL     1     -18.076  70.799  31.155  1.00  0.00    -0.304 OA
BRANCH  17  18
HETATM   18  C1  UNL     1     -17.002  71.574  31.435  1.00  0.00     0.372 C 
HETATM   19  N1  UNL     1     -17.190  72.963  31.721  1.00  0.00    -0.032 NA
HETATM   20  O1  UNL     1     -15.860  71.072  31.443  1.00  0.00    -0.242 OA
ENDBRANCH  17  18
ENDBRANCH  16  17
ENDBRANCH  15  16
BRANCH  15  21
HETATM   21  N2  UNL     1     -20.170  68.398  30.216  1.00  0.00    -0.064 N 
ATOM     22  H23 UNL     1     -20.485  67.447  30.413  1.00  0.00     0.275 HD
ATOM     23  H22 UNL     1     -20.741  68.932  30.870  1.00  0.00     0.275 HD
ATOM     24  H21 UNL     1     -20.435  68.646  29.263  1.00  0.00     0.275 HD
ENDBRANCH  15  21
ENDBRANCH  12  15
ENDBRANCH  10  11
BRANCH  10  25
HETATM   25  O4  UNL     1     -15.911  68.615  27.244  1.00  0.00    -0.344 OA
ATOM     26  H4  UNL     1     -15.251  68.134  26.758  1.00  0.00     0.219 HD
ENDBRANCH  10  25
BRANCH   9  27
HETATM   27  O5  UNL     1     -13.815  69.914  29.837  1.00  0.00    -0.359 OA
ATOM     28  H5  UNL     1     -13.195  70.633  29.869  1.00  0.00     0.217 HD
ENDBRANCH   9  27
ENDBRANCH   1   9
BRANCH   8  29
HETATM   29  C15 UNL     1     -14.045  72.395  28.431  1.00  0.00     0.262 C 
HETATM   30  N8  UNL     1     -15.270  73.053  28.737  1.00  0.00    -0.060 NA
HETATM   31  O10 UNL     1     -13.107  72.614  29.219  1.00  0.00    -0.274 OA
ENDBRANCH   8  29
BRANCH   5  32
HETATM   32  O6  UNL     1     -10.436  71.032  27.187  1.00  0.00    -0.366 OA
ATOM     33  H6  UNL     1      -9.596  70.649  26.961  1.00  0.00     0.212 HD
ENDBRANCH   5  32
BRANCH   6  34
HETATM   34  N5  UNL     1     -11.583  71.826  24.534  1.00  0.00    -0.276 N 
HETATM   35  C10 UNL     1     -11.141  73.091  24.628  1.00  0.00     0.104 A 
HETATM   36  C11 UNL     1     -10.468  73.670  23.571  1.00  0.00     0.094 A 
HETATM   37  C12 UNL     1     -10.269  72.913  22.434  1.00  0.00     0.271 A 
HETATM   38  O7  UNL     1      -9.647  73.449  21.460  1.00  0.00    -0.266 OA
HETATM   39  N6  UNL     1     -10.710  71.646  22.338  1.00  0.00    -0.175 N 
HETATM   40  C13 UNL     1     -11.367  71.124  23.405  1.00  0.00     0.352 A 
HETATM   41  O8  UNL     1     -11.784  69.938  23.325  1.00  0.00    -0.244 OA
BRANCH  39  42
HETATM   42  N7  UNL     1     -10.493  70.905  21.173  1.00  0.00    -0.332 N 
ATOM     43  H72 UNL     1      -9.607  70.433  20.994  1.00  0.00     0.177 HD
ATOM     44  H71 UNL     1     -11.226  70.819  20.470  1.00  0.00     0.177 HD
ENDBRANCH  39  42
ENDBRANCH   6  34
TORSDOF 13
ENDMDL
MODEL 5
REMARK VINA RESULT: -6.735465097      1.575      1.653
REMARK  13 active torsions:
REMARK  status: ('A' for Active; 'I' for Inactive)
REMARK    1  A    between atoms: C1_2  and  O2_4 
REMARK    2  A    between atoms: O2_4  and  C2_5 
REMARK    3  A    between atoms: C2_5  and  C3_6 
REMARK    4  A    between atoms: C3_6  and  N2_7 
REMARK    5  A    between atoms: C3_6  and  C4_11 
REMARK       I    between atoms: C4_11  and  N3_13 
REMARK    6  A    between atoms: N3_13  and  C5_15 
REMARK    7  A    between atoms: C5_15  and  O4_16 
REMARK    8  A    between atoms: C6_18  and  O5_19 
REMARK    9  A    between atoms: C6_18  and  C7_21 
REMARK   10  A    between atoms: C8_25  and  O6_26 
REMARK   11  A    between atoms: C9_28  and  N5_29 
REMARK   12  A    between atoms: N6_34  and  N7_35 
REMARK   13  A    between atoms: C14_41  and  C15_42 
ROOT
HETATM    1  C7  UNL     1     -14.609  71.610  27.489  1.00  0.00     0.287 C 
HETATM    2  N4  UNL     1     -13.238  71.305  27.846  1.00  0.00    -0.031 N 
ATOM      3  H41 UNL     1     -13.099  70.296  27.884  1.00  0.00     0.281 HD
ATOM      4  H42 UNL     1     -13.066  71.544  28.822  1.00  0.00     0.281 HD
HETATM    5  C8  UNL     1     -12.258  71.907  27.012  1.00  0.00     0.369 C 
HETATM    6  C9  UNL     1     -12.951  72.614  25.883  1.00  0.00     0.289 C 
HETATM    7  O9  UNL     1     -13.751  73.578  26.424  1.00  0.00    -0.345 OA
HETATM    8  C14 UNL     1     -14.881  72.962  27.051  1.00  0.00     0.250 C 
ENDROOT
BRANCH   1   9
HETATM    9  C6  UNL     1     -15.429  71.014  28.627  1.00  0.00     0.128 C 
HETATM   10  C5  UNL     1     -16.837  70.938  28.368  1.00  0.00     0.174 C 
BRANCH  10  11
HETATM   11  N3  UNL     1     -17.887  70.995  29.260  1.00  0.00    -0.304 N 
HETATM   12  C4  UNL     1     -18.066  70.517  30.568  1.00  0.00     0.256 C 
HETATM   13  O3  UNL     1     -17.260  69.888  31.287  1.00  0.00    -0.271 OA
ATOM     14  H3  UNL     1     -18.702  71.486  28.894  1.00  0.00     0.171 HD
BRANCH  12  15
HETATM   15  C3  UNL     1     -19.395  70.746  31.301  1.00  0.00     0.299 C 
BRANCH  15  16
HETATM   16  C2  UNL     1     -19.154  71.549  32.531  1.00  0.00     0.222 C 
BRANCH  16  17
HETATM   17  O2  UNL     1     -18.912  72.889  32.415  1.00  0.00    -0.304 OA
BRANCH  17  18
HETATM   18  C1  UNL     1     -18.063  73.594  31.630  1.00  0.00     0.372 C 
HETATM   19  N1  UNL     1     -18.452  73.928  30.295  1.00  0.00    -0.032 NA
HETATM   20  O1  UNL     1     -16.954  73.947  32.077  1.00  0.00    -0.242 OA
ENDBRANCH  17  18
ENDBRANCH  16  17
ENDBRANCH  15  16
BRANCH  15  21
HETATM   21  N2  UNL     1     -20.353  71.211  30.378  1.00  0.00    -0.064 N 
ATOM     22  H23 UNL     1     -21.037  70.473  30.208  1.00  0.00     0.275 HD
ATOM     23  H22 UNL     1     -20.935  71.916  30.830  1.00  0.00     0.275 HD
ATOM     24  H21 UNL     1     -20.025  71.573  29.483  1.00  0.00     0.275 HD
ENDBRANCH  15  21
ENDBRANCH  12  15
ENDBRANCH  10  11
BRANCH  10  25
HETATM   25  O4  UNL     1     -17.190  70.792  27.117  1.00  0.00    -0.344 OA
ATOM     26  H4  UNL     1     -17.466  69.914  26.882  1.00  0.00     0.219 HD
ENDBRANCH  10  25
BRANCH   9  27
HETATM   27  O5  UNL     1     -14.953  71.352  29.853  1.00  0.00    -0.359 OA
ATOM     28  H5  UNL     1     -14.633  70.694  30.458  1.00  0.00     0.217 HD
ENDBRANCH   9  27
ENDBRANCH   1   9
BRANCH   8  29
HETATM   29  C15 UNL     1     -15.365  73.971  27.997  1.00  0.00     0.262 C 
HETATM   30  N8  UNL     1     -16.319  74.971  27.655  1.00  0.00    -0.060 NA
HETATM   31  O10 UNL     1     -14.955  74.002  29.171  1.00  0.00    -0.274 OA
ENDBRANCH   8  29
BRANCH   5  32
HETATM   32  O6  UNL     1     -11.499  72.770  27.801  1.00  0.00    -0.366 OA
ATOM     33  H6  UNL     1     -11.608  73.650  27.458  1.00  0.00     0.212 HD
ENDBRANCH   5  32
BRANCH   6  34
HETATM   34  N5  UNL     1     -12.043  73.097  24.872  1.00  0.00    -0.276 N 
HETATM   35  C10 UNL     1     -11.599  74.363  24.946  1.00  0.00     0.104 A 
HETATM   36  C11 UNL     1     -10.729  74.849  23.991  1.00  0.00     0.094 A 
HETATM   37  C12 UNL     1     -10.340  74.002  22.974  1.00  0.00     0.271 A 
HETATM   38  O7  UNL     1      -9.537  74.452  22.094  1.00  0.00    -0.266 OA
HETATM   39  N6  UNL     1     -10.783  72.733  22.897  1.00  0.00    -0.175 N 
HETATM   40  C13 UNL     1     -11.637  72.305  23.861  1.00  0.00     0.352 A 
HETATM   41  O8  UNL     1     -12.057  71.119  23.799  1.00  0.00    -0.244 OA
BRANCH  39  42
HETATM   42  N7  UNL     1     -10.370  71.899  21.856  1.00  0.00    -0.332 N 
ATOM     43  H72 UNL     1     -10.638  72.075  20.888  1.00  0.00     0.177 HD
ATOM     44  H71 UNL     1      -9.784  71.086  22.044  1.00  0.00     0.177 HD
ENDBRANCH  39  42
ENDBRANCH   6  34
TORSDOF 13
ENDMDL
