MODEL 1
REMARK VINA RESULT: -6.008447378      0.000      0.000
REMARK  1 active torsions:
REMARK  status: ('A' for Active; 'I' for Inactive)
REMARK    1  A    between atoms: C6_6  and  C7_7 
ROOT
HETATM    1  C1  UNL     1     -13.681  -5.878   4.700  1.00  0.00     0.046 C 
HETATM    2  C2  UNL     1     -12.935  -5.568   3.421  1.00  0.00     0.118 C 
HETATM    3  C3  UNL     1     -12.402  -4.148   3.571  1.00  0.00     0.046 C 
HETATM    4  C4  UNL     1     -13.776  -5.715   2.194  1.00  0.00     0.039 C 
HETATM    5  C5  UNL     1     -13.081  -6.571   1.135  1.00  0.00     0.018 C 
HETATM    6  C6  UNL     1     -12.815  -7.938   1.719  1.00  0.00     0.119 C 
HETATM    7  C8  UNL     1     -12.161  -7.782   3.081  1.00  0.00     0.246 C 
HETATM    8  N1  UNL     1     -11.769  -6.423   3.263  1.00  0.00    -0.066 N 
ATOM      9  H11 UNL     1     -11.116  -6.318   4.040  1.00  0.00     0.278 HD
ATOM     10  H12 UNL     1     -11.163  -6.100   2.509  1.00  0.00     0.278 HD
ENDROOT
BRANCH   6  11
HETATM   11  C7  UNL     1     -11.894  -8.710   0.791  1.00  0.00     0.393 C 
HETATM   12  F1  UNL     1     -10.848  -9.288   1.458  1.00  0.00    -0.171 F 
HETATM   13  F2  UNL     1     -11.448  -7.785  -0.158  1.00  0.00    -0.171 F 
HETATM   14  F3  UNL     1     -12.643  -9.639   0.095  1.00  0.00    -0.171 F 
ENDBRANCH   6  11
TORSDOF 1
ENDMDL
MODEL 2
REMARK VINA RESULT: -6.000941092      3.004      4.489
REMARK  1 active torsions:
REMARK  status: ('A' for Active; 'I' for Inactive)
REMARK    1  A    between atoms: C6_6  and  C7_7 
ROOT
HETATM    1  C1  UNL     1     -13.358  -8.888   0.395  1.00  0.00     0.046 C 
HETATM    2  C2  UNL     1     -12.266  -8.070   1.050  1.00  0.00     0.118 C 
HETATM    3  C3  UNL     1     -10.974  -8.419   0.320  1.00  0.00     0.046 C 
HETATM    4  C4  UNL     1     -12.150  -8.308   2.521  1.00  0.00     0.039 C 
HETATM    5  C5  UNL     1     -12.130  -6.995   3.303  1.00  0.00     0.018 C 
HETATM    6  C6  UNL     1     -13.412  -6.248   3.023  1.00  0.00     0.119 C 
HETATM    7  C8  UNL     1     -13.648  -6.205   1.523  1.00  0.00     0.246 C 
HETATM    8  N1  UNL     1     -12.473  -6.645   0.847  1.00  0.00    -0.066 N 
ATOM      9  H11 UNL     1     -12.493  -6.404  -0.144  1.00  0.00     0.278 HD
ATOM     10  H12 UNL     1     -11.654  -6.102   1.120  1.00  0.00     0.278 HD
ENDROOT
BRANCH   6  11
HETATM   11  C7  UNL     1     -13.299  -4.834   3.567  1.00  0.00     0.393 C 
HETATM   12  F1  UNL     1     -13.805  -3.902   2.703  1.00  0.00    -0.171 F 
HETATM   13  F2  UNL     1     -11.937  -4.626   3.803  1.00  0.00    -0.171 F 
HETATM   14  F3  UNL     1     -13.913  -4.785   4.803  1.00  0.00    -0.171 F 
ENDBRANCH   6  11
TORSDOF 1
ENDMDL
MODEL 3
REMARK VINA RESULT: -5.987961604      0.102      1.127
REMARK  1 active torsions:
REMARK  status: ('A' for Active; 'I' for Inactive)
REMARK    1  A    between atoms: C6_6  and  C7_7 
ROOT
HETATM    1  C1  UNL     1     -13.662  -5.913   4.766  1.00  0.00     0.046 C 
HETATM    2  C2  UNL     1     -12.902  -5.589   3.499  1.00  0.00     0.118 C 
HETATM    3  C3  UNL     1     -12.307  -4.200   3.700  1.00  0.00     0.046 C 
HETATM    4  C4  UNL     1     -13.748  -5.654   2.268  1.00  0.00     0.039 C 
HETATM    5  C5  UNL     1     -13.090  -6.499   1.178  1.00  0.00     0.018 C 
HETATM    6  C6  UNL     1     -12.885  -7.898   1.710  1.00  0.00     0.119 C 
HETATM    7  C8  UNL     1     -12.226  -7.821   3.077  1.00  0.00     0.246 C 
HETATM    8  N1  UNL     1     -11.775  -6.488   3.309  1.00  0.00    -0.066 N 
ATOM      9  H11 UNL     1     -11.118  -6.441   4.089  1.00  0.00     0.278 HD
ATOM     10  H12 UNL     1     -11.154  -6.165   2.567  1.00  0.00     0.278 HD
ENDROOT
BRANCH   6  11
HETATM   11  C7  UNL     1     -11.997  -8.675   0.754  1.00  0.00     0.393 C 
HETATM   12  F1  UNL     1     -12.667  -9.691   0.130  1.00  0.00    -0.171 F 
HETATM   13  F2  UNL     1     -10.939  -9.160   1.529  1.00  0.00    -0.171 F 
HETATM   14  F3  UNL     1     -11.436  -7.791  -0.146  1.00  0.00    -0.171 F 
ENDBRANCH   6  11
TORSDOF 1
ENDMDL
MODEL 4
REMARK VINA RESULT: -5.976893141      3.047      4.465
REMARK  1 active torsions:
REMARK  status: ('A' for Active; 'I' for Inactive)
REMARK    1  A    between atoms: C6_6  and  C7_7 
ROOT
HETATM    1  C1  UNL     1     -13.383  -8.893   0.435  1.00  0.00     0.046 C 
HETATM    2  C2  UNL     1     -12.274  -8.081   1.067  1.00  0.00     0.118 C 
HETATM    3  C3  UNL     1     -10.996  -8.452   0.323  1.00  0.00     0.046 C 
HETATM    4  C4  UNL     1     -12.140  -8.305   2.539  1.00  0.00     0.039 C 
HETATM    5  C5  UNL     1     -12.095  -6.985   3.307  1.00  0.00     0.018 C 
HETATM    6  C6  UNL     1     -13.372  -6.226   3.036  1.00  0.00     0.119 C 
HETATM    7  C8  UNL     1     -13.629  -6.196   1.539  1.00  0.00     0.246 C 
HETATM    8  N1  UNL     1     -12.467  -6.656   0.852  1.00  0.00    -0.066 N 
ATOM      9  H11 UNL     1     -12.498  -6.424  -0.141  1.00  0.00     0.278 HD
ATOM     10  H12 UNL     1     -11.639  -6.119   1.108  1.00  0.00     0.278 HD
ENDROOT
BRANCH   6  11
HETATM   11  C7  UNL     1     -13.237  -4.808   3.563  1.00  0.00     0.393 C 
HETATM   12  F1  UNL     1     -11.935  -4.461   3.797  1.00  0.00    -0.171 F 
HETATM   13  F2  UNL     1     -13.996  -4.765   4.737  1.00  0.00    -0.171 F 
HETATM   14  F3  UNL     1     -13.855  -3.946   2.678  1.00  0.00    -0.171 F 
ENDBRANCH   6  11
TORSDOF 1
ENDMDL
MODEL 5
REMARK VINA RESULT: -5.890110302      0.100      1.118
REMARK  1 active torsions:
REMARK  status: ('A' for Active; 'I' for Inactive)
REMARK    1  A    between atoms: C6_6  and  C7_7 
ROOT
HETATM    1  C1  UNL     1     -13.669  -5.984   4.691  1.00  0.00     0.046 C 
HETATM    2  C2  UNL     1     -12.916  -5.629   3.428  1.00  0.00     0.118 C 
HETATM    3  C3  UNL     1     -12.402  -4.208   3.622  1.00  0.00     0.046 C 
HETATM    4  C4  UNL     1     -13.745  -5.753   2.190  1.00  0.00     0.039 C 
HETATM    5  C5  UNL     1     -13.030  -6.570   1.114  1.00  0.00     0.018 C 
HETATM    6  C6  UNL     1     -12.752  -7.950   1.662  1.00  0.00     0.119 C 
HETATM    7  C8  UNL     1     -12.111  -7.823   3.035  1.00  0.00     0.246 C 
HETATM    8  N1  UNL     1     -11.738  -6.465   3.257  1.00  0.00    -0.066 N 
ATOM      9  H11 UNL     1     -11.093  -6.374   4.043  1.00  0.00     0.278 HD
ATOM     10  H12 UNL     1     -11.130  -6.114   2.518  1.00  0.00     0.278 HD
ENDROOT
BRANCH   6  11
HETATM   11  C7  UNL     1     -11.812  -8.685   0.723  1.00  0.00     0.393 C 
HETATM   12  F1  UNL     1     -11.230  -7.850  -0.191  1.00  0.00    -0.171 F 
HETATM   13  F2  UNL     1     -12.589  -9.665   0.098  1.00  0.00    -0.171 F 
HETATM   14  F3  UNL     1     -10.875  -9.365   1.476  1.00  0.00    -0.171 F 
ENDBRANCH   6  11
TORSDOF 1
ENDMDL
