MODEL 1
REMARK VINA RESULT: -7.878298967      0.000      0.000
REMARK  2 active torsions:
REMARK  status: ('A' for Active; 'I' for Inactive)
REMARK    1  A    between atoms: N1_1  and  C1_5 
REMARK    2  A    between atoms: C5_9  and  C6_10 
ROOT
HETATM    1  C1  UNL     1     -13.091  -5.861   3.458  1.00  0.00     0.183 C 
HETATM    2  C2  UNL     1     -13.622  -5.242   2.209  1.00  0.00     0.033 C 
HETATM    3  C3  UNL     1     -12.892  -5.597   0.966  1.00  0.00     0.002 C 
HETATM    4  C4  UNL     1     -13.449  -6.823   0.276  1.00  0.00     0.010 C 
HETATM    5  C5  UNL     1     -13.076  -8.098   0.988  1.00  0.00     0.051 C 
HETATM    6  C7  UNL     1     -13.633  -8.054   2.371  1.00  0.00     0.012 C 
HETATM    7  C8  UNL     1     -12.790  -7.317   3.360  1.00  0.00     0.033 C 
ENDROOT
BRANCH   1   8
HETATM    8  N1  UNL     1     -11.901  -5.149   3.917  1.00  0.00    -0.075 N 
ATOM      9  H13 UNL     1     -12.110  -4.183   4.166  1.00  0.00     0.274 HD
ATOM     10  H12 UNL     1     -11.592  -5.479   4.832  1.00  0.00     0.274 HD
ATOM     11  H11 UNL     1     -11.157  -5.209   3.222  1.00  0.00     0.274 HD
ENDBRANCH   1   8
BRANCH   5  12
HETATM   12  C6  UNL     1     -11.596  -8.342   0.927  1.00  0.00     0.357 C 
HETATM   13  F1  UNL     1     -11.111  -8.718   2.145  1.00  0.00    -0.214 F 
HETATM   14  F2  UNL     1     -11.386  -9.393   0.048  1.00  0.00    -0.214 F 
ENDBRANCH   5  12
TORSDOF 2
ENDMDL
MODEL 2
REMARK VINA RESULT: -7.506734007      1.071      1.250
REMARK  2 active torsions:
REMARK  status: ('A' for Active; 'I' for Inactive)
REMARK    1  A    between atoms: N1_1  and  C1_5 
REMARK    2  A    between atoms: C5_9  and  C6_10 
ROOT
HETATM    1  C1  UNL     1     -12.765  -6.008   4.076  1.00  0.00     0.183 C 
HETATM    2  C2  UNL     1     -13.664  -5.155   3.247  1.00  0.00     0.033 C 
HETATM    3  C3  UNL     1     -13.338  -5.111   1.799  1.00  0.00     0.002 C 
HETATM    4  C4  UNL     1     -14.051  -6.175   0.995  1.00  0.00     0.010 C 
HETATM    5  C5  UNL     1     -13.451  -7.544   1.199  1.00  0.00     0.051 C 
HETATM    6  C7  UNL     1     -13.562  -7.904   2.642  1.00  0.00     0.012 C 
HETATM    7  C8  UNL     1     -12.476  -7.355   3.508  1.00  0.00     0.033 C 
ENDROOT
BRANCH   1   8
HETATM    8  N1  UNL     1     -11.508  -5.316   4.349  1.00  0.00    -0.075 N 
ATOM      9  H13 UNL     1     -10.827  -5.460   3.603  1.00  0.00     0.274 HD
ATOM     10  H12 UNL     1     -11.608  -4.304   4.272  1.00  0.00     0.274 HD
ATOM     11  H11 UNL     1     -11.137  -5.592   5.257  1.00  0.00     0.274 HD
ENDBRANCH   1   8
BRANCH   5  12
HETATM   12  C6  UNL     1     -12.055  -7.611   0.653  1.00  0.00     0.357 C 
HETATM   13  F1  UNL     1     -11.738  -8.883   0.274  1.00  0.00    -0.214 F 
HETATM   14  F2  UNL     1     -12.015  -6.813  -0.481  1.00  0.00    -0.214 F 
ENDBRANCH   5  12
TORSDOF 2
ENDMDL
MODEL 3
REMARK VINA RESULT: -6.430423106      0.513      1.030
REMARK  2 active torsions:
REMARK  status: ('A' for Active; 'I' for Inactive)
REMARK    1  A    between atoms: N1_1  and  C1_5 
REMARK    2  A    between atoms: C5_9  and  C6_10 
ROOT
HETATM    1  C1  UNL     1     -13.121  -5.844   3.439  1.00  0.00     0.183 C 
HETATM    2  C2  UNL     1     -13.553  -5.249   2.143  1.00  0.00     0.033 C 
HETATM    3  C3  UNL     1     -12.820  -5.735   0.947  1.00  0.00     0.002 C 
HETATM    4  C4  UNL     1     -13.465  -6.941   0.301  1.00  0.00     0.010 C 
HETATM    5  C5  UNL     1     -13.234  -8.205   1.091  1.00  0.00     0.051 C 
HETATM    6  C7  UNL     1     -13.827  -8.036   2.448  1.00  0.00     0.012 C 
HETATM    7  C8  UNL     1     -12.953  -7.324   3.428  1.00  0.00     0.033 C 
ENDROOT
BRANCH   1   8
HETATM    8  N1  UNL     1     -11.886  -5.219   3.905  1.00  0.00    -0.075 N 
ATOM      9  H13 UNL     1     -11.063  -5.635   3.469  1.00  0.00     0.274 HD
ATOM     10  H12 UNL     1     -11.785  -4.269   3.548  1.00  0.00     0.274 HD
ATOM     11  H11 UNL     1     -11.831  -5.249   4.923  1.00  0.00     0.274 HD
ENDBRANCH   1   8
BRANCH   5  12
HETATM   12  C6  UNL     1     -11.781  -8.583   1.096  1.00  0.00     0.357 C 
HETATM   13  F1  UNL     1     -11.098  -7.918   0.119  1.00  0.00    -0.214 F 
HETATM   14  F2  UNL     1     -11.255  -8.190   2.318  1.00  0.00    -0.214 F 
ENDBRANCH   5  12
TORSDOF 2
ENDMDL
MODEL 4
REMARK VINA RESULT: -6.233361714      2.776      3.754
REMARK  2 active torsions:
REMARK  status: ('A' for Active; 'I' for Inactive)
REMARK    1  A    between atoms: N1_1  and  C1_5 
REMARK    2  A    between atoms: C5_9  and  C6_10 
ROOT
HETATM    1  C1  UNL     1     -13.452  -6.710   0.913  1.00  0.00     0.183 C 
HETATM    2  C2  UNL     1     -13.105  -5.283   1.170  1.00  0.00     0.033 C 
HETATM    3  C3  UNL     1     -13.461  -4.776   2.519  1.00  0.00     0.002 C 
HETATM    4  C4  UNL     1     -12.351  -4.949   3.533  1.00  0.00     0.010 C 
HETATM    5  C5  UNL     1     -12.210  -6.380   3.988  1.00  0.00     0.051 C 
HETATM    6  C7  UNL     1     -11.890  -7.228   2.804  1.00  0.00     0.012 C 
HETATM    7  C8  UNL     1     -13.076  -7.655   2.002  1.00  0.00     0.033 C 
ENDROOT
BRANCH   1   8
HETATM    8  N1  UNL     1     -14.877  -6.848   0.623  1.00  0.00    -0.075 N 
ATOM      9  H13 UNL     1     -15.409  -7.115   1.451  1.00  0.00     0.274 HD
ATOM     10  H12 UNL     1     -15.316  -5.944   0.444  1.00  0.00     0.274 HD
ATOM     11  H11 UNL     1     -15.024  -7.499  -0.147  1.00  0.00     0.274 HD
ENDBRANCH   1   8
BRANCH   5  12
HETATM   12  C6  UNL     1     -13.419  -6.826   4.757  1.00  0.00     0.357 C 
HETATM   13  F1  UNL     1     -13.107  -7.841   5.615  1.00  0.00    -0.214 F 
HETATM   14  F2  UNL     1     -13.845  -5.749   5.520  1.00  0.00    -0.214 F 
ENDBRANCH   5  12
TORSDOF 2
ENDMDL
MODEL 5
REMARK VINA RESULT: -5.346347974      2.793      3.997
REMARK  2 active torsions:
REMARK  status: ('A' for Active; 'I' for Inactive)
REMARK    1  A    between atoms: N1_1  and  C1_5 
REMARK    2  A    between atoms: C5_9  and  C6_10 
ROOT
HETATM    1  C1  UNL     1     -12.208  -7.792   0.432  1.00  0.00     0.183 C 
HETATM    2  C2  UNL     1     -12.280  -8.575   1.698  1.00  0.00     0.033 C 
HETATM    3  C3  UNL     1     -11.976  -7.811   2.934  1.00  0.00     0.002 C 
HETATM    4  C4  UNL     1     -13.202  -7.187   3.565  1.00  0.00     0.010 C 
HETATM    5  C5  UNL     1     -13.683  -5.977   2.805  1.00  0.00     0.051 C 
HETATM    6  C7  UNL     1     -14.041  -6.395   1.418  1.00  0.00     0.012 C 
HETATM    7  C8  UNL     1     -12.887  -6.467   0.472  1.00  0.00     0.033 C 
ENDROOT
BRANCH   1   8
HETATM    8  N1  UNL     1     -10.819  -7.612   0.017  1.00  0.00    -0.075 N 
ATOM      9  H13 UNL     1     -10.751  -7.283  -0.946  1.00  0.00     0.274 HD
ATOM     10  H12 UNL     1     -10.385  -6.815   0.482  1.00  0.00     0.274 HD
ATOM     11  H11 UNL     1     -10.288  -8.471   0.161  1.00  0.00     0.274 HD
ENDBRANCH   1   8
BRANCH   5  12
HETATM   12  C6  UNL     1     -12.684  -4.859   2.874  1.00  0.00     0.357 C 
HETATM   13  F1  UNL     1     -13.303  -3.645   2.819  1.00  0.00    -0.214 F 
HETATM   14  F2  UNL     1     -12.045  -4.950   4.102  1.00  0.00    -0.214 F 
ENDBRANCH   5  12
TORSDOF 2
ENDMDL
