MODEL 1
REMARK VINA RESULT: -5.799255782      0.000      0.000
REMARK  9 active torsions:
REMARK  status: ('A' for Active; 'I' for Inactive)
REMARK    1  A    between atoms: C2_2  and  C3_3 
REMARK    2  A    between atoms: C3_3  and  C4_4 
REMARK    3  A    between atoms: C4_4  and  N1_5 
REMARK    4  A    between atoms: N1_5  and  N2_6 
REMARK       I    between atoms: N1_5  and  C12_19 
REMARK    5  A    between atoms: N2_6  and  C5_8 
REMARK    6  A    between atoms: C8_11  and  O1_12 
REMARK    7  A    between atoms: C9_14  and  C10_15 
REMARK    8  A    between atoms: C12_19  and  C13_21 
REMARK    9  A    between atoms: C13_21  and  N4_22 
ROOT
HETATM    1  N2  UNL     1      -8.168   3.763  -0.447  1.00  0.00    -0.296 N 
ATOM      2  H2  UNL     1      -8.956   4.410  -0.415  1.00  0.00     0.187 HD
ENDROOT
BRANCH   1   3
HETATM    3  N1  UNL     1      -6.940   4.270  -0.839  1.00  0.00    -0.259 N 
HETATM    4  C12 UNL     1      -6.017   4.700   0.131  1.00  0.00     0.263 C 
HETATM    5  O3  UNL     1      -4.920   5.170  -0.229  1.00  0.00    -0.270 OA
BRANCH   3   6
HETATM    6  C4  UNL     1      -6.620   4.365  -2.259  1.00  0.00     0.156 C 
BRANCH   6   7
HETATM    7  C3  UNL     1      -7.550   5.340  -2.928  1.00  0.00     0.048 C 
BRANCH   7   8
HETATM    8  C2  UNL     1      -6.998   6.712  -2.823  1.00  0.00    -0.035 C 
HETATM    9  C1  UNL     1      -7.745   7.737  -3.191  1.00  0.00     0.007 C 
ENDBRANCH   7   8
ENDBRANCH   6   7
ENDBRANCH   3   6
BRANCH   4  10
HETATM   10  C13 UNL     1      -6.324   4.607   1.571  1.00  0.00     0.333 C 
BRANCH  10  11
HETATM   11  N4  UNL     1      -6.869   5.872   2.066  1.00  0.00    -0.071 N 
ATOM     12  H43 UNL     1      -7.768   6.090   1.636  1.00  0.00     0.274 HD
ATOM     13  H42 UNL     1      -7.177   5.798   3.036  1.00  0.00     0.274 HD
ATOM     14  H41 UNL     1      -6.196   6.628   1.940  1.00  0.00     0.274 HD
ENDBRANCH  10  11
ENDBRANCH   4  10
ENDBRANCH   1   3
BRANCH   1  15
HETATM   15  C5  UNL     1      -8.412   2.412  -0.087  1.00  0.00     0.049 A 
HETATM   16  C6  UNL     1      -7.562   1.404  -0.500  1.00  0.00     0.034 A 
HETATM   17  C7  UNL     1      -7.772   0.090  -0.171  1.00  0.00     0.040 A 
HETATM   18  C8  UNL     1      -8.873  -0.317   0.612  1.00  0.00     0.081 A 
HETATM   19  C9  UNL     1      -9.718   0.677   1.023  1.00  0.00     0.064 A 
HETATM   20  C11 UNL     1      -9.483   2.007   0.677  1.00  0.00     0.050 A 
BRANCH  18  21
HETATM   21  O1  UNL     1      -8.985  -1.656   0.881  1.00  0.00    -0.360 OA
ATOM     22  H1  UNL     1      -8.849  -1.929   1.781  1.00  0.00     0.217 HD
ENDBRANCH  18  21
BRANCH  19  23
HETATM   23  C10 UNL     1     -10.882   0.363   1.828  1.00  0.00     0.267 C 
HETATM   24  N3  UNL     1     -10.671  -0.439   3.005  1.00  0.00    -0.057 NA
HETATM   25  O2  UNL     1     -12.053   0.701   1.630  1.00  0.00    -0.271 OA
ENDBRANCH  19  23
ENDBRANCH   1  15
TORSDOF 9
ENDMDL
MODEL 2
REMARK VINA RESULT: -5.797693596      1.854      6.269
REMARK  9 active torsions:
REMARK  status: ('A' for Active; 'I' for Inactive)
REMARK    1  A    between atoms: C2_2  and  C3_3 
REMARK    2  A    between atoms: C3_3  and  C4_4 
REMARK    3  A    between atoms: C4_4  and  N1_5 
REMARK    4  A    between atoms: N1_5  and  N2_6 
REMARK       I    between atoms: N1_5  and  C12_19 
REMARK    5  A    between atoms: N2_6  and  C5_8 
REMARK    6  A    between atoms: C8_11  and  O1_12 
REMARK    7  A    between atoms: C9_14  and  C10_15 
REMARK    8  A    between atoms: C12_19  and  C13_21 
REMARK    9  A    between atoms: C13_21  and  N4_22 
ROOT
HETATM    1  N2  UNL     1      -9.303   3.018  -0.413  1.00  0.00    -0.296 N 
ATOM      2  H2  UNL     1     -10.201   3.442  -0.183  1.00  0.00     0.187 HD
ENDROOT
BRANCH   1   3
HETATM    3  N1  UNL     1      -9.284   1.657  -0.670  1.00  0.00    -0.259 N 
HETATM    4  C12 UNL     1     -10.098   0.790   0.082  1.00  0.00     0.263 C 
HETATM    5  O3  UNL     1     -10.066  -0.434  -0.145  1.00  0.00    -0.270 OA
BRANCH   3   6
HETATM    6  C4  UNL     1      -8.409   1.132  -1.712  1.00  0.00     0.156 C 
BRANCH   6   7
HETATM    7  C3  UNL     1      -7.174   0.539  -1.090  1.00  0.00     0.048 C 
BRANCH   7   8
HETATM    8  C2  UNL     1      -5.966   1.104  -1.738  1.00  0.00    -0.035 C 
HETATM    9  C1  UNL     1      -6.108   1.905  -2.778  1.00  0.00     0.007 C 
ENDBRANCH   7   8
ENDBRANCH   6   7
ENDBRANCH   3   6
BRANCH   4  10
HETATM   10  C13 UNL     1     -10.992   1.306   1.136  1.00  0.00     0.333 C 
BRANCH  10  11
HETATM   11  N4  UNL     1     -10.813   0.553   2.378  1.00  0.00    -0.071 N 
ATOM     12  H43 UNL     1     -10.293  -0.312   2.225  1.00  0.00     0.274 HD
ATOM     13  H42 UNL     1     -10.159   1.015   3.010  1.00  0.00     0.274 HD
ATOM     14  H41 UNL     1     -11.713   0.379   2.827  1.00  0.00     0.274 HD
ENDBRANCH  10  11
ENDBRANCH   4  10
ENDBRANCH   1   3
BRANCH   1  15
HETATM   15  C5  UNL     1      -8.165   3.867  -0.444  1.00  0.00     0.049 A 
HETATM   16  C6  UNL     1      -7.175   3.760   0.514  1.00  0.00     0.034 A 
HETATM   17  C7  UNL     1      -6.066   4.566   0.512  1.00  0.00     0.040 A 
HETATM   18  C8  UNL     1      -5.866   5.559  -0.471  1.00  0.00     0.081 A 
HETATM   19  C9  UNL     1      -6.845   5.669  -1.421  1.00  0.00     0.064 A 
HETATM   20  C11 UNL     1      -7.963   4.838  -1.399  1.00  0.00     0.050 A 
BRANCH  18  21
HETATM   21  O1  UNL     1      -4.722   6.308  -0.377  1.00  0.00    -0.360 OA
ATOM     22  H1  UNL     1      -4.601   6.994  -1.022  1.00  0.00     0.217 HD
ENDBRANCH  18  21
BRANCH  19  23
HETATM   23  C10 UNL     1      -6.737   6.662  -2.471  1.00  0.00     0.267 C 
HETATM   24  N3  UNL     1      -7.951   7.312  -2.890  1.00  0.00    -0.057 NA
HETATM   25  O2  UNL     1      -5.717   7.029  -3.065  1.00  0.00    -0.271 OA
ENDBRANCH  19  23
ENDBRANCH   1  15
TORSDOF 9
ENDMDL
MODEL 3
REMARK VINA RESULT: -5.753720185      3.470      6.610
REMARK  9 active torsions:
REMARK  status: ('A' for Active; 'I' for Inactive)
REMARK    1  A    between atoms: C2_2  and  C3_3 
REMARK    2  A    between atoms: C3_3  and  C4_4 
REMARK    3  A    between atoms: C4_4  and  N1_5 
REMARK    4  A    between atoms: N1_5  and  N2_6 
REMARK       I    between atoms: N1_5  and  C12_19 
REMARK    5  A    between atoms: N2_6  and  C5_8 
REMARK    6  A    between atoms: C8_11  and  O1_12 
REMARK    7  A    between atoms: C9_14  and  C10_15 
REMARK    8  A    between atoms: C12_19  and  C13_21 
REMARK    9  A    between atoms: C13_21  and  N4_22 
ROOT
HETATM    1  N2  UNL     1      -7.179   1.362  -1.888  1.00  0.00    -0.296 N 
ATOM      2  H2  UNL     1      -8.089   0.964  -2.120  1.00  0.00     0.187 HD
ENDROOT
BRANCH   1   3
HETATM    3  N1  UNL     1      -6.057   0.755  -2.430  1.00  0.00    -0.259 N 
HETATM    4  C12 UNL     1      -5.884   0.721  -3.825  1.00  0.00     0.263 C 
HETATM    5  O3  UNL     1      -4.881   0.160  -4.307  1.00  0.00    -0.270 OA
BRANCH   3   6
HETATM    6  C4  UNL     1      -5.071   0.144  -1.546  1.00  0.00     0.156 C 
BRANCH   6   7
HETATM    7  C3  UNL     1      -5.734  -0.893  -0.680  1.00  0.00     0.048 C 
BRANCH   7   8
HETATM    8  C2  UNL     1      -4.706  -1.776  -0.080  1.00  0.00    -0.035 C 
HETATM    9  C1  UNL     1      -3.459  -1.350   0.003  1.00  0.00     0.007 C 
ENDBRANCH   7   8
ENDBRANCH   6   7
ENDBRANCH   3   6
BRANCH   4  10
HETATM   10  C13 UNL     1      -6.870   1.338  -4.732  1.00  0.00     0.333 C 
BRANCH  10  11
HETATM   11  N4  UNL     1      -6.423   2.666  -5.155  1.00  0.00    -0.071 N 
ATOM     12  H43 UNL     1      -5.593   2.966  -4.643  1.00  0.00     0.274 HD
ATOM     13  H42 UNL     1      -6.026   2.651  -6.094  1.00  0.00     0.274 HD
ATOM     14  H41 UNL     1      -7.182   3.343  -5.076  1.00  0.00     0.274 HD
ENDBRANCH  10  11
ENDBRANCH   4  10
ENDBRANCH   1   3
BRANCH   1  15
HETATM   15  C5  UNL     1      -7.157   2.495  -1.034  1.00  0.00     0.049 A 
HETATM   16  C6  UNL     1      -7.738   2.450   0.219  1.00  0.00     0.034 A 
HETATM   17  C7  UNL     1      -7.736   3.528   1.066  1.00  0.00     0.040 A 
HETATM   18  C8  UNL     1      -7.138   4.756   0.709  1.00  0.00     0.081 A 
HETATM   19  C9  UNL     1      -6.561   4.806  -0.531  1.00  0.00     0.064 A 
HETATM   20  C11 UNL     1      -6.576   3.696  -1.374  1.00  0.00     0.050 A 
BRANCH  18  21
HETATM   21  O1  UNL     1      -7.193   5.767   1.632  1.00  0.00    -0.360 OA
ATOM     22  H1  UNL     1      -7.696   6.539   1.399  1.00  0.00     0.217 HD
ENDBRANCH  18  21
BRANCH  19  23
HETATM   23  C10 UNL     1      -5.926   6.023  -0.994  1.00  0.00     0.267 C 
HETATM   24  N3  UNL     1      -6.704   6.892  -1.839  1.00  0.00    -0.057 NA
HETATM   25  O2  UNL     1      -4.781   6.419  -0.752  1.00  0.00    -0.271 OA
ENDBRANCH  19  23
ENDBRANCH   1  15
TORSDOF 9
ENDMDL
MODEL 4
REMARK VINA RESULT: -5.704170227      1.610      2.560
REMARK  9 active torsions:
REMARK  status: ('A' for Active; 'I' for Inactive)
REMARK    1  A    between atoms: C2_2  and  C3_3 
REMARK    2  A    between atoms: C3_3  and  C4_4 
REMARK    3  A    between atoms: C4_4  and  N1_5 
REMARK    4  A    between atoms: N1_5  and  N2_6 
REMARK       I    between atoms: N1_5  and  C12_19 
REMARK    5  A    between atoms: N2_6  and  C5_8 
REMARK    6  A    between atoms: C8_11  and  O1_12 
REMARK    7  A    between atoms: C9_14  and  C10_15 
REMARK    8  A    between atoms: C12_19  and  C13_21 
REMARK    9  A    between atoms: C13_21  and  N4_22 
ROOT
HETATM    1  N2  UNL     1      -8.153   3.756  -0.220  1.00  0.00    -0.296 N 
ATOM      2  H2  UNL     1      -8.914   4.395   0.009  1.00  0.00     0.187 HD
ENDROOT
BRANCH   1   3
HETATM    3  N1  UNL     1      -6.988   4.304  -0.731  1.00  0.00    -0.259 N 
HETATM    4  C12 UNL     1      -6.000   4.792   0.143  1.00  0.00     0.263 C 
HETATM    5  O3  UNL     1      -4.962   5.298  -0.324  1.00  0.00    -0.270 OA
BRANCH   3   6
HETATM    6  C4  UNL     1      -6.803   4.382  -2.176  1.00  0.00     0.156 C 
BRANCH   6   7
HETATM    7  C3  UNL     1      -7.742   5.404  -2.757  1.00  0.00     0.048 C 
BRANCH   7   8
HETATM    8  C2  UNL     1      -7.096   6.738  -2.753  1.00  0.00    -0.035 C 
HETATM    9  C1  UNL     1      -7.762   7.778  -3.221  1.00  0.00     0.007 C 
ENDBRANCH   7   8
ENDBRANCH   6   7
ENDBRANCH   3   6
BRANCH   4  10
HETATM   10  C13 UNL     1      -6.171   4.717   1.606  1.00  0.00     0.333 C 
BRANCH  10  11
HETATM   11  N4  UNL     1      -6.911   5.879   2.100  1.00  0.00    -0.071 N 
ATOM     12  H43 UNL     1      -6.810   6.683   1.481  1.00  0.00     0.274 HD
ATOM     13  H42 UNL     1      -7.920   5.749   2.018  1.00  0.00     0.274 HD
ATOM     14  H41 UNL     1      -6.635   6.101   3.057  1.00  0.00     0.274 HD
ENDBRANCH  10  11
ENDBRANCH   4  10
ENDBRANCH   1   3
BRANCH   1  15
HETATM   15  C5  UNL     1      -8.368   2.372   0.009  1.00  0.00     0.049 A 
HETATM   16  C6  UNL     1      -9.530   1.925   0.609  1.00  0.00     0.034 A 
HETATM   17  C7  UNL     1      -9.765   0.595   0.846  1.00  0.00     0.040 A 
HETATM   18  C8  UNL     1      -8.833  -0.403   0.492  1.00  0.00     0.081 A 
HETATM   19  C9  UNL     1      -7.680   0.035  -0.101  1.00  0.00     0.064 A 
HETATM   20  C11 UNL     1      -7.463   1.392  -0.333  1.00  0.00     0.050 A 
BRANCH  18  21
HETATM   21  O1  UNL     1      -9.171  -1.701   0.775  1.00  0.00    -0.360 OA
ATOM     22  H1  UNL     1      -9.731  -2.147   0.151  1.00  0.00     0.217 HD
ENDBRANCH  18  21
BRANCH  19  23
HETATM   23  C10 UNL     1      -6.656  -0.911  -0.498  1.00  0.00     0.267 C 
HETATM   24  N3  UNL     1      -7.056  -1.989  -1.365  1.00  0.00    -0.057 NA
HETATM   25  O2  UNL     1      -5.462  -0.911  -0.182  1.00  0.00    -0.271 OA
ENDBRANCH  19  23
ENDBRANCH   1  15
TORSDOF 9
ENDMDL
MODEL 5
REMARK VINA RESULT: -5.678554229      2.207      6.161
REMARK  9 active torsions:
REMARK  status: ('A' for Active; 'I' for Inactive)
REMARK    1  A    between atoms: C2_2  and  C3_3 
REMARK    2  A    between atoms: C3_3  and  C4_4 
REMARK    3  A    between atoms: C4_4  and  N1_5 
REMARK    4  A    between atoms: N1_5  and  N2_6 
REMARK       I    between atoms: N1_5  and  C12_19 
REMARK    5  A    between atoms: N2_6  and  C5_8 
REMARK    6  A    between atoms: C8_11  and  O1_12 
REMARK    7  A    between atoms: C9_14  and  C10_15 
REMARK    8  A    between atoms: C12_19  and  C13_21 
REMARK    9  A    between atoms: C13_21  and  N4_22 
ROOT
HETATM    1  N2  UNL     1      -9.601   3.218  -0.653  1.00  0.00    -0.296 N 
ATOM      2  H2  UNL     1     -10.471   3.680  -0.386  1.00  0.00     0.187 HD
ENDROOT
BRANCH   1   3
HETATM    3  N1  UNL     1      -9.672   1.886  -1.028  1.00  0.00    -0.259 N 
HETATM    4  C12 UNL     1     -10.383   0.971  -0.232  1.00  0.00     0.263 C 
HETATM    5  O3  UNL     1     -10.430  -0.228  -0.567  1.00  0.00    -0.270 OA
BRANCH   3   6
HETATM    6  C4  UNL     1      -8.996   1.443  -2.242  1.00  0.00     0.156 C 
BRANCH   6   7
HETATM    7  C3  UNL     1      -9.663   2.049  -3.448  1.00  0.00     0.048 C 
BRANCH   7   8
HETATM    8  C2  UNL     1      -8.637   2.609  -4.358  1.00  0.00    -0.035 C 
HETATM    9  C1  UNL     1      -7.359   2.459  -4.060  1.00  0.00     0.007 C 
ENDBRANCH   7   8
ENDBRANCH   6   7
ENDBRANCH   3   6
BRANCH   4  10
HETATM   10  C13 UNL     1     -11.075   1.404   0.997  1.00  0.00     0.333 C 
BRANCH  10  11
HETATM   11  N4  UNL     1     -10.620   0.625   2.149  1.00  0.00    -0.071 N 
ATOM     12  H43 UNL     1     -11.270   0.692   2.932  1.00  0.00     0.274 HD
ATOM     13  H42 UNL     1     -10.689  -0.379   1.979  1.00  0.00     0.274 HD
ATOM     14  H41 UNL     1      -9.674   0.898   2.417  1.00  0.00     0.274 HD
ENDBRANCH  10  11
ENDBRANCH   4  10
ENDBRANCH   1   3
BRANCH   1  15
HETATM   15  C5  UNL     1      -8.410   3.988  -0.610  1.00  0.00     0.049 A 
HETATM   16  C6  UNL     1      -7.469   3.785   0.382  1.00  0.00     0.034 A 
HETATM   17  C7  UNL     1      -6.310   4.514   0.451  1.00  0.00     0.040 A 
HETATM   18  C8  UNL     1      -6.004   5.521  -0.489  1.00  0.00     0.081 A 
HETATM   19  C9  UNL     1      -6.933   5.726  -1.473  1.00  0.00     0.064 A 
HETATM   20  C11 UNL     1      -8.104   4.972  -1.523  1.00  0.00     0.050 A 
BRANCH  18  21
HETATM   21  O1  UNL     1      -4.818   6.187  -0.325  1.00  0.00    -0.360 OA
ATOM     22  H1  UNL     1      -4.830   7.129  -0.451  1.00  0.00     0.217 HD
ENDBRANCH  18  21
BRANCH  19  23
HETATM   23  C10 UNL     1      -6.715   6.742  -2.484  1.00  0.00     0.267 C 
HETATM   24  N3  UNL     1      -7.869   7.470  -2.945  1.00  0.00    -0.057 NA
HETATM   25  O2  UNL     1      -5.647   7.069  -3.012  1.00  0.00    -0.271 OA
ENDBRANCH  19  23
ENDBRANCH   1  15
TORSDOF 9
ENDMDL
