MODEL 1
REMARK VINA RESULT: -6.413103981      0.000      0.000
REMARK  5 active torsions:
REMARK  status: ('A' for Active; 'I' for Inactive)
REMARK    1  A    between atoms: C4_4  and  C5_5 
REMARK    2  A    between atoms: N1_6  and  N2_8 
REMARK       I    between atoms: N2_8  and  C6_10 
REMARK    3  A    between atoms: C6_10  and  C7_12 
REMARK    4  A    between atoms: C7_12  and  C8_13 
REMARK    5  A    between atoms: N3_14  and  O2_16 
ROOT
HETATM    1  N2  UNL     1      13.309  19.855   3.374  1.00  0.00    -0.270 N 
ATOM      2  H2  UNL     1      13.682  18.936   3.134  1.00  0.00     0.190 HD
HETATM    3  C6  UNL     1      11.951  20.146   3.086  1.00  0.00     0.240 C 
HETATM    4  O1  UNL     1      11.500  21.281   3.385  1.00  0.00    -0.271 OA
ENDROOT
BRANCH   1   5
HETATM    5  N1  UNL     1      14.157  20.800   3.983  1.00  0.00    -0.313 N 
HETATM    6  C5  UNL     1      15.026  21.447   3.326  1.00  0.00     0.085 C 
ATOM      7  H1  UNL     1      14.067  20.970   4.984  1.00  0.00     0.185 HD
BRANCH   6   8
HETATM    8  C4  UNL     1      15.951  22.448   3.864  1.00  0.00     0.030 A 
HETATM    9  C2  UNL     1      16.897  23.220   3.077  1.00  0.00    -0.009 A 
HETATM   10  C1  UNL     1      17.031  23.148   1.589  1.00  0.00     0.011 C 
HETATM   11  C3  UNL     1      17.426  21.994   3.809  1.00  0.00     0.015 A 
ENDBRANCH   6   8
ENDBRANCH   1   5
BRANCH   3  12
HETATM   12  C7  UNL     1      11.085  19.136   2.446  1.00  0.00     0.151 C 
BRANCH  12  13
HETATM   13  C8  UNL     1      10.531  18.245   3.471  1.00  0.00     0.096 C 
HETATM   14  N3  UNL     1       9.925  18.730   4.484  1.00  0.00    -0.284 N 
ATOM     15  H3  UNL     1       9.839  19.744   4.554  1.00  0.00     0.192 HD
BRANCH  14  16
HETATM   16  O2  UNL     1       9.380  17.962   5.484  1.00  0.00    -0.291 OA
ATOM     17  H2  UNL     1       9.891  17.561   6.177  1.00  0.00     0.244 HD
ENDBRANCH  14  16
ENDBRANCH  12  13
ENDBRANCH   3  12
TORSDOF 5
ENDMDL
MODEL 2
REMARK VINA RESULT: -6.374300145      2.295      2.550
REMARK  5 active torsions:
REMARK  status: ('A' for Active; 'I' for Inactive)
REMARK    1  A    between atoms: C4_4  and  C5_5 
REMARK    2  A    between atoms: N1_6  and  N2_8 
REMARK       I    between atoms: N2_8  and  C6_10 
REMARK    3  A    between atoms: C6_10  and  C7_12 
REMARK    4  A    between atoms: C7_12  and  C8_13 
REMARK    5  A    between atoms: N3_14  and  O2_16 
ROOT
HETATM    1  N2  UNL     1      11.848  22.268   3.623  1.00  0.00    -0.270 N 
ATOM      2  H2  UNL     1      12.132  22.201   2.646  1.00  0.00     0.190 HD
HETATM    3  C6  UNL     1      10.466  22.354   3.937  1.00  0.00     0.240 C 
HETATM    4  O1  UNL     1      10.125  22.437   5.144  1.00  0.00    -0.271 OA
ENDROOT
BRANCH   1   5
HETATM    5  N1  UNL     1      12.836  22.274   4.625  1.00  0.00    -0.313 N 
HETATM    6  C5  UNL     1      13.978  21.753   4.449  1.00  0.00     0.085 C 
ATOM      7  H1  UNL     1      12.627  22.712   5.522  1.00  0.00     0.185 HD
BRANCH   6   8
HETATM    8  C4  UNL     1      15.070  21.708   5.424  1.00  0.00     0.030 A 
HETATM    9  C2  UNL     1      16.482  21.818   5.103  1.00  0.00    -0.009 A 
HETATM   10  C1  UNL     1      17.032  22.048   3.731  1.00  0.00     0.011 C 
HETATM   11  C3  UNL     1      15.916  20.421   5.319  1.00  0.00     0.015 A 
ENDBRANCH   6   8
ENDBRANCH   1   5
BRANCH   3  12
HETATM   12  C7  UNL     1       9.450  22.346   2.865  1.00  0.00     0.151 C 
BRANCH  12  13
HETATM   13  C8  UNL     1       9.007  20.971   2.620  1.00  0.00     0.096 C 
HETATM   14  N3  UNL     1       9.027  20.112   3.563  1.00  0.00    -0.284 N 
ATOM     15  H3  UNL     1       9.358  20.411   4.481  1.00  0.00     0.192 HD
BRANCH  14  16
HETATM   16  O2  UNL     1       8.629  18.806   3.412  1.00  0.00    -0.291 OA
ATOM     17  H2  UNL     1       7.819  18.458   3.767  1.00  0.00     0.244 HD
ENDBRANCH  14  16
ENDBRANCH  12  13
ENDBRANCH   3  12
TORSDOF 5
ENDMDL
MODEL 3
REMARK VINA RESULT: -6.232870518      1.731      2.072
REMARK  5 active torsions:
REMARK  status: ('A' for Active; 'I' for Inactive)
REMARK    1  A    between atoms: C4_4  and  C5_5 
REMARK    2  A    between atoms: N1_6  and  N2_8 
REMARK       I    between atoms: N2_8  and  C6_10 
REMARK    3  A    between atoms: C6_10  and  C7_12 
REMARK    4  A    between atoms: C7_12  and  C8_13 
REMARK    5  A    between atoms: N3_14  and  O2_16 
ROOT
HETATM    1  N2  UNL     1      12.445  19.234   4.208  1.00  0.00    -0.270 N 
ATOM      2  H2  UNL     1      12.899  18.703   3.465  1.00  0.00     0.190 HD
HETATM    3  C6  UNL     1      11.164  18.828   4.665  1.00  0.00     0.240 C 
HETATM    4  O1  UNL     1      10.612  19.489   5.581  1.00  0.00    -0.271 OA
ENDROOT
BRANCH   1   5
HETATM    5  N1  UNL     1      13.106  20.351   4.754  1.00  0.00    -0.313 N 
HETATM    6  C5  UNL     1      14.365  20.481   4.700  1.00  0.00     0.085 C 
ATOM      7  H1  UNL     1      12.552  21.078   5.207  1.00  0.00     0.185 HD
BRANCH   6   8
HETATM    8  C4  UNL     1      15.144  21.601   5.236  1.00  0.00     0.030 A 
HETATM    9  C2  UNL     1      16.063  22.422   4.467  1.00  0.00    -0.009 A 
HETATM   10  C1  UNL     1      16.312  22.281   2.999  1.00  0.00     0.011 C 
HETATM   11  C3  UNL     1      16.656  21.300   5.309  1.00  0.00     0.015 A 
ENDBRANCH   6   8
ENDBRANCH   1   5
BRANCH   3  12
HETATM   12  C7  UNL     1      10.493  17.652   4.074  1.00  0.00     0.151 C 
BRANCH  12  13
HETATM   13  C8  UNL     1       9.117  18.005   3.709  1.00  0.00     0.096 C 
HETATM   14  N3  UNL     1       8.829  19.201   3.370  1.00  0.00    -0.284 N 
ATOM     15  H3  UNL     1       9.579  19.893   3.361  1.00  0.00     0.192 HD
BRANCH  14  16
HETATM   16  O2  UNL     1       7.566  19.608   3.015  1.00  0.00    -0.291 OA
ATOM     17  H2  UNL     1       6.777  19.125   3.233  1.00  0.00     0.244 HD
ENDBRANCH  14  16
ENDBRANCH  12  13
ENDBRANCH   3  12
TORSDOF 5
ENDMDL
MODEL 4
REMARK VINA RESULT: -6.221736914      1.634      1.766
REMARK  5 active torsions:
REMARK  status: ('A' for Active; 'I' for Inactive)
REMARK    1  A    between atoms: C4_4  and  C5_5 
REMARK    2  A    between atoms: N1_6  and  N2_8 
REMARK       I    between atoms: N2_8  and  C6_10 
REMARK    3  A    between atoms: C6_10  and  C7_12 
REMARK    4  A    between atoms: C7_12  and  C8_13 
REMARK    5  A    between atoms: N3_14  and  O2_16 
ROOT
HETATM    1  N2  UNL     1      11.865  21.068   3.566  1.00  0.00    -0.270 N 
ATOM      2  H2  UNL     1      12.078  20.565   2.704  1.00  0.00     0.190 HD
HETATM    3  C6  UNL     1      10.525  21.111   4.029  1.00  0.00     0.240 C 
HETATM    4  O1  UNL     1      10.273  21.734   5.092  1.00  0.00    -0.271 OA
ENDROOT
BRANCH   1   5
HETATM    5  N1  UNL     1      12.911  21.702   4.265  1.00  0.00    -0.313 N 
HETATM    6  C5  UNL     1      13.982  21.097   4.568  1.00  0.00     0.085 C 
ATOM      7  H1  UNL     1      12.802  22.680   4.535  1.00  0.00     0.185 HD
BRANCH   6   8
HETATM    8  C4  UNL     1      15.124  21.666   5.290  1.00  0.00     0.030 A 
HETATM    9  C2  UNL     1      16.336  22.171   4.670  1.00  0.00    -0.009 A 
HETATM   10  C1  UNL     1      16.580  22.236   3.196  1.00  0.00     0.011 C 
HETATM   11  C3  UNL     1      16.374  20.761   5.245  1.00  0.00     0.015 A 
ENDBRANCH   6   8
ENDBRANCH   1   5
BRANCH   3  12
HETATM   12  C7  UNL     1       9.448  20.437   3.276  1.00  0.00     0.151 C 
BRANCH  12  13
HETATM   13  C8  UNL     1       9.450  19.006   3.592  1.00  0.00     0.096 C 
HETATM   14  N3  UNL     1       9.520  18.616   4.805  1.00  0.00    -0.284 N 
ATOM     15  H3  UNL     1       9.573  19.325   5.537  1.00  0.00     0.192 HD
BRANCH  14  16
HETATM   16  O2  UNL     1       9.527  17.295   5.181  1.00  0.00    -0.291 OA
ATOM     17  H2  UNL     1      10.135  16.931   5.813  1.00  0.00     0.244 HD
ENDBRANCH  14  16
ENDBRANCH  12  13
ENDBRANCH   3  12
TORSDOF 5
ENDMDL
MODEL 5
REMARK VINA RESULT: -6.104083661      2.007      2.553
REMARK  5 active torsions:
REMARK  status: ('A' for Active; 'I' for Inactive)
REMARK    1  A    between atoms: C4_4  and  C5_5 
REMARK    2  A    between atoms: N1_6  and  N2_8 
REMARK       I    between atoms: N2_8  and  C6_10 
REMARK    3  A    between atoms: C6_10  and  C7_12 
REMARK    4  A    between atoms: C7_12  and  C8_13 
REMARK    5  A    between atoms: N3_14  and  O2_16 
ROOT
HETATM    1  N2  UNL     1      12.718  21.392   4.011  1.00  0.00    -0.270 N 
ATOM      2  H2  UNL     1      12.321  22.299   3.767  1.00  0.00     0.190 HD
HETATM    3  C6  UNL     1      11.849  20.333   4.383  1.00  0.00     0.240 C 
HETATM    4  O1  UNL     1      12.348  19.219   4.682  1.00  0.00    -0.271 OA
ENDROOT
BRANCH   1   5
HETATM    5  N1  UNL     1      14.115  21.223   3.970  1.00  0.00    -0.313 N 
HETATM    6  C5  UNL     1      14.881  21.723   4.848  1.00  0.00     0.085 C 
ATOM      7  H1  UNL     1      14.525  20.680   3.210  1.00  0.00     0.185 HD
BRANCH   6   8
HETATM    8  C4  UNL     1      16.340  21.604   4.894  1.00  0.00     0.030 A 
HETATM    9  C2  UNL     1      17.070  20.470   5.433  1.00  0.00    -0.009 A 
HETATM   10  C1  UNL     1      16.439  19.226   5.974  1.00  0.00     0.011 C 
HETATM   11  C3  UNL     1      16.905  21.690   6.329  1.00  0.00     0.015 A 
ENDBRANCH   6   8
ENDBRANCH   1   5
BRANCH   3  12
HETATM   12  C7  UNL     1      10.387  20.539   4.418  1.00  0.00     0.151 C 
BRANCH  12  13
HETATM   13  C8  UNL     1       9.727  19.497   3.626  1.00  0.00     0.096 C 
HETATM   14  N3  UNL     1       9.236  18.468   4.199  1.00  0.00    -0.284 N 
ATOM     15  H3  UNL     1       9.317  18.397   5.213  1.00  0.00     0.192 HD
BRANCH  14  16
HETATM   16  O2  UNL     1       8.603  17.451   3.526  1.00  0.00    -0.291 OA
ATOM     17  H2  UNL     1       7.841  17.580   2.973  1.00  0.00     0.244 HD
ENDBRANCH  14  16
ENDBRANCH  12  13
ENDBRANCH   3  12
TORSDOF 5
ENDMDL
