MODEL 1
REMARK VINA RESULT: -8.962921724      0.000      0.000
REMARK  11 active torsions:
REMARK  status: ('A' for Active; 'I' for Inactive)
REMARK       I    between atoms: C2_2  and  N1_4 
REMARK    1  A    between atoms: N1_4  and  C3_6 
REMARK    2  A    between atoms: C3_6  and  C4_7 
REMARK    3  A    between atoms: C5_12  and  C6_13 
REMARK    4  A    between atoms: C8_20  and  N6_21 
REMARK    5  A    between atoms: C9_26  and  C10_27 
REMARK    6  A    between atoms: C10_27  and  O3_28 
REMARK    7  A    between atoms: C10_27  and  O4_30 
REMARK    8  A    between atoms: C12_35  and  N10_36 
REMARK    9  A    between atoms: C13_39  and  C14_40 
REMARK   10  A    between atoms: C14_40  and  O5_41 
REMARK   11  A    between atoms: C14_40  and  O6_43 
ROOT
HETATM    1  C6  UNL     1      63.801   7.400  83.869  1.00  0.00     0.143 A 
HETATM    2  O2  UNL     1      64.377   7.478  85.072  1.00  0.00    -0.286 OA
HETATM    3  C7  UNL     1      64.783   6.452  85.761  1.00  0.00     0.179 A 
HETATM    4  N4  UNL     1      65.380   6.319  86.979  1.00  0.00    -0.277 N 
ATOM      5  H4  UNL     1      65.623   7.093  87.597  1.00  0.00     0.189 HD
HETATM    6  N5  UNL     1      65.598   5.057  87.239  1.00  0.00    -0.280 N 
ATOM      7  H5  UNL     1      66.032   4.681  88.081  1.00  0.00     0.188 HD
HETATM    8  C8  UNL     1      65.141   4.343  86.188  1.00  0.00     0.178 A 
HETATM    9  C11 UNL     1      64.622   5.194  85.238  1.00  0.00     0.092 A 
HETATM   10  C12 UNL     1      64.025   5.032  83.980  1.00  0.00     0.058 A 
HETATM   11  C13 UNL     1      63.603   6.175  83.272  1.00  0.00     0.061 A 
ENDROOT
BRANCH   1  12
HETATM   12  C5  UNL     1      63.399   8.661  83.221  1.00  0.00     0.199 A 
HETATM   13  N3  UNL     1      62.458   9.549  83.461  1.00  0.00    -0.276 N 
HETATM   14  N2  UNL     1      62.537  10.506  82.564  1.00  0.00    -0.280 N 
ATOM     15  H3  UNL     1      61.779   9.502  84.220  1.00  0.00     0.189 HD
HETATM   16  C4  UNL     1      63.549  10.233  81.725  1.00  0.00     0.158 A 
ATOM     17  H2  UNL     1      61.928  11.323  82.514  1.00  0.00     0.189 HD
HETATM   18  O7  UNL     1      64.045   9.116  82.151  1.00  0.00    -0.274 OA
BRANCH  16  19
HETATM   19  C3  UNL     1      64.014  11.026  80.557  1.00  0.00     0.208 C 
BRANCH  19  20
HETATM   20  N1  UNL     1      64.534  10.151  79.543  1.00  0.00    -0.354 N 
HETATM   21  C2  UNL     1      65.480  10.590  78.565  1.00  0.00     0.213 C 
HETATM   22  C1  UNL     1      65.969   9.630  77.554  1.00  0.00     0.117 C 
HETATM   23  O1  UNL     1      65.899  11.757  78.546  1.00  0.00    -0.274 OA
ATOM     24  H1  UNL     1      64.217   9.181  79.520  1.00  0.00     0.162 HD
ENDBRANCH  19  20
ENDBRANCH  16  19
ENDBRANCH   1  12
BRANCH  11  25
HETATM   25  C14 UNL     1      62.968   5.956  81.963  1.00  0.00     0.293 C 
BRANCH  25  26
HETATM   26  O5  UNL     1      61.853   6.827  81.796  1.00  0.00    -0.367 OA
ATOM     27  H5  UNL     1      62.023   7.458  81.106  1.00  0.00     0.213 HD
ENDBRANCH  25  26
BRANCH  25  28
HETATM   28  O6  UNL     1      63.886   6.465  80.984  1.00  0.00    -0.367 OA
ATOM     29  H6  UNL     1      63.979   5.784  80.328  1.00  0.00     0.213 HD
ENDBRANCH  25  28
ENDBRANCH  11  25
BRANCH  10  30
HETATM   30  N10 UNL     1      63.901   3.847  83.598  1.00  0.00    -0.398 N 
ATOM     31 2H10 UNL     1      63.757   3.038  84.201  1.00  0.00     0.156 HD
ATOM     32 1H10 UNL     1      63.970   3.706  82.590  1.00  0.00     0.156 HD
ENDBRANCH  10  30
BRANCH   8  33
HETATM   33  N6  UNL     1      65.165   2.929  86.023  1.00  0.00    -0.161 N 
HETATM   34  N7  UNL     1      64.373   2.079  86.633  1.00  0.00    -0.218 N 
HETATM   35  N8  UNL     1      64.680   0.835  86.235  1.00  0.00    -0.268 N 
ATOM     36  H7  UNL     1      63.643   2.324  87.302  1.00  0.00     0.210 HD
HETATM   37  C9  UNL     1      65.691   0.908  85.352  1.00  0.00     0.169 A 
ATOM     38  H8  UNL     1      64.223  -0.021  86.549  1.00  0.00     0.190 HD
HETATM   39  N9  UNL     1      65.975   2.211  85.235  1.00  0.00    -0.259 N 
ATOM     40  H9  UNL     1      66.701   2.600  84.635  1.00  0.00     0.190 HD
BRANCH  37  41
HETATM   41  C10 UNL     1      66.347  -0.249  84.657  1.00  0.00     0.326 C 
BRANCH  41  42
HETATM   42  O3  UNL     1      67.701   0.087  84.547  1.00  0.00    -0.365 OA
ATOM     43  H3  UNL     1      67.745   0.785  83.904  1.00  0.00     0.213 HD
ENDBRANCH  41  42
BRANCH  41  44
HETATM   44  O4  UNL     1      66.237  -1.372  85.475  1.00  0.00    -0.365 OA
ATOM     45  H4  UNL     1      66.458  -2.139  84.961  1.00  0.00     0.213 HD
ENDBRANCH  41  44
ENDBRANCH  37  41
ENDBRANCH   8  33
TORSDOF 11
ENDMDL
MODEL 2
REMARK VINA RESULT: -8.893507259      0.909      1.225
REMARK  11 active torsions:
REMARK  status: ('A' for Active; 'I' for Inactive)
REMARK       I    between atoms: C2_2  and  N1_4 
REMARK    1  A    between atoms: N1_4  and  C3_6 
REMARK    2  A    between atoms: C3_6  and  C4_7 
REMARK    3  A    between atoms: C5_12  and  C6_13 
REMARK    4  A    between atoms: C8_20  and  N6_21 
REMARK    5  A    between atoms: C9_26  and  C10_27 
REMARK    6  A    between atoms: C10_27  and  O3_28 
REMARK    7  A    between atoms: C10_27  and  O4_30 
REMARK    8  A    between atoms: C12_35  and  N10_36 
REMARK    9  A    between atoms: C13_39  and  C14_40 
REMARK   10  A    between atoms: C14_40  and  O5_41 
REMARK   11  A    between atoms: C14_40  and  O6_43 
ROOT
HETATM    1  C6  UNL     1      63.911   7.359  84.006  1.00  0.00     0.143 A 
HETATM    2  O2  UNL     1      64.450   7.470  85.224  1.00  0.00    -0.286 OA
HETATM    3  C7  UNL     1      64.919   6.471  85.913  1.00  0.00     0.179 A 
HETATM    4  N4  UNL     1      65.495   6.373  87.145  1.00  0.00    -0.277 N 
ATOM      5  H4  UNL     1      65.661   7.157  87.776  1.00  0.00     0.189 HD
HETATM    6  N5  UNL     1      65.805   5.129  87.399  1.00  0.00    -0.280 N 
ATOM      7  H5  UNL     1      66.248   4.779  88.248  1.00  0.00     0.188 HD
HETATM    8  C8  UNL     1      65.432   4.393  86.331  1.00  0.00     0.178 A 
HETATM    9  C11 UNL     1      64.870   5.210  85.376  1.00  0.00     0.092 A 
HETATM   10  C12 UNL     1      64.318   5.015  84.102  1.00  0.00     0.058 A 
HETATM   11  C13 UNL     1      63.824   6.129  83.394  1.00  0.00     0.061 A 
ENDROOT
BRANCH   1  12
HETATM   12  C5  UNL     1      63.426   8.592  83.360  1.00  0.00     0.199 A 
HETATM   13  N3  UNL     1      62.439   9.425  83.612  1.00  0.00    -0.276 N 
HETATM   14  N2  UNL     1      62.448  10.381  82.709  1.00  0.00    -0.280 N 
ATOM     15  H3  UNL     1      61.776   9.343  84.382  1.00  0.00     0.189 HD
HETATM   16  C4  UNL     1      63.461  10.162  81.855  1.00  0.00     0.158 A 
ATOM     17  H2  UNL     1      61.793  11.161  82.665  1.00  0.00     0.189 HD
HETATM   18  O7  UNL     1      64.027   9.077  82.277  1.00  0.00    -0.274 OA
BRANCH  16  19
HETATM   19  C3  UNL     1      63.861  10.975  80.676  1.00  0.00     0.208 C 
BRANCH  19  20
HETATM   20  N1  UNL     1      64.471  10.135  79.683  1.00  0.00    -0.354 N 
HETATM   21  C2  UNL     1      65.367  10.647  78.693  1.00  0.00     0.213 C 
HETATM   22  C1  UNL     1      65.955   9.721  77.706  1.00  0.00     0.117 C 
HETATM   23  O1  UNL     1      65.660  11.852  78.645  1.00  0.00    -0.274 OA
ATOM     24  H1  UNL     1      64.258   9.137  79.685  1.00  0.00     0.162 HD
ENDBRANCH  19  20
ENDBRANCH  16  19
ENDBRANCH   1  12
BRANCH  11  25
HETATM   25  C14 UNL     1      63.240   5.875  82.067  1.00  0.00     0.293 C 
BRANCH  25  26
HETATM   26  O5  UNL     1      62.023   6.599  81.910  1.00  0.00    -0.367 OA
ATOM     27  H5  UNL     1      61.854   7.137  82.675  1.00  0.00     0.213 HD
ENDBRANCH  25  26
BRANCH  25  28
HETATM   28  O6  UNL     1      64.096   6.532  81.121  1.00  0.00    -0.367 OA
ATOM     29  H6  UNL     1      63.527   7.051  80.565  1.00  0.00     0.213 HD
ENDBRANCH  25  28
ENDBRANCH  11  25
BRANCH  10  30
HETATM   30  N10 UNL     1      64.297   3.828  83.706  1.00  0.00    -0.398 N 
ATOM     31 2H10 UNL     1      64.629   3.496  82.801  1.00  0.00     0.156 HD
ATOM     32 1H10 UNL     1      63.890   3.159  84.359  1.00  0.00     0.156 HD
ENDBRANCH  10  30
BRANCH   8  33
HETATM   33  N6  UNL     1      65.571   2.987  86.154  1.00  0.00    -0.161 N 
HETATM   34  N7  UNL     1      66.548   2.394  85.509  1.00  0.00    -0.218 N 
HETATM   35  N8  UNL     1      66.352   1.067  85.546  1.00  0.00    -0.268 N 
ATOM     36  H7  UNL     1      67.329   2.866  85.054  1.00  0.00     0.210 HD
HETATM   37  C9  UNL     1      65.222   0.822  86.231  1.00  0.00     0.169 A 
ATOM     38  H8  UNL     1      66.959   0.364  85.124  1.00  0.00     0.190 HD
HETATM   39  N9  UNL     1      64.755   2.022  86.598  1.00  0.00    -0.259 N 
ATOM     40  H9  UNL     1      63.904   2.178  87.137  1.00  0.00     0.190 HD
BRANCH  37  41
HETATM   41  C10 UNL     1      64.629  -0.528  86.511  1.00  0.00     0.326 C 
BRANCH  41  42
HETATM   42  O3  UNL     1      65.635  -1.264  87.148  1.00  0.00    -0.365 OA
ATOM     43  H3  UNL     1      66.049  -1.782  86.468  1.00  0.00     0.213 HD
ENDBRANCH  41  42
BRANCH  41  44
HETATM   44  O4  UNL     1      63.571  -0.364  87.403  1.00  0.00    -0.365 OA
ATOM     45  H4  UNL     1      62.912  -1.020  87.209  1.00  0.00     0.213 HD
ENDBRANCH  41  44
ENDBRANCH  37  41
ENDBRANCH   8  33
TORSDOF 11
ENDMDL
MODEL 3
REMARK VINA RESULT: -7.847765716      2.741      9.216
REMARK  11 active torsions:
REMARK  status: ('A' for Active; 'I' for Inactive)
REMARK       I    between atoms: C2_2  and  N1_4 
REMARK    1  A    between atoms: N1_4  and  C3_6 
REMARK    2  A    between atoms: C3_6  and  C4_7 
REMARK    3  A    between atoms: C5_12  and  C6_13 
REMARK    4  A    between atoms: C8_20  and  N6_21 
REMARK    5  A    between atoms: C9_26  and  C10_27 
REMARK    6  A    between atoms: C10_27  and  O3_28 
REMARK    7  A    between atoms: C10_27  and  O4_30 
REMARK    8  A    between atoms: C12_35  and  N10_36 
REMARK    9  A    between atoms: C13_39  and  C14_40 
REMARK   10  A    between atoms: C14_40  and  O5_41 
REMARK   11  A    between atoms: C14_40  and  O6_43 
ROOT
HETATM    1  C6  UNL     1      63.055   2.938  83.223  1.00  0.00     0.143 A 
HETATM    2  O2  UNL     1      61.877   3.314  82.716  1.00  0.00    -0.286 OA
HETATM    3  C7  UNL     1      61.583   4.531  82.364  1.00  0.00     0.179 A 
HETATM    4  N4  UNL     1      60.466   5.110  81.839  1.00  0.00    -0.277 N 
ATOM      5  H4  UNL     1      59.600   4.617  81.622  1.00  0.00     0.189 HD
HETATM    6  N5  UNL     1      60.665   6.388  81.654  1.00  0.00    -0.280 N 
ATOM      7  H5  UNL     1      59.994   7.055  81.273  1.00  0.00     0.188 HD
HETATM    8  C8  UNL     1      61.923   6.664  82.059  1.00  0.00     0.178 A 
HETATM    9  C11 UNL     1      62.529   5.514  82.512  1.00  0.00     0.092 A 
HETATM   10  C12 UNL     1      63.789   5.196  83.037  1.00  0.00     0.058 A 
HETATM   11  C13 UNL     1      64.060   3.863  83.404  1.00  0.00     0.061 A 
ENDROOT
BRANCH   1  12
HETATM   12  C5  UNL     1      63.226   1.516  83.571  1.00  0.00     0.199 A 
HETATM   13  N3  UNL     1      62.518   0.431  83.344  1.00  0.00    -0.276 N 
HETATM   14  N2  UNL     1      63.132  -0.598  83.883  1.00  0.00    -0.280 N 
ATOM     15  H3  UNL     1      61.636   0.395  82.833  1.00  0.00     0.189 HD
HETATM   16  C4  UNL     1      64.261  -0.172  84.472  1.00  0.00     0.158 A 
ATOM     17  H2  UNL     1      62.804  -1.564  83.858  1.00  0.00     0.189 HD
HETATM   18  O7  UNL     1      64.285   1.106  84.264  1.00  0.00    -0.274 OA
BRANCH  16  19
HETATM   19  C3  UNL     1      65.274  -0.974  85.206  1.00  0.00     0.208 C 
BRANCH  19  20
HETATM   20  N1  UNL     1      64.745  -1.393  86.475  1.00  0.00    -0.354 N 
HETATM   21  C2  UNL     1      65.119  -0.767  87.704  1.00  0.00     0.213 C 
HETATM   22  C1  UNL     1      64.531  -1.255  88.969  1.00  0.00     0.117 C 
HETATM   23  O1  UNL     1      65.925   0.175  87.734  1.00  0.00    -0.274 OA
ATOM     24  H1  UNL     1      64.078  -2.166  86.498  1.00  0.00     0.162 HD
ENDBRANCH  19  20
ENDBRANCH  16  19
ENDBRANCH   1  12
BRANCH  11  25
HETATM   25  C14 UNL     1      65.390   3.578  83.965  1.00  0.00     0.293 C 
BRANCH  25  26
HETATM   26  O5  UNL     1      66.412   3.983  83.059  1.00  0.00    -0.367 OA
ATOM     27  H5  UNL     1      67.118   3.348  83.047  1.00  0.00     0.213 HD
ENDBRANCH  25  26
BRANCH  25  28
HETATM   28  O6  UNL     1      65.574   4.504  85.047  1.00  0.00    -0.367 OA
ATOM     29  H6  UNL     1      66.470   4.812  84.982  1.00  0.00     0.213 HD
ENDBRANCH  25  28
ENDBRANCH  11  25
BRANCH  10  30
HETATM   30  N10 UNL     1      64.577   6.161  83.156  1.00  0.00    -0.398 N 
ATOM     31 2H10 UNL     1      65.160   6.549  82.414  1.00  0.00     0.156 HD
ATOM     32 1H10 UNL     1      64.632   6.565  84.090  1.00  0.00     0.156 HD
ENDBRANCH  10  30
BRANCH   8  33
HETATM   33  N6  UNL     1      62.583   7.926  82.045  1.00  0.00    -0.161 N 
HETATM   34  N7  UNL     1      62.658   8.756  83.058  1.00  0.00    -0.218 N 
HETATM   35  N8  UNL     1      63.353   9.840  82.683  1.00  0.00    -0.268 N 
ATOM     36  H7  UNL     1      62.253   8.602  83.981  1.00  0.00     0.210 HD
HETATM   37  C9  UNL     1      63.723   9.686  81.400  1.00  0.00     0.169 A 
ATOM     38  H8  UNL     1      63.565  10.646  83.272  1.00  0.00     0.190 HD
HETATM   39  N9  UNL     1      63.237   8.495  81.025  1.00  0.00    -0.259 N 
ATOM     40  H9  UNL     1      63.349   8.083  80.099  1.00  0.00     0.190 HD
BRANCH  37  41
HETATM   41  C10 UNL     1      64.517  10.661  80.581  1.00  0.00     0.326 C 
BRANCH  41  42
HETATM   42  O3  UNL     1      64.626  10.093  79.306  1.00  0.00    -0.365 OA
ATOM     43  H3  UNL     1      65.551   9.922  79.175  1.00  0.00     0.213 HD
ENDBRANCH  41  42
BRANCH  41  44
HETATM   44  O4  UNL     1      63.784  11.842  80.475  1.00  0.00    -0.365 OA
ATOM     45  H4  UNL     1      63.925  12.205  79.608  1.00  0.00     0.213 HD
ENDBRANCH  41  44
ENDBRANCH  37  41
ENDBRANCH   8  33
TORSDOF 11
ENDMDL
MODEL 4
REMARK VINA RESULT: -7.804423398      1.485      1.703
REMARK  11 active torsions:
REMARK  status: ('A' for Active; 'I' for Inactive)
REMARK       I    between atoms: C2_2  and  N1_4 
REMARK    1  A    between atoms: N1_4  and  C3_6 
REMARK    2  A    between atoms: C3_6  and  C4_7 
REMARK    3  A    between atoms: C5_12  and  C6_13 
REMARK    4  A    between atoms: C8_20  and  N6_21 
REMARK    5  A    between atoms: C9_26  and  C10_27 
REMARK    6  A    between atoms: C10_27  and  O3_28 
REMARK    7  A    between atoms: C10_27  and  O4_30 
REMARK    8  A    between atoms: C12_35  and  N10_36 
REMARK    9  A    between atoms: C13_39  and  C14_40 
REMARK   10  A    between atoms: C14_40  and  O5_41 
REMARK   11  A    between atoms: C14_40  and  O6_43 
ROOT
HETATM    1  C6  UNL     1      63.957   6.605  84.018  1.00  0.00     0.143 A 
HETATM    2  O2  UNL     1      64.691   6.604  85.135  1.00  0.00    -0.286 OA
HETATM    3  C7  UNL     1      65.146   5.532  85.714  1.00  0.00     0.179 A 
HETATM    4  N4  UNL     1      65.896   5.319  86.832  1.00  0.00    -0.277 N 
ATOM      5  H4  UNL     1      66.249   6.052  87.447  1.00  0.00     0.189 HD
HETATM    6  N5  UNL     1      66.098   4.039  87.002  1.00  0.00    -0.280 N 
ATOM      7  H5  UNL     1      66.626   3.607  87.760  1.00  0.00     0.188 HD
HETATM    8  C8  UNL     1      65.478   3.394  85.992  1.00  0.00     0.178 A 
HETATM    9  C11 UNL     1      64.868   4.307  85.161  1.00  0.00     0.092 A 
HETATM   10  C12 UNL     1      64.103   4.228  83.990  1.00  0.00     0.058 A 
HETATM   11  C13 UNL     1      63.633   5.418  83.399  1.00  0.00     0.061 A 
ENDROOT
BRANCH   1  12
HETATM   12  C5  UNL     1      63.519   7.910  83.490  1.00  0.00     0.199 A 
HETATM   13  N3  UNL     1      62.925   8.956  84.022  1.00  0.00    -0.276 N 
HETATM   14  N2  UNL     1      62.761   9.871  83.094  1.00  0.00    -0.280 N 
ATOM     15  H3  UNL     1      62.638   9.042  84.997  1.00  0.00     0.189 HD
HETATM   16  C4  UNL     1      63.259   9.409  81.935  1.00  0.00     0.158 A 
ATOM     17  H2  UNL     1      62.327  10.783  83.231  1.00  0.00     0.189 HD
HETATM   18  O7  UNL     1      63.707   8.226  82.212  1.00  0.00    -0.274 OA
BRANCH  16  19
HETATM   19  C3  UNL     1      63.298  10.090  80.615  1.00  0.00     0.208 C 
BRANCH  19  20
HETATM   20  N1  UNL     1      63.577   9.136  79.577  1.00  0.00    -0.354 N 
HETATM   21  C2  UNL     1      64.807   9.138  78.848  1.00  0.00     0.213 C 
HETATM   22  C1  UNL     1      65.021   8.124  77.795  1.00  0.00     0.117 C 
HETATM   23  O1  UNL     1      65.698   9.970  79.079  1.00  0.00    -0.274 OA
ATOM     24  H1  UNL     1      62.873   8.433  79.352  1.00  0.00     0.162 HD
ENDBRANCH  19  20
ENDBRANCH  16  19
ENDBRANCH   1  12
BRANCH  11  25
HETATM   25  C14 UNL     1      62.821   5.287  82.179  1.00  0.00     0.293 C 
BRANCH  25  26
HETATM   26  O5  UNL     1      61.659   6.107  82.261  1.00  0.00    -0.367 OA
ATOM     27  H5  UNL     1      61.902   7.022  82.346  1.00  0.00     0.213 HD
ENDBRANCH  25  26
BRANCH  25  28
HETATM   28  O6  UNL     1      63.562   5.932  81.133  1.00  0.00    -0.367 OA
ATOM     29  H6  UNL     1      63.039   6.675  80.857  1.00  0.00     0.213 HD
ENDBRANCH  25  28
ENDBRANCH  11  25
BRANCH  10  30
HETATM   30  N10 UNL     1      63.883   3.069  83.573  1.00  0.00    -0.398 N 
ATOM     31 2H10 UNL     1      63.129   2.457  83.885  1.00  0.00     0.156 HD
ATOM     32 1H10 UNL     1      64.540   2.726  82.873  1.00  0.00     0.156 HD
ENDBRANCH  10  30
BRANCH   8  33
HETATM   33  N6  UNL     1      65.425   1.990  85.760  1.00  0.00    -0.161 N 
HETATM   34  N7  UNL     1      66.175   1.331  84.910  1.00  0.00    -0.218 N 
HETATM   35  N8  UNL     1      65.851   0.030  84.959  1.00  0.00    -0.268 N 
ATOM     36  H7  UNL     1      66.890   1.741  84.308  1.00  0.00     0.210 HD
HETATM   37  C9  UNL     1      64.870  -0.130  85.864  1.00  0.00     0.169 A 
ATOM     38  H8  UNL     1      66.277  -0.712  84.404  1.00  0.00     0.190 HD
HETATM   39  N9  UNL     1      64.622   1.094  86.348  1.00  0.00    -0.259 N 
ATOM     40  H9  UNL     1      63.924   1.311  87.059  1.00  0.00     0.190 HD
BRANCH  37  41
HETATM   41  C10 UNL     1      64.208  -1.424  86.237  1.00  0.00     0.326 C 
BRANCH  41  42
HETATM   42  O3  UNL     1      63.741  -1.255  87.545  1.00  0.00    -0.365 OA
ATOM     43  H3  UNL     1      63.252  -0.440  87.544  1.00  0.00     0.213 HD
ENDBRANCH  41  42
BRANCH  41  44
HETATM   44  O4  UNL     1      63.110  -1.611  85.399  1.00  0.00    -0.365 OA
ATOM     45  H4  UNL     1      62.352  -1.805  85.938  1.00  0.00     0.213 HD
ENDBRANCH  41  44
ENDBRANCH  37  41
ENDBRANCH   8  33
TORSDOF 11
ENDMDL
MODEL 5
REMARK VINA RESULT: -7.673963628      2.939      9.237
REMARK  11 active torsions:
REMARK  status: ('A' for Active; 'I' for Inactive)
REMARK       I    between atoms: C2_2  and  N1_4 
REMARK    1  A    between atoms: N1_4  and  C3_6 
REMARK    2  A    between atoms: C3_6  and  C4_7 
REMARK    3  A    between atoms: C5_12  and  C6_13 
REMARK    4  A    between atoms: C8_20  and  N6_21 
REMARK    5  A    between atoms: C9_26  and  C10_27 
REMARK    6  A    between atoms: C10_27  and  O3_28 
REMARK    7  A    between atoms: C10_27  and  O4_30 
REMARK    8  A    between atoms: C12_35  and  N10_36 
REMARK    9  A    between atoms: C13_39  and  C14_40 
REMARK   10  A    between atoms: C14_40  and  O5_41 
REMARK   11  A    between atoms: C14_40  and  O6_43 
ROOT
HETATM    1  C6  UNL     1      63.291   4.064  83.101  1.00  0.00     0.143 A 
HETATM    2  O2  UNL     1      62.093   4.349  82.580  1.00  0.00    -0.286 OA
HETATM    3  C7  UNL     1      61.739   5.524  82.149  1.00  0.00     0.179 A 
HETATM    4  N4  UNL     1      60.592   6.011  81.596  1.00  0.00    -0.277 N 
ATOM      5  H4  UNL     1      59.750   5.464  81.421  1.00  0.00     0.189 HD
HETATM    6  N5  UNL     1      60.728   7.282  81.323  1.00  0.00    -0.280 N 
ATOM      7  H5  UNL     1      60.023   7.888  80.905  1.00  0.00     0.188 HD
HETATM    8  C8  UNL     1      61.974   7.645  81.697  1.00  0.00     0.178 A 
HETATM    9  C11 UNL     1      62.637   6.558  82.221  1.00  0.00     0.092 A 
HETATM   10  C12 UNL     1      63.914   6.337  82.755  1.00  0.00     0.058 A 
HETATM   11  C13 UNL     1      64.251   5.046  83.209  1.00  0.00     0.061 A 
ENDROOT
BRANCH   1  12
HETATM   12  C5  UNL     1      63.532   2.679  83.543  1.00  0.00     0.199 A 
HETATM   13  N3  UNL     1      64.415   2.118  84.341  1.00  0.00    -0.276 N 
HETATM   14  N2  UNL     1      64.181   0.826  84.392  1.00  0.00    -0.280 N 
ATOM     15  H3  UNL     1      65.159   2.607  84.838  1.00  0.00     0.189 HD
HETATM   16  C4  UNL     1      63.126   0.543  83.611  1.00  0.00     0.158 A 
ATOM     17  H2  UNL     1      64.715   0.149  84.936  1.00  0.00     0.189 HD
HETATM   18  O7  UNL     1      62.761   1.683  83.117  1.00  0.00    -0.274 OA
BRANCH  16  19
HETATM   19  C3  UNL     1      62.498  -0.780  83.358  1.00  0.00     0.208 C 
BRANCH  19  20
HETATM   20  N1  UNL     1      61.289  -0.907  84.124  1.00  0.00    -0.354 N 
HETATM   21  C2  UNL     1      61.299  -1.122  85.538  1.00  0.00     0.213 C 
HETATM   22  C1  UNL     1      60.015  -1.242  86.257  1.00  0.00     0.117 C 
HETATM   23  O1  UNL     1      62.361  -1.211  86.173  1.00  0.00    -0.274 OA
ATOM     24  H1  UNL     1      60.392  -0.841  83.643  1.00  0.00     0.162 HD
ENDBRANCH  19  20
ENDBRANCH  16  19
ENDBRANCH   1  12
BRANCH  11  25
HETATM   25  C14 UNL     1      65.597   4.864  83.776  1.00  0.00     0.293 C 
BRANCH  25  26
HETATM   26  O5  UNL     1      65.517   4.291  85.079  1.00  0.00    -0.367 OA
ATOM     27  H5  UNL     1      65.299   4.956  85.722  1.00  0.00     0.213 HD
ENDBRANCH  25  26
BRANCH  25  28
HETATM   28  O6  UNL     1      66.206   3.802  83.026  1.00  0.00    -0.367 OA
ATOM     29  H6  UNL     1      66.168   3.031  83.580  1.00  0.00     0.213 HD
ENDBRANCH  25  28
ENDBRANCH  11  25
BRANCH  10  30
HETATM   30  N10 UNL     1      64.655   7.344  82.801  1.00  0.00    -0.398 N 
ATOM     31 2H10 UNL     1      65.576   7.387  83.236  1.00  0.00     0.156 HD
ATOM     32 1H10 UNL     1      64.272   8.186  82.372  1.00  0.00     0.156 HD
ENDBRANCH  10  30
BRANCH   8  33
HETATM   33  N6  UNL     1      62.572   8.932  81.591  1.00  0.00    -0.161 N 
HETATM   34  N7  UNL     1      62.399   9.923  82.434  1.00  0.00    -0.218 N 
HETATM   35  N8  UNL     1      63.115  10.978  82.019  1.00  0.00    -0.268 N 
ATOM     36  H7  UNL     1      61.814   9.895  83.269  1.00  0.00     0.210 HD
HETATM   37  C9  UNL     1      63.754  10.641  80.886  1.00  0.00     0.169 A 
ATOM     38  H8  UNL     1      63.166  11.884  82.485  1.00  0.00     0.190 HD
HETATM   39  N9  UNL     1      63.405   9.372  80.639  1.00  0.00    -0.259 N 
ATOM     40  H9  UNL     1      63.726   8.821  79.843  1.00  0.00     0.190 HD
BRANCH  37  41
HETATM   41  C10 UNL     1      64.664  11.523  80.083  1.00  0.00     0.326 C 
BRANCH  41  42
HETATM   42  O3  UNL     1      65.109  10.741  79.010  1.00  0.00    -0.365 OA
ATOM     43  H3  UNL     1      65.853  11.203  78.643  1.00  0.00     0.213 HD
ENDBRANCH  41  42
BRANCH  41  44
HETATM   44  O4  UNL     1      63.912  12.581  79.574  1.00  0.00    -0.365 OA
ATOM     45  H4  UNL     1      64.324  13.395  79.839  1.00  0.00     0.213 HD
ENDBRANCH  41  44
ENDBRANCH  37  41
ENDBRANCH   8  33
TORSDOF 11
ENDMDL
