MODEL 1
REMARK VINA RESULT: -9.474469114      0.000      0.000
REMARK  8 active torsions:
REMARK  status: ('A' for Active; 'I' for Inactive)
REMARK    1  A    between atoms: C3_4  and  C4_5 
REMARK    2  A    between atoms: N2_10  and  C6_11 
REMARK    3  A    between atoms: C6_11  and  C7_12 
REMARK    4  A    between atoms: C7_12  and  S1_13 
REMARK    5  A    between atoms: S1_13  and  S2_14 
REMARK    6  A    between atoms: S2_14  and  C8_15 
REMARK    7  A    between atoms: C9_18  and  N4_19 
REMARK    8  A    between atoms: N4_19  and  C10_20 
ROOT
HETATM    1  C8  UNL     1      63.109   5.762  82.814  1.00  0.00     0.158 A 
HETATM    2  N3  UNL     1      63.817   4.750  83.303  1.00  0.00    -0.309 N 
ATOM      3  H3  UNL     1      63.842   3.885  82.764  1.00  0.00     0.170 HD
HETATM    4  C9  UNL     1      64.519   4.787  84.485  1.00  0.00     0.212 A 
HETATM    5  C11 UNL     1      64.457   5.999  85.193  1.00  0.00     0.145 A 
HETATM    6  N9  UNL     1      65.133   6.166  86.421  1.00  0.00    -0.094 NA
HETATM    7  C12 UNL     1      63.727   7.028  84.682  1.00  0.00     0.147 A 
HETATM    8  N10 UNL     1      63.655   8.261  85.388  1.00  0.00    -0.080 NA
HETATM    9  N11 UNL     1      63.073   6.904  83.520  1.00  0.00    -0.323 N 
ATOM     10  H11 UNL     1      62.535   7.694  83.162  1.00  0.00     0.169 HD
ENDROOT
BRANCH   1  11
HETATM   11  S2  UNL     1      62.223   5.612  81.255  1.00  0.00    -0.021 SA
BRANCH  11  12
HETATM   12  S1  UNL     1      61.168   7.391  80.811  1.00  0.00    -0.088 SA
BRANCH  12  13
HETATM   13  C7  UNL     1      62.202   8.734  80.290  1.00  0.00     0.108 C 
BRANCH  13  14
HETATM   14  C6  UNL     1      63.663   8.590  80.425  1.00  0.00     0.163 C 
BRANCH  14  15
HETATM   15  N2  UNL     1      64.435   8.924  79.260  1.00  0.00    -0.255 N 
HETATM   16  C5  UNL     1      64.697   8.017  78.285  1.00  0.00     0.279 A 
HETATM   17  C3  UNL     1      65.470   8.263  77.180  1.00  0.00     0.113 A 
HETATM   18  O3  UNL     1      64.192   6.879  78.414  1.00  0.00    -0.265 OA
HETATM   19  C2  UNL     1      66.016   9.543  77.071  1.00  0.00     0.070 A 
HETATM   20  C1  UNL     1      65.756  10.470  78.055  1.00  0.00     0.132 A 
HETATM   21  N1  UNL     1      66.327  11.764  77.914  1.00  0.00    -0.081 NA
HETATM   22  N12 UNL     1      64.984  10.129  79.098  1.00  0.00    -0.283 N 
ATOM     23  H12 UNL     1      64.806  10.836  79.812  1.00  0.00     0.188 HD
BRANCH  17  24
HETATM   24  C4  UNL     1      65.737   7.280  76.151  1.00  0.00     0.215 C 
HETATM   25  O1  UNL     1      66.840   7.287  75.571  1.00  0.00    -0.644 OA
HETATM   26  O2  UNL     1      64.778   6.350  75.822  1.00  0.00    -0.644 OA
ENDBRANCH  17  24
ENDBRANCH  14  15
ENDBRANCH  13  14
ENDBRANCH  12  13
ENDBRANCH  11  12
ENDBRANCH   1  11
BRANCH   4  27
HETATM   27  N4  UNL     1      65.157   3.896  84.929  1.00  0.00    -0.348 NA
BRANCH  27  28
HETATM   28  C10 UNL     1      65.884   2.917  85.431  1.00  0.00     0.287 C 
HETATM   29  N5  UNL     1      66.139   1.697  84.927  1.00  0.00    -0.244 N 
HETATM   30  N6  UNL     1      66.952   1.043  85.835  1.00  0.00    -0.005 NA
ATOM     31  H5  UNL     1      65.797   1.324  84.042  1.00  0.00     0.188 HD
HETATM   32  N7  UNL     1      66.800   1.642  87.084  1.00  0.00    -0.005 NA
HETATM   33  N8  UNL     1      66.598   2.967  86.703  1.00  0.00    -0.244 N 
ATOM     34  H8  UNL     1      66.891   3.803  87.210  1.00  0.00     0.188 HD
ENDBRANCH  27  28
ENDBRANCH   4  27
TORSDOF 8
ENDMDL
MODEL 2
REMARK VINA RESULT: -9.248030357      3.862      9.112
REMARK  8 active torsions:
REMARK  status: ('A' for Active; 'I' for Inactive)
REMARK    1  A    between atoms: C3_4  and  C4_5 
REMARK    2  A    between atoms: N2_10  and  C6_11 
REMARK    3  A    between atoms: C6_11  and  C7_12 
REMARK    4  A    between atoms: C7_12  and  S1_13 
REMARK    5  A    between atoms: S1_13  and  S2_14 
REMARK    6  A    between atoms: S2_14  and  C8_15 
REMARK    7  A    between atoms: C9_18  and  N4_19 
REMARK    8  A    between atoms: N4_19  and  C10_20 
ROOT
HETATM    1  C8  UNL     1      63.416   8.534  79.974  1.00  0.00     0.158 A 
HETATM    2  N3  UNL     1      64.065   8.010  78.940  1.00  0.00    -0.309 N 
ATOM      3  H3  UNL     1      63.862   7.041  78.694  1.00  0.00     0.170 HD
HETATM    4  C9  UNL     1      64.992   8.683  78.178  1.00  0.00     0.212 A 
HETATM    5  C11 UNL     1      65.239  10.014  78.554  1.00  0.00     0.145 A 
HETATM    6  N9  UNL     1      66.169  10.812  77.853  1.00  0.00    -0.094 NA
HETATM    7  C12 UNL     1      64.567  10.539  79.615  1.00  0.00     0.147 A 
HETATM    8  N10 UNL     1      64.807  11.885  80.005  1.00  0.00    -0.080 NA
HETATM    9  N11 UNL     1      63.678   9.809  80.302  1.00  0.00    -0.323 N 
ATOM     10  H11 UNL     1      63.190  10.232  81.092  1.00  0.00     0.169 HD
ENDROOT
BRANCH   1  11
HETATM   11  S2  UNL     1      62.218   7.568  80.909  1.00  0.00    -0.021 SA
BRANCH  11  12
HETATM   12  S1  UNL     1      62.958   7.111  82.837  1.00  0.00    -0.088 SA
BRANCH  12  13
HETATM   13  C7  UNL     1      63.980   5.662  82.895  1.00  0.00     0.108 C 
BRANCH  13  14
HETATM   14  C6  UNL     1      63.632   4.593  83.850  1.00  0.00     0.163 C 
BRANCH  14  15
HETATM   15  N2  UNL     1      64.519   4.441  84.969  1.00  0.00    -0.255 N 
HETATM   16  C5  UNL     1      65.160   3.273  85.227  1.00  0.00     0.279 A 
HETATM   17  C3  UNL     1      65.974   3.054  86.308  1.00  0.00     0.113 A 
HETATM   18  O3  UNL     1      64.987   2.337  84.415  1.00  0.00    -0.265 OA
HETATM   19  C2  UNL     1      66.141   4.121  87.192  1.00  0.00     0.070 A 
HETATM   20  C1  UNL     1      65.495   5.310  86.939  1.00  0.00     0.132 A 
HETATM   21  N1  UNL     1      65.687   6.377  87.859  1.00  0.00    -0.081 NA
HETATM   22  N12 UNL     1      64.720   5.423  85.850  1.00  0.00    -0.283 N 
ATOM     23  H12 UNL     1      64.254   6.316  85.685  1.00  0.00     0.188 HD
BRANCH  17  24
HETATM   24  C4  UNL     1      66.648   1.799  86.564  1.00  0.00     0.215 C 
HETATM   25  O1  UNL     1      67.798   1.620  86.116  1.00  0.00    -0.644 OA
HETATM   26  O2  UNL     1      66.021   0.817  87.296  1.00  0.00    -0.644 OA
ENDBRANCH  17  24
ENDBRANCH  14  15
ENDBRANCH  13  14
ENDBRANCH  12  13
ENDBRANCH  11  12
ENDBRANCH   1  11
BRANCH   4  27
HETATM   27  N4  UNL     1      65.574   8.230  77.254  1.00  0.00    -0.348 NA
BRANCH  27  28
HETATM   28  C10 UNL     1      66.216   7.742  76.210  1.00  0.00     0.287 C 
HETATM   29  N5  UNL     1      67.463   7.995  75.780  1.00  0.00    -0.244 N 
HETATM   30  N6  UNL     1      67.664   7.235  74.642  1.00  0.00    -0.005 NA
ATOM     31  H5  UNL     1      68.136   8.628  76.213  1.00  0.00     0.188 HD
HETATM   32  N7  UNL     1      66.423   6.907  74.099  1.00  0.00    -0.005 NA
HETATM   33  N8  UNL     1      65.668   6.775  75.263  1.00  0.00    -0.244 N 
ATOM     34  H8  UNL     1      64.891   6.133  75.421  1.00  0.00     0.188 HD
ENDBRANCH  27  28
ENDBRANCH   4  27
TORSDOF 8
ENDMDL
MODEL 3
REMARK VINA RESULT: -9.242444059      4.207      9.037
REMARK  8 active torsions:
REMARK  status: ('A' for Active; 'I' for Inactive)
REMARK    1  A    between atoms: C3_4  and  C4_5 
REMARK    2  A    between atoms: N2_10  and  C6_11 
REMARK    3  A    between atoms: C6_11  and  C7_12 
REMARK    4  A    between atoms: C7_12  and  S1_13 
REMARK    5  A    between atoms: S1_13  and  S2_14 
REMARK    6  A    between atoms: S2_14  and  C8_15 
REMARK    7  A    between atoms: C9_18  and  N4_19 
REMARK    8  A    between atoms: N4_19  and  C10_20 
ROOT
HETATM    1  C8  UNL     1      63.991   8.269  79.433  1.00  0.00     0.158 A 
HETATM    2  N3  UNL     1      63.951   7.211  78.631  1.00  0.00    -0.309 N 
ATOM      3  H3  UNL     1      63.350   6.433  78.903  1.00  0.00     0.170 HD
HETATM    4  C9  UNL     1      64.663   7.091  77.460  1.00  0.00     0.212 A 
HETATM    5  C11 UNL     1      65.477   8.186  77.127  1.00  0.00     0.145 A 
HETATM    6  N9  UNL     1      66.258   8.187  75.952  1.00  0.00    -0.094 NA
HETATM    7  C12 UNL     1      65.509   9.265  77.957  1.00  0.00     0.147 A 
HETATM    8  N10 UNL     1      66.328  10.381  77.631  1.00  0.00    -0.080 NA
HETATM    9  N11 UNL     1      64.780   9.297  79.080  1.00  0.00    -0.323 N 
ATOM     10  H11 UNL     1      64.825  10.120  79.681  1.00  0.00     0.169 HD
ENDROOT
BRANCH   1  11
HETATM   11  S2  UNL     1      63.018   8.329  80.947  1.00  0.00    -0.021 SA
BRANCH  11  12
HETATM   12  S1  UNL     1      62.801   6.398  81.782  1.00  0.00    -0.088 SA
BRANCH  12  13
HETATM   13  C7  UNL     1      63.807   6.112  83.215  1.00  0.00     0.108 C 
BRANCH  13  14
HETATM   14  C6  UNL     1      63.588   4.879  83.993  1.00  0.00     0.163 C 
BRANCH  14  15
HETATM   15  N2  UNL     1      64.508   4.648  85.071  1.00  0.00    -0.255 N 
HETATM   16  C5  UNL     1      65.110   3.447  85.261  1.00  0.00     0.279 A 
HETATM   17  C3  UNL     1      65.953   3.154  86.301  1.00  0.00     0.113 A 
HETATM   18  O3  UNL     1      64.871   2.550  84.421  1.00  0.00    -0.265 OA
HETATM   19  C2  UNL     1      66.196   4.178  87.217  1.00  0.00     0.070 A 
HETATM   20  C1  UNL     1      65.590   5.401  87.034  1.00  0.00     0.132 A 
HETATM   21  N1  UNL     1      65.858   6.423  87.985  1.00  0.00    -0.081 NA
HETATM   22  N12 UNL     1      64.781   5.586  85.980  1.00  0.00    -0.283 N 
ATOM     23  H12 UNL     1      64.346   6.503  85.867  1.00  0.00     0.188 HD
BRANCH  17  24
HETATM   24  C4  UNL     1      66.586   1.864  86.484  1.00  0.00     0.215 C 
HETATM   25  O1  UNL     1      66.068   1.034  87.257  1.00  0.00    -0.644 OA
HETATM   26  O2  UNL     1      67.746   1.564  85.808  1.00  0.00    -0.644 OA
ENDBRANCH  17  24
ENDBRANCH  14  15
ENDBRANCH  13  14
ENDBRANCH  12  13
ENDBRANCH  11  12
ENDBRANCH   1  11
BRANCH   4  27
HETATM   27  N4  UNL     1      64.632   6.156  76.736  1.00  0.00    -0.348 NA
BRANCH  27  28
HETATM   28  C10 UNL     1      64.580   5.124  75.917  1.00  0.00     0.287 C 
HETATM   29  N5  UNL     1      64.653   5.093  74.576  1.00  0.00    -0.244 N 
HETATM   30  N6  UNL     1      64.548   3.768  74.192  1.00  0.00    -0.005 NA
ATOM     31  H5  UNL     1      64.765   5.896  73.957  1.00  0.00     0.188 HD
HETATM   32  N7  UNL     1      63.931   3.054  75.218  1.00  0.00    -0.005 NA
HETATM   33  N8  UNL     1      64.428   3.731  76.329  1.00  0.00    -0.244 N 
ATOM     34  H8  UNL     1      64.643   3.335  77.244  1.00  0.00     0.188 HD
ENDBRANCH  27  28
ENDBRANCH   4  27
TORSDOF 8
ENDMDL
MODEL 4
REMARK VINA RESULT: -9.145767209      3.537      8.474
REMARK  8 active torsions:
REMARK  status: ('A' for Active; 'I' for Inactive)
REMARK    1  A    between atoms: C3_4  and  C4_5 
REMARK    2  A    between atoms: N2_10  and  C6_11 
REMARK    3  A    between atoms: C6_11  and  C7_12 
REMARK    4  A    between atoms: C7_12  and  S1_13 
REMARK    5  A    between atoms: S1_13  and  S2_14 
REMARK    6  A    between atoms: S2_14  and  C8_15 
REMARK    7  A    between atoms: C9_18  and  N4_19 
REMARK    8  A    between atoms: N4_19  and  C10_20 
ROOT
HETATM    1  C8  UNL     1      61.772   6.893  80.975  1.00  0.00     0.158 A 
HETATM    2  N3  UNL     1      62.685   7.301  80.101  1.00  0.00    -0.309 N 
ATOM      3  H3  UNL     1      62.915   6.675  79.329  1.00  0.00     0.170 HD
HETATM    4  C9  UNL     1      63.341   8.508  80.163  1.00  0.00     0.212 A 
HETATM    5  C11 UNL     1      62.992   9.337  81.243  1.00  0.00     0.145 A 
HETATM    6  N9  UNL     1      63.594  10.601  81.420  1.00  0.00    -0.094 NA
HETATM    7  C12 UNL     1      62.055   8.907  82.132  1.00  0.00     0.147 A 
HETATM    8  N10 UNL     1      61.692   9.736  83.229  1.00  0.00    -0.080 NA
HETATM    9  N11 UNL     1      61.465   7.713  81.994  1.00  0.00    -0.323 N 
ATOM     10  H11 UNL     1      60.766   7.419  82.677  1.00  0.00     0.169 HD
ENDROOT
BRANCH   1  11
HETATM   11  S2  UNL     1      60.969   5.291  80.805  1.00  0.00    -0.021 SA
BRANCH  11  12
HETATM   12  S1  UNL     1      61.613   3.959  82.317  1.00  0.00    -0.088 SA
BRANCH  12  13
HETATM   13  C7  UNL     1      62.590   4.722  83.586  1.00  0.00     0.108 C 
BRANCH  13  14
HETATM   14  C6  UNL     1      64.059   4.673  83.466  1.00  0.00     0.163 C 
BRANCH  14  15
HETATM   15  N2  UNL     1      64.780   4.492  84.695  1.00  0.00    -0.255 N 
HETATM   16  C5  UNL     1      65.351   3.306  85.029  1.00  0.00     0.279 A 
HETATM   17  C3  UNL     1      66.003   3.061  86.209  1.00  0.00     0.113 A 
HETATM   18  O3  UNL     1      65.269   2.380  84.192  1.00  0.00    -0.265 OA
HETATM   19  C2  UNL     1      66.073   4.118  87.117  1.00  0.00     0.070 A 
HETATM   20  C1  UNL     1      65.497   5.325  86.789  1.00  0.00     0.132 A 
HETATM   21  N1  UNL     1      65.586   6.381  87.736  1.00  0.00    -0.081 NA
HETATM   22  N12 UNL     1      64.882   5.464  85.605  1.00  0.00    -0.283 N 
ATOM     23  H12 UNL     1      64.465   6.369  85.386  1.00  0.00     0.188 HD
BRANCH  17  24
HETATM   24  C4  UNL     1      66.605   1.787  86.544  1.00  0.00     0.215 C 
HETATM   25  O1  UNL     1      65.973   0.979  87.252  1.00  0.00    -0.644 OA
HETATM   26  O2  UNL     1      67.863   1.478  86.081  1.00  0.00    -0.644 OA
ENDBRANCH  17  24
ENDBRANCH  14  15
ENDBRANCH  13  14
ENDBRANCH  12  13
ENDBRANCH  11  12
ENDBRANCH   1  11
BRANCH   4  27
HETATM   27  N4  UNL     1      64.152   8.885  79.389  1.00  0.00    -0.348 NA
BRANCH  27  28
HETATM   28  C10 UNL     1      65.049   9.289  78.511  1.00  0.00     0.287 C 
HETATM   29  N5  UNL     1      65.533   8.654  77.431  1.00  0.00    -0.244 N 
HETATM   30  N6  UNL     1      66.454   9.500  76.839  1.00  0.00    -0.005 NA
ATOM     31  H5  UNL     1      65.270   7.723  77.107  1.00  0.00     0.188 HD
HETATM   32  N7  UNL     1      66.895  10.417  77.792  1.00  0.00    -0.005 NA
HETATM   33  N8  UNL     1      65.731  10.580  78.539  1.00  0.00    -0.244 N 
ATOM     34  H8  UNL     1      65.418  11.429  79.010  1.00  0.00     0.188 HD
ENDBRANCH  27  28
ENDBRANCH   4  27
TORSDOF 8
ENDMDL
MODEL 5
REMARK VINA RESULT: -9.132514728      1.583      2.319
REMARK  8 active torsions:
REMARK  status: ('A' for Active; 'I' for Inactive)
REMARK    1  A    between atoms: C3_4  and  C4_5 
REMARK    2  A    between atoms: N2_10  and  C6_11 
REMARK    3  A    between atoms: C6_11  and  C7_12 
REMARK    4  A    between atoms: C7_12  and  S1_13 
REMARK    5  A    between atoms: S1_13  and  S2_14 
REMARK    6  A    between atoms: S2_14  and  C8_15 
REMARK    7  A    between atoms: C9_18  and  N4_19 
REMARK    8  A    between atoms: N4_19  and  C10_20 
ROOT
HETATM    1  C8  UNL     1      63.937   6.565  83.896  1.00  0.00     0.158 A 
HETATM    2  N3  UNL     1      64.743   5.579  84.270  1.00  0.00    -0.309 N 
ATOM      3  H3  UNL     1      65.602   5.828  84.761  1.00  0.00     0.170 HD
HETATM    4  C9  UNL     1      64.503   4.244  84.042  1.00  0.00     0.212 A 
HETATM    5  C11 UNL     1      63.308   3.948  83.363  1.00  0.00     0.145 A 
HETATM    6  N9  UNL     1      62.946   2.616  83.067  1.00  0.00    -0.094 NA
HETATM    7  C12 UNL     1      62.491   4.968  82.986  1.00  0.00     0.147 A 
HETATM    8  N10 UNL     1      61.278   4.682  82.298  1.00  0.00    -0.080 NA
HETATM    9  N11 UNL     1      62.805   6.243  83.250  1.00  0.00    -0.323 N 
ATOM     10  H11 UNL     1      62.171   6.985  82.955  1.00  0.00     0.169 HD
ENDROOT
BRANCH   1  11
HETATM   11  S2  UNL     1      64.344   8.284  84.244  1.00  0.00    -0.021 SA
BRANCH  11  12
HETATM   12  S1  UNL     1      64.772   9.335  82.458  1.00  0.00    -0.088 SA
BRANCH  12  13
HETATM   13  C7  UNL     1      63.450   9.318  81.275  1.00  0.00     0.108 C 
BRANCH  13  14
HETATM   14  C6  UNL     1      63.534   8.379  80.140  1.00  0.00     0.163 C 
BRANCH  14  15
HETATM   15  N2  UNL     1      64.389   8.781  79.059  1.00  0.00    -0.255 N 
HETATM   16  C5  UNL     1      64.751   7.925  78.069  1.00  0.00     0.279 A 
HETATM   17  C3  UNL     1      65.605   8.236  77.044  1.00  0.00     0.113 A 
HETATM   18  O3  UNL     1      64.263   6.773  78.106  1.00  0.00    -0.265 OA
HETATM   19  C2  UNL     1      66.128   9.530  77.037  1.00  0.00     0.070 A 
HETATM   20  C1  UNL     1      65.768  10.406  78.037  1.00  0.00     0.132 A 
HETATM   21  N1  UNL     1      66.319  11.716  78.000  1.00  0.00    -0.081 NA
HETATM   22  N12 UNL     1      64.922  10.003  78.996  1.00  0.00    -0.283 N 
ATOM     23  H12 UNL     1      64.670  10.672  79.724  1.00  0.00     0.188 HD
BRANCH  17  24
HETATM   24  C4  UNL     1      65.977   7.307  75.998  1.00  0.00     0.215 C 
HETATM   25  O1  UNL     1      65.112   6.548  75.518  1.00  0.00    -0.644 OA
HETATM   26  O2  UNL     1      67.274   7.268  75.542  1.00  0.00    -0.644 OA
ENDBRANCH  17  24
ENDBRANCH  14  15
ENDBRANCH  13  14
ENDBRANCH  12  13
ENDBRANCH  11  12
ENDBRANCH   1  11
BRANCH   4  27
HETATM   27  N4  UNL     1      65.210   3.356  84.373  1.00  0.00    -0.348 NA
BRANCH  27  28
HETATM   28  C10 UNL     1      65.984   2.361  84.760  1.00  0.00     0.287 C 
HETATM   29  N5  UNL     1      67.068   2.380  85.554  1.00  0.00    -0.244 N 
HETATM   30  N6  UNL     1      67.524   1.078  85.653  1.00  0.00    -0.005 NA
ATOM     31  H5  UNL     1      67.477   3.201  86.000  1.00  0.00     0.188 HD
HETATM   32  N7  UNL     1      67.046   0.353  84.562  1.00  0.00    -0.005 NA
HETATM   33  N8  UNL     1      65.805   0.961  84.383  1.00  0.00    -0.244 N 
ATOM     34  H8  UNL     1      64.946   0.519  84.055  1.00  0.00     0.188 HD
ENDBRANCH  27  28
ENDBRANCH   4  27
TORSDOF 8
ENDMDL
