MODEL 1
REMARK VINA RESULT: -9.456288236      0.000      0.000
REMARK  15 active torsions:
REMARK  status: ('A' for Active; 'I' for Inactive)
REMARK    1  A    between atoms: N1_1  and  C1_5 
REMARK    2  A    between atoms: C1_5  and  C2_6 
REMARK    3  A    between atoms: C1_5  and  C3_11 
REMARK    4  A    between atoms: C2_6  and  O1_7 
REMARK    5  A    between atoms: C2_6  and  O2_9 
REMARK    6  A    between atoms: C3_11  and  O3_12 
REMARK    7  A    between atoms: C3_11  and  C4_14 
REMARK    8  A    between atoms: C6_16  and  C7_17 
REMARK    9  A    between atoms: C7_17  and  N2_18 
REMARK   10  A    between atoms: C7_17  and  C14_37 
REMARK   11  A    between atoms: N2_18  and  C8_20 
REMARK   12  A    between atoms: C8_20  and  O4_21 
REMARK   13  A    between atoms: C8_20  and  N3_23 
REMARK   14  A    between atoms: C15_40  and  C16_41 
REMARK   15  A    between atoms: C18_56  and  O10_57 
ROOT
HETATM    1  C7  UNL     1      27.701   7.000  12.000  1.00  0.00     0.210 C 
ENDROOT
BRANCH   1   2
HETATM    2  C6  UNL     1      26.751   6.534  11.016  1.00  0.00     0.057 A 
HETATM    3  C5  UNL     1      27.098   6.096   9.764  1.00  0.00     0.043 A 
HETATM    4  C4  UNL     1      26.182   5.640   8.849  1.00  0.00     0.027 A 
HETATM    5  C18 UNL     1      24.840   5.644   9.275  1.00  0.00     0.163 A 
HETATM    6  N12 UNL     1      24.533   6.067  10.481  1.00  0.00    -0.279 N 
HETATM    7  N11 UNL     1      25.451   6.508  11.351  1.00  0.00    -0.300 N 
ATOM      8  H12 UNL     1      23.554   6.059  10.767  1.00  0.00     0.189 HD
ATOM      9  H11 UNL     1      25.160   6.828  12.275  1.00  0.00     0.186 HD
BRANCH   4  10
HETATM   10  C3  UNL     1      26.449   5.062   7.520  1.00  0.00     0.191 C 
BRANCH  10  11
HETATM   11  C1  UNL     1      26.182   5.955   6.398  1.00  0.00     0.271 C 
BRANCH  11  12
HETATM   12  N1  UNL     1      27.165   6.879   6.010  1.00  0.00    -0.068 N 
ATOM     13  H13 UNL     1      27.720   7.203   6.802  1.00  0.00     0.275 HD
ATOM     14  H12 UNL     1      27.914   6.439   5.475  1.00  0.00     0.275 HD
ATOM     15  H11 UNL     1      26.733   7.651   5.502  1.00  0.00     0.275 HD
ENDBRANCH  11  12
BRANCH  11  16
HETATM   16  C2  UNL     1      25.569   5.302   5.162  1.00  0.00     0.287 C 
BRANCH  16  17
HETATM   17  O1  UNL     1      24.284   4.890   5.444  1.00  0.00    -0.369 OA
ATOM     18  H1  UNL     1      23.705   5.643   5.472  1.00  0.00     0.212 HD
ENDBRANCH  16  17
BRANCH  16  19
HETATM   19  O2  UNL     1      26.429   4.244   4.837  1.00  0.00    -0.369 OA
ATOM     20  H2  UNL     1      26.093   3.493   5.312  1.00  0.00     0.212 HD
ENDBRANCH  16  19
ENDBRANCH  11  16
ENDBRANCH  10  11
BRANCH  10  21
HETATM   21  O3  UNL     1      25.972   3.778   7.463  1.00  0.00    -0.388 OA
ATOM     22  H3  UNL     1      26.594   3.060   7.481  1.00  0.00     0.210 HD
ENDBRANCH  10  21
ENDBRANCH   4  10
BRANCH   5  23
HETATM   23  O10 UNL     1      23.847   5.188   8.373  1.00  0.00    -0.345 OA
ATOM     24  H10 UNL     1      22.952   5.122   8.683  1.00  0.00     0.219 HD
ENDBRANCH   5  23
ENDBRANCH   1   2
BRANCH   1  25
HETATM   25  N2  UNL     1      29.084   6.941  11.713  1.00  0.00    -0.363 N 
ATOM     26  H2  UNL     1      29.398   6.935  10.742  1.00  0.00     0.158 HD
BRANCH  25  27
HETATM   27  C8  UNL     1      30.041   6.890  12.756  1.00  0.00     0.332 C 
BRANCH  27  28
HETATM   28  O4  UNL     1      30.432   8.164  13.141  1.00  0.00    -0.359 OA
ATOM     29  H4  UNL     1      31.378   8.229  13.202  1.00  0.00     0.214 HD
ENDBRANCH  27  28
BRANCH  27  30
HETATM   30  N3  UNL     1      31.231   6.237  12.157  1.00  0.00    -0.283 N 
HETATM   31  C9  UNL     1      32.088   6.829  11.290  1.00  0.00     0.189 A 
HETATM   32  N4  UNL     1      33.071   5.969  10.961  1.00  0.00    -0.345 N 
HETATM   33  C10 UNL     1      32.818   4.846  11.627  1.00  0.00     0.147 A 
ATOM     34  H4  UNL     1      33.852   6.144  10.328  1.00  0.00     0.167 HD
HETATM   35  C11 UNL     1      33.505   3.666  11.633  1.00  0.00     0.280 A 
HETATM   36  C13 UNL     1      31.664   5.016  12.374  1.00  0.00     0.148 A 
HETATM   37  O5  UNL     1      34.540   3.490  10.971  1.00  0.00    -0.265 OA
HETATM   38  N5  UNL     1      33.052   2.634  12.383  1.00  0.00    -0.273 N 
HETATM   39  C12 UNL     1      31.928   2.799  13.109  1.00  0.00     0.328 A 
ATOM     40  H5  UNL     1      33.554   1.747  12.400  1.00  0.00     0.173 HD
HETATM   41  O6  UNL     1      31.524   1.823  13.803  1.00  0.00    -0.247 OA
HETATM   42  N6  UNL     1      31.248   3.976  13.101  1.00  0.00    -0.292 N 
ATOM     43  H6  UNL     1      30.401   4.067  13.663  1.00  0.00     0.172 HD
ENDBRANCH  27  30
ENDBRANCH  25  27
ENDBRANCH   1  25
BRANCH   1  44
HETATM   44  C14 UNL     1      27.445   6.465  13.370  1.00  0.00     0.177 A 
HETATM   45  N7  UNL     1      28.124   5.359  13.798  1.00  0.00    -0.318 N 
HETATM   46  C15 UNL     1      27.732   5.079  15.053  1.00  0.00     0.174 A 
ATOM     47  H7  UNL     1      28.812   4.835  13.256  1.00  0.00     0.169 HD
HETATM   48  N10 UNL     1      26.835   6.017  15.348  1.00  0.00    -0.240 N 
HETATM   49  O9  UNL     1      26.667   6.844  14.327  1.00  0.00    -0.220 OA
ATOM     50  H10 UNL     1      26.344   6.088  16.239  1.00  0.00     0.196 HD
BRANCH  46  51
HETATM   51  C16 UNL     1      28.198   3.949  15.830  1.00  0.00     0.177 A 
HETATM   52  N8  UNL     1      28.781   2.855  15.331  1.00  0.00    -0.282 N 
HETATM   53  C17 UNL     1      29.077   2.046  16.353  1.00  0.00     0.388 A 
ATOM     54  H8  UNL     1      28.968   2.670  14.345  1.00  0.00     0.172 HD
HETATM   55  O7  UNL     1      29.620   0.925  16.282  1.00  0.00    -0.236 OA
HETATM   56  O8  UNL     1      28.675   2.661  17.446  1.00  0.00    -0.179 OA
HETATM   57  N9  UNL     1      28.145   3.789  17.182  1.00  0.00    -0.236 N 
ATOM     58  H9  UNL     1      27.755   4.449  17.855  1.00  0.00     0.197 HD
ENDBRANCH  46  51
ENDBRANCH   1  44
TORSDOF 15
ENDMDL
MODEL 2
REMARK VINA RESULT: -9.400961029      2.675      8.034
REMARK  15 active torsions:
REMARK  status: ('A' for Active; 'I' for Inactive)
REMARK    1  A    between atoms: N1_1  and  C1_5 
REMARK    2  A    between atoms: C1_5  and  C2_6 
REMARK    3  A    between atoms: C1_5  and  C3_11 
REMARK    4  A    between atoms: C2_6  and  O1_7 
REMARK    5  A    between atoms: C2_6  and  O2_9 
REMARK    6  A    between atoms: C3_11  and  O3_12 
REMARK    7  A    between atoms: C3_11  and  C4_14 
REMARK    8  A    between atoms: C6_16  and  C7_17 
REMARK    9  A    between atoms: C7_17  and  N2_18 
REMARK   10  A    between atoms: C7_17  and  C14_37 
REMARK   11  A    between atoms: N2_18  and  C8_20 
REMARK   12  A    between atoms: C8_20  and  O4_21 
REMARK   13  A    between atoms: C8_20  and  N3_23 
REMARK   14  A    between atoms: C15_40  and  C16_41 
REMARK   15  A    between atoms: C18_56  and  O10_57 
ROOT
HETATM    1  C7  UNL     1      26.814   5.344  14.675  1.00  0.00     0.210 C 
ENDROOT
BRANCH   1   2
HETATM    2  C6  UNL     1      27.589   4.369  15.407  1.00  0.00     0.057 A 
HETATM    3  C5  UNL     1      28.611   3.637  14.863  1.00  0.00     0.043 A 
HETATM    4  C4  UNL     1      29.347   2.727  15.581  1.00  0.00     0.027 A 
HETATM    5  C18 UNL     1      28.990   2.586  16.936  1.00  0.00     0.163 A 
HETATM    6  N12 UNL     1      28.007   3.302  17.435  1.00  0.00    -0.279 N 
HETATM    7  N11 UNL     1      27.305   4.181  16.707  1.00  0.00    -0.300 N 
ATOM      8  H12 UNL     1      27.768   3.183  18.420  1.00  0.00     0.189 HD
ATOM      9  H11 UNL     1      26.550   4.710  17.142  1.00  0.00     0.186 HD
BRANCH   4  10
HETATM   10  C3  UNL     1      30.520   1.959  15.127  1.00  0.00     0.191 C 
BRANCH  10  11
HETATM   11  C1  UNL     1      31.098   2.412  13.867  1.00  0.00     0.271 C 
BRANCH  11  12
HETATM   12  N1  UNL     1      30.998   3.767  13.516  1.00  0.00    -0.068 N 
ATOM     13  H13 UNL     1      31.604   4.005  12.731  1.00  0.00     0.275 HD
ATOM     14  H12 UNL     1      30.101   3.984  13.081  1.00  0.00     0.275 HD
ATOM     15  H11 UNL     1      31.180   4.351  14.332  1.00  0.00     0.275 HD
ENDBRANCH  11  12
BRANCH  11  16
HETATM   16  C2  UNL     1      32.504   1.900  13.561  1.00  0.00     0.287 C 
BRANCH  16  17
HETATM   17  O1  UNL     1      33.060   2.649  12.546  1.00  0.00    -0.369 OA
ATOM     18  H1  UNL     1      32.515   2.590  11.770  1.00  0.00     0.212 HD
ENDBRANCH  16  17
BRANCH  16  19
HETATM   19  O2  UNL     1      32.341   0.549  13.226  1.00  0.00    -0.369 OA
ATOM     20  H2  UNL     1      31.941   0.552  12.365  1.00  0.00     0.212 HD
ENDBRANCH  16  19
ENDBRANCH  11  16
ENDBRANCH  10  11
BRANCH  10  21
HETATM   21  O3  UNL     1      30.298   0.618  15.302  1.00  0.00    -0.388 OA
ATOM     22  H3  UNL     1      29.420   0.281  15.166  1.00  0.00     0.210 HD
ENDBRANCH  10  21
ENDBRANCH   4  10
BRANCH   5  23
HETATM   23  O10 UNL     1      29.712   1.660  17.729  1.00  0.00    -0.345 OA
ATOM     24  H10 UNL     1      29.326   1.370  18.546  1.00  0.00     0.219 HD
ENDBRANCH   5  23
ENDBRANCH   1   2
BRANCH   1  25
HETATM   25  N2  UNL     1      26.298   5.008  13.402  1.00  0.00    -0.363 N 
ATOM     26  H2  UNL     1      26.587   4.137  12.956  1.00  0.00     0.158 HD
BRANCH  25  27
HETATM   27  C8  UNL     1      25.387   5.863  12.738  1.00  0.00     0.332 C 
BRANCH  27  28
HETATM   28  O4  UNL     1      24.100   5.346  12.766  1.00  0.00    -0.359 OA
ATOM     29  H4  UNL     1      23.490   5.918  12.316  1.00  0.00     0.214 HD
ENDBRANCH  27  28
BRANCH  27  30
HETATM   30  N3  UNL     1      25.819   5.862  11.318  1.00  0.00    -0.283 N 
HETATM   31  C9  UNL     1      27.102   5.977  10.897  1.00  0.00     0.189 A 
HETATM   32  N4  UNL     1      27.148   5.914   9.552  1.00  0.00    -0.345 N 
HETATM   33  C10 UNL     1      25.892   5.760   9.146  1.00  0.00     0.147 A 
ATOM     34  H4  UNL     1      27.980   5.973   8.964  1.00  0.00     0.167 HD
HETATM   35  C11 UNL     1      25.395   5.654   7.878  1.00  0.00     0.280 A 
HETATM   36  C13 UNL     1      25.060   5.729  10.254  1.00  0.00     0.148 A 
HETATM   37  O5  UNL     1      26.119   5.679   6.871  1.00  0.00    -0.265 OA
HETATM   38  N5  UNL     1      24.061   5.517   7.694  1.00  0.00    -0.273 N 
HETATM   39  C12 UNL     1      23.252   5.489   8.772  1.00  0.00     0.328 A 
ATOM     40  H5  UNL     1      23.674   5.435   6.754  1.00  0.00     0.173 HD
HETATM   41  O6  UNL     1      22.010   5.360   8.576  1.00  0.00    -0.247 OA
HETATM   42  N6  UNL     1      23.751   5.593  10.032  1.00  0.00    -0.292 N 
ATOM     43  H6  UNL     1      23.110   5.568  10.826  1.00  0.00     0.172 HD
ENDBRANCH  27  30
ENDBRANCH  25  27
ENDBRANCH   1  25
BRANCH   1  44
HETATM   44  C14 UNL     1      27.455   6.691  14.620  1.00  0.00     0.177 A 
HETATM   45  N7  UNL     1      27.001   7.685  15.440  1.00  0.00    -0.318 N 
HETATM   46  C15 UNL     1      27.734   8.790  15.214  1.00  0.00     0.174 A 
ATOM     47  H7  UNL     1      26.235   7.604  16.110  1.00  0.00     0.169 HD
HETATM   48  N10 UNL     1      28.605   8.435  14.273  1.00  0.00    -0.240 N 
HETATM   49  O9  UNL     1      28.427   7.171  13.920  1.00  0.00    -0.220 OA
ATOM     50  H10 UNL     1      29.313   9.053  13.878  1.00  0.00     0.196 HD
BRANCH  46  51
HETATM   51  C16 UNL     1      27.523  10.068  15.864  1.00  0.00     0.177 A 
HETATM   52  N8  UNL     1      26.916  10.245  17.042  1.00  0.00    -0.282 N 
HETATM   53  C17 UNL     1      26.922  11.555  17.311  1.00  0.00     0.388 A 
ATOM     54  H8  UNL     1      26.521   9.513  17.630  1.00  0.00     0.172 HD
HETATM   55  O7  UNL     1      26.438  12.109  18.318  1.00  0.00    -0.236 OA
HETATM   56  O8  UNL     1      27.531  12.143  16.302  1.00  0.00    -0.179 OA
HETATM   57  N9  UNL     1      27.899  11.299  15.421  1.00  0.00    -0.236 N 
ATOM     58  H9  UNL     1      28.384  11.507  14.548  1.00  0.00     0.197 HD
ENDBRANCH  46  51
ENDBRANCH   1  44
TORSDOF 15
ENDMDL
MODEL 3
REMARK VINA RESULT: -9.297040303      1.072      1.247
REMARK  15 active torsions:
REMARK  status: ('A' for Active; 'I' for Inactive)
REMARK    1  A    between atoms: N1_1  and  C1_5 
REMARK    2  A    between atoms: C1_5  and  C2_6 
REMARK    3  A    between atoms: C1_5  and  C3_11 
REMARK    4  A    between atoms: C2_6  and  O1_7 
REMARK    5  A    between atoms: C2_6  and  O2_9 
REMARK    6  A    between atoms: C3_11  and  O3_12 
REMARK    7  A    between atoms: C3_11  and  C4_14 
REMARK    8  A    between atoms: C6_16  and  C7_17 
REMARK    9  A    between atoms: C7_17  and  N2_18 
REMARK   10  A    between atoms: C7_17  and  C14_37 
REMARK   11  A    between atoms: N2_18  and  C8_20 
REMARK   12  A    between atoms: C8_20  and  O4_21 
REMARK   13  A    between atoms: C8_20  and  N3_23 
REMARK   14  A    between atoms: C15_40  and  C16_41 
REMARK   15  A    between atoms: C18_56  and  O10_57 
ROOT
HETATM    1  C7  UNL     1      28.327   7.250  12.147  1.00  0.00     0.210 C 
ENDROOT
BRANCH   1   2
HETATM    2  C6  UNL     1      27.305   6.694  11.289  1.00  0.00     0.057 A 
HETATM    3  C5  UNL     1      27.545   6.203  10.032  1.00  0.00     0.043 A 
HETATM    4  C4  UNL     1      26.563   5.661   9.239  1.00  0.00     0.027 A 
HETATM    5  C18 UNL     1      25.272   5.635   9.799  1.00  0.00     0.163 A 
HETATM    6  N12 UNL     1      25.068   6.111  11.008  1.00  0.00    -0.279 N 
HETATM    7  N11 UNL     1      26.047   6.635  11.756  1.00  0.00    -0.300 N 
ATOM      8  H12 UNL     1      24.123   6.079  11.392  1.00  0.00     0.189 HD
ATOM      9  H11 UNL     1      25.836   6.992  12.688  1.00  0.00     0.186 HD
BRANCH   4  10
HETATM   10  C3  UNL     1      26.722   5.022   7.920  1.00  0.00     0.191 C 
BRANCH  10  11
HETATM   11  C1  UNL     1      26.218   5.803   6.797  1.00  0.00     0.271 C 
BRANCH  11  12
HETATM   12  N1  UNL     1      27.047   6.770   6.207  1.00  0.00    -0.068 N 
ATOM     13  H13 UNL     1      26.980   6.763   5.190  1.00  0.00     0.275 HD
ATOM     14  H12 UNL     1      26.707   7.717   6.372  1.00  0.00     0.275 HD
ATOM     15  H11 UNL     1      28.007   6.645   6.529  1.00  0.00     0.275 HD
ENDBRANCH  11  12
BRANCH  11  16
HETATM   16  C2  UNL     1      25.494   5.010   5.711  1.00  0.00     0.287 C 
BRANCH  16  17
HETATM   17  O1  UNL     1      24.423   4.340   6.262  1.00  0.00    -0.369 OA
ATOM     18  H1  UNL     1      23.886   3.970   5.570  1.00  0.00     0.212 HD
ENDBRANCH  16  17
BRANCH  16  19
HETATM   19  O2  UNL     1      26.463   4.155   5.170  1.00  0.00    -0.369 OA
ATOM     20  H2  UNL     1      27.222   4.704   5.013  1.00  0.00     0.212 HD
ENDBRANCH  16  19
ENDBRANCH  11  16
ENDBRANCH  10  11
BRANCH  10  21
HETATM   21  O3  UNL     1      26.388   3.696   8.000  1.00  0.00    -0.388 OA
ATOM     22  H3  UNL     1      26.880   3.137   8.590  1.00  0.00     0.210 HD
ENDBRANCH  10  21
ENDBRANCH   4  10
BRANCH   5  23
HETATM   23  O10 UNL     1      24.216   5.091   9.027  1.00  0.00    -0.345 OA
ATOM     24  H10 UNL     1      23.670   4.420   9.420  1.00  0.00     0.219 HD
ENDBRANCH   5  23
ENDBRANCH   1   2
BRANCH   1  25
HETATM   25  N2  UNL     1      29.611   7.515  11.617  1.00  0.00    -0.363 N 
ATOM     26  H2  UNL     1      29.706   7.781  10.636  1.00  0.00     0.158 HD
BRANCH  25  27
HETATM   27  C8  UNL     1      30.766   7.416  12.429  1.00  0.00     0.332 C 
BRANCH  27  28
HETATM   28  O4  UNL     1      31.216   8.668  12.818  1.00  0.00    -0.359 OA
ATOM     29  H4  UNL     1      31.485   8.669  13.729  1.00  0.00     0.214 HD
ENDBRANCH  27  28
BRANCH  27  30
HETATM   30  N3  UNL     1      31.811   6.840  11.545  1.00  0.00    -0.283 N 
HETATM   31  C9  UNL     1      32.504   7.532  10.609  1.00  0.00     0.189 A 
HETATM   32  N4  UNL     1      33.391   6.718  10.004  1.00  0.00    -0.345 N 
HETATM   33  C10 UNL     1      33.242   5.524  10.569  1.00  0.00     0.147 A 
ATOM     34  H4  UNL     1      34.044   6.968   9.261  1.00  0.00     0.167 HD
HETATM   35  C11 UNL     1      33.894   4.352  10.309  1.00  0.00     0.280 A 
HETATM   36  C13 UNL     1      32.251   5.602  11.534  1.00  0.00     0.148 A 
HETATM   37  O5  UNL     1      34.784   4.257   9.450  1.00  0.00    -0.265 OA
HETATM   38  N5  UNL     1      33.566   3.238  11.005  1.00  0.00    -0.273 N 
HETATM   39  C12 UNL     1      32.600   3.314  11.943  1.00  0.00     0.328 A 
ATOM     40  H5  UNL     1      34.043   2.355  10.824  1.00  0.00     0.173 HD
HETATM   41  O6  UNL     1      32.311   2.262  12.580  1.00  0.00    -0.247 OA
HETATM   42  N6  UNL     1      31.955   4.483  12.199  1.00  0.00    -0.292 N 
ATOM     43  H6  UNL     1      31.229   4.505  12.916  1.00  0.00     0.172 HD
ENDBRANCH  27  30
ENDBRANCH  25  27
ENDBRANCH   1  25
BRANCH   1  44
HETATM   44  C14 UNL     1      28.456   6.540  13.453  1.00  0.00     0.177 A 
HETATM   45  N7  UNL     1      28.894   5.246  13.474  1.00  0.00    -0.318 N 
HETATM   46  C15 UNL     1      28.933   4.832  14.753  1.00  0.00     0.174 A 
ATOM     47  H7  UNL     1      29.149   4.689  12.659  1.00  0.00     0.169 HD
HETATM   48  N10 UNL     1      28.522   5.879  15.464  1.00  0.00    -0.240 N 
HETATM   49  O9  UNL     1      28.233   6.901  14.672  1.00  0.00    -0.220 OA
ATOM     50  H10 UNL     1      28.440   5.892  16.480  1.00  0.00     0.196 HD
BRANCH  46  51
HETATM   51  C16 UNL     1      29.307   3.498  15.178  1.00  0.00     0.177 A 
HETATM   52  N8  UNL     1      28.737   2.818  16.178  1.00  0.00    -0.282 N 
HETATM   53  C17 UNL     1      29.343   1.628  16.260  1.00  0.00     0.388 A 
ATOM     54  H8  UNL     1      27.977   3.146  16.772  1.00  0.00     0.172 HD
HETATM   55  O7  UNL     1      29.093   0.721  17.078  1.00  0.00    -0.236 OA
HETATM   56  O8  UNL     1      30.258   1.607  15.312  1.00  0.00    -0.179 OA
HETATM   57  N9  UNL     1      30.273   2.697  14.651  1.00  0.00    -0.236 N 
ATOM     58  H9  UNL     1      30.892   2.925  13.873  1.00  0.00     0.197 HD
ENDBRANCH  46  51
ENDBRANCH   1  44
TORSDOF 15
ENDMDL
MODEL 4
REMARK VINA RESULT: -9.278846366      1.945      2.941
REMARK  15 active torsions:
REMARK  status: ('A' for Active; 'I' for Inactive)
REMARK    1  A    between atoms: N1_1  and  C1_5 
REMARK    2  A    between atoms: C1_5  and  C2_6 
REMARK    3  A    between atoms: C1_5  and  C3_11 
REMARK    4  A    between atoms: C2_6  and  O1_7 
REMARK    5  A    between atoms: C2_6  and  O2_9 
REMARK    6  A    between atoms: C3_11  and  O3_12 
REMARK    7  A    between atoms: C3_11  and  C4_14 
REMARK    8  A    between atoms: C6_16  and  C7_17 
REMARK    9  A    between atoms: C7_17  and  N2_18 
REMARK   10  A    between atoms: C7_17  and  C14_37 
REMARK   11  A    between atoms: N2_18  and  C8_20 
REMARK   12  A    between atoms: C8_20  and  O4_21 
REMARK   13  A    between atoms: C8_20  and  N3_23 
REMARK   14  A    between atoms: C15_40  and  C16_41 
REMARK   15  A    between atoms: C18_56  and  O10_57 
ROOT
HETATM    1  C7  UNL     1      27.426   7.077  12.389  1.00  0.00     0.210 C 
ENDROOT
BRANCH   1   2
HETATM    2  C6  UNL     1      26.571   6.567  11.342  1.00  0.00     0.057 A 
HETATM    3  C5  UNL     1      27.028   6.114  10.132  1.00  0.00     0.043 A 
HETATM    4  C4  UNL     1      26.200   5.615   9.156  1.00  0.00     0.027 A 
HETATM    5  C18 UNL     1      24.829   5.591   9.474  1.00  0.00     0.163 A 
HETATM    6  N12 UNL     1      24.416   6.029  10.643  1.00  0.00    -0.279 N 
HETATM    7  N11 UNL     1      25.249   6.512  11.573  1.00  0.00    -0.300 N 
ATOM      8  H12 UNL     1      23.417   5.999  10.849  1.00  0.00     0.189 HD
ATOM      9  H11 UNL     1      24.877   6.841  12.464  1.00  0.00     0.186 HD
BRANCH   4  10
HETATM   10  C3  UNL     1      26.588   5.019   7.865  1.00  0.00     0.191 C 
BRANCH  10  11
HETATM   11  C1  UNL     1      26.152   5.764   6.691  1.00  0.00     0.271 C 
BRANCH  11  12
HETATM   12  N1  UNL     1      26.987   6.762   6.164  1.00  0.00    -0.068 N 
ATOM     13  H13 UNL     1      27.817   6.372   5.719  1.00  0.00     0.275 HD
ATOM     14  H12 UNL     1      26.577   7.211   5.345  1.00  0.00     0.275 HD
ATOM     15  H11 UNL     1      27.223   7.436   6.893  1.00  0.00     0.275 HD
ENDBRANCH  11  12
BRANCH  11  16
HETATM   16  C2  UNL     1      25.565   4.928   5.556  1.00  0.00     0.287 C 
BRANCH  16  17
HETATM   17  O1  UNL     1      24.492   4.200   6.023  1.00  0.00    -0.369 OA
ATOM     18  H1  UNL     1      23.950   3.924   5.293  1.00  0.00     0.212 HD
ENDBRANCH  16  17
BRANCH  16  19
HETATM   19  O2  UNL     1      26.621   4.127   5.102  1.00  0.00    -0.369 OA
ATOM     20  H2  UNL     1      26.510   4.075   4.160  1.00  0.00     0.212 HD
ENDBRANCH  16  19
ENDBRANCH  11  16
ENDBRANCH  10  11
BRANCH  10  21
HETATM   21  O3  UNL     1      26.383   3.664   7.896  1.00  0.00    -0.388 OA
ATOM     22  H3  UNL     1      25.690   3.296   7.359  1.00  0.00     0.210 HD
ENDBRANCH  10  21
ENDBRANCH   4  10
BRANCH   5  23
HETATM   23  O10 UNL     1      23.924   5.090   8.506  1.00  0.00    -0.345 OA
ATOM     24  H10 UNL     1      24.094   4.234   8.131  1.00  0.00     0.219 HD
ENDBRANCH   5  23
ENDBRANCH   1   2
BRANCH   1  25
HETATM   25  N2  UNL     1      28.818   7.179  12.161  1.00  0.00    -0.363 N 
ATOM     26  H2  UNL     1      29.369   6.332  12.020  1.00  0.00     0.158 HD
BRANCH  25  27
HETATM   27  C8  UNL     1      29.458   8.442  12.125  1.00  0.00     0.332 C 
BRANCH  27  28
HETATM   28  O4  UNL     1      28.832   9.298  11.232  1.00  0.00    -0.359 OA
ATOM     29  H4  UNL     1      27.890   9.296  11.356  1.00  0.00     0.214 HD
ENDBRANCH  27  28
BRANCH  27  30
HETATM   30  N3  UNL     1      30.814   8.173  11.585  1.00  0.00    -0.283 N 
HETATM   31  C9  UNL     1      31.868   7.733  12.315  1.00  0.00     0.189 A 
HETATM   32  N4  UNL     1      32.939   7.568  11.515  1.00  0.00    -0.345 N 
HETATM   33  C10 UNL     1      32.544   7.907  10.292  1.00  0.00     0.147 A 
ATOM     34  H4  UNL     1      33.867   7.248  11.793  1.00  0.00     0.167 HD
HETATM   35  C11 UNL     1      33.252   7.927   9.124  1.00  0.00     0.280 A 
HETATM   36  C13 UNL     1      31.212   8.287  10.338  1.00  0.00     0.148 A 
HETATM   37  O5  UNL     1      34.444   7.592   9.058  1.00  0.00    -0.265 OA
HETATM   38  N5  UNL     1      32.643   8.327   7.983  1.00  0.00    -0.273 N 
HETATM   39  C12 UNL     1      31.348   8.699   8.028  1.00  0.00     0.328 A 
ATOM     40  H5  UNL     1      33.157   8.347   7.102  1.00  0.00     0.173 HD
HETATM   41  O6  UNL     1      30.801   9.069   6.951  1.00  0.00    -0.247 OA
HETATM   42  N6  UNL     1      30.648   8.677   9.193  1.00  0.00    -0.292 N 
ATOM     43  H6  UNL     1      29.668   8.964   9.192  1.00  0.00     0.172 HD
ENDBRANCH  27  30
ENDBRANCH  25  27
ENDBRANCH   1  25
BRANCH   1  44
HETATM   44  C14 UNL     1      27.177   6.448  13.719  1.00  0.00     0.177 A 
HETATM   45  N7  UNL     1      27.948   5.394  14.119  1.00  0.00    -0.318 N 
HETATM   46  C15 UNL     1      27.541   5.010  15.342  1.00  0.00     0.174 A 
ATOM     47  H7  UNL     1      28.705   4.970  13.582  1.00  0.00     0.169 HD
HETATM   48  N10 UNL     1      26.543   5.837  15.645  1.00  0.00    -0.240 N 
HETATM   49  O9  UNL     1      26.329   6.697  14.660  1.00  0.00    -0.220 OA
ATOM     50  H10 UNL     1      26.015   5.811  16.517  1.00  0.00     0.196 HD
BRANCH  46  51
HETATM   51  C16 UNL     1      28.090   3.892  16.082  1.00  0.00     0.177 A 
HETATM   52  N8  UNL     1      28.733   2.850  15.544  1.00  0.00    -0.282 N 
HETATM   53  C17 UNL     1      29.097   2.036  16.540  1.00  0.00     0.388 A 
ATOM     54  H8  UNL     1      28.914   2.703  14.551  1.00  0.00     0.172 HD
HETATM   55  O7  UNL     1      29.708   0.954  16.431  1.00  0.00    -0.236 OA
HETATM   56  O8  UNL     1      28.675   2.596  17.655  1.00  0.00    -0.179 OA
HETATM   57  N9  UNL     1      28.070   3.694  17.429  1.00  0.00    -0.236 N 
ATOM     58  H9  UNL     1      27.651   4.310  18.125  1.00  0.00     0.197 HD
ENDBRANCH  46  51
ENDBRANCH   1  44
TORSDOF 15
ENDMDL
MODEL 5
REMARK VINA RESULT: -9.146949796      1.575      2.560
REMARK  15 active torsions:
REMARK  status: ('A' for Active; 'I' for Inactive)
REMARK    1  A    between atoms: N1_1  and  C1_5 
REMARK    2  A    between atoms: C1_5  and  C2_6 
REMARK    3  A    between atoms: C1_5  and  C3_11 
REMARK    4  A    between atoms: C2_6  and  O1_7 
REMARK    5  A    between atoms: C2_6  and  O2_9 
REMARK    6  A    between atoms: C3_11  and  O3_12 
REMARK    7  A    between atoms: C3_11  and  C4_14 
REMARK    8  A    between atoms: C6_16  and  C7_17 
REMARK    9  A    between atoms: C7_17  and  N2_18 
REMARK   10  A    between atoms: C7_17  and  C14_37 
REMARK   11  A    between atoms: N2_18  and  C8_20 
REMARK   12  A    between atoms: C8_20  and  O4_21 
REMARK   13  A    between atoms: C8_20  and  N3_23 
REMARK   14  A    between atoms: C15_40  and  C16_41 
REMARK   15  A    between atoms: C18_56  and  O10_57 
ROOT
HETATM    1  C7  UNL     1      26.922   6.828  12.029  1.00  0.00     0.210 C 
ENDROOT
BRANCH   1   2
HETATM    2  C6  UNL     1      25.768   6.481  11.232  1.00  0.00     0.057 A 
HETATM    3  C5  UNL     1      25.812   6.235   9.885  1.00  0.00     0.043 A 
HETATM    4  C4  UNL     1      24.706   5.889   9.149  1.00  0.00     0.027 A 
HETATM    5  C18 UNL     1      23.500   5.794   9.868  1.00  0.00     0.163 A 
HETATM    6  N12 UNL     1      23.483   6.032  11.161  1.00  0.00    -0.279 N 
HETATM    7  N11 UNL     1      24.580   6.370  11.851  1.00  0.00    -0.300 N 
ATOM      8  H12 UNL     1      22.597   5.955  11.659  1.00  0.00     0.189 HD
ATOM      9  H11 UNL     1      24.513   6.546  12.853  1.00  0.00     0.186 HD
BRANCH   4  10
HETATM   10  C3  UNL     1      24.655   5.513   7.724  1.00  0.00     0.191 C 
BRANCH  10  11
HETATM   11  C1  UNL     1      25.919   5.042   7.169  1.00  0.00     0.271 C 
BRANCH  11  12
HETATM   12  N1  UNL     1      26.700   4.143   7.913  1.00  0.00    -0.068 N 
ATOM     13  H13 UNL     1      26.586   4.277   8.917  1.00  0.00     0.275 HD
ATOM     14  H12 UNL     1      26.350   3.188   7.849  1.00  0.00     0.275 HD
ATOM     15  H11 UNL     1      27.677   4.214   7.625  1.00  0.00     0.275 HD
ENDBRANCH  11  12
BRANCH  11  16
HETATM   16  C2  UNL     1      25.878   4.605   5.707  1.00  0.00     0.287 C 
BRANCH  16  17
HETATM   17  O1  UNL     1      25.886   5.716   4.890  1.00  0.00    -0.369 OA
ATOM     18  H1  UNL     1      25.296   5.579   4.158  1.00  0.00     0.212 HD
ENDBRANCH  16  17
BRANCH  16  19
HETATM   19  O2  UNL     1      24.713   3.836   5.583  1.00  0.00    -0.369 OA
ATOM     20  H2  UNL     1      24.189   4.280   4.926  1.00  0.00     0.212 HD
ENDBRANCH  16  19
ENDBRANCH  11  16
ENDBRANCH  10  11
BRANCH  10  21
HETATM   21  O3  UNL     1      23.937   6.444   7.020  1.00  0.00    -0.388 OA
ATOM     22  H3  UNL     1      23.122   6.765   7.390  1.00  0.00     0.210 HD
ENDBRANCH  10  21
ENDBRANCH   4  10
BRANCH   5  23
HETATM   23  O10 UNL     1      22.323   5.442   9.162  1.00  0.00    -0.345 OA
ATOM     24  H10 UNL     1      21.844   4.671   9.440  1.00  0.00     0.219 HD
ENDBRANCH   5  23
ENDBRANCH   1   2
BRANCH   1  25
HETATM   25  N2  UNL     1      28.218   6.600  11.511  1.00  0.00    -0.363 N 
ATOM     26  H2  UNL     1      28.424   5.718  11.042  1.00  0.00     0.158 HD
BRANCH  25  27
HETATM   27  C8  UNL     1      29.232   7.579  11.635  1.00  0.00     0.332 C 
BRANCH  27  28
HETATM   28  O4  UNL     1      29.303   8.376  10.502  1.00  0.00    -0.359 OA
ATOM     29  H4  UNL     1      29.743   7.926   9.792  1.00  0.00     0.214 HD
ENDBRANCH  27  28
BRANCH  27  30
HETATM   30  N3  UNL     1      30.502   6.814  11.702  1.00  0.00    -0.283 N 
HETATM   31  C9  UNL     1      30.652   5.609  12.304  1.00  0.00     0.189 A 
HETATM   32  N4  UNL     1      31.922   5.182  12.160  1.00  0.00    -0.345 N 
HETATM   33  C10 UNL     1      32.553   6.126  11.468  1.00  0.00     0.147 A 
ATOM     34  H4  UNL     1      32.319   4.311  12.511  1.00  0.00     0.167 HD
HETATM   35  C11 UNL     1      33.858   6.184  11.067  1.00  0.00     0.280 A 
HETATM   36  C13 UNL     1      31.662   7.148  11.183  1.00  0.00     0.148 A 
HETATM   37  O5  UNL     1      34.674   5.282  11.310  1.00  0.00    -0.265 OA
HETATM   38  N5  UNL     1      34.295   7.262  10.376  1.00  0.00    -0.273 N 
HETATM   39  C12 UNL     1      33.429   8.258  10.100  1.00  0.00     0.328 A 
ATOM     40  H5  UNL     1      35.266   7.321  10.068  1.00  0.00     0.173 HD
HETATM   41  O6  UNL     1      33.859   9.255   9.454  1.00  0.00    -0.247 OA
HETATM   42  N6  UNL     1      32.131   8.195  10.501  1.00  0.00    -0.292 N 
ATOM     43  H6  UNL     1      31.502   8.966  10.275  1.00  0.00     0.172 HD
ENDBRANCH  27  30
ENDBRANCH  25  27
ENDBRANCH   1  25
BRANCH   1  44
HETATM   44  C14 UNL     1      26.844   6.331  13.435  1.00  0.00     0.177 A 
HETATM   45  N7  UNL     1      27.628   5.281  13.820  1.00  0.00    -0.318 N 
HETATM   46  C15 UNL     1      27.388   5.026  15.119  1.00  0.00     0.174 A 
ATOM     47  H7  UNL     1      28.285   4.777  13.225  1.00  0.00     0.169 HD
HETATM   48  N10 UNL     1      26.473   5.923  15.479  1.00  0.00    -0.240 N 
HETATM   49  O9  UNL     1      26.150   6.702  14.457  1.00  0.00    -0.220 OA
ATOM     50  H10 UNL     1      26.075   6.000  16.415  1.00  0.00     0.196 HD
BRANCH  46  51
HETATM   51  C16 UNL     1      27.999   3.953  15.876  1.00  0.00     0.177 A 
HETATM   52  N8  UNL     1      28.620   2.892  15.351  1.00  0.00    -0.282 N 
HETATM   53  C17 UNL     1      29.058   2.133  16.360  1.00  0.00     0.388 A 
ATOM     54  H8  UNL     1      28.738   2.696  14.357  1.00  0.00     0.172 HD
HETATM   55  O7  UNL     1      29.676   1.054  16.266  1.00  0.00    -0.236 OA
HETATM   56  O8  UNL     1      28.703   2.746  17.471  1.00  0.00    -0.179 OA
HETATM   57  N9  UNL     1      28.070   3.825  17.230  1.00  0.00    -0.236 N 
ATOM     58  H9  UNL     1      27.688   4.471  17.920  1.00  0.00     0.197 HD
ENDBRANCH  46  51
ENDBRANCH   1  44
TORSDOF 15
ENDMDL
