MODEL 1
REMARK VINA RESULT: -9.046311784      0.000      0.000
REMARK  8 active torsions:
REMARK  status: ('A' for Active; 'I' for Inactive)
REMARK    1  A    between atoms: C2_2  and  C3_3 
REMARK    2  A    between atoms: C3_3  and  C13_19 
REMARK    3  A    between atoms: N1_4  and  C4_6 
REMARK    4  A    between atoms: C4_6  and  C5_8 
REMARK    5  A    between atoms: C7_10  and  C8_11 
REMARK    6  A    between atoms: C8_11  and  C9_12 
REMARK    7  A    between atoms: C14_20  and  S1_21 
REMARK    8  A    between atoms: S1_21  and  N3_24 
ROOT
HETATM    1  C13 UNL     1       6.989  20.052   6.460  1.00  0.00     0.078 A 
HETATM    2  C14 UNL     1       6.295  18.873   6.648  1.00  0.00     0.109 A 
HETATM    3  C16 UNL     1       6.824  17.909   7.537  1.00  0.00     0.017 A 
HETATM    4  C17 UNL     1       6.144  16.731   7.728  1.00  0.00     0.039 A 
HETATM    5  C18 UNL     1       6.629  15.736   8.606  1.00  0.00     0.035 A 
HETATM    6 CL1  UNL     1       5.714  14.244   8.818  1.00  0.00    -0.084 Cl
HETATM    7  C19 UNL     1       7.801  15.959   9.270  1.00  0.00     0.033 A 
HETATM    8  C20 UNL     1       8.490  17.139   9.079  1.00  0.00    -0.033 A 
HETATM    9  C21 UNL     1       9.793  17.354   9.823  1.00  0.00     0.050 C 
HETATM   10  C22 UNL     1       8.004  18.099   8.226  1.00  0.00     0.053 A 
HETATM   11  N4  UNL     1       8.662  19.230   8.047  1.00  0.00    -0.322 N 
ATOM     12  H4  UNL     1       9.535  19.397   8.548  1.00  0.00     0.169 HD
HETATM   13  C23 UNL     1       8.185  20.155   7.211  1.00  0.00     0.259 A 
HETATM   14  O3  UNL     1       8.832  21.213   7.069  1.00  0.00    -0.267 OA
ENDROOT
BRANCH   1  15
HETATM   15  C3  UNL     1       6.588  21.092   5.496  1.00  0.00     0.023 C 
HETATM   16  N1  UNL     1       6.314  22.392   5.811  1.00  0.00    -0.376 N 
ATOM     17  H1  UNL     1       6.956  22.879   6.436  1.00  0.00     0.160 HD
BRANCH  15  18
HETATM   18  C2  UNL     1       6.770  20.627   4.059  1.00  0.00     0.053 C 
HETATM   19  C1  UNL     1       7.773  21.348   3.219  1.00  0.00     0.011 C 
ENDBRANCH  15  18
BRANCH  16  20
HETATM   20  C4  UNL     1       5.203  23.099   5.328  1.00  0.00     0.184 C 
HETATM   21 BR1  UNL     1       6.025  24.802   4.636  1.00  0.00    -0.067 Br
BRANCH  20  22
HETATM   22  C5  UNL     1       4.088  23.530   6.117  1.00  0.00     0.221 C 
HETATM   23  C6  UNL     1       3.174  24.572   5.392  1.00  0.00     0.069 C 
HETATM   24  C7  UNL     1       2.799  24.973   6.856  1.00  0.00     0.189 C 
HETATM   25  N2  UNL     1       4.237  24.650   7.066  1.00  0.00    -0.064 N 
ATOM     26  H22 UNL     1       4.602  24.490   8.005  1.00  0.00     0.278 HD
ATOM     27  H21 UNL     1       4.955  25.361   6.921  1.00  0.00     0.278 HD
BRANCH  24  28
HETATM   28  C8  UNL     1       2.350  26.361   6.820  1.00  0.00     0.041 C 
BRANCH  28  29
HETATM   29  C9  UNL     1       0.989  26.669   7.403  1.00  0.00    -0.050 C 
HETATM   30  C10 UNL     1       0.354  27.791   6.530  1.00  0.00     0.014 C 
HETATM   31  C11 UNL     1       1.081  27.231   8.795  1.00  0.00     0.014 C 
HETATM   32  C12 UNL     1       0.072  25.493   7.364  1.00  0.00     0.014 C 
ENDBRANCH  28  29
ENDBRANCH  24  28
ENDBRANCH  20  22
ENDBRANCH  16  20
ENDBRANCH   1  15
BRANCH   2  33
HETATM   33  S1  UNL     1       4.791  18.559   5.950  1.00  0.00     0.260 S 
HETATM   34  O1  UNL     1       4.921  18.141   4.431  1.00  0.00    -0.200 OA
HETATM   35  O2  UNL     1       3.918  17.510   6.567  1.00  0.00    -0.200 OA
BRANCH  33  36
HETATM   36  N3  UNL     1       3.803  19.938   5.869  1.00  0.00    -0.320 N 
HETATM   37  C15 UNL     1       2.536  19.950   6.474  1.00  0.00     0.159 C 
ATOM     38  H3  UNL     1       4.134  20.767   5.375  1.00  0.00     0.171 HD
ENDBRANCH  33  36
ENDBRANCH   2  33
TORSDOF 8
ENDMDL
MODEL 2
REMARK VINA RESULT: -8.784489345      2.589      5.443
REMARK  8 active torsions:
REMARK  status: ('A' for Active; 'I' for Inactive)
REMARK    1  A    between atoms: C2_2  and  C3_3 
REMARK    2  A    between atoms: C3_3  and  C13_19 
REMARK    3  A    between atoms: N1_4  and  C4_6 
REMARK    4  A    between atoms: C4_6  and  C5_8 
REMARK    5  A    between atoms: C7_10  and  C8_11 
REMARK    6  A    between atoms: C8_11  and  C9_12 
REMARK    7  A    between atoms: C14_20  and  S1_21 
REMARK    8  A    between atoms: S1_21  and  N3_24 
ROOT
HETATM    1  C13 UNL     1       6.712  20.131   6.684  1.00  0.00     0.078 A 
HETATM    2  C14 UNL     1       5.952  18.992   6.860  1.00  0.00     0.109 A 
HETATM    3  C16 UNL     1       6.484  17.936   7.636  1.00  0.00     0.017 A 
HETATM    4  C17 UNL     1       5.738  16.796   7.814  1.00  0.00     0.039 A 
HETATM    5  C18 UNL     1       6.222  15.714   8.582  1.00  0.00     0.035 A 
HETATM    6 CL1  UNL     1       5.221  14.275   8.783  1.00  0.00    -0.084 Cl
HETATM    7  C19 UNL     1       7.460  15.811   9.151  1.00  0.00     0.033 A 
HETATM    8  C20 UNL     1       8.215  16.951   8.972  1.00  0.00    -0.033 A 
HETATM    9  C21 UNL     1       9.589  17.026   9.607  1.00  0.00     0.050 C 
HETATM   10  C22 UNL     1       7.729  17.999   8.227  1.00  0.00     0.053 A 
HETATM   11  N4  UNL     1       8.451  19.092   8.060  1.00  0.00    -0.322 N 
ATOM     12  H4  UNL     1       9.373  19.165   8.490  1.00  0.00     0.169 HD
HETATM   13  C23 UNL     1       7.973  20.102   7.330  1.00  0.00     0.259 A 
HETATM   14  O3  UNL     1       8.681  21.121   7.196  1.00  0.00    -0.267 OA
ENDROOT
BRANCH   1  15
HETATM   15  C3  UNL     1       6.308  21.259   5.827  1.00  0.00     0.023 C 
HETATM   16  N1  UNL     1       6.587  21.374   4.495  1.00  0.00    -0.376 N 
ATOM     17  H1  UNL     1       6.439  20.557   3.902  1.00  0.00     0.160 HD
BRANCH  15  18
HETATM   18  C2  UNL     1       5.306  22.166   6.526  1.00  0.00     0.053 C 
HETATM   19  C1  UNL     1       4.284  22.852   5.681  1.00  0.00     0.011 C 
ENDBRANCH  15  18
BRANCH  16  20
HETATM   20  C4  UNL     1       7.064  22.546   3.892  1.00  0.00     0.184 C 
HETATM   21 BR1  UNL     1       6.793  22.181   1.930  1.00  0.00    -0.067 Br
BRANCH  20  22
HETATM   22  C5  UNL     1       8.406  23.038   3.985  1.00  0.00     0.221 C 
HETATM   23  C6  UNL     1       9.493  21.920   3.864  1.00  0.00     0.069 C 
HETATM   24  C7  UNL     1      10.362  22.947   4.660  1.00  0.00     0.189 C 
HETATM   25  N2  UNL     1       9.046  23.209   5.304  1.00  0.00    -0.064 N 
ATOM     26  H22 UNL     1       8.894  24.058   5.849  1.00  0.00     0.278 HD
ATOM     27  H21 UNL     1       8.740  22.655   6.105  1.00  0.00     0.278 HD
BRANCH  24  28
HETATM   28  C8  UNL     1      11.391  22.186   5.362  1.00  0.00     0.041 C 
BRANCH  28  29
HETATM   29  C9  UNL     1      12.311  22.947   6.289  1.00  0.00    -0.050 C 
HETATM   30  C10 UNL     1      13.544  22.038   6.568  1.00  0.00     0.014 C 
HETATM   31  C11 UNL     1      11.679  23.209   7.628  1.00  0.00     0.014 C 
HETATM   32  C12 UNL     1      12.813  24.214   5.682  1.00  0.00     0.014 C 
ENDBRANCH  28  29
ENDBRANCH  24  28
ENDBRANCH  20  22
ENDBRANCH  16  20
ENDBRANCH   1  15
BRANCH   2  33
HETATM   33  S1  UNL     1       4.376  18.829   6.283  1.00  0.00     0.260 S 
HETATM   34  O1  UNL     1       4.204  19.467   4.847  1.00  0.00    -0.200 OA
HETATM   35  O2  UNL     1       3.792  17.454   6.168  1.00  0.00    -0.200 OA
BRANCH  33  36
HETATM   36  N3  UNL     1       3.244  19.693   7.207  1.00  0.00    -0.320 N 
HETATM   37  C15 UNL     1       1.989  20.029   6.676  1.00  0.00     0.159 C 
ATOM     38  H3  UNL     1       3.479  19.972   8.160  1.00  0.00     0.171 HD
ENDBRANCH  33  36
ENDBRANCH   2  33
TORSDOF 8
ENDMDL
MODEL 3
REMARK VINA RESULT: -8.597780982      2.604      5.767
REMARK  8 active torsions:
REMARK  status: ('A' for Active; 'I' for Inactive)
REMARK    1  A    between atoms: C2_2  and  C3_3 
REMARK    2  A    between atoms: C3_3  and  C13_19 
REMARK    3  A    between atoms: N1_4  and  C4_6 
REMARK    4  A    between atoms: C4_6  and  C5_8 
REMARK    5  A    between atoms: C7_10  and  C8_11 
REMARK    6  A    between atoms: C8_11  and  C9_12 
REMARK    7  A    between atoms: C14_20  and  S1_21 
REMARK    8  A    between atoms: S1_21  and  N3_24 
ROOT
HETATM    1  C13 UNL     1       6.756  20.114   6.716  1.00  0.00     0.078 A 
HETATM    2  C14 UNL     1       5.988  18.979   6.877  1.00  0.00     0.109 A 
HETATM    3  C16 UNL     1       6.504  17.916   7.655  1.00  0.00     0.017 A 
HETATM    4  C17 UNL     1       5.749  16.779   7.818  1.00  0.00     0.039 A 
HETATM    5  C18 UNL     1       6.219  15.691   8.587  1.00  0.00     0.035 A 
HETATM    6 CL1  UNL     1       5.208  14.257   8.768  1.00  0.00    -0.084 Cl
HETATM    7  C19 UNL     1       7.450  15.778   9.171  1.00  0.00     0.033 A 
HETATM    8  C20 UNL     1       8.213  16.915   9.007  1.00  0.00    -0.033 A 
HETATM    9  C21 UNL     1       9.580  16.980   9.658  1.00  0.00     0.050 C 
HETATM   10  C22 UNL     1       7.743  17.969   8.261  1.00  0.00     0.053 A 
HETATM   11  N4  UNL     1       8.472  19.059   8.108  1.00  0.00    -0.322 N 
ATOM     12  H4  UNL     1       9.390  19.125   8.549  1.00  0.00     0.169 HD
HETATM   13  C23 UNL     1       8.009  20.075   7.376  1.00  0.00     0.259 A 
HETATM   14  O3  UNL     1       8.724  21.091   7.256  1.00  0.00    -0.267 OA
ENDROOT
BRANCH   1  15
HETATM   15  C3  UNL     1       6.368  21.249   5.859  1.00  0.00     0.023 C 
HETATM   16  N1  UNL     1       6.668  21.370   4.532  1.00  0.00    -0.376 N 
ATOM     17  H1  UNL     1       6.526  20.557   3.933  1.00  0.00     0.160 HD
BRANCH  15  18
HETATM   18  C2  UNL     1       5.359  22.155   6.548  1.00  0.00     0.053 C 
HETATM   19  C1  UNL     1       4.326  22.816   5.697  1.00  0.00     0.011 C 
ENDBRANCH  15  18
BRANCH  16  20
HETATM   20  C4  UNL     1       7.158  22.544   3.943  1.00  0.00     0.184 C 
HETATM   21 BR1  UNL     1       6.844  22.224   1.980  1.00  0.00    -0.067 Br
BRANCH  20  22
HETATM   22  C5  UNL     1       8.511  23.008   4.021  1.00  0.00     0.221 C 
HETATM   23  C6  UNL     1       9.571  21.859   3.955  1.00  0.00     0.069 C 
HETATM   24  C7  UNL     1      10.462  22.899   4.710  1.00  0.00     0.189 C 
HETATM   25  N2  UNL     1       9.150  23.221   5.335  1.00  0.00    -0.064 N 
ATOM     26  H22 UNL     1       9.016  24.097   5.840  1.00  0.00     0.278 HD
ATOM     27  H21 UNL     1       8.827  22.711   6.158  1.00  0.00     0.278 HD
BRANCH  24  28
HETATM   28  C8  UNL     1      11.469  22.145   5.450  1.00  0.00     0.041 C 
BRANCH  28  29
HETATM   29  C9  UNL     1      12.902  22.248   4.980  1.00  0.00    -0.050 C 
HETATM   30  C10 UNL     1      12.989  23.471   4.020  1.00  0.00     0.014 C 
HETATM   31  C11 UNL     1      13.320  21.054   4.167  1.00  0.00     0.014 C 
HETATM   32  C12 UNL     1      13.856  22.486   6.102  1.00  0.00     0.014 C 
ENDBRANCH  28  29
ENDBRANCH  24  28
ENDBRANCH  20  22
ENDBRANCH  16  20
ENDBRANCH   1  15
BRANCH   2  33
HETATM   33  S1  UNL     1       4.418  18.827   6.280  1.00  0.00     0.260 S 
HETATM   34  O1  UNL     1       4.264  19.482   4.850  1.00  0.00    -0.200 OA
HETATM   35  O2  UNL     1       3.831  17.455   6.142  1.00  0.00    -0.200 OA
BRANCH  33  36
HETATM   36  N3  UNL     1       3.278  19.684   7.202  1.00  0.00    -0.320 N 
HETATM   37  C15 UNL     1       2.020  20.008   6.668  1.00  0.00     0.159 C 
ATOM     38  H3  UNL     1       3.510  19.967   8.154  1.00  0.00     0.171 HD
ENDBRANCH  33  36
ENDBRANCH   2  33
TORSDOF 8
ENDMDL
MODEL 4
REMARK VINA RESULT: -8.539950259      2.813      5.200
REMARK  8 active torsions:
REMARK  status: ('A' for Active; 'I' for Inactive)
REMARK    1  A    between atoms: C2_2  and  C3_3 
REMARK    2  A    between atoms: C3_3  and  C13_19 
REMARK    3  A    between atoms: N1_4  and  C4_6 
REMARK    4  A    between atoms: C4_6  and  C5_8 
REMARK    5  A    between atoms: C7_10  and  C8_11 
REMARK    6  A    between atoms: C8_11  and  C9_12 
REMARK    7  A    between atoms: C14_20  and  S1_21 
REMARK    8  A    between atoms: S1_21  and  N3_24 
ROOT
HETATM    1  C13 UNL     1       6.731  19.857   6.858  1.00  0.00     0.078 A 
HETATM    2  C14 UNL     1       5.923  18.750   7.020  1.00  0.00     0.109 A 
HETATM    3  C16 UNL     1       6.404  17.665   7.791  1.00  0.00     0.017 A 
HETATM    4  C17 UNL     1       5.609  16.557   7.955  1.00  0.00     0.039 A 
HETATM    5  C18 UNL     1       6.042  15.449   8.717  1.00  0.00     0.035 A 
HETATM    6 CL1  UNL     1       4.980  14.053   8.900  1.00  0.00    -0.084 Cl
HETATM    7  C19 UNL     1       7.279  15.489   9.293  1.00  0.00     0.033 A 
HETATM    8  C20 UNL     1       8.083  16.597   9.128  1.00  0.00    -0.033 A 
HETATM    9  C21 UNL     1       9.455  16.609   9.771  1.00  0.00     0.050 C 
HETATM   10  C22 UNL     1       7.647  17.670   8.389  1.00  0.00     0.053 A 
HETATM   11  N4  UNL     1       8.416  18.733   8.235  1.00  0.00    -0.322 N 
ATOM     12  H4  UNL     1       9.338  18.764   8.670  1.00  0.00     0.169 HD
HETATM   13  C23 UNL     1       7.986  19.768   7.510  1.00  0.00     0.259 A 
HETATM   14  O3  UNL     1       8.737  20.758   7.389  1.00  0.00    -0.267 OA
ENDROOT
BRANCH   1  15
HETATM   15  C3  UNL     1       6.380  21.008   6.007  1.00  0.00     0.023 C 
HETATM   16  N1  UNL     1       6.673  21.122   4.678  1.00  0.00    -0.376 N 
ATOM     17  H1  UNL     1       6.495  20.316   4.078  1.00  0.00     0.160 HD
BRANCH  15  18
HETATM   18  C2  UNL     1       5.413  21.950   6.708  1.00  0.00     0.053 C 
HETATM   19  C1  UNL     1       4.414  22.672   5.864  1.00  0.00     0.011 C 
ENDBRANCH  15  18
BRANCH  16  20
HETATM   20  C4  UNL     1       7.204  22.278   4.089  1.00  0.00     0.184 C 
HETATM   21 BR1  UNL     1       8.393  21.536   2.643  1.00  0.00    -0.067 Br
BRANCH  20  22
HETATM   22  C5  UNL     1       8.013  23.253   4.757  1.00  0.00     0.221 C 
HETATM   23  C6  UNL     1       9.138  23.857   3.855  1.00  0.00     0.069 C 
HETATM   24  C7  UNL     1       9.827  24.133   5.231  1.00  0.00     0.189 C 
HETATM   25  N2  UNL     1       9.183  22.829   5.551  1.00  0.00    -0.064 N 
ATOM     26  H22 UNL     1       9.071  22.529   6.520  1.00  0.00     0.278 HD
ATOM     27  H21 UNL     1       9.659  21.950   5.346  1.00  0.00     0.278 HD
BRANCH  24  28
HETATM   28  C8  UNL     1      11.264  24.207   4.985  1.00  0.00     0.041 C 
BRANCH  28  29
HETATM   29  C9  UNL     1      12.158  24.518   6.165  1.00  0.00    -0.050 C 
HETATM   30  C10 UNL     1      13.554  24.911   5.598  1.00  0.00     0.014 C 
HETATM   31  C11 UNL     1      12.389  23.313   7.035  1.00  0.00     0.014 C 
HETATM   32  C12 UNL     1      11.659  25.669   6.972  1.00  0.00     0.014 C 
ENDBRANCH  28  29
ENDBRANCH  24  28
ENDBRANCH  20  22
ENDBRANCH  16  20
ENDBRANCH   1  15
BRANCH   2  33
HETATM   33  S1  UNL     1       4.344  18.658   6.433  1.00  0.00     0.260 S 
HETATM   34  O1  UNL     1       4.212  19.296   4.993  1.00  0.00    -0.200 OA
HETATM   35  O2  UNL     1       3.696  17.313   6.321  1.00  0.00    -0.200 OA
BRANCH  33  36
HETATM   36  N3  UNL     1       3.249  19.581   7.345  1.00  0.00    -0.320 N 
HETATM   37  C15 UNL     1       1.993  19.929   6.823  1.00  0.00     0.159 C 
ATOM     38  H3  UNL     1       3.506  19.885   8.285  1.00  0.00     0.171 HD
ENDBRANCH  33  36
ENDBRANCH   2  33
TORSDOF 8
ENDMDL
MODEL 5
REMARK VINA RESULT: -8.538529098      1.762      2.302
REMARK  8 active torsions:
REMARK  status: ('A' for Active; 'I' for Inactive)
REMARK    1  A    between atoms: C2_2  and  C3_3 
REMARK    2  A    between atoms: C3_3  and  C13_19 
REMARK    3  A    between atoms: N1_4  and  C4_6 
REMARK    4  A    between atoms: C4_6  and  C5_8 
REMARK    5  A    between atoms: C7_10  and  C8_11 
REMARK    6  A    between atoms: C8_11  and  C9_12 
REMARK    7  A    between atoms: C14_20  and  S1_21 
REMARK    8  A    between atoms: S1_21  and  N3_24 
ROOT
HETATM    1  C13 UNL     1       7.245  20.541   5.945  1.00  0.00     0.078 A 
HETATM    2  C14 UNL     1       6.503  19.391   6.130  1.00  0.00     0.109 A 
HETATM    3  C16 UNL     1       6.891  18.492   7.151  1.00  0.00     0.017 A 
HETATM    4  C17 UNL     1       6.163  17.342   7.342  1.00  0.00     0.039 A 
HETATM    5  C18 UNL     1       6.507  16.414   8.349  1.00  0.00     0.035 A 
HETATM    6 CL1  UNL     1       5.536  14.956   8.553  1.00  0.00    -0.084 Cl
HETATM    7  C19 UNL     1       7.589  16.671   9.141  1.00  0.00     0.033 A 
HETATM    8  C20 UNL     1       8.326  17.821   8.952  1.00  0.00    -0.033 A 
HETATM    9  C21 UNL     1       9.527  18.075   9.839  1.00  0.00     0.050 C 
HETATM   10  C22 UNL     1       7.977  18.719   7.971  1.00  0.00     0.053 A 
HETATM   11  N4  UNL     1       8.680  19.823   7.794  1.00  0.00    -0.322 N 
ATOM     12  H4  UNL     1       9.485  20.016   8.390  1.00  0.00     0.169 HD
HETATM   13  C23 UNL     1       8.337  20.686   6.835  1.00  0.00     0.259 A 
HETATM   14  O3  UNL     1       9.022  21.720   6.698  1.00  0.00    -0.267 OA
ENDROOT
BRANCH   1  15
HETATM   15  C3  UNL     1       6.996  21.508   4.861  1.00  0.00     0.023 C 
HETATM   16  N1  UNL     1       6.520  22.776   5.033  1.00  0.00    -0.376 N 
ATOM     17  H1  UNL     1       6.931  23.346   5.773  1.00  0.00     0.160 HD
BRANCH  15  18
HETATM   18  C2  UNL     1       7.582  21.034   3.539  1.00  0.00     0.053 C 
HETATM   19  C1  UNL     1       8.799  21.734   3.030  1.00  0.00     0.011 C 
ENDBRANCH  15  18
BRANCH  16  20
HETATM   20  C4  UNL     1       5.502  23.344   4.254  1.00  0.00     0.184 C 
HETATM   21 BR1  UNL     1       6.373  25.005   3.522  1.00  0.00    -0.067 Br
BRANCH  20  22
HETATM   22  C5  UNL     1       4.232  23.789   4.747  1.00  0.00     0.221 C 
HETATM   23  C6  UNL     1       3.781  23.064   6.057  1.00  0.00     0.069 C 
HETATM   24  C7  UNL     1       2.355  23.471   5.561  1.00  0.00     0.189 C 
HETATM   25  N2  UNL     1       2.985  23.182   4.243  1.00  0.00    -0.064 N 
ATOM     26  H22 UNL     1       2.558  23.516   3.379  1.00  0.00     0.278 HD
ATOM     27  H21 UNL     1       2.985  22.235   3.864  1.00  0.00     0.278 HD
BRANCH  24  28
HETATM   28  C8  UNL     1       1.409  22.528   6.151  1.00  0.00     0.041 C 
BRANCH  28  29
HETATM   29  C9  UNL     1      -0.052  22.694   5.799  1.00  0.00    -0.050 C 
HETATM   30  C10 UNL     1      -0.825  21.516   6.462  1.00  0.00     0.014 C 
HETATM   31  C11 UNL     1      -0.297  22.569   4.321  1.00  0.00     0.014 C 
HETATM   32  C12 UNL     1      -0.627  23.965   6.328  1.00  0.00     0.014 C 
ENDBRANCH  28  29
ENDBRANCH  24  28
ENDBRANCH  20  22
ENDBRANCH  16  20
ENDBRANCH   1  15
BRANCH   2  33
HETATM   33  S1  UNL     1       5.095  19.045   5.269  1.00  0.00     0.260 S 
HETATM   34  O1  UNL     1       4.440  20.348   4.660  1.00  0.00    -0.200 OA
HETATM   35  O2  UNL     1       5.170  18.079   4.127  1.00  0.00    -0.200 OA
BRANCH  33  36
HETATM   36  N3  UNL     1       3.854  18.437   6.257  1.00  0.00    -0.320 N 
HETATM   37  C15 UNL     1       2.920  19.301   6.850  1.00  0.00     0.159 C 
ATOM     38  H3  UNL     1       3.787  17.432   6.421  1.00  0.00     0.171 HD
ENDBRANCH  33  36
ENDBRANCH   2  33
TORSDOF 8
ENDMDL
