MODEL 1
REMARK VINA RESULT: -7.455526251      0.000      0.000
REMARK  9 active torsions:
REMARK  status: ('A' for Active; 'I' for Inactive)
REMARK    1  A    between atoms: C2_2  and  N1_3 
REMARK    2  A    between atoms: N1_3  and  C3_5 
REMARK    3  A    between atoms: C3_5  and  N2_7 
REMARK    4  A    between atoms: C4_8  and  C5_9 
REMARK       I    between atoms: C5_9  and  N3_11 
REMARK    5  A    between atoms: N3_11  and  C6_13 
REMARK    6  A    between atoms: C13_22  and  N4_23 
REMARK       I    between atoms: N4_23  and  C14_25 
REMARK    7  A    between atoms: C14_25  and  C15_27 
REMARK    8  A    between atoms: C15_27  and  C16_28 
REMARK    9  A    between atoms: C16_28  and  C17_29 
REMARK       I    between atoms: C17_29  and  N5_31 
ROOT
HETATM    1  N2  UNL     1       4.294  20.772   5.834  1.00  0.00    -0.331 N 
HETATM    2  C4  UNL     1       3.831  20.218   7.086  1.00  0.00     0.182 C 
HETATM    3  C12 UNL     1       2.399  20.441   7.423  1.00  0.00     0.060 C 
HETATM    4  C13 UNL     1       1.550  20.670   6.162  1.00  0.00     0.094 C 
HETATM    5  C19 UNL     1       2.200  21.807   5.489  1.00  0.00     0.046 C 
HETATM    6  C20 UNL     1       1.391  22.514   4.459  1.00  0.00    -0.000 C 
HETATM    7  C21 UNL     1       0.903  21.623   3.348  1.00  0.00     0.011 C 
HETATM    8  C22 UNL     1       2.309  23.612   3.934  1.00  0.00     0.080 C 
HETATM    9  S2  UNL     1       3.986  22.858   4.075  1.00  0.00    -0.143 SA
HETATM   10  C23 UNL     1       3.443  21.276   4.808  1.00  0.00     0.156 C 
ENDROOT
BRANCH   2  11
HETATM   11  C5  UNL     1       4.064  18.725   7.050  1.00  0.00     0.245 C 
HETATM   12  O1  UNL     1       3.824  18.130   6.002  1.00  0.00    -0.271 OA
HETATM   13  N3  UNL     1       4.540  18.122   8.219  1.00  0.00    -0.324 N 
ATOM     14  H3  UNL     1       4.693  18.743   9.013  1.00  0.00     0.169 HD
BRANCH  13  15
HETATM   15  C6  UNL     1       4.834  16.750   8.434  1.00  0.00     0.058 A 
HETATM   16  C7  UNL     1       3.891  15.827   8.789  1.00  0.00     0.031 A 
HETATM   17  C8  UNL     1       4.269  14.505   8.978  1.00  0.00     0.004 A 
HETATM   18  C9  UNL     1       5.558  14.075   8.823  1.00  0.00     0.026 A 
HETATM   19  C10 UNL     1       6.501  14.998   8.468  1.00  0.00     0.058 A 
HETATM   20 CL1  UNL     1       8.198  14.546   8.240  1.00  0.00    -0.082 Cl
HETATM   21  C11 UNL     1       6.155  16.307   8.276  1.00  0.00     0.082 A 
HETATM   22 CL2  UNL     1       7.407  17.482   7.816  1.00  0.00    -0.080 Cl
ENDBRANCH  13  15
ENDBRANCH   2  11
BRANCH   1  23
HETATM   23  C3  UNL     1       5.708  20.800   5.646  1.00  0.00     0.171 C 
HETATM   24  S1  UNL     1       6.307  20.039   4.301  1.00  0.00    -0.041 SA
BRANCH  23  25
HETATM   25  N1  UNL     1       6.611  21.422   6.547  1.00  0.00    -0.367 N 
ATOM     26  H1  UNL     1       6.338  22.257   7.065  1.00  0.00     0.161 HD
BRANCH  25  27
HETATM   27  C2  UNL     1       7.936  20.844   6.716  1.00  0.00     0.117 C 
HETATM   28  C1  UNL     1       9.010  21.735   6.146  1.00  0.00     0.026 C 
ENDBRANCH  25  27
ENDBRANCH  23  25
ENDBRANCH   1  23
BRANCH   4  29
HETATM   29  N4  UNL     1       0.169  20.861   6.486  1.00  0.00    -0.356 N 
HETATM   30  C14 UNL     1      -0.663  19.895   7.085  1.00  0.00     0.218 C 
HETATM   31  O2  UNL     1      -0.188  18.777   7.367  1.00  0.00    -0.274 OA
ATOM     32  H4  UNL     1      -0.245  21.767   6.265  1.00  0.00     0.162 HD
BRANCH  30  33
HETATM   33  C15 UNL     1      -2.074  20.182   7.380  1.00  0.00     0.112 C 
BRANCH  33  34
HETATM   34  C16 UNL     1      -3.049  19.741   6.345  1.00  0.00     0.112 C 
BRANCH  34  35
HETATM   35  C17 UNL     1      -3.377  20.739   5.312  1.00  0.00     0.217 C 
HETATM   36  O3  UNL     1      -2.594  21.662   5.037  1.00  0.00    -0.274 OA
HETATM   37  N5  UNL     1      -4.611  20.621   4.635  1.00  0.00    -0.365 N 
HETATM   38  C18 UNL     1      -4.957  21.587   3.614  1.00  0.00     0.149 C 
ATOM     39  H5  UNL     1      -5.253  19.863   4.864  1.00  0.00     0.161 HD
ENDBRANCH  34  35
ENDBRANCH  33  34
ENDBRANCH  30  33
ENDBRANCH   4  29
TORSDOF 9
ENDMDL
MODEL 2
REMARK VINA RESULT: -7.340285664      4.758      8.960
REMARK  9 active torsions:
REMARK  status: ('A' for Active; 'I' for Inactive)
REMARK    1  A    between atoms: C2_2  and  N1_3 
REMARK    2  A    between atoms: N1_3  and  C3_5 
REMARK    3  A    between atoms: C3_5  and  N2_7 
REMARK    4  A    between atoms: C4_8  and  C5_9 
REMARK       I    between atoms: C5_9  and  N3_11 
REMARK    5  A    between atoms: N3_11  and  C6_13 
REMARK    6  A    between atoms: C13_22  and  N4_23 
REMARK       I    between atoms: N4_23  and  C14_25 
REMARK    7  A    between atoms: C14_25  and  C15_27 
REMARK    8  A    between atoms: C15_27  and  C16_28 
REMARK    9  A    between atoms: C16_28  and  C17_29 
REMARK       I    between atoms: C17_29  and  N5_31 
ROOT
HETATM    1  N2  UNL     1       5.800  22.936   4.928  1.00  0.00    -0.331 N 
HETATM    2  C4  UNL     1       6.039  21.553   4.588  1.00  0.00     0.182 C 
HETATM    3  C12 UNL     1       7.243  21.271   3.760  1.00  0.00     0.060 C 
HETATM    4  C13 UNL     1       8.311  22.364   3.924  1.00  0.00     0.094 C 
HETATM    5  C19 UNL     1       7.610  23.610   3.573  1.00  0.00     0.046 C 
HETATM    6  C20 UNL     1       8.471  24.782   3.253  1.00  0.00    -0.000 C 
HETATM    7  C21 UNL     1       9.422  25.161   4.356  1.00  0.00     0.011 C 
HETATM    8  C22 UNL     1       7.490  25.909   2.948  1.00  0.00     0.080 C 
HETATM    9  S2  UNL     1       6.056  25.522   4.043  1.00  0.00    -0.143 SA
HETATM   10  C23 UNL     1       6.745  23.988   4.754  1.00  0.00     0.156 C 
ENDROOT
BRANCH   2  11
HETATM   11  C5  UNL     1       6.178  20.772   5.875  1.00  0.00     0.245 C 
HETATM   12  O1  UNL     1       6.132  21.395   6.933  1.00  0.00    -0.271 OA
HETATM   13  N3  UNL     1       6.349  19.387   5.770  1.00  0.00    -0.324 N 
ATOM     14  H3  UNL     1       6.368  19.009   4.823  1.00  0.00     0.169 HD
BRANCH  13  15
HETATM   15  C6  UNL     1       6.500  18.446   6.822  1.00  0.00     0.058 A 
HETATM   16  C7  UNL     1       7.664  18.281   7.519  1.00  0.00     0.031 A 
HETATM   17  C8  UNL     1       7.722  17.335   8.533  1.00  0.00     0.004 A 
HETATM   18  C9  UNL     1       6.654  16.551   8.874  1.00  0.00     0.026 A 
HETATM   19  C10 UNL     1       5.491  16.717   8.178  1.00  0.00     0.058 A 
HETATM   20 CL1  UNL     1       4.050  15.754   8.541  1.00  0.00    -0.082 Cl
HETATM   21  C11 UNL     1       5.407  17.641   7.173  1.00  0.00     0.082 A 
HETATM   22 CL2  UNL     1       3.880  17.830   6.285  1.00  0.00    -0.080 Cl
ENDBRANCH  13  15
ENDBRANCH   2  11
BRANCH   1  23
HETATM   23  C3  UNL     1       4.515  23.233   5.476  1.00  0.00     0.171 C 
HETATM   24  S1  UNL     1       3.197  22.925   4.519  1.00  0.00    -0.041 SA
BRANCH  23  25
HETATM   25  N1  UNL     1       4.317  23.782   6.769  1.00  0.00    -0.367 N 
ATOM     26  H1  UNL     1       4.710  23.329   7.594  1.00  0.00     0.161 HD
BRANCH  25  27
HETATM   27  C2  UNL     1       3.540  25.006   6.894  1.00  0.00     0.117 C 
HETATM   28  C1  UNL     1       3.972  25.821   8.087  1.00  0.00     0.026 C 
ENDBRANCH  25  27
ENDBRANCH  23  25
ENDBRANCH   1  23
BRANCH   4  29
HETATM   29  N4  UNL     1       9.478  22.079   3.146  1.00  0.00    -0.356 N 
HETATM   30  C14 UNL     1      10.786  21.965   3.658  1.00  0.00     0.218 C 
HETATM   31  O2  UNL     1      10.972  22.118   4.881  1.00  0.00    -0.274 OA
ATOM     32  H4  UNL     1       9.353  21.949   2.141  1.00  0.00     0.162 HD
BRANCH  30  33
HETATM   33  C15 UNL     1      11.925  21.670   2.779  1.00  0.00     0.112 C 
BRANCH  33  34
HETATM   34  C16 UNL     1      13.265  22.036   3.319  1.00  0.00     0.112 C 
BRANCH  34  35
HETATM   35  C17 UNL     1      13.914  21.012   4.156  1.00  0.00     0.217 C 
HETATM   36  O3  UNL     1      14.758  20.233   3.683  1.00  0.00    -0.274 OA
HETATM   37  N5  UNL     1      13.554  20.936   5.520  1.00  0.00    -0.365 N 
HETATM   38  C18 UNL     1      14.180  19.942   6.365  1.00  0.00     0.149 C 
ATOM     39  H5  UNL     1      12.861  21.576   5.905  1.00  0.00     0.161 HD
ENDBRANCH  34  35
ENDBRANCH  33  34
ENDBRANCH  30  33
ENDBRANCH   4  29
TORSDOF 9
ENDMDL
MODEL 3
REMARK VINA RESULT: -7.283259179      4.115      9.014
REMARK  9 active torsions:
REMARK  status: ('A' for Active; 'I' for Inactive)
REMARK    1  A    between atoms: C2_2  and  N1_3 
REMARK    2  A    between atoms: N1_3  and  C3_5 
REMARK    3  A    between atoms: C3_5  and  N2_7 
REMARK    4  A    between atoms: C4_8  and  C5_9 
REMARK       I    between atoms: C5_9  and  N3_11 
REMARK    5  A    between atoms: N3_11  and  C6_13 
REMARK    6  A    between atoms: C13_22  and  N4_23 
REMARK       I    between atoms: N4_23  and  C14_25 
REMARK    7  A    between atoms: C14_25  and  C15_27 
REMARK    8  A    between atoms: C15_27  and  C16_28 
REMARK    9  A    between atoms: C16_28  and  C17_29 
REMARK       I    between atoms: C17_29  and  N5_31 
ROOT
HETATM    1  N2  UNL     1       5.657  22.352   4.232  1.00  0.00    -0.331 N 
HETATM    2  C4  UNL     1       6.107  21.001   3.985  1.00  0.00     0.182 C 
HETATM    3  C12 UNL     1       7.421  20.852   3.303  1.00  0.00     0.060 C 
HETATM    4  C13 UNL     1       8.317  22.080   3.526  1.00  0.00     0.094 C 
HETATM    5  C19 UNL     1       7.507  23.211   3.044  1.00  0.00     0.046 C 
HETATM    6  C20 UNL     1       8.242  24.474   2.760  1.00  0.00    -0.000 C 
HETATM    7  C21 UNL     1       9.010  25.012   3.937  1.00  0.00     0.011 C 
HETATM    8  C22 UNL     1       7.166  25.452   2.300  1.00  0.00     0.080 C 
HETATM    9  S2  UNL     1       5.681  24.918   3.255  1.00  0.00    -0.143 SA
HETATM   10  C23 UNL     1       6.475  23.513   4.108  1.00  0.00     0.156 C 
ENDROOT
BRANCH   2  11
HETATM   11  C5  UNL     1       6.200  20.290   5.316  1.00  0.00     0.245 C 
HETATM   12  O1  UNL     1       6.703  20.897   6.259  1.00  0.00    -0.271 OA
HETATM   13  N3  UNL     1       5.703  18.984   5.381  1.00  0.00    -0.324 N 
ATOM     14  H3  UNL     1       5.313  18.609   4.516  1.00  0.00     0.169 HD
BRANCH  13  15
HETATM   15  C6  UNL     1       5.676  18.117   6.505  1.00  0.00     0.058 A 
HETATM   16  C7  UNL     1       6.787  17.490   6.995  1.00  0.00     0.031 A 
HETATM   17  C8  UNL     1       6.668  16.659   8.100  1.00  0.00     0.004 A 
HETATM   18  C9  UNL     1       5.475  16.435   8.731  1.00  0.00     0.026 A 
HETATM   19  C10 UNL     1       4.365  17.062   8.242  1.00  0.00     0.058 A 
HETATM   20 CL1  UNL     1       2.773  16.841   8.986  1.00  0.00    -0.082 Cl
HETATM   21  C11 UNL     1       4.455  17.885   7.153  1.00  0.00     0.082 A 
HETATM   22 CL2  UNL     1       2.990  18.684   6.540  1.00  0.00    -0.080 Cl
ENDBRANCH  13  15
ENDBRANCH   2  11
BRANCH   1  23
HETATM   23  C3  UNL     1       4.293  22.496   4.626  1.00  0.00     0.171 C 
HETATM   24  S1  UNL     1       4.000  23.271   6.062  1.00  0.00    -0.041 SA
BRANCH  23  25
HETATM   25  N1  UNL     1       3.197  22.004   3.871  1.00  0.00    -0.367 N 
ATOM     26  H1  UNL     1       3.254  21.937   2.854  1.00  0.00     0.161 HD
BRANCH  25  27
HETATM   27  C2  UNL     1       1.991  21.598   4.575  1.00  0.00     0.117 C 
HETATM   28  C1  UNL     1       0.793  22.402   4.139  1.00  0.00     0.026 C 
ENDBRANCH  25  27
ENDBRANCH  23  25
ENDBRANCH   1  23
BRANCH   4  29
HETATM   29  N4  UNL     1       9.589  21.925   2.889  1.00  0.00    -0.356 N 
HETATM   30  C14 UNL     1      10.835  21.968   3.546  1.00  0.00     0.218 C 
HETATM   31  O2  UNL     1      10.863  22.153   4.778  1.00  0.00    -0.274 OA
ATOM     32  H4  UNL     1       9.595  21.771   1.880  1.00  0.00     0.162 HD
BRANCH  30  33
HETATM   33  C15 UNL     1      12.093  21.797   2.806  1.00  0.00     0.112 C 
BRANCH  33  34
HETATM   34  C16 UNL     1      13.332  22.138   3.561  1.00  0.00     0.112 C 
BRANCH  34  35
HETATM   35  C17 UNL     1      13.903  21.048   4.370  1.00  0.00     0.217 C 
HETATM   36  O3  UNL     1      14.740  20.262   3.895  1.00  0.00    -0.274 OA
HETATM   37  N5  UNL     1      13.477  20.915   5.710  1.00  0.00    -0.365 N 
HETATM   38  C18 UNL     1      14.025  19.855   6.529  1.00  0.00     0.149 C 
ATOM     39  H5  UNL     1      12.789  21.561   6.097  1.00  0.00     0.161 HD
ENDBRANCH  34  35
ENDBRANCH  33  34
ENDBRANCH  30  33
ENDBRANCH   4  29
TORSDOF 9
ENDMDL
MODEL 4
REMARK VINA RESULT: -7.260545381      4.275      7.891
REMARK  9 active torsions:
REMARK  status: ('A' for Active; 'I' for Inactive)
REMARK    1  A    between atoms: C2_2  and  N1_3 
REMARK    2  A    between atoms: N1_3  and  C3_5 
REMARK    3  A    between atoms: C3_5  and  N2_7 
REMARK    4  A    between atoms: C4_8  and  C5_9 
REMARK       I    between atoms: C5_9  and  N3_11 
REMARK    5  A    between atoms: N3_11  and  C6_13 
REMARK    6  A    between atoms: C13_22  and  N4_23 
REMARK       I    between atoms: N4_23  and  C14_25 
REMARK    7  A    between atoms: C14_25  and  C15_27 
REMARK    8  A    between atoms: C15_27  and  C16_28 
REMARK    9  A    between atoms: C16_28  and  C17_29 
REMARK       I    between atoms: C17_29  and  N5_31 
ROOT
HETATM    1  N2  UNL     1       5.380  21.549   6.046  1.00  0.00    -0.331 N 
HETATM    2  C4  UNL     1       6.668  21.464   6.695  1.00  0.00     0.182 C 
HETATM    3  C12 UNL     1       6.912  20.259   7.533  1.00  0.00     0.060 C 
HETATM    4  C13 UNL     1       6.040  19.074   7.088  1.00  0.00     0.094 C 
HETATM    5  C19 UNL     1       4.664  19.593   7.155  1.00  0.00     0.046 C 
HETATM    6  C20 UNL     1       3.577  18.575   7.168  1.00  0.00    -0.000 C 
HETATM    7  C21 UNL     1       3.593  17.650   5.981  1.00  0.00     0.011 C 
HETATM    8  C22 UNL     1       2.288  19.389   7.226  1.00  0.00     0.080 C 
HETATM    9  S2  UNL     1       2.718  20.920   6.292  1.00  0.00    -0.143 SA
HETATM   10  C23 UNL     1       4.453  20.471   5.942  1.00  0.00     0.156 C 
ENDROOT
BRANCH   2  11
HETATM   11  C5  UNL     1       7.734  21.499   5.624  1.00  0.00     0.245 C 
HETATM   12  O1  UNL     1       7.532  20.865   4.591  1.00  0.00    -0.271 OA
HETATM   13  N3  UNL     1       8.882  22.255   5.886  1.00  0.00    -0.324 N 
ATOM     14  H3  UNL     1       8.910  22.729   6.789  1.00  0.00     0.169 HD
BRANCH  13  15
HETATM   15  C6  UNL     1      10.012  22.443   5.047  1.00  0.00     0.058 A 
HETATM   16  C7  UNL     1       9.931  22.965   3.787  1.00  0.00     0.031 A 
HETATM   17  C8  UNL     1      11.089  23.113   3.036  1.00  0.00     0.004 A 
HETATM   18  C9  UNL     1      12.324  22.758   3.505  1.00  0.00     0.026 A 
HETATM   19  C10 UNL     1      12.405  22.237   4.765  1.00  0.00     0.058 A 
HETATM   20 CL1  UNL     1      13.955  21.747   5.466  1.00  0.00    -0.082 Cl
HETATM   21  C11 UNL     1      11.279  22.080   5.525  1.00  0.00     0.082 A 
HETATM   22 CL2  UNL     1      11.418  21.397   7.160  1.00  0.00    -0.080 Cl
ENDBRANCH  13  15
ENDBRANCH   2  11
BRANCH   1  23
HETATM   23  C3  UNL     1       5.046  22.816   5.479  1.00  0.00     0.171 C 
HETATM   24  S1  UNL     1       4.634  22.840   3.874  1.00  0.00    -0.041 SA
BRANCH  23  25
HETATM   25  N1  UNL     1       5.066  24.035   6.206  1.00  0.00    -0.367 N 
ATOM     26  H1  UNL     1       5.946  24.517   6.390  1.00  0.00     0.161 HD
BRANCH  25  27
HETATM   27  C2  UNL     1       3.805  24.581   6.684  1.00  0.00     0.117 C 
HETATM   28  C1  UNL     1       4.009  25.517   7.848  1.00  0.00     0.026 C 
ENDBRANCH  25  27
ENDBRANCH  23  25
ENDBRANCH   1  23
BRANCH   4  29
HETATM   29  N4  UNL     1       6.294  17.909   7.880  1.00  0.00    -0.356 N 
HETATM   30  C14 UNL     1       7.560  17.507   8.347  1.00  0.00     0.218 C 
HETATM   31  O2  UNL     1       8.557  18.200   8.066  1.00  0.00    -0.274 OA
ATOM     32  H4  UNL     1       5.495  17.324   8.124  1.00  0.00     0.162 HD
BRANCH  30  33
HETATM   33  C15 UNL     1       7.724  16.291   9.155  1.00  0.00     0.112 C 
BRANCH  33  34
HETATM   34  C16 UNL     1       7.001  15.087   8.657  1.00  0.00     0.112 C 
BRANCH  34  35
HETATM   35  C17 UNL     1       5.627  14.917   9.159  1.00  0.00     0.217 C 
HETATM   36  O3  UNL     1       4.665  15.478   8.610  1.00  0.00    -0.274 OA
HETATM   37  N5  UNL     1       5.424  14.092  10.289  1.00  0.00    -0.365 N 
HETATM   38  C18 UNL     1       4.084  13.905  10.801  1.00  0.00     0.149 C 
ATOM     39  H5  UNL     1       6.216  13.634  10.739  1.00  0.00     0.161 HD
ENDBRANCH  34  35
ENDBRANCH  33  34
ENDBRANCH  30  33
ENDBRANCH   4  29
TORSDOF 9
ENDMDL
MODEL 5
REMARK VINA RESULT: -7.246743730      3.375      6.339
REMARK  9 active torsions:
REMARK  status: ('A' for Active; 'I' for Inactive)
REMARK    1  A    between atoms: C2_2  and  N1_3 
REMARK    2  A    between atoms: N1_3  and  C3_5 
REMARK    3  A    between atoms: C3_5  and  N2_7 
REMARK    4  A    between atoms: C4_8  and  C5_9 
REMARK       I    between atoms: C5_9  and  N3_11 
REMARK    5  A    between atoms: N3_11  and  C6_13 
REMARK    6  A    between atoms: C13_22  and  N4_23 
REMARK       I    between atoms: N4_23  and  C14_25 
REMARK    7  A    between atoms: C14_25  and  C15_27 
REMARK    8  A    between atoms: C15_27  and  C16_28 
REMARK    9  A    between atoms: C16_28  and  C17_29 
REMARK       I    between atoms: C17_29  and  N5_31 
ROOT
HETATM    1  N2  UNL     1       3.122  19.994   6.719  1.00  0.00    -0.331 N 
HETATM    2  C4  UNL     1       4.325  20.203   5.946  1.00  0.00     0.182 C 
HETATM    3  C12 UNL     1       4.383  21.445   5.128  1.00  0.00     0.060 C 
HETATM    4  C13 UNL     1       3.468  22.541   5.698  1.00  0.00     0.094 C 
HETATM    5  C19 UNL     1       2.139  21.910   5.753  1.00  0.00     0.046 C 
HETATM    6  C20 UNL     1       0.977  22.833   5.884  1.00  0.00    -0.000 C 
HETATM    7  C21 UNL     1       1.041  23.727   7.092  1.00  0.00     0.011 C 
HETATM    8  C22 UNL     1      -0.240  21.915   5.929  1.00  0.00     0.080 C 
HETATM    9  S2  UNL     1       0.407  20.403   6.763  1.00  0.00    -0.143 SA
HETATM   10  C23 UNL     1       2.127  20.987   6.951  1.00  0.00     0.156 C 
ENDROOT
BRANCH   2  11
HETATM   11  C5  UNL     1       5.495  20.232   6.903  1.00  0.00     0.245 C 
HETATM   12  O1  UNL     1       5.566  21.167   7.697  1.00  0.00    -0.271 OA
HETATM   13  N3  UNL     1       6.420  19.185   6.816  1.00  0.00    -0.324 N 
ATOM     14  H3  UNL     1       6.230  18.477   6.107  1.00  0.00     0.169 HD
BRANCH  13  15
HETATM   15  C6  UNL     1       7.589  18.989   7.597  1.00  0.00     0.058 A 
HETATM   16  C7  UNL     1       8.556  19.943   7.751  1.00  0.00     0.031 A 
HETATM   17  C8  UNL     1       9.668  19.666   8.534  1.00  0.00     0.004 A 
HETATM   18  C9  UNL     1       9.844  18.467   9.168  1.00  0.00     0.026 A 
HETATM   19  C10 UNL     1       8.878  17.513   9.014  1.00  0.00     0.058 A 
HETATM   20 CL1  UNL     1       9.009  15.929   9.793  1.00  0.00    -0.082 Cl
HETATM   21  C11 UNL     1       7.773  17.761   8.248  1.00  0.00     0.082 A 
HETATM   22 CL2  UNL     1       6.535  16.499   8.066  1.00  0.00    -0.080 Cl
ENDBRANCH  13  15
ENDBRANCH   2  11
BRANCH   1  23
HETATM   23  C3  UNL     1       2.952  18.691   7.274  1.00  0.00     0.171 C 
HETATM   24  S1  UNL     1       3.425  17.405   6.341  1.00  0.00    -0.041 SA
BRANCH  23  25
HETATM   25  N1  UNL     1       2.395  18.445   8.556  1.00  0.00    -0.367 N 
ATOM     26  H1  UNL     1       2.335  19.191   9.249  1.00  0.00     0.161 HD
BRANCH  25  27
HETATM   27  C2  UNL     1       1.911  17.108   8.861  1.00  0.00     0.117 C 
HETATM   28  C1  UNL     1       2.807  16.402   9.847  1.00  0.00     0.026 C 
ENDBRANCH  25  27
ENDBRANCH  23  25
ENDBRANCH   1  23
BRANCH   4  29
HETATM   29  N4  UNL     1       3.543  23.742   4.924  1.00  0.00    -0.356 N 
HETATM   30  C14 UNL     1       4.102  24.957   5.367  1.00  0.00     0.218 C 
HETATM   31  O2  UNL     1       4.577  25.021   6.517  1.00  0.00    -0.274 OA
ATOM     32  H4  UNL     1       3.162  23.717   3.978  1.00  0.00     0.162 HD
BRANCH  30  33
HETATM   33  C15 UNL     1       4.134  26.142   4.498  1.00  0.00     0.112 C 
BRANCH  33  34
HETATM   34  C16 UNL     1       5.491  26.672   4.186  1.00  0.00     0.112 C 
BRANCH  34  35
HETATM   35  C17 UNL     1       6.493  25.666   3.796  1.00  0.00     0.217 C 
HETATM   36  O3  UNL     1       6.557  25.237   2.633  1.00  0.00    -0.274 OA
HETATM   37  N5  UNL     1       7.389  25.197   4.783  1.00  0.00    -0.365 N 
HETATM   38  C18 UNL     1       8.386  24.210   4.426  1.00  0.00     0.149 C 
ATOM     39  H5  UNL     1       7.333  25.550   5.737  1.00  0.00     0.161 HD
ENDBRANCH  34  35
ENDBRANCH  33  34
ENDBRANCH  30  33
ENDBRANCH   4  29
TORSDOF 9
ENDMDL
