MODEL 1
REMARK VINA RESULT: -8.021839921      0.000      0.000
REMARK  11 active torsions:
REMARK  status: ('A' for Active; 'I' for Inactive)
REMARK    1  A    between atoms: C2_2  and  C5_5 
REMARK    2  A    between atoms: C5_5  and  N1_6 
REMARK    3  A    between atoms: C5_5  and  C25_38 
REMARK       I    between atoms: N1_6  and  C6_8 
REMARK       I    between atoms: C6_8  and  N2_10 
REMARK    4  A    between atoms: N2_10  and  C7_11 
REMARK    5  A    between atoms: C7_11  and  C8_12 
REMARK    6  A    between atoms: C7_11  and  C21_33 
REMARK    7  A    between atoms: C8_12  and  O2_13 
REMARK    8  A    between atoms: C8_12  and  N3_15 
REMARK    9  A    between atoms: C12_19  and  C13_20 
REMARK       I    between atoms: C13_20  and  N4_22 
REMARK   10  A    between atoms: N4_22  and  C14_24 
REMARK   11  A    between atoms: C14_24  and  C15_25 
ROOT
HETATM    1  C21 UNL     1       7.306  23.232   3.104  1.00  0.00     0.082 C 
HETATM    2  C22 UNL     1       5.897  22.687   2.762  1.00  0.00     0.035 C 
HETATM    3  C23 UNL     1       7.883  23.649   1.754  1.00  0.00     0.035 C 
HETATM    4  C24 UNL     1       7.042  24.300   4.011  1.00  0.00     0.072 C 
HETATM    5  N5  UNL     1       6.773  25.191   4.739  1.00  0.00    -0.196 NA
ENDROOT
BRANCH   1   6
HETATM    6  C7  UNL     1       8.051  22.095   3.695  1.00  0.00     0.264 C 
BRANCH   6   7
HETATM    7  N2  UNL     1       9.394  22.613   4.059  1.00  0.00    -0.381 NA
HETATM    8  C6  UNL     1      10.589  23.079   4.375  1.00  0.00     0.390 C 
HETATM    9  N1  UNL     1      11.169  22.754   5.674  1.00  0.00    -0.316 N 
HETATM   10  O1  UNL     1      11.303  23.783   3.652  1.00  0.00    -0.231 OA
ATOM     11  H1  UNL     1      10.601  22.363   6.425  1.00  0.00     0.166 HD
BRANCH   9  12
HETATM   12  C5  UNL     1      12.570  23.008   5.852  1.00  0.00     0.195 C 
BRANCH  12  13
HETATM   13  C2  UNL     1      13.315  21.751   6.291  1.00  0.00    -0.021 C 
HETATM   14  C1  UNL     1      12.492  21.066   7.395  1.00  0.00     0.017 C 
HETATM   15  C3  UNL     1      14.717  21.991   6.752  1.00  0.00     0.017 C 
HETATM   16  C4  UNL     1      13.350  20.776   5.111  1.00  0.00     0.017 C 
ENDBRANCH  12  13
BRANCH  12  17
HETATM   17  C25 UNL     1      12.975  24.179   6.641  1.00  0.00     0.197 C 
HETATM   18  O4  UNL     1      12.607  24.518   7.800  1.00  0.00    -0.646 OA
HETATM   19  O5  UNL     1      13.897  25.104   6.018  1.00  0.00    -0.646 OA
ENDBRANCH  12  17
ENDBRANCH   9  12
ENDBRANCH   6   7
BRANCH   6  20
HETATM   20  C8  UNL     1       7.522  21.539   4.966  1.00  0.00     0.153 C 
BRANCH  20  21
HETATM   21  O2  UNL     1       8.392  21.901   5.930  1.00  0.00    -0.347 OA
ATOM     22  H2  UNL     1       8.350  22.849   5.986  1.00  0.00     0.219 HD
ENDBRANCH  20  21
BRANCH  20  23
HETATM   23  N3  UNL     1       6.464  20.816   5.451  1.00  0.00    -0.349 N 
HETATM   24  C9  UNL     1       5.628  21.450   6.540  1.00  0.00     0.126 C 
HETATM   25  C10 UNL     1       4.422  20.619   6.604  1.00  0.00     0.022 C 
HETATM   26  C11 UNL     1       4.362  19.953   5.283  1.00  0.00     0.037 C 
HETATM   27  C12 UNL     1       5.869  19.533   5.189  1.00  0.00     0.179 C 
BRANCH  27  28
HETATM   28  C13 UNL     1       6.133  18.604   6.335  1.00  0.00     0.251 C 
HETATM   29  O3  UNL     1       7.141  18.595   6.956  1.00  0.00    -0.270 OA
HETATM   30  N4  UNL     1       5.069  17.690   6.668  1.00  0.00    -0.290 N 
ATOM     31  H4  UNL     1       4.266  17.694   6.039  1.00  0.00     0.178 HD
BRANCH  30  32
HETATM   32  C14 UNL     1       4.999  16.838   7.694  1.00  0.00    -0.024 C 
BRANCH  32  33
HETATM   33  C15 UNL     1       4.780  15.945   8.743  1.00  0.00     0.070 A 
HETATM   34  C16 UNL     1       5.834  15.029   9.117  1.00  0.00     0.055 A 
HETATM   35 CL1  UNL     1       7.348  15.298   8.308  1.00  0.00    -0.083 Cl
HETATM   36  C17 UNL     1       5.637  14.056  10.035  1.00  0.00     0.025 A 
HETATM   37  C18 UNL     1       4.388  13.895  10.668  1.00  0.00     0.003 A 
HETATM   38  C19 UNL     1       3.373  14.759  10.319  1.00  0.00     0.025 A 
HETATM   39  C20 UNL     1       3.558  15.729   9.407  1.00  0.00     0.055 A 
HETATM   40 CL2  UNL     1       2.153  16.765   9.121  1.00  0.00    -0.083 Cl
ENDBRANCH  32  33
ENDBRANCH  30  32
ENDBRANCH  27  28
ENDBRANCH  20  23
ENDBRANCH   6  20
ENDBRANCH   1   6
TORSDOF 11
ENDMDL
MODEL 2
REMARK VINA RESULT: -8.019769712      0.157      1.500
REMARK  11 active torsions:
REMARK  status: ('A' for Active; 'I' for Inactive)
REMARK    1  A    between atoms: C2_2  and  C5_5 
REMARK    2  A    between atoms: C5_5  and  N1_6 
REMARK    3  A    between atoms: C5_5  and  C25_38 
REMARK       I    between atoms: N1_6  and  C6_8 
REMARK       I    between atoms: C6_8  and  N2_10 
REMARK    4  A    between atoms: N2_10  and  C7_11 
REMARK    5  A    between atoms: C7_11  and  C8_12 
REMARK    6  A    between atoms: C7_11  and  C21_33 
REMARK    7  A    between atoms: C8_12  and  O2_13 
REMARK    8  A    between atoms: C8_12  and  N3_15 
REMARK    9  A    between atoms: C12_19  and  C13_20 
REMARK       I    between atoms: C13_20  and  N4_22 
REMARK   10  A    between atoms: N4_22  and  C14_24 
REMARK   11  A    between atoms: C14_24  and  C15_25 
ROOT
HETATM    1  C21 UNL     1       7.259  23.146   3.149  1.00  0.00     0.082 C 
HETATM    2  C22 UNL     1       5.848  22.590   2.835  1.00  0.00     0.035 C 
HETATM    3  C23 UNL     1       7.816  23.541   1.785  1.00  0.00     0.035 C 
HETATM    4  C24 UNL     1       7.002  24.229   4.040  1.00  0.00     0.072 C 
HETATM    5  N5  UNL     1       6.739  25.132   4.755  1.00  0.00    -0.196 NA
ENDROOT
BRANCH   1   6
HETATM    6  C7  UNL     1       8.015  22.023   3.751  1.00  0.00     0.264 C 
BRANCH   6   7
HETATM    7  N2  UNL     1       9.349  22.562   4.119  1.00  0.00    -0.381 NA
HETATM    8  C6  UNL     1      10.537  23.045   4.437  1.00  0.00     0.390 C 
HETATM    9  N1  UNL     1      11.140  22.688   5.717  1.00  0.00    -0.316 N 
HETATM   10  O1  UNL     1      11.224  23.794   3.733  1.00  0.00    -0.231 OA
ATOM     11  H1  UNL     1      10.592  22.255   6.460  1.00  0.00     0.166 HD
BRANCH   9  12
HETATM   12  C5  UNL     1      12.537  22.971   5.889  1.00  0.00     0.195 C 
BRANCH  12  13
HETATM   13  C2  UNL     1      13.310  21.727   6.316  1.00  0.00    -0.021 C 
HETATM   14  C1  UNL     1      12.511  21.021   7.423  1.00  0.00     0.017 C 
HETATM   15  C3  UNL     1      14.711  21.994   6.768  1.00  0.00     0.017 C 
HETATM   16  C4  UNL     1      13.357  20.759   5.131  1.00  0.00     0.017 C 
ENDBRANCH  12  13
BRANCH  12  17
HETATM   17  C25 UNL     1      12.921  24.146   6.682  1.00  0.00     0.197 C 
HETATM   18  O4  UNL     1      12.531  24.486   7.834  1.00  0.00    -0.646 OA
HETATM   19  O5  UNL     1      13.849  25.074   6.074  1.00  0.00    -0.646 OA
ENDBRANCH  12  17
ENDBRANCH   9  12
ENDBRANCH   6   7
BRANCH   6  20
HETATM   20  C8  UNL     1       7.487  21.468   5.022  1.00  0.00     0.153 C 
BRANCH  20  21
HETATM   21  O2  UNL     1       8.365  21.819   5.983  1.00  0.00    -0.347 OA
ATOM     22  H2  UNL     1       8.730  21.010   6.322  1.00  0.00     0.219 HD
ENDBRANCH  20  21
BRANCH  20  23
HETATM   23  N3  UNL     1       6.426  20.752   5.510  1.00  0.00    -0.349 N 
HETATM   24  C9  UNL     1       5.609  21.383   6.615  1.00  0.00     0.126 C 
HETATM   25  C10 UNL     1       4.393  20.567   6.682  1.00  0.00     0.022 C 
HETATM   26  C11 UNL     1       4.312  19.917   5.354  1.00  0.00     0.037 C 
HETATM   27  C12 UNL     1       5.813  19.480   5.239  1.00  0.00     0.179 C 
BRANCH  27  28
HETATM   28  C13 UNL     1       6.077  18.533   6.370  1.00  0.00     0.251 C 
HETATM   29  O3  UNL     1       7.083  18.519   6.995  1.00  0.00    -0.270 OA
HETATM   30  N4  UNL     1       5.015  17.610   6.686  1.00  0.00    -0.290 N 
ATOM     31  H4  UNL     1       4.214  17.621   6.054  1.00  0.00     0.178 HD
BRANCH  30  32
HETATM   32  C14 UNL     1       4.945  16.742   7.699  1.00  0.00    -0.024 C 
BRANCH  32  33
HETATM   33  C15 UNL     1       4.881  15.728   8.654  1.00  0.00     0.070 A 
HETATM   34  C16 UNL     1       3.648  15.529   9.383  1.00  0.00     0.055 A 
HETATM   35 CL1  UNL     1       2.311  16.486   8.822  1.00  0.00    -0.083 Cl
HETATM   36  C17 UNL     1       3.563  14.651  10.409  1.00  0.00     0.025 A 
HETATM   37  C18 UNL     1       4.680  13.892  10.811  1.00  0.00     0.003 A 
HETATM   38  C19 UNL     1       5.863  14.074  10.126  1.00  0.00     0.025 A 
HETATM   39  C20 UNL     1       5.958  14.944   9.106  1.00  0.00     0.055 A 
HETATM   40 CL2  UNL     1       7.543  15.010   8.325  1.00  0.00    -0.083 Cl
ENDBRANCH  32  33
ENDBRANCH  30  32
ENDBRANCH  27  28
ENDBRANCH  20  23
ENDBRANCH   6  20
ENDBRANCH   1   6
TORSDOF 11
ENDMDL
MODEL 3
REMARK VINA RESULT: -7.972303945      1.261      1.426
REMARK  11 active torsions:
REMARK  status: ('A' for Active; 'I' for Inactive)
REMARK    1  A    between atoms: C2_2  and  C5_5 
REMARK    2  A    between atoms: C5_5  and  N1_6 
REMARK    3  A    between atoms: C5_5  and  C25_38 
REMARK       I    between atoms: N1_6  and  C6_8 
REMARK       I    between atoms: C6_8  and  N2_10 
REMARK    4  A    between atoms: N2_10  and  C7_11 
REMARK    5  A    between atoms: C7_11  and  C8_12 
REMARK    6  A    between atoms: C7_11  and  C21_33 
REMARK    7  A    between atoms: C8_12  and  O2_13 
REMARK    8  A    between atoms: C8_12  and  N3_15 
REMARK    9  A    between atoms: C12_19  and  C13_20 
REMARK       I    between atoms: C13_20  and  N4_22 
REMARK   10  A    between atoms: N4_22  and  C14_24 
REMARK   11  A    between atoms: C14_24  and  C15_25 
ROOT
HETATM    1  C21 UNL     1       6.303  23.975   3.174  1.00  0.00     0.082 C 
HETATM    2  C22 UNL     1       5.049  23.168   2.752  1.00  0.00     0.035 C 
HETATM    3  C23 UNL     1       6.711  24.720   1.907  1.00  0.00     0.035 C 
HETATM    4  C24 UNL     1       5.830  24.796   4.240  1.00  0.00     0.072 C 
HETATM    5  N5  UNL     1       5.387  25.475   5.099  1.00  0.00    -0.196 NA
ENDROOT
BRANCH   1   6
HETATM    6  C7  UNL     1       7.317  22.972   3.576  1.00  0.00     0.264 C 
BRANCH   6   7
HETATM    7  N2  UNL     1       8.531  23.733   3.966  1.00  0.00    -0.381 NA
HETATM    8  C6  UNL     1       9.613  24.413   4.304  1.00  0.00     0.390 C 
HETATM    9  N1  UNL     1      10.056  24.416   5.694  1.00  0.00    -0.316 N 
HETATM   10  O1  UNL     1      10.324  25.067   3.533  1.00  0.00    -0.231 OA
ATOM     11  H1  UNL     1       9.448  24.092   6.446  1.00  0.00     0.166 HD
BRANCH   9  12
HETATM   12  C5  UNL     1      11.383  24.894   5.962  1.00  0.00     0.195 C 
BRANCH  12  13
HETATM   13  C2  UNL     1      12.244  23.817   6.614  1.00  0.00    -0.021 C 
HETATM   14  C1  UNL     1      11.358  23.013   7.580  1.00  0.00     0.017 C 
HETATM   15  C3  UNL     1      13.456  24.337   7.321  1.00  0.00     0.017 C 
HETATM   16  C4  UNL     1      12.696  22.838   5.527  1.00  0.00     0.017 C 
ENDBRANCH  12  13
BRANCH  12  17
HETATM   17  C25 UNL     1      11.538  26.191   6.632  1.00  0.00     0.197 C 
HETATM   18  O4  UNL     1      10.894  26.656   7.614  1.00  0.00    -0.646 OA
HETATM   19  O5  UNL     1      12.537  27.091   6.100  1.00  0.00    -0.646 OA
ENDBRANCH  12  17
ENDBRANCH   9  12
ENDBRANCH   6   7
BRANCH   6  20
HETATM   20  C8  UNL     1       7.006  22.151   4.773  1.00  0.00     0.153 C 
BRANCH  20  21
HETATM   21  O2  UNL     1       8.035  22.320   5.627  1.00  0.00    -0.347 OA
ATOM     22  H2  UNL     1       8.792  21.917   5.217  1.00  0.00     0.219 HD
ENDBRANCH  20  21
BRANCH  20  23
HETATM   23  N3  UNL     1       6.036  21.321   5.270  1.00  0.00    -0.349 N 
HETATM   24  C9  UNL     1       5.156  21.859   6.375  1.00  0.00     0.126 C 
HETATM   25  C10 UNL     1       4.043  20.909   6.452  1.00  0.00     0.022 C 
HETATM   26  C11 UNL     1       4.032  20.246   5.128  1.00  0.00     0.037 C 
HETATM   27  C12 UNL     1       5.572  19.984   5.008  1.00  0.00     0.179 C 
BRANCH  27  28
HETATM   28  C13 UNL     1       5.948  19.082   6.144  1.00  0.00     0.251 C 
HETATM   29  O3  UNL     1       6.951  19.188   6.765  1.00  0.00    -0.270 OA
HETATM   30  N4  UNL     1       5.003  18.042   6.467  1.00  0.00    -0.290 N 
ATOM     31  H4  UNL     1       4.204  17.956   5.838  1.00  0.00     0.178 HD
BRANCH  30  32
HETATM   32  C14 UNL     1       5.038  17.178   7.484  1.00  0.00    -0.024 C 
BRANCH  32  33
HETATM   33  C15 UNL     1       4.960  16.205   8.481  1.00  0.00     0.070 A 
HETATM   34  C16 UNL     1       6.142  15.436   8.804  1.00  0.00     0.055 A 
HETATM   35 CL1  UNL     1       7.594  15.971   8.013  1.00  0.00    -0.083 Cl
HETATM   36  C17 UNL     1       6.098  14.395   9.667  1.00  0.00     0.025 A 
HETATM   37  C18 UNL     1       4.891  14.016  10.288  1.00  0.00     0.003 A 
HETATM   38  C19 UNL     1       3.757  14.738   9.986  1.00  0.00     0.025 A 
HETATM   39  C20 UNL     1       3.789  15.774   9.130  1.00  0.00     0.055 A 
HETATM   40 CL2  UNL     1       2.244  16.604   8.902  1.00  0.00    -0.083 Cl
ENDBRANCH  32  33
ENDBRANCH  30  32
ENDBRANCH  27  28
ENDBRANCH  20  23
ENDBRANCH   6  20
ENDBRANCH   1   6
TORSDOF 11
ENDMDL
MODEL 4
REMARK VINA RESULT: -7.960333585      2.326      2.970
REMARK  11 active torsions:
REMARK  status: ('A' for Active; 'I' for Inactive)
REMARK    1  A    between atoms: C2_2  and  C5_5 
REMARK    2  A    between atoms: C5_5  and  N1_6 
REMARK    3  A    between atoms: C5_5  and  C25_38 
REMARK       I    between atoms: N1_6  and  C6_8 
REMARK       I    between atoms: C6_8  and  N2_10 
REMARK    4  A    between atoms: N2_10  and  C7_11 
REMARK    5  A    between atoms: C7_11  and  C8_12 
REMARK    6  A    between atoms: C7_11  and  C21_33 
REMARK    7  A    between atoms: C8_12  and  O2_13 
REMARK    8  A    between atoms: C8_12  and  N3_15 
REMARK    9  A    between atoms: C12_19  and  C13_20 
REMARK       I    between atoms: C13_20  and  N4_22 
REMARK   10  A    between atoms: N4_22  and  C14_24 
REMARK   11  A    between atoms: C14_24  and  C15_25 
ROOT
HETATM    1  C21 UNL     1       5.646  24.651   3.411  1.00  0.00     0.082 C 
HETATM    2  C22 UNL     1       4.304  24.078   2.891  1.00  0.00     0.035 C 
HETATM    3  C23 UNL     1       6.093  25.610   2.311  1.00  0.00     0.035 C 
HETATM    4  C24 UNL     1       5.291  25.265   4.649  1.00  0.00     0.072 C 
HETATM    5  N5  UNL     1       4.946  25.782   5.654  1.00  0.00    -0.196 NA
ENDROOT
BRANCH   1   6
HETATM    6  C7  UNL     1       6.561  23.494   3.541  1.00  0.00     0.264 C 
BRANCH   6   7
HETATM    7  N2  UNL     1       7.897  24.048   3.877  1.00  0.00    -0.381 NA
HETATM    8  C6  UNL     1       9.087  24.544   4.167  1.00  0.00     0.390 C 
HETATM    9  N1  UNL     1       9.673  24.291   5.479  1.00  0.00    -0.316 N 
HETATM   10  O1  UNL     1       9.789  25.224   3.410  1.00  0.00    -0.231 OA
ATOM     11  H1  UNL     1       9.112  23.928   6.249  1.00  0.00     0.166 HD
BRANCH   9  12
HETATM   12  C5  UNL     1      11.071  24.573   5.642  1.00  0.00     0.195 C 
BRANCH  12  13
HETATM   13  C2  UNL     1      11.809  23.394   6.268  1.00  0.00    -0.021 C 
HETATM   14  C1  UNL     1      11.564  22.154   5.393  1.00  0.00     0.017 C 
HETATM   15  C3  UNL     1      11.439  23.115   7.690  1.00  0.00     0.017 C 
HETATM   16  C4  UNL     1      13.313  23.678   6.203  1.00  0.00     0.017 C 
ENDBRANCH  12  13
BRANCH  12  17
HETATM   17  C25 UNL     1      11.461  25.846   6.261  1.00  0.00     0.197 C 
HETATM   18  O4  UNL     1      11.067  26.350   7.349  1.00  0.00    -0.646 OA
HETATM   19  O5  UNL     1      12.402  26.669   5.533  1.00  0.00    -0.646 OA
ENDBRANCH  12  17
ENDBRANCH   9  12
ENDBRANCH   6   7
BRANCH   6  20
HETATM   20  C8  UNL     1       6.279  22.540   4.642  1.00  0.00     0.153 C 
BRANCH  20  21
HETATM   21  O2  UNL     1       7.357  22.564   5.451  1.00  0.00    -0.347 OA
ATOM     22  H2  UNL     1       7.244  23.313   6.025  1.00  0.00     0.219 HD
ENDBRANCH  20  21
BRANCH  20  23
HETATM   23  N3  UNL     1       5.303  21.687   5.087  1.00  0.00    -0.349 N 
HETATM   24  C9  UNL     1       4.469  22.136   6.266  1.00  0.00     0.126 C 
HETATM   25  C10 UNL     1       3.335  21.209   6.285  1.00  0.00     0.022 C 
HETATM   26  C11 UNL     1       3.268  20.678   4.904  1.00  0.00     0.037 C 
HETATM   27  C12 UNL     1       4.797  20.394   4.712  1.00  0.00     0.179 C 
BRANCH  27  28
HETATM   28  C13 UNL     1       5.182  19.376   5.742  1.00  0.00     0.251 C 
HETATM   29  O3  UNL     1       4.505  18.452   6.039  1.00  0.00    -0.270 OA
HETATM   30  N4  UNL     1       6.461  19.571   6.379  1.00  0.00    -0.290 N 
ATOM     31  H4  UNL     1       6.951  20.433   6.137  1.00  0.00     0.178 HD
BRANCH  30  32
HETATM   32  C14 UNL     1       7.087  18.768   7.243  1.00  0.00    -0.024 C 
BRANCH  32  33
HETATM   33  C15 UNL     1       7.770  18.052   8.227  1.00  0.00     0.070 A 
HETATM   34  C16 UNL     1       9.034  18.559   8.713  1.00  0.00     0.055 A 
HETATM   35 CL1  UNL     1       9.457  20.138   8.125  1.00  0.00    -0.083 Cl
HETATM   36  C17 UNL     1       9.803  17.846   9.568  1.00  0.00     0.025 A 
HETATM   37  C18 UNL     1       9.400  16.574  10.020  1.00  0.00     0.003 A 
HETATM   38  C19 UNL     1       8.199  16.077   9.562  1.00  0.00     0.025 A 
HETATM   39  C20 UNL     1       7.427  16.777   8.712  1.00  0.00     0.055 A 
HETATM   40 CL2  UNL     1       5.904  15.995   8.268  1.00  0.00    -0.083 Cl
ENDBRANCH  32  33
ENDBRANCH  30  32
ENDBRANCH  27  28
ENDBRANCH  20  23
ENDBRANCH   6  20
ENDBRANCH   1   6
TORSDOF 11
ENDMDL
MODEL 5
REMARK VINA RESULT: -7.799492817      1.191      2.004
REMARK  11 active torsions:
REMARK  status: ('A' for Active; 'I' for Inactive)
REMARK    1  A    between atoms: C2_2  and  C5_5 
REMARK    2  A    between atoms: C5_5  and  N1_6 
REMARK    3  A    between atoms: C5_5  and  C25_38 
REMARK       I    between atoms: N1_6  and  C6_8 
REMARK       I    between atoms: C6_8  and  N2_10 
REMARK    4  A    between atoms: N2_10  and  C7_11 
REMARK    5  A    between atoms: C7_11  and  C8_12 
REMARK    6  A    between atoms: C7_11  and  C21_33 
REMARK    7  A    between atoms: C8_12  and  O2_13 
REMARK    8  A    between atoms: C8_12  and  N3_15 
REMARK    9  A    between atoms: C12_19  and  C13_20 
REMARK       I    between atoms: C13_20  and  N4_22 
REMARK   10  A    between atoms: N4_22  and  C14_24 
REMARK   11  A    between atoms: C14_24  and  C15_25 
ROOT
HETATM    1  C21 UNL     1       6.202  23.862   3.431  1.00  0.00     0.082 C 
HETATM    2  C22 UNL     1       4.969  23.066   2.938  1.00  0.00     0.035 C 
HETATM    3  C23 UNL     1       6.622  24.688   2.220  1.00  0.00     0.035 C 
HETATM    4  C24 UNL     1       5.699  24.610   4.536  1.00  0.00     0.072 C 
HETATM    5  N5  UNL     1       5.231  25.229   5.427  1.00  0.00    -0.196 NA
ENDROOT
BRANCH   1   6
HETATM    6  C7  UNL     1       7.224  22.850   3.791  1.00  0.00     0.264 C 
BRANCH   6   7
HETATM    7  N2  UNL     1       8.446  23.601   4.172  1.00  0.00    -0.381 NA
HETATM    8  C6  UNL     1       9.535  24.273   4.502  1.00  0.00     0.390 C 
HETATM    9  N1  UNL     1      10.074  24.154   5.852  1.00  0.00    -0.316 N 
HETATM   10  O1  UNL     1      10.178  25.019   3.753  1.00  0.00    -0.231 OA
ATOM     11  H1  UNL     1       9.526  23.742   6.608  1.00  0.00     0.166 HD
BRANCH   9  12
HETATM   12  C5  UNL     1      11.406  24.638   6.076  1.00  0.00     0.195 C 
BRANCH  12  13
HETATM   13  C2  UNL     1      12.282  23.580   6.739  1.00  0.00    -0.021 C 
HETATM   14  C1  UNL     1      11.433  22.840   7.786  1.00  0.00     0.017 C 
HETATM   15  C3  UNL     1      13.534  24.113   7.360  1.00  0.00     0.017 C 
HETATM   16  C4  UNL     1      12.666  22.541   5.682  1.00  0.00     0.017 C 
ENDBRANCH  12  13
BRANCH  12  17
HETATM   17  C25 UNL     1      11.576  25.954   6.706  1.00  0.00     0.197 C 
HETATM   18  O4  UNL     1      11.012  26.416   7.737  1.00  0.00    -0.646 OA
HETATM   19  O5  UNL     1      12.486  26.878   6.065  1.00  0.00    -0.646 OA
ENDBRANCH  12  17
ENDBRANCH   9  12
ENDBRANCH   6   7
BRANCH   6  20
HETATM   20  C8  UNL     1       6.936  22.004   4.976  1.00  0.00     0.153 C 
BRANCH  20  21
HETATM   21  O2  UNL     1       7.985  22.150   5.810  1.00  0.00    -0.347 OA
ATOM     22  H2  UNL     1       8.719  22.425   5.272  1.00  0.00     0.219 HD
ENDBRANCH  20  21
BRANCH  20  23
HETATM   23  N3  UNL     1       5.975  21.165   5.476  1.00  0.00    -0.349 N 
HETATM   24  C9  UNL     1       5.122  21.681   6.613  1.00  0.00     0.126 C 
HETATM   25  C10 UNL     1       4.008  20.733   6.693  1.00  0.00     0.022 C 
HETATM   26  C11 UNL     1       3.964  20.100   5.355  1.00  0.00     0.037 C 
HETATM   27  C12 UNL     1       5.501  19.837   5.195  1.00  0.00     0.179 C 
BRANCH  27  28
HETATM   28  C13 UNL     1       5.899  18.907   6.301  1.00  0.00     0.251 C 
HETATM   29  O3  UNL     1       6.894  19.024   6.932  1.00  0.00    -0.270 OA
HETATM   30  N4  UNL     1       4.985  17.828   6.583  1.00  0.00    -0.290 N 
ATOM     31  H4  UNL     1       4.193  17.739   5.946  1.00  0.00     0.178 HD
BRANCH  30  32
HETATM   32  C14 UNL     1       5.042  16.931   7.570  1.00  0.00    -0.024 C 
BRANCH  32  33
HETATM   33  C15 UNL     1       5.047  15.894   8.504  1.00  0.00     0.070 A 
HETATM   34  C16 UNL     1       3.833  15.603   9.235  1.00  0.00     0.055 A 
HETATM   35 CL1  UNL     1       2.436  16.488   8.701  1.00  0.00    -0.083 Cl
HETATM   36  C17 UNL     1       3.810  14.701  10.242  1.00  0.00     0.025 A 
HETATM   37  C18 UNL     1       4.974  14.004  10.621  1.00  0.00     0.003 A 
HETATM   38  C19 UNL     1       6.139  14.274   9.935  1.00  0.00     0.025 A 
HETATM   39  C20 UNL     1       6.173  15.170   8.933  1.00  0.00     0.055 A 
HETATM   40 CL2  UNL     1       7.746  15.351   8.145  1.00  0.00    -0.083 Cl
ENDBRANCH  32  33
ENDBRANCH  30  32
ENDBRANCH  27  28
ENDBRANCH  20  23
ENDBRANCH   6  20
ENDBRANCH   1   6
TORSDOF 11
ENDMDL
