MODEL 1
REMARK VINA RESULT: -6.391746824      0.000      0.000
REMARK  15 active torsions:
REMARK  status: ('A' for Active; 'I' for Inactive)
REMARK    1  A    between atoms: C3_7  and  N3_8 
REMARK    2  A    between atoms: C6_13  and  N5_14 
REMARK    3  A    between atoms: C7_19  and  N7_20 
REMARK    4  A    between atoms: N9_25  and  C10_27 
REMARK    5  A    between atoms: C10_27  and  C11_28 
REMARK    6  A    between atoms: C11_28  and  O1_29 
REMARK    7  A    between atoms: C11_28  and  C12_31 
REMARK    8  A    between atoms: C12_31  and  O2_32 
REMARK    9  A    between atoms: C12_31  and  C13_34 
REMARK   10  A    between atoms: C13_34  and  O3_35 
REMARK   11  A    between atoms: C13_34  and  C14_37 
REMARK   12  A    between atoms: C14_37  and  O4_38 
REMARK   13  A    between atoms: C14_37  and  O5_40 
REMARK   14  A    between atoms: C16_48  and  O6_49 
REMARK   15  A    between atoms: C17_51  and  O7_52 
ROOT
HETATM    1  N1  UNL     1      18.324  -4.672  22.994  1.00  0.00    -0.195 NA
HETATM    2  C1  UNL     1      17.872  -4.261  21.990  1.00  0.00     0.095 C 
HETATM    3  C2  UNL     1      17.298  -3.732  20.754  1.00  0.00     0.325 C 
HETATM    4  N2  UNL     1      17.358  -4.703  19.706  1.00  0.00    -0.032 N 
ATOM      5  H21 UNL     1      17.924  -5.511  19.966  1.00  0.00     0.281 HD
ATOM      6  H22 UNL     1      17.916  -4.379  18.916  1.00  0.00     0.281 HD
HETATM    7  C3  UNL     1      16.039  -5.078  19.312  1.00  0.00     0.326 C 
HETATM    8  C16 UNL     1      15.219  -3.850  19.674  1.00  0.00     0.200 C 
HETATM    9  C17 UNL     1      15.810  -3.493  21.029  1.00  0.00     0.195 C 
ENDROOT
BRANCH   9  10
HETATM   10  O7  UNL     1      15.566  -2.132  21.291  1.00  0.00    -0.390 OA
ATOM     11  H7  UNL     1      16.224  -1.588  20.875  1.00  0.00     0.210 HD
ENDBRANCH   9  10
BRANCH   7  12
HETATM   12  N3  UNL     1      15.921  -5.361  17.910  1.00  0.00    -0.295 N 
HETATM   13  C4  UNL     1      16.885  -5.175  16.990  1.00  0.00     0.187 A 
HETATM   14  N4  UNL     1      16.412  -5.554  15.801  1.00  0.00    -0.346 N 
HETATM   15  C5  UNL     1      15.147  -5.986  15.926  1.00  0.00     0.123 A 
ATOM     16  H4  UNL     1      16.934  -5.520  14.925  1.00  0.00     0.167 HD
HETATM   17  C6  UNL     1      14.197  -6.481  15.061  1.00  0.00     0.145 A 
HETATM   18  C15 UNL     1      14.853  -5.854  17.281  1.00  0.00     0.157 A 
HETATM   19  N6  UNL     1      13.007  -6.820  15.576  1.00  0.00    -0.172 N 
HETATM   20  C7  UNL     1      12.710  -6.695  16.905  1.00  0.00     0.720 A 
ATOM     21  H6  UNL     1      12.291  -7.188  14.950  1.00  0.00     0.186 HD
HETATM   22  N12 UNL     1      13.637  -6.214  17.728  1.00  0.00    -0.171 N 
ATOM     23  H12 UNL     1      13.421  -6.117  18.720  1.00  0.00     0.186 HD
BRANCH  17  24
HETATM   24  N5  UNL     1      14.460  -6.608  13.795  1.00  0.00    -0.383 N 
ATOM     25  H52 UNL     1      15.089  -5.969  13.306  1.00  0.00     0.157 HD
ATOM     26  H51 UNL     1      14.039  -7.361  13.251  1.00  0.00     0.157 HD
ENDBRANCH  17  24
BRANCH  20  27
HETATM   27  N7  UNL     1      11.416  -7.102  17.314  1.00  0.00    -0.005 N 
HETATM   28  N8  UNL     1      11.024  -6.992  18.650  1.00  0.00    -0.274 N 
HETATM   29  C8  UNL     1      10.029  -7.627  19.147  1.00  0.00     0.158 C 
ATOM     30  H8  UNL     1      11.557  -6.374  19.262  1.00  0.00     0.188 HD
HETATM   31  C9  UNL     1       9.271  -8.514  18.251  1.00  0.00     0.131 C 
HETATM   32  N9  UNL     1       8.266  -9.174  18.703  1.00  0.00    -0.372 N 
HETATM   33  N10 UNL     1       9.706  -8.593  16.906  1.00  0.00    -0.266 N 
ATOM     34  H9  UNL     1       8.031  -9.050  19.688  1.00  0.00     0.161 HD
HETATM   35  N11 UNL     1      10.556  -7.627  16.330  1.00  0.00     0.018 NA
ATOM     36  H10 UNL     1       9.392  -9.375  16.333  1.00  0.00     0.186 HD
BRANCH  32  37
HETATM   37  C10 UNL     1       7.444 -10.072  17.942  1.00  0.00     0.155 C 
BRANCH  37  38
HETATM   38  C11 UNL     1       6.071  -9.464  17.664  1.00  0.00     0.167 C 
BRANCH  38  39
HETATM   39  O1  UNL     1       5.145 -10.477  17.452  1.00  0.00    -0.391 OA
ATOM     40  H1  UNL     1       5.123 -11.053  18.208  1.00  0.00     0.210 HD
ENDBRANCH  38  39
BRANCH  38  41
HETATM   41  C12 UNL     1       6.146  -8.515  16.489  1.00  0.00     0.182 C 
BRANCH  41  42
HETATM   42  O2  UNL     1       7.126  -8.984  15.589  1.00  0.00    -0.390 OA
ATOM     43  H2  UNL     1       7.958  -8.579  15.807  1.00  0.00     0.210 HD
ENDBRANCH  41  42
BRANCH  41  44
HETATM   44  C13 UNL     1       4.866  -8.442  15.727  1.00  0.00     0.204 C 
BRANCH  44  45
HETATM   45  O3  UNL     1       3.806  -7.958  16.490  1.00  0.00    -0.388 OA
ATOM     46  H3  UNL     1       3.020  -7.805  15.979  1.00  0.00     0.210 HD
ENDBRANCH  44  45
BRANCH  44  47
HETATM   47  C14 UNL     1       4.977  -7.767  14.388  1.00  0.00     0.285 C 
BRANCH  47  48
HETATM   48  O4  UNL     1       3.687  -7.577  13.892  1.00  0.00    -0.369 OA
ATOM     49  H4  UNL     1       3.670  -6.750  13.425  1.00  0.00     0.212 HD
ENDBRANCH  47  48
BRANCH  47  50
HETATM   50  O5  UNL     1       5.484  -6.471  14.626  1.00  0.00    -0.369 OA
ATOM     51  H5  UNL     1       5.567  -6.049  13.779  1.00  0.00     0.212 HD
ENDBRANCH  47  50
ENDBRANCH  44  47
ENDBRANCH  41  44
ENDBRANCH  38  41
ENDBRANCH  37  38
ENDBRANCH  32  37
ENDBRANCH  20  27
ENDBRANCH   7  12
BRANCH   8  52
HETATM   52  O6  UNL     1      15.520  -2.770  18.826  1.00  0.00    -0.389 OA
ATOM     53  H6  UNL     1      15.590  -1.959  19.315  1.00  0.00     0.210 HD
ENDBRANCH   8  52
TORSDOF 15
ENDMDL
MODEL 2
REMARK VINA RESULT: -6.111592788      7.256     11.501
REMARK  15 active torsions:
REMARK  status: ('A' for Active; 'I' for Inactive)
REMARK    1  A    between atoms: C3_7  and  N3_8 
REMARK    2  A    between atoms: C6_13  and  N5_14 
REMARK    3  A    between atoms: C7_19  and  N7_20 
REMARK    4  A    between atoms: N9_25  and  C10_27 
REMARK    5  A    between atoms: C10_27  and  C11_28 
REMARK    6  A    between atoms: C11_28  and  O1_29 
REMARK    7  A    between atoms: C11_28  and  C12_31 
REMARK    8  A    between atoms: C12_31  and  O2_32 
REMARK    9  A    between atoms: C12_31  and  C13_34 
REMARK   10  A    between atoms: C13_34  and  O3_35 
REMARK   11  A    between atoms: C13_34  and  C14_37 
REMARK   12  A    between atoms: C14_37  and  O4_38 
REMARK   13  A    between atoms: C14_37  and  O5_40 
REMARK   14  A    between atoms: C16_48  and  O6_49 
REMARK   15  A    between atoms: C17_51  and  O7_52 
ROOT
HETATM    1  N1  UNL     1      27.902   0.760  20.686  1.00  0.00    -0.195 NA
HETATM    2  C1  UNL     1      26.941   1.308  21.085  1.00  0.00     0.095 C 
HETATM    3  C2  UNL     1      25.747   1.974  21.602  1.00  0.00     0.325 C 
HETATM    4  N2  UNL     1      25.073   2.692  20.564  1.00  0.00    -0.032 N 
ATOM      5  H21 UNL     1      25.627   2.737  19.708  1.00  0.00     0.281 HD
ATOM      6  H22 UNL     1      25.023   3.692  20.760  1.00  0.00     0.281 HD
HETATM    7  C3  UNL     1      23.783   2.125  20.338  1.00  0.00     0.326 C 
HETATM    8  C16 UNL     1      23.452   1.498  21.682  1.00  0.00     0.200 C 
HETATM    9  C17 UNL     1      24.786   0.868  22.048  1.00  0.00     0.195 C 
ENDROOT
BRANCH   9  10
HETATM   10  O7  UNL     1      24.844   0.694  23.443  1.00  0.00    -0.390 OA
ATOM     11  H7  UNL     1      25.369   1.376  23.844  1.00  0.00     0.210 HD
ENDBRANCH   9  10
BRANCH   7  12
HETATM   12  N3  UNL     1      22.789   3.095  19.981  1.00  0.00    -0.295 N 
HETATM   13  C4  UNL     1      22.886   4.424  20.172  1.00  0.00     0.187 A 
HETATM   14  N4  UNL     1      21.773   5.000  19.711  1.00  0.00    -0.346 N 
HETATM   15  C5  UNL     1      20.943   4.066  19.219  1.00  0.00     0.123 A 
ATOM     16  H4  UNL     1      21.582   6.001  19.730  1.00  0.00     0.167 HD
HETATM   17  C6  UNL     1      19.697   4.083  18.632  1.00  0.00     0.145 A 
HETATM   18  C15 UNL     1      21.610   2.858  19.401  1.00  0.00     0.157 A 
HETATM   19  N6  UNL     1      19.175   2.907  18.256  1.00  0.00    -0.172 N 
HETATM   20  C7  UNL     1      19.822   1.716  18.431  1.00  0.00     0.720 A 
ATOM     21  H6  UNL     1      18.253   2.900  17.821  1.00  0.00     0.186 HD
HETATM   22  N12 UNL     1      21.025   1.716  18.999  1.00  0.00    -0.171 N 
ATOM     23  H12 UNL     1      21.513   0.830  19.133  1.00  0.00     0.186 HD
BRANCH  17  24
HETATM   24  N5  UNL     1      19.066   5.205  18.458  1.00  0.00    -0.383 N 
ATOM     25  H52 UNL     1      18.089   5.324  18.730  1.00  0.00     0.157 HD
ATOM     26  H51 UNL     1      19.539   6.005  18.040  1.00  0.00     0.157 HD
ENDBRANCH  17  24
BRANCH  20  27
HETATM   27  N7  UNL     1      19.157   0.551  17.976  1.00  0.00    -0.005 N 
HETATM   28  N8  UNL     1      19.629  -0.152  16.865  1.00  0.00    -0.274 N 
HETATM   29  C8  UNL     1      18.920  -0.992  16.208  1.00  0.00     0.158 C 
ATOM     30  H8  UNL     1      20.589   0.011  16.561  1.00  0.00     0.188 HD
HETATM   31  C9  UNL     1      17.538  -1.215  16.659  1.00  0.00     0.131 C 
HETATM   32  N9  UNL     1      16.785  -2.046  16.032  1.00  0.00    -0.372 N 
HETATM   33  N10 UNL     1      17.104  -0.481  17.789  1.00  0.00    -0.266 N 
ATOM     34  H9  UNL     1      17.190  -2.527  15.229  1.00  0.00     0.161 HD
HETATM   35  N11 UNL     1      18.005   0.142  18.676  1.00  0.00     0.018 NA
ATOM     36  H10 UNL     1      16.103  -0.400  17.969  1.00  0.00     0.186 HD
BRANCH  32  37
HETATM   37  C10 UNL     1      15.424  -2.357  16.363  1.00  0.00     0.155 C 
BRANCH  37  38
HETATM   38  C11 UNL     1      15.326  -3.680  17.119  1.00  0.00     0.167 C 
BRANCH  38  39
HETATM   39  O1  UNL     1      14.347  -4.478  16.539  1.00  0.00    -0.391 OA
ATOM     40  H1  UNL     1      14.640  -5.381  16.522  1.00  0.00     0.210 HD
ENDBRANCH  38  39
BRANCH  38  41
HETATM   41  C12 UNL     1      15.054  -3.428  18.584  1.00  0.00     0.182 C 
BRANCH  41  42
HETATM   42  O2  UNL     1      13.996  -4.266  18.999  1.00  0.00    -0.390 OA
ATOM     43  H2  UNL     1      13.347  -3.737  19.448  1.00  0.00     0.210 HD
ENDBRANCH  41  42
BRANCH  41  44
HETATM   44  C13 UNL     1      16.224  -3.756  19.451  1.00  0.00     0.204 C 
BRANCH  44  45
HETATM   45  O3  UNL     1      17.436  -3.703  18.767  1.00  0.00    -0.388 OA
ATOM     46  H3  UNL     1      18.176  -3.962  19.305  1.00  0.00     0.210 HD
ENDBRANCH  44  45
BRANCH  44  47
HETATM   47  C14 UNL     1      16.257  -3.012  20.757  1.00  0.00     0.285 C 
BRANCH  47  48
HETATM   48  O4  UNL     1      16.378  -1.651  20.476  1.00  0.00    -0.369 OA
ATOM     49  H4  UNL     1      16.800  -1.562  19.629  1.00  0.00     0.212 HD
ENDBRANCH  47  48
BRANCH  47  50
HETATM   50  O5  UNL     1      14.982  -3.164  21.344  1.00  0.00    -0.369 OA
ATOM     51  H5  UNL     1      14.749  -4.081  21.258  1.00  0.00     0.212 HD
ENDBRANCH  47  50
ENDBRANCH  44  47
ENDBRANCH  41  44
ENDBRANCH  38  41
ENDBRANCH  37  38
ENDBRANCH  32  37
ENDBRANCH  20  27
ENDBRANCH   7  12
BRANCH   8  52
HETATM   52  O6  UNL     1      23.210   2.482  22.656  1.00  0.00    -0.389 OA
ATOM     53  H6  UNL     1      23.796   3.222  22.548  1.00  0.00     0.210 HD
ENDBRANCH   8  52
TORSDOF 15
ENDMDL
MODEL 3
REMARK VINA RESULT: -5.954908915      4.725      7.742
REMARK  15 active torsions:
REMARK  status: ('A' for Active; 'I' for Inactive)
REMARK    1  A    between atoms: C3_7  and  N3_8 
REMARK    2  A    between atoms: C6_13  and  N5_14 
REMARK    3  A    between atoms: C7_19  and  N7_20 
REMARK    4  A    between atoms: N9_25  and  C10_27 
REMARK    5  A    between atoms: C10_27  and  C11_28 
REMARK    6  A    between atoms: C11_28  and  O1_29 
REMARK    7  A    between atoms: C11_28  and  C12_31 
REMARK    8  A    between atoms: C12_31  and  O2_32 
REMARK    9  A    between atoms: C12_31  and  C13_34 
REMARK   10  A    between atoms: C13_34  and  O3_35 
REMARK   11  A    between atoms: C13_34  and  C14_37 
REMARK   12  A    between atoms: C14_37  and  O4_38 
REMARK   13  A    between atoms: C14_37  and  O5_40 
REMARK   14  A    between atoms: C16_48  and  O6_49 
REMARK   15  A    between atoms: C17_51  and  O7_52 
ROOT
HETATM    1  N1  UNL     1      19.370  -7.136  13.626  1.00  0.00    -0.195 NA
HETATM    2  C1  UNL     1      19.021  -6.030  13.431  1.00  0.00     0.095 C 
HETATM    3  C2  UNL     1      18.582  -4.661  13.165  1.00  0.00     0.325 C 
HETATM    4  N2  UNL     1      19.092  -3.760  14.151  1.00  0.00    -0.032 N 
ATOM      5  H21 UNL     1      19.526  -4.253  14.931  1.00  0.00     0.281 HD
ATOM      6  H22 UNL     1      18.345  -3.295  14.667  1.00  0.00     0.281 HD
HETATM    7  C3  UNL     1      19.985  -2.828  13.543  1.00  0.00     0.326 C 
HETATM    8  C16 UNL     1      19.489  -2.775  12.107  1.00  0.00     0.200 C 
HETATM    9  C17 UNL     1      19.221  -4.247  11.836  1.00  0.00     0.195 C 
ENDROOT
BRANCH   9  10
HETATM   10  O7  UNL     1      18.294  -4.358  10.784  1.00  0.00    -0.390 OA
ATOM     11  H7  UNL     1      17.526  -3.826  10.956  1.00  0.00     0.210 HD
ENDBRANCH   9  10
BRANCH   7  12
HETATM   12  N3  UNL     1      19.936  -1.522  14.137  1.00  0.00    -0.295 N 
HETATM   13  C4  UNL     1      20.662  -0.458  13.750  1.00  0.00     0.187 A 
HETATM   14  N4  UNL     1      20.344   0.577  14.530  1.00  0.00    -0.346 N 
HETATM   15  C5  UNL     1      19.417   0.207  15.428  1.00  0.00     0.123 A 
ATOM     16  H4  UNL     1      20.746   1.512  14.456  1.00  0.00     0.167 HD
HETATM   17  C6  UNL     1      18.741   0.841  16.447  1.00  0.00     0.145 A 
HETATM   18  C15 UNL     1      19.171  -1.137  15.160  1.00  0.00     0.157 A 
HETATM   19  N6  UNL     1      17.858   0.116  17.148  1.00  0.00    -0.172 N 
HETATM   20  C7  UNL     1      17.609  -1.204  16.891  1.00  0.00     0.720 A 
ATOM     21  H6  UNL     1      17.348   0.568  17.907  1.00  0.00     0.186 HD
HETATM   22  N12 UNL     1      18.270  -1.802  15.905  1.00  0.00    -0.171 N 
ATOM     23  H12 UNL     1      18.089  -2.787  15.708  1.00  0.00     0.186 HD
BRANCH  17  24
HETATM   24  N5  UNL     1      18.964   2.094  16.707  1.00  0.00    -0.383 N 
ATOM     25  H52 UNL     1      18.205   2.755  16.879  1.00  0.00     0.157 HD
ATOM     26  H51 UNL     1      19.918   2.453  16.747  1.00  0.00     0.157 HD
ENDBRANCH  17  24
BRANCH  20  27
HETATM   27  N7  UNL     1      16.641  -1.844  17.704  1.00  0.00    -0.005 N 
HETATM   28  N8  UNL     1      16.995  -2.388  18.940  1.00  0.00    -0.274 N 
HETATM   29  C8  UNL     1      16.281  -3.249  19.563  1.00  0.00     0.158 C 
ATOM     30  H8  UNL     1      17.869  -2.083  19.371  1.00  0.00     0.188 HD
HETATM   31  C9  UNL     1      15.025  -3.678  18.929  1.00  0.00     0.131 C 
HETATM   32  N9  UNL     1      14.274  -4.541  19.513  1.00  0.00    -0.372 N 
HETATM   33  N10 UNL     1      14.707  -3.099  17.676  1.00  0.00    -0.266 N 
ATOM     34  H9  UNL     1      14.589  -4.899  20.414  1.00  0.00     0.161 HD
HETATM   35  N11 UNL     1      15.323  -1.919  17.212  1.00  0.00     0.018 NA
ATOM     36  H10 UNL     1      14.007  -3.551  17.088  1.00  0.00     0.186 HD
BRANCH  32  37
HETATM   37  C10 UNL     1      13.029  -5.045  19.007  1.00  0.00     0.155 C 
BRANCH  37  38
HETATM   38  C11 UNL     1      13.237  -6.323  18.197  1.00  0.00     0.167 C 
BRANCH  38  39
HETATM   39  O1  UNL     1      13.445  -6.001  16.861  1.00  0.00    -0.391 OA
ATOM     40  H1  UNL     1      12.610  -5.947  16.412  1.00  0.00     0.210 HD
ENDBRANCH  38  39
BRANCH  38  41
HETATM   41  C12 UNL     1      12.060  -7.255  18.376  1.00  0.00     0.182 C 
BRANCH  41  42
HETATM   42  O2  UNL     1      11.540  -7.083  19.677  1.00  0.00    -0.390 OA
ATOM     43  H2  UNL     1      11.155  -6.217  19.739  1.00  0.00     0.210 HD
ENDBRANCH  41  42
BRANCH  41  44
HETATM   44  C13 UNL     1      10.946  -6.962  17.428  1.00  0.00     0.204 C 
BRANCH  44  45
HETATM   45  O3  UNL     1      11.114  -7.574  16.188  1.00  0.00    -0.388 OA
ATOM     46  H3  UNL     1      10.441  -8.218  15.999  1.00  0.00     0.210 HD
ENDBRANCH  44  45
BRANCH  44  47
HETATM   47  C14 UNL     1       9.571  -7.171  18.001  1.00  0.00     0.285 C 
BRANCH  47  48
HETATM   48  O4  UNL     1       8.641  -6.896  16.999  1.00  0.00    -0.369 OA
ATOM     49  H4  UNL     1       8.992  -7.216  16.176  1.00  0.00     0.212 HD
ENDBRANCH  47  48
BRANCH  47  50
HETATM   50  O5  UNL     1       9.446  -8.552  18.265  1.00  0.00    -0.369 OA
ATOM     51  H5  UNL     1      10.094  -8.993  17.728  1.00  0.00     0.212 HD
ENDBRANCH  47  50
ENDBRANCH  44  47
ENDBRANCH  41  44
ENDBRANCH  38  41
ENDBRANCH  37  38
ENDBRANCH  32  37
ENDBRANCH  20  27
ENDBRANCH   7  12
BRANCH   8  52
HETATM   52  O6  UNL     1      18.240  -2.134  12.025  1.00  0.00    -0.389 OA
ATOM     53  H6  UNL     1      17.611  -2.668  11.555  1.00  0.00     0.210 HD
ENDBRANCH   8  52
TORSDOF 15
ENDMDL
MODEL 4
REMARK VINA RESULT: -5.857248161      6.881     10.200
REMARK  15 active torsions:
REMARK  status: ('A' for Active; 'I' for Inactive)
REMARK    1  A    between atoms: C3_7  and  N3_8 
REMARK    2  A    between atoms: C6_13  and  N5_14 
REMARK    3  A    between atoms: C7_19  and  N7_20 
REMARK    4  A    between atoms: N9_25  and  C10_27 
REMARK    5  A    between atoms: C10_27  and  C11_28 
REMARK    6  A    between atoms: C11_28  and  O1_29 
REMARK    7  A    between atoms: C11_28  and  C12_31 
REMARK    8  A    between atoms: C12_31  and  O2_32 
REMARK    9  A    between atoms: C12_31  and  C13_34 
REMARK   10  A    between atoms: C13_34  and  O3_35 
REMARK   11  A    between atoms: C13_34  and  C14_37 
REMARK   12  A    between atoms: C14_37  and  O4_38 
REMARK   13  A    between atoms: C14_37  and  O5_40 
REMARK   14  A    between atoms: C16_48  and  O6_49 
REMARK   15  A    between atoms: C17_51  and  O7_52 
ROOT
HETATM    1  N1  UNL     1      22.413  -5.011  13.166  1.00  0.00    -0.195 NA
HETATM    2  C1  UNL     1      21.606  -4.156  13.174  1.00  0.00     0.095 C 
HETATM    3  C2  UNL     1      20.588  -3.107  13.168  1.00  0.00     0.325 C 
HETATM    4  N2  UNL     1      21.111  -1.884  13.695  1.00  0.00    -0.032 N 
ATOM      5  H21 UNL     1      22.031  -2.012  14.116  1.00  0.00     0.281 HD
ATOM      6  H22 UNL     1      20.607  -1.579  14.528  1.00  0.00     0.281 HD
HETATM    7  C3  UNL     1      21.122  -0.882  12.679  1.00  0.00     0.326 C 
HETATM    8  C16 UNL     1      20.005  -1.330  11.752  1.00  0.00     0.200 C 
HETATM    9  C17 UNL     1      20.252  -2.830  11.700  1.00  0.00     0.195 C 
ENDROOT
BRANCH   9  10
HETATM   10  O7  UNL     1      19.059  -3.479  11.332  1.00  0.00    -0.390 OA
ATOM     11  H7  UNL     1      19.108  -3.786  10.435  1.00  0.00     0.210 HD
ENDBRANCH   9  10
BRANCH   7  12
HETATM   12  N3  UNL     1      20.858   0.438  13.178  1.00  0.00    -0.295 N 
HETATM   13  C4  UNL     1      21.187   1.588  12.562  1.00  0.00     0.187 A 
HETATM   14  N4  UNL     1      20.778   2.606  13.323  1.00  0.00    -0.346 N 
HETATM   15  C5  UNL     1      20.184   2.139  14.433  1.00  0.00     0.123 A 
ATOM     16  H4  UNL     1      20.899   3.593  13.094  1.00  0.00     0.167 HD
HETATM   17  C6  UNL     1      19.591   2.715  15.535  1.00  0.00     0.145 A 
HETATM   18  C15 UNL     1      20.246   0.753  14.321  1.00  0.00     0.157 A 
HETATM   19  N6  UNL     1      19.090   1.893  16.468  1.00  0.00    -0.172 N 
HETATM   20  C7  UNL     1      19.146   0.531  16.366  1.00  0.00     0.720 A 
ATOM     21  H6  UNL     1      18.648   2.301  17.291  1.00  0.00     0.186 HD
HETATM   22  N12 UNL     1      19.723  -0.010  15.296  1.00  0.00    -0.171 N 
ATOM     23  H12 UNL     1      19.769  -1.026  15.215  1.00  0.00     0.186 HD
BRANCH  17  24
HETATM   24  N5  UNL     1      19.528   4.008  15.650  1.00  0.00    -0.383 N 
ATOM     25  H52 UNL     1      19.415   4.618  14.840  1.00  0.00     0.157 HD
ATOM     26  H51 UNL     1      19.590   4.449  16.568  1.00  0.00     0.157 HD
ENDBRANCH  17  24
BRANCH  20  27
HETATM   27  N7  UNL     1      18.567  -0.216  17.421  1.00  0.00    -0.005 N 
HETATM   28  N8  UNL     1      19.133  -0.203  18.698  1.00  0.00    -0.274 N 
HETATM   29  C8  UNL     1      18.877  -1.085  19.591  1.00  0.00     0.158 C 
ATOM     30  H8  UNL     1      19.783   0.547  18.931  1.00  0.00     0.188 HD
HETATM   31  C9  UNL     1      17.937  -2.159  19.238  1.00  0.00     0.131 C 
HETATM   32  N9  UNL     1      17.649  -3.068  20.099  1.00  0.00    -0.372 N 
HETATM   33  N10 UNL     1      17.389  -2.131  17.933  1.00  0.00    -0.266 N 
ATOM     34  H9  UNL     1      18.096  -3.002  21.014  1.00  0.00     0.161 HD
HETATM   35  N11 UNL     1      17.416  -0.974  17.128  1.00  0.00     0.018 NA
ATOM     36  H10 UNL     1      16.958  -2.977  17.561  1.00  0.00     0.186 HD
BRANCH  32  37
HETATM   37  C10 UNL     1      16.754  -4.169  19.886  1.00  0.00     0.155 C 
BRANCH  37  38
HETATM   38  C11 UNL     1      15.296  -3.718  19.956  1.00  0.00     0.167 C 
BRANCH  38  39
HETATM   39  O1  UNL     1      14.827  -3.854  21.257  1.00  0.00    -0.391 OA
ATOM     40  H1  UNL     1      14.543  -4.748  21.403  1.00  0.00     0.210 HD
ENDBRANCH  38  39
BRANCH  38  41
HETATM   41  C12 UNL     1      14.458  -4.499  18.970  1.00  0.00     0.182 C 
BRANCH  41  42
HETATM   42  O2  UNL     1      13.172  -4.690  19.519  1.00  0.00    -0.390 OA
ATOM     43  H2  UNL     1      12.963  -5.616  19.492  1.00  0.00     0.210 HD
ENDBRANCH  41  42
BRANCH  41  44
HETATM   44  C13 UNL     1      14.269  -3.777  17.678  1.00  0.00     0.204 C 
BRANCH  44  45
HETATM   45  O3  UNL     1      14.609  -2.428  17.756  1.00  0.00    -0.388 OA
ATOM     46  H3  UNL     1      15.498  -2.254  17.471  1.00  0.00     0.210 HD
ENDBRANCH  44  45
BRANCH  44  47
HETATM   47  C14 UNL     1      14.876  -4.465  16.487  1.00  0.00     0.285 C 
BRANCH  47  48
HETATM   48  O4  UNL     1      15.978  -3.717  16.072  1.00  0.00    -0.369 OA
ATOM     49  H4  UNL     1      15.665  -3.023  15.503  1.00  0.00     0.212 HD
ENDBRANCH  47  48
BRANCH  47  50
HETATM   50  O5  UNL     1      15.404  -5.689  16.950  1.00  0.00    -0.369 OA
ATOM     51  H5  UNL     1      14.768  -6.361  16.730  1.00  0.00     0.212 HD
ENDBRANCH  47  50
ENDBRANCH  44  47
ENDBRANCH  41  44
ENDBRANCH  38  41
ENDBRANCH  37  38
ENDBRANCH  32  37
ENDBRANCH  20  27
ENDBRANCH   7  12
BRANCH   8  52
HETATM   52  O6  UNL     1      18.747  -1.168  12.358  1.00  0.00    -0.389 OA
ATOM     53  H6  UNL     1      18.464  -0.263  12.324  1.00  0.00     0.210 HD
ENDBRANCH   8  52
TORSDOF 15
ENDMDL
MODEL 5
REMARK VINA RESULT: -5.852884826      4.839      7.979
REMARK  15 active torsions:
REMARK  status: ('A' for Active; 'I' for Inactive)
REMARK    1  A    between atoms: C3_7  and  N3_8 
REMARK    2  A    between atoms: C6_13  and  N5_14 
REMARK    3  A    between atoms: C7_19  and  N7_20 
REMARK    4  A    between atoms: N9_25  and  C10_27 
REMARK    5  A    between atoms: C10_27  and  C11_28 
REMARK    6  A    between atoms: C11_28  and  O1_29 
REMARK    7  A    between atoms: C11_28  and  C12_31 
REMARK    8  A    between atoms: C12_31  and  O2_32 
REMARK    9  A    between atoms: C12_31  and  C13_34 
REMARK   10  A    between atoms: C13_34  and  O3_35 
REMARK   11  A    between atoms: C13_34  and  C14_37 
REMARK   12  A    between atoms: C14_37  and  O4_38 
REMARK   13  A    between atoms: C14_37  and  O5_40 
REMARK   14  A    between atoms: C16_48  and  O6_49 
REMARK   15  A    between atoms: C17_51  and  O7_52 
ROOT
HETATM    1  N1  UNL     1      19.526  -7.135  13.418  1.00  0.00    -0.195 NA
HETATM    2  C1  UNL     1      19.134  -6.034  13.290  1.00  0.00     0.095 C 
HETATM    3  C2  UNL     1      18.638  -4.670  13.107  1.00  0.00     0.325 C 
HETATM    4  N2  UNL     1      19.147  -3.802  14.123  1.00  0.00    -0.032 N 
ATOM      5  H21 UNL     1      19.622  -4.317  14.864  1.00  0.00     0.281 HD
ATOM      6  H22 UNL     1      18.401  -3.390  14.684  1.00  0.00     0.281 HD
HETATM    7  C3  UNL     1      19.988  -2.808  13.538  1.00  0.00     0.326 C 
HETATM    8  C16 UNL     1      19.446  -2.701  12.122  1.00  0.00     0.200 C 
HETATM    9  C17 UNL     1      19.221  -4.166  11.783  1.00  0.00     0.195 C 
ENDROOT
BRANCH   9  10
HETATM   10  O7  UNL     1      18.267  -4.258  10.754  1.00  0.00    -0.390 OA
ATOM     11  H7  UNL     1      18.290  -3.483  10.206  1.00  0.00     0.210 HD
ENDBRANCH   9  10
BRANCH   7  12
HETATM   12  N3  UNL     1      19.911  -1.536  14.199  1.00  0.00    -0.295 N 
HETATM   13  C4  UNL     1      20.614  -0.438  13.867  1.00  0.00     0.187 A 
HETATM   14  N4  UNL     1      20.275   0.548  14.701  1.00  0.00    -0.346 N 
HETATM   15  C5  UNL     1      19.357   0.111  15.579  1.00  0.00     0.123 A 
ATOM     16  H4  UNL     1      20.657   1.494  14.676  1.00  0.00     0.167 HD
HETATM   17  C6  UNL     1      18.669   0.676  16.630  1.00  0.00     0.145 A 
HETATM   18  C15 UNL     1      19.140  -1.222  15.241  1.00  0.00     0.157 A 
HETATM   19  N6  UNL     1      17.803  -0.104  17.293  1.00  0.00    -0.172 N 
HETATM   20  C7  UNL     1      17.582  -1.413  16.967  1.00  0.00     0.720 A 
ATOM     21  H6  UNL     1      17.285   0.298  18.074  1.00  0.00     0.186 HD
HETATM   22  N12 UNL     1      18.255  -1.944  15.951  1.00  0.00    -0.171 N 
ATOM     23  H12 UNL     1      18.095  -2.921  15.703  1.00  0.00     0.186 HD
BRANCH  17  24
HETATM   24  N5  UNL     1      18.865   1.919  16.955  1.00  0.00    -0.383 N 
ATOM     25  H52 UNL     1      19.456   2.537  16.398  1.00  0.00     0.157 HD
ATOM     26  H51 UNL     1      18.425   2.312  17.787  1.00  0.00     0.157 HD
ENDBRANCH  17  24
BRANCH  20  27
HETATM   27  N7  UNL     1      16.630  -2.116  17.746  1.00  0.00    -0.005 N 
HETATM   28  N8  UNL     1      17.029  -2.863  18.856  1.00  0.00    -0.274 N 
HETATM   29  C8  UNL     1      16.301  -3.768  19.395  1.00  0.00     0.158 C 
ATOM     30  H8  UNL     1      17.947  -2.678  19.260  1.00  0.00     0.188 HD
HETATM   31  C9  UNL     1      14.980  -4.023  18.801  1.00  0.00     0.131 C 
HETATM   32  N9  UNL     1      14.213  -4.922  19.304  1.00  0.00    -0.372 N 
HETATM   33  N10 UNL     1      14.619  -3.241  17.677  1.00  0.00    -0.266 N 
ATOM     34  H9  UNL     1      14.563  -5.433  20.115  1.00  0.00     0.161 HD
HETATM   35  N11 UNL     1      15.280  -2.040  17.350  1.00  0.00     0.018 NA
ATOM     36  H10 UNL     1      13.853  -3.557  17.083  1.00  0.00     0.186 HD
BRANCH  32  37
HETATM   37  C10 UNL     1      12.906  -5.271  18.825  1.00  0.00     0.155 C 
BRANCH  37  38
HETATM   38  C11 UNL     1      12.934  -6.588  18.051  1.00  0.00     0.167 C 
BRANCH  38  39
HETATM   39  O1  UNL     1      13.931  -7.410  18.562  1.00  0.00    -0.391 OA
ATOM     40  H1  UNL     1      14.043  -8.165  17.998  1.00  0.00     0.210 HD
ENDBRANCH  38  39
BRANCH  38  41
HETATM   41  C12 UNL     1      13.123  -6.324  16.574  1.00  0.00     0.182 C 
BRANCH  41  42
HETATM   42  O2  UNL     1      14.505  -6.243  16.302  1.00  0.00    -0.390 OA
ATOM     43  H2  UNL     1      14.650  -5.555  15.663  1.00  0.00     0.210 HD
ENDBRANCH  41  42
BRANCH  41  44
HETATM   44  C13 UNL     1      12.582  -7.421  15.721  1.00  0.00     0.204 C 
BRANCH  44  45
HETATM   45  O3  UNL     1      11.258  -7.737  16.017  1.00  0.00    -0.388 OA
ATOM     46  H3  UNL     1      10.641  -7.099  15.678  1.00  0.00     0.210 HD
ENDBRANCH  44  45
BRANCH  44  47
HETATM   47  C14 UNL     1      12.823  -7.240  14.247  1.00  0.00     0.285 C 
BRANCH  47  48
HETATM   48  O4  UNL     1      12.819  -5.872  13.975  1.00  0.00    -0.369 OA
ATOM     49  H4  UNL     1      12.004  -5.662  13.534  1.00  0.00     0.212 HD
ENDBRANCH  47  48
BRANCH  47  50
HETATM   50  O5  UNL     1      14.143  -7.671  13.995  1.00  0.00    -0.369 OA
ATOM     51  H5  UNL     1      14.496  -7.096  13.326  1.00  0.00     0.212 HD
ENDBRANCH  47  50
ENDBRANCH  44  47
ENDBRANCH  41  44
ENDBRANCH  38  41
ENDBRANCH  37  38
ENDBRANCH  32  37
ENDBRANCH  20  27
ENDBRANCH   7  12
BRANCH   8  52
HETATM   52  O6  UNL     1      18.174  -2.103  12.109  1.00  0.00    -0.389 OA
ATOM     53  H6  UNL     1      18.203  -1.226  12.471  1.00  0.00     0.210 HD
ENDBRANCH   8  52
TORSDOF 15
ENDMDL
