MODEL 1
REMARK VINA RESULT: -8.562286217      0.000      0.000
REMARK  14 active torsions:
REMARK  status: ('A' for Active; 'I' for Inactive)
REMARK    1  A    between atoms: C3_4  and  C4_5 
REMARK    2  A    between atoms: C4_5  and  C16_17 
REMARK    3  A    between atoms: C5_6  and  C6_7 
REMARK    4  A    between atoms: C6_7  and  C7_8 
REMARK    5  A    between atoms: C7_8  and  C8_9 
REMARK    6  A    between atoms: C8_9  and  C10_11 
REMARK    7  A    between atoms: C10_11  and  C11_12 
REMARK    8  A    between atoms: C11_12  and  C12_13 
REMARK    9  A    between atoms: C16_17  and  C18_19 
REMARK   10  A    between atoms: C18_19  and  N1_20 
REMARK   11  A    between atoms: N2_26  and  C24_27 
REMARK   12  A    between atoms: C24_27  and  O2_28 
REMARK   13  A    between atoms: C24_27  and  C25_30 
REMARK   14  A    between atoms: C29_34  and  N3_35 
ROOT
HETATM    1  C1  UNL     1      15.242 -17.277   1.082  1.00  0.00     0.072 C 
HETATM    2  C2  UNL     1      14.609 -18.302   1.652  1.00  0.00     0.137 C 
HETATM    3  O1  UNL     1      15.218 -19.460   2.102  1.00  0.00    -0.326 OA
HETATM    4  C3  UNL     1      14.543 -20.692   1.778  1.00  0.00     0.161 C 
HETATM    5  C22 UNL     1      13.074 -20.602   1.999  1.00  0.00     0.057 C 
HETATM    6  C23 UNL     1      12.454 -19.379   1.363  1.00  0.00     0.136 C 
HETATM    7  N2  UNL     1      13.206 -18.170   1.793  1.00  0.00    -0.308 N 
ENDROOT
BRANCH   4   8
HETATM    8  C4  UNL     1      15.179 -21.849   2.468  1.00  0.00    -0.045 C 
HETATM    9  C5  UNL     1      15.058 -22.007   3.772  1.00  0.00     0.006 C 
BRANCH   9  10
HETATM   10  C6  UNL     1      15.570 -23.029   4.657  1.00  0.00     0.001 C 
BRANCH  10  11
HETATM   11  C7  UNL     1      14.798 -24.172   5.047  1.00  0.00     0.002 C 
BRANCH  11  12
HETATM   12  C8  UNL     1      13.881 -24.303   5.949  1.00  0.00    -0.084 C 
HETATM   13  C9  UNL     1      12.471 -24.606   5.703  1.00  0.00     0.043 C 
BRANCH  12  14
HETATM   14  C10 UNL     1      14.241 -24.141   7.431  1.00  0.00     0.037 C 
BRANCH  14  15
HETATM   15  C11 UNL     1      13.538 -22.923   7.953  1.00  0.00     0.031 C 
BRANCH  15  16
HETATM   16  C12 UNL     1      14.466 -21.779   8.140  1.00  0.00    -0.024 C 
HETATM   17  C13 UNL     1      14.391 -20.674   7.412  1.00  0.00    -0.091 C 
HETATM   18  C14 UNL     1      15.327 -19.531   7.604  1.00  0.00     0.042 C 
HETATM   19  C15 UNL     1      13.317 -20.604   6.371  1.00  0.00     0.042 C 
ENDBRANCH  15  16
ENDBRANCH  14  15
ENDBRANCH  12  14
ENDBRANCH  11  12
ENDBRANCH  10  11
ENDBRANCH   9  10
BRANCH   8  20
HETATM   20  C16 UNL     1      15.953 -22.819   1.669  1.00  0.00     0.039 C 
HETATM   21  C17 UNL     1      16.872 -22.079   0.714  1.00  0.00     0.016 C 
BRANCH  20  22
HETATM   22  C18 UNL     1      14.955 -23.674   0.925  1.00  0.00     0.244 C 
BRANCH  22  23
HETATM   23  N1  UNL     1      15.081 -25.076   1.086  1.00  0.00    -0.078 N 
HETATM   24  C19 UNL     1      16.179 -25.532   1.895  1.00  0.00     0.271 C 
HETATM   25  C20 UNL     1      13.863 -25.527   1.786  1.00  0.00     0.271 C 
HETATM   26  C21 UNL     1      15.040 -25.755  -0.200  1.00  0.00     0.271 C 
ENDBRANCH  22  23
ENDBRANCH  20  22
ENDBRANCH   8  20
ENDBRANCH   4   8
BRANCH   7  27
HETATM   27  C24 UNL     1      12.505 -17.092   2.360  1.00  0.00     0.154 C 
BRANCH  27  28
HETATM   28  O2  UNL     1      13.141 -16.633   3.419  1.00  0.00    -0.345 OA
ATOM     29  H2  UNL     1      13.202 -15.686   3.387  1.00  0.00     0.219 HD
ENDBRANCH  27  28
BRANCH  27  30
HETATM   30  C25 UNL     1      11.290 -16.446   1.999  1.00  0.00     0.017 A 
HETATM   31  C26 UNL     1      10.445 -16.045   3.041  1.00  0.00     0.016 A 
HETATM   32  C27 UNL     1       9.293 -15.348   2.875  1.00  0.00     0.003 A 
HETATM   33  C28 UNL     1       8.896 -14.995   1.610  1.00  0.00     0.036 A 
HETATM   34  C29 UNL     1       9.690 -15.363   0.551  1.00  0.00     0.103 A 
HETATM   35  C30 UNL     1      10.877 -16.083   0.752  1.00  0.00     0.051 A 
BRANCH  34  36
HETATM   36  N3  UNL     1       9.275 -14.993  -0.755  1.00  0.00    -0.116 N 
HETATM   37  O3  UNL     1       8.144 -14.525  -0.970  1.00  0.00    -0.532 OA
HETATM   38  O4  UNL     1      10.118 -15.142  -1.829  1.00  0.00    -0.532 OA
ENDBRANCH  34  36
ENDBRANCH  27  30
ENDBRANCH   7  27
TORSDOF 14
ENDMDL
MODEL 2
REMARK VINA RESULT: -8.067865038      2.121      3.483
REMARK  14 active torsions:
REMARK  status: ('A' for Active; 'I' for Inactive)
REMARK    1  A    between atoms: C3_4  and  C4_5 
REMARK    2  A    between atoms: C4_5  and  C16_17 
REMARK    3  A    between atoms: C5_6  and  C6_7 
REMARK    4  A    between atoms: C6_7  and  C7_8 
REMARK    5  A    between atoms: C7_8  and  C8_9 
REMARK    6  A    between atoms: C8_9  and  C10_11 
REMARK    7  A    between atoms: C10_11  and  C11_12 
REMARK    8  A    between atoms: C11_12  and  C12_13 
REMARK    9  A    between atoms: C16_17  and  C18_19 
REMARK   10  A    between atoms: C18_19  and  N1_20 
REMARK   11  A    between atoms: N2_26  and  C24_27 
REMARK   12  A    between atoms: C24_27  and  O2_28 
REMARK   13  A    between atoms: C24_27  and  C25_30 
REMARK   14  A    between atoms: C29_34  and  N3_35 
ROOT
HETATM    1  C1  UNL     1       9.978 -17.557   5.555  1.00  0.00     0.072 C 
HETATM    2  C2  UNL     1      10.743 -18.140   4.632  1.00  0.00     0.137 C 
HETATM    3  O1  UNL     1      10.779 -19.499   4.373  1.00  0.00    -0.326 OA
HETATM    4  C3  UNL     1      12.089 -20.070   4.188  1.00  0.00     0.161 C 
HETATM    5  C22 UNL     1      12.955 -19.221   3.326  1.00  0.00     0.057 C 
HETATM    6  C23 UNL     1      12.974 -17.771   3.751  1.00  0.00     0.136 C 
HETATM    7  N2  UNL     1      11.575 -17.280   3.874  1.00  0.00    -0.308 N 
ENDROOT
BRANCH   4   8
HETATM    8  C4  UNL     1      11.998 -21.485   3.732  1.00  0.00    -0.045 C 
HETATM    9  C5  UNL     1      11.587 -22.434   4.553  1.00  0.00     0.006 C 
BRANCH   9  10
HETATM   10  C6  UNL     1      11.414 -23.854   4.352  1.00  0.00     0.001 C 
BRANCH  10  11
HETATM   11  C7  UNL     1      12.507 -24.781   4.405  1.00  0.00     0.002 C 
BRANCH  11  12
HETATM   12  C8  UNL     1      13.534 -24.922   3.632  1.00  0.00    -0.084 C 
HETATM   13  C9  UNL     1      13.544 -25.588   2.330  1.00  0.00     0.043 C 
BRANCH  12  14
HETATM   14  C10 UNL     1      14.894 -24.358   4.063  1.00  0.00     0.037 C 
BRANCH  14  15
HETATM   15  C11 UNL     1      14.817 -24.015   5.521  1.00  0.00     0.031 C 
BRANCH  15  16
HETATM   16  C12 UNL     1      14.955 -22.556   5.759  1.00  0.00    -0.024 C 
HETATM   17  C13 UNL     1      14.493 -21.964   6.852  1.00  0.00    -0.091 C 
HETATM   18  C14 UNL     1      14.635 -20.500   7.082  1.00  0.00     0.042 C 
HETATM   19  C15 UNL     1      13.813 -22.827   7.869  1.00  0.00     0.042 C 
ENDBRANCH  15  16
ENDBRANCH  14  15
ENDBRANCH  12  14
ENDBRANCH  11  12
ENDBRANCH  10  11
ENDBRANCH   9  10
BRANCH   8  20
HETATM   20  C16 UNL     1      12.377 -21.814   2.344  1.00  0.00     0.039 C 
HETATM   21  C17 UNL     1      13.816 -21.402   2.096  1.00  0.00     0.016 C 
BRANCH  20  22
HETATM   22  C18 UNL     1      11.424 -21.072   1.438  1.00  0.00     0.244 C 
BRANCH  22  23
HETATM   23  N1  UNL     1      10.510 -21.863   0.700  1.00  0.00    -0.078 N 
HETATM   24  C19 UNL     1      10.779 -23.275   0.650  1.00  0.00     0.271 C 
HETATM   25  C20 UNL     1       9.205 -21.736   1.378  1.00  0.00     0.271 C 
HETATM   26  C21 UNL     1      10.292 -21.308  -0.627  1.00  0.00     0.271 C 
ENDBRANCH  22  23
ENDBRANCH  20  22
ENDBRANCH   8  20
ENDBRANCH   4   8
BRANCH   7  27
HETATM   27  C24 UNL     1      11.195 -16.114   3.190  1.00  0.00     0.154 C 
BRANCH  27  28
HETATM   28  O2  UNL     1      11.889 -15.079   3.618  1.00  0.00    -0.345 OA
ATOM     29  H2  UNL     1      12.347 -14.663   2.896  1.00  0.00     0.219 HD
ENDBRANCH  27  28
BRANCH  27  30
HETATM   30  C25 UNL     1      10.238 -15.877   2.164  1.00  0.00     0.017 A 
HETATM   31  C26 UNL     1       8.902 -15.733   2.556  1.00  0.00     0.016 A 
HETATM   32  C27 UNL     1       7.881 -15.424   1.718  1.00  0.00     0.003 A 
HETATM   33  C28 UNL     1       8.139 -15.234   0.384  1.00  0.00     0.036 A 
HETATM   34  C29 UNL     1       9.434 -15.363  -0.055  1.00  0.00     0.103 A 
HETATM   35  C30 UNL     1      10.470 -15.682   0.835  1.00  0.00     0.051 A 
BRANCH  34  36
HETATM   36  N3  UNL     1       9.695 -15.164  -1.435  1.00  0.00    -0.116 N 
HETATM   37  O3  UNL     1       8.841 -15.420  -2.302  1.00  0.00    -0.532 OA
HETATM   38  O4  UNL     1      10.908 -14.678  -1.859  1.00  0.00    -0.532 OA
ENDBRANCH  34  36
ENDBRANCH  27  30
ENDBRANCH   7  27
TORSDOF 14
ENDMDL
MODEL 3
REMARK VINA RESULT: -7.999485110      3.786      7.808
REMARK  14 active torsions:
REMARK  status: ('A' for Active; 'I' for Inactive)
REMARK    1  A    between atoms: C3_4  and  C4_5 
REMARK    2  A    between atoms: C4_5  and  C16_17 
REMARK    3  A    between atoms: C5_6  and  C6_7 
REMARK    4  A    between atoms: C6_7  and  C7_8 
REMARK    5  A    between atoms: C7_8  and  C8_9 
REMARK    6  A    between atoms: C8_9  and  C10_11 
REMARK    7  A    between atoms: C10_11  and  C11_12 
REMARK    8  A    between atoms: C11_12  and  C12_13 
REMARK    9  A    between atoms: C16_17  and  C18_19 
REMARK   10  A    between atoms: C18_19  and  N1_20 
REMARK   11  A    between atoms: N2_26  and  C24_27 
REMARK   12  A    between atoms: C24_27  and  O2_28 
REMARK   13  A    between atoms: C24_27  and  C25_30 
REMARK   14  A    between atoms: C29_34  and  N3_35 
ROOT
HETATM    1  C1  UNL     1      16.985 -21.745  -1.048  1.00  0.00     0.072 C 
HETATM    2  C2  UNL     1      16.659 -20.961  -0.021  1.00  0.00     0.137 C 
HETATM    3  O1  UNL     1      16.052 -21.392   1.146  1.00  0.00    -0.326 OA
HETATM    4  C3  UNL     1      14.980 -20.566   1.640  1.00  0.00     0.161 C 
HETATM    5  C22 UNL     1      15.313 -19.117   1.577  1.00  0.00     0.057 C 
HETATM    6  C23 UNL     1      15.843 -18.689   0.229  1.00  0.00     0.136 C 
HETATM    7  N2  UNL     1      16.964 -19.585  -0.162  1.00  0.00    -0.308 N 
ENDROOT
BRANCH   4   8
HETATM    8  C4  UNL     1      14.532 -21.017   2.987  1.00  0.00    -0.045 C 
HETATM    9  C5  UNL     1      15.399 -21.490   3.863  1.00  0.00     0.006 C 
BRANCH   9  10
HETATM   10  C6  UNL     1      15.216 -21.980   5.210  1.00  0.00     0.001 C 
BRANCH  10  11
HETATM   11  C7  UNL     1      14.894 -23.347   5.498  1.00  0.00     0.002 C 
BRANCH  11  12
HETATM   12  C8  UNL     1      13.844 -23.871   6.041  1.00  0.00    -0.084 C 
HETATM   13  C9  UNL     1      13.655 -24.133   7.467  1.00  0.00     0.043 C 
BRANCH  12  14
HETATM   14  C10 UNL     1      12.652 -24.273   5.163  1.00  0.00     0.037 C 
BRANCH  14  15
HETATM   15  C11 UNL     1      13.144 -25.228   4.116  1.00  0.00     0.031 C 
BRANCH  15  16
HETATM   16  C12 UNL     1      12.993 -24.680   2.745  1.00  0.00    -0.024 C 
HETATM   17  C13 UNL     1      14.010 -24.586   1.898  1.00  0.00    -0.091 C 
HETATM   18  C14 UNL     1      13.850 -24.033   0.524  1.00  0.00     0.042 C 
HETATM   19  C15 UNL     1      15.348 -25.062   2.371  1.00  0.00     0.042 C 
ENDBRANCH  15  16
ENDBRANCH  14  15
ENDBRANCH  12  14
ENDBRANCH  11  12
ENDBRANCH  10  11
ENDBRANCH   9  10
BRANCH   8  20
HETATM   20  C16 UNL     1      13.099 -20.932   3.329  1.00  0.00     0.039 C 
HETATM   21  C17 UNL     1      12.260 -21.198   2.093  1.00  0.00     0.016 C 
BRANCH  20  22
HETATM   22  C18 UNL     1      12.857 -19.544   3.873  1.00  0.00     0.244 C 
BRANCH  22  23
HETATM   23  N1  UNL     1      12.251 -19.464   5.152  1.00  0.00    -0.078 N 
HETATM   24  C19 UNL     1      11.835 -20.707   5.743  1.00  0.00     0.271 C 
HETATM   25  C20 UNL     1      13.273 -18.917   6.065  1.00  0.00     0.271 C 
HETATM   26  C21 UNL     1      11.182 -18.478   5.161  1.00  0.00     0.271 C 
ENDBRANCH  22  23
ENDBRANCH  20  22
ENDBRANCH   8  20
ENDBRANCH   4   8
BRANCH   7  27
HETATM   27  C24 UNL     1      18.197 -19.021  -0.530  1.00  0.00     0.154 C 
BRANCH  27  28
HETATM   28  O2  UNL     1      18.016 -18.022  -1.371  1.00  0.00    -0.345 OA
ATOM     29  H2  UNL     1      17.573 -18.323  -2.156  1.00  0.00     0.219 HD
ENDBRANCH  27  28
BRANCH  27  30
HETATM   30  C25 UNL     1      19.537 -19.329  -0.165  1.00  0.00     0.017 A 
HETATM   31  C26 UNL     1      20.546 -18.952  -1.059  1.00  0.00     0.016 A 
HETATM   32  C27 UNL     1      21.875 -19.099  -0.829  1.00  0.00     0.003 A 
HETATM   33  C28 UNL     1      22.296 -19.652   0.354  1.00  0.00     0.036 A 
HETATM   34  C29 UNL     1      21.346 -20.039   1.268  1.00  0.00     0.103 A 
HETATM   35  C30 UNL     1      19.979 -19.875   1.003  1.00  0.00     0.051 A 
BRANCH  34  36
HETATM   36  N3  UNL     1      21.788 -20.609   2.490  1.00  0.00    -0.116 N 
HETATM   37  O3  UNL     1      21.047 -21.338   3.172  1.00  0.00    -0.532 OA
HETATM   38  O4  UNL     1      23.057 -20.373   2.959  1.00  0.00    -0.532 OA
ENDBRANCH  34  36
ENDBRANCH  27  30
ENDBRANCH   7  27
TORSDOF 14
ENDMDL
MODEL 4
REMARK VINA RESULT: -7.974866670      1.240      2.176
REMARK  14 active torsions:
REMARK  status: ('A' for Active; 'I' for Inactive)
REMARK    1  A    between atoms: C3_4  and  C4_5 
REMARK    2  A    between atoms: C4_5  and  C16_17 
REMARK    3  A    between atoms: C5_6  and  C6_7 
REMARK    4  A    between atoms: C6_7  and  C7_8 
REMARK    5  A    between atoms: C7_8  and  C8_9 
REMARK    6  A    between atoms: C8_9  and  C10_11 
REMARK    7  A    between atoms: C10_11  and  C11_12 
REMARK    8  A    between atoms: C11_12  and  C12_13 
REMARK    9  A    between atoms: C16_17  and  C18_19 
REMARK   10  A    between atoms: C18_19  and  N1_20 
REMARK   11  A    between atoms: N2_26  and  C24_27 
REMARK   12  A    between atoms: C24_27  and  O2_28 
REMARK   13  A    between atoms: C24_27  and  C25_30 
REMARK   14  A    between atoms: C29_34  and  N3_35 
ROOT
HETATM    1  C1  UNL     1      15.184 -17.313   1.143  1.00  0.00     0.072 C 
HETATM    2  C2  UNL     1      14.541 -18.313   1.744  1.00  0.00     0.137 C 
HETATM    3  O1  UNL     1      15.140 -19.461   2.235  1.00  0.00    -0.326 OA
HETATM    4  C3  UNL     1      14.457 -20.697   1.950  1.00  0.00     0.161 C 
HETATM    5  C22 UNL     1      12.988 -20.589   2.161  1.00  0.00     0.057 C 
HETATM    6  C23 UNL     1      12.380 -19.385   1.482  1.00  0.00     0.136 C 
HETATM    7  N2  UNL     1      13.139 -18.167   1.875  1.00  0.00    -0.308 N 
ENDROOT
BRANCH   4   8
HETATM    8  C4  UNL     1      15.082 -21.835   2.680  1.00  0.00    -0.045 C 
HETATM    9  C5  UNL     1      14.934 -21.963   3.985  1.00  0.00     0.006 C 
BRANCH   9  10
HETATM   10  C6  UNL     1      15.430 -22.961   4.905  1.00  0.00     0.001 C 
BRANCH  10  11
HETATM   11  C7  UNL     1      14.681 -24.134   5.251  1.00  0.00     0.002 C 
BRANCH  11  12
HETATM   12  C8  UNL     1      13.664 -24.286   6.034  1.00  0.00    -0.084 C 
HETATM   13  C9  UNL     1      13.604 -23.911   7.446  1.00  0.00     0.043 C 
BRANCH  12  14
HETATM   14  C10 UNL     1      12.370 -24.906   5.490  1.00  0.00     0.037 C 
BRANCH  14  15
HETATM   15  C11 UNL     1      12.039 -24.233   4.191  1.00  0.00     0.031 C 
BRANCH  15  16
HETATM   16  C12 UNL     1      11.373 -22.922   4.397  1.00  0.00    -0.024 C 
HETATM   17  C13 UNL     1      10.229 -22.603   3.807  1.00  0.00    -0.091 C 
HETATM   18  C14 UNL     1       9.567 -21.286   4.017  1.00  0.00     0.042 C 
HETATM   19  C15 UNL     1       9.607 -23.626   2.907  1.00  0.00     0.042 C 
ENDBRANCH  15  16
ENDBRANCH  14  15
ENDBRANCH  12  14
ENDBRANCH  11  12
ENDBRANCH  10  11
ENDBRANCH   9  10
BRANCH   8  20
HETATM   20  C16 UNL     1      15.876 -22.821   1.922  1.00  0.00     0.039 C 
HETATM   21  C17 UNL     1      16.737 -22.106   0.897  1.00  0.00     0.016 C 
BRANCH  20  22
HETATM   22  C18 UNL     1      14.898 -23.763   1.262  1.00  0.00     0.244 C 
BRANCH  22  23
HETATM   23  N1  UNL     1      15.265 -25.131   1.225  1.00  0.00    -0.078 N 
HETATM   24  C19 UNL     1      16.268 -25.551   2.165  1.00  0.00     0.271 C 
HETATM   25  C20 UNL     1      14.053 -25.897   1.575  1.00  0.00     0.271 C 
HETATM   26  C21 UNL     1      15.587 -25.548  -0.131  1.00  0.00     0.271 C 
ENDBRANCH  22  23
ENDBRANCH  20  22
ENDBRANCH   8  20
ENDBRANCH   4   8
BRANCH   7  27
HETATM   27  C24 UNL     1      12.444 -17.066   2.402  1.00  0.00     0.154 C 
BRANCH  27  28
HETATM   28  O2  UNL     1      13.083 -16.571   3.444  1.00  0.00    -0.345 OA
ATOM     29  H2  UNL     1      13.022 -15.623   3.452  1.00  0.00     0.219 HD
ENDBRANCH  27  28
BRANCH  27  30
HETATM   30  C25 UNL     1      11.232 -16.428   2.019  1.00  0.00     0.017 A 
HETATM   31  C26 UNL     1      10.371 -16.022   3.046  1.00  0.00     0.016 A 
HETATM   32  C27 UNL     1       9.218 -15.331   2.858  1.00  0.00     0.003 A 
HETATM   33  C28 UNL     1       8.837 -14.990   1.585  1.00  0.00     0.036 A 
HETATM   34  C29 UNL     1       9.647 -15.363   0.540  1.00  0.00     0.103 A 
HETATM   35  C30 UNL     1      10.834 -16.076   0.764  1.00  0.00     0.051 A 
BRANCH  34  36
HETATM   36  N3  UNL     1       9.249 -15.006  -0.775  1.00  0.00    -0.116 N 
HETATM   37  O3  UNL     1       8.108 -14.575  -1.014  1.00  0.00    -0.532 OA
HETATM   38  O4  UNL     1      10.120 -15.127  -1.830  1.00  0.00    -0.532 OA
ENDBRANCH  34  36
ENDBRANCH  27  30
ENDBRANCH   7  27
TORSDOF 14
ENDMDL
MODEL 5
REMARK VINA RESULT: -7.972774477      1.696      2.523
REMARK  14 active torsions:
REMARK  status: ('A' for Active; 'I' for Inactive)
REMARK    1  A    between atoms: C3_4  and  C4_5 
REMARK    2  A    between atoms: C4_5  and  C16_17 
REMARK    3  A    between atoms: C5_6  and  C6_7 
REMARK    4  A    between atoms: C6_7  and  C7_8 
REMARK    5  A    between atoms: C7_8  and  C8_9 
REMARK    6  A    between atoms: C8_9  and  C10_11 
REMARK    7  A    between atoms: C10_11  and  C11_12 
REMARK    8  A    between atoms: C11_12  and  C12_13 
REMARK    9  A    between atoms: C16_17  and  C18_19 
REMARK   10  A    between atoms: C18_19  and  N1_20 
REMARK   11  A    between atoms: N2_26  and  C24_27 
REMARK   12  A    between atoms: C24_27  and  O2_28 
REMARK   13  A    between atoms: C24_27  and  C25_30 
REMARK   14  A    between atoms: C29_34  and  N3_35 
ROOT
HETATM    1  C1  UNL     1      15.185 -17.270   0.832  1.00  0.00     0.072 C 
HETATM    2  C2  UNL     1      14.614 -18.448   1.084  1.00  0.00     0.137 C 
HETATM    3  O1  UNL     1      15.201 -19.479   1.796  1.00  0.00    -0.326 OA
HETATM    4  C3  UNL     1      15.041 -20.798   1.240  1.00  0.00     0.161 C 
HETATM    5  C22 UNL     1      13.651 -21.044   0.766  1.00  0.00     0.057 C 
HETATM    6  C23 UNL     1      13.124 -19.939  -0.119  1.00  0.00     0.136 C 
HETATM    7  N2  UNL     1      13.307 -18.632   0.569  1.00  0.00    -0.308 N 
ENDROOT
BRANCH   4   8
HETATM    8  C4  UNL     1      15.543 -21.841   2.178  1.00  0.00    -0.045 C 
HETATM    9  C5  UNL     1      15.125 -21.882   3.428  1.00  0.00     0.006 C 
BRANCH   9  10
HETATM   10  C6  UNL     1      15.455 -22.779   4.512  1.00  0.00     0.001 C 
BRANCH  10  11
HETATM   11  C7  UNL     1      14.695 -23.961   4.797  1.00  0.00     0.002 C 
BRANCH  11  12
HETATM   12  C8  UNL     1      13.860 -24.219   5.750  1.00  0.00    -0.084 C 
HETATM   13  C9  UNL     1      12.462 -24.614   5.582  1.00  0.00     0.043 C 
BRANCH  12  14
HETATM   14  C10 UNL     1      14.319 -24.123   7.210  1.00  0.00     0.037 C 
BRANCH  14  15
HETATM   15  C11 UNL     1      13.606 -22.968   7.849  1.00  0.00     0.031 C 
BRANCH  15  16
HETATM   16  C12 UNL     1      14.509 -21.810   8.070  1.00  0.00    -0.024 C 
HETATM   17  C13 UNL     1      14.396 -20.678   7.390  1.00  0.00    -0.091 C 
HETATM   18  C14 UNL     1      15.306 -19.521   7.617  1.00  0.00     0.042 C 
HETATM   19  C15 UNL     1      13.306 -20.592   6.367  1.00  0.00     0.042 C 
ENDBRANCH  15  16
ENDBRANCH  14  15
ENDBRANCH  12  14
ENDBRANCH  11  12
ENDBRANCH  10  11
ENDBRANCH   9  10
BRANCH   8  20
HETATM   20  C16 UNL     1      16.523 -22.830   1.688  1.00  0.00     0.039 C 
HETATM   21  C17 UNL     1      17.745 -22.114   1.142  1.00  0.00     0.016 C 
BRANCH  20  22
HETATM   22  C18 UNL     1      15.834 -23.643   0.618  1.00  0.00     0.244 C 
BRANCH  22  23
HETATM   23  N1  UNL     1      15.592 -25.006   0.919  1.00  0.00    -0.078 N 
HETATM   24  C19 UNL     1      16.308 -25.552   2.040  1.00  0.00     0.271 C 
HETATM   25  C20 UNL     1      14.164 -25.108   1.278  1.00  0.00     0.271 C 
HETATM   26  C21 UNL     1      15.734 -25.835  -0.268  1.00  0.00     0.271 C 
ENDBRANCH  22  23
ENDBRANCH  20  22
ENDBRANCH   8  20
ENDBRANCH   4   8
BRANCH   7  27
HETATM   27  C24 UNL     1      12.204 -17.777   0.722  1.00  0.00     0.154 C 
BRANCH  27  28
HETATM   28  O2  UNL     1      11.697 -17.460  -0.453  1.00  0.00    -0.345 OA
ATOM     29  H2  UNL     1      10.797 -17.757  -0.518  1.00  0.00     0.219 HD
ENDBRANCH  27  28
BRANCH  27  30
HETATM   30  C25 UNL     1      11.574 -17.226   1.873  1.00  0.00     0.017 A 
HETATM   31  C26 UNL     1      11.447 -15.833   1.927  1.00  0.00     0.016 A 
HETATM   32  C27 UNL     1      10.804 -15.154   2.910  1.00  0.00     0.003 A 
HETATM   33  C28 UNL     1      10.225 -15.850   3.941  1.00  0.00     0.036 A 
HETATM   34  C29 UNL     1      10.319 -17.221   3.936  1.00  0.00     0.103 A 
HETATM   35  C30 UNL     1      10.990 -17.896   2.906  1.00  0.00     0.051 A 
BRANCH  34  36
HETATM   36  N3  UNL     1       9.717 -17.936   5.004  1.00  0.00    -0.116 N 
HETATM   37  O3  UNL     1       8.722 -18.659   4.822  1.00  0.00    -0.532 OA
HETATM   38  O4  UNL     1      10.219 -17.850   6.279  1.00  0.00    -0.532 OA
ENDBRANCH  34  36
ENDBRANCH  27  30
ENDBRANCH   7  27
TORSDOF 14
ENDMDL
