MODEL 1
REMARK VINA RESULT: -6.119856339      0.000      0.000
REMARK  6 active torsions:
REMARK  status: ('A' for Active; 'I' for Inactive)
REMARK       I    between atoms: N1_2  and  C2_4 
REMARK       I    between atoms: C2_4  and  N2_6 
REMARK    1  A    between atoms: N2_6  and  C3_8 
REMARK    2  A    between atoms: C3_8  and  C4_9 
REMARK    3  A    between atoms: C4_9  and  C5_10 
REMARK       I    between atoms: C5_10  and  N3_12 
REMARK       I    between atoms: C6_14  and  N4_15 
REMARK       I    between atoms: C6_14  and  N5_21 
REMARK    4  A    between atoms: N4_15  and  C7_17 
REMARK    5  A    between atoms: C8_18  and  C9_19 
REMARK    6  A    between atoms: N5_21  and  N6_23 
ROOT
HETATM    1  C5  UNL     1      13.973 -18.660 -14.440  1.00  0.00     0.237 C 
HETATM    2  O2  UNL     1      12.775 -18.441 -14.694  1.00  0.00    -0.273 OA
HETATM    3  N3  UNL     1      14.337 -19.581 -13.464  1.00  0.00    -0.158 N 
ATOM      4  H3  UNL     1      14.079 -19.346 -12.506  1.00  0.00     0.187 HD
HETATM    5  C6  UNL     1      14.954 -20.683 -13.627  1.00  0.00     0.712 C 
HETATM    6  N4  UNL     1      15.348 -21.089 -14.913  1.00  0.00    -0.147 N 
ATOM      7  H4  UNL     1      16.306 -20.924 -15.225  1.00  0.00     0.195 HD
HETATM    8  N5  UNL     1      15.244 -21.499 -12.519  1.00  0.00    -0.048 N 
ATOM      9  H5  UNL     1      16.210 -21.801 -12.391  1.00  0.00     0.213 HD
ENDROOT
BRANCH   1  10
HETATM   10  C4  UNL     1      15.015 -17.924 -15.195  1.00  0.00     0.123 C 
BRANCH  10  11
HETATM   11  C3  UNL     1      14.421 -17.439 -16.487  1.00  0.00     0.133 C 
BRANCH  11  12
HETATM   12  N2  UNL     1      14.774 -18.264 -17.589  1.00  0.00    -0.343 N 
HETATM   13  C2  UNL     1      13.841 -19.006 -18.312  1.00  0.00     0.315 C 
HETATM   14  N1  UNL     1      14.258 -19.831 -19.405  1.00  0.00    -0.347 N 
HETATM   15  O1  UNL     1      12.625 -18.968 -18.021  1.00  0.00    -0.247 OA
HETATM   16  C1  UNL     1      13.273 -20.591 -20.140  1.00  0.00     0.151 C 
ATOM     17  H1  UNL     1      15.244 -19.882 -19.663  1.00  0.00     0.163 HD
ATOM     18  H2  UNL     1      15.755 -18.315 -17.864  1.00  0.00     0.164 HD
ENDBRANCH  11  12
ENDBRANCH  10  11
ENDBRANCH   1  10
BRANCH   6  19
HETATM   19  C7  UNL     1      14.425 -21.727 -15.780  1.00  0.00     0.026 C 
HETATM   20  C8  UNL     1      13.643 -22.289 -16.507  1.00  0.00    -0.072 C 
BRANCH  20  21
HETATM   21  C9  UNL     1      12.685 -22.990 -17.375  1.00  0.00     0.180 C 
HETATM   22 BR1  UNL     1      12.226 -24.651 -16.504  1.00  0.00    -0.083 Br
ENDBRANCH  20  21
ENDBRANCH   6  19
BRANCH   8  23
HETATM   23  N6  UNL     1      14.303 -21.924 -11.583  1.00  0.00     0.014 N 
HETATM   24  C10 UNL     1      13.059 -22.208 -12.254  1.00  0.00     0.302 C 
HETATM   25  C11 UNL     1      14.816 -23.141 -10.959  1.00  0.00     0.302 C 
HETATM   26  C12 UNL     1      14.093 -20.916 -10.581  1.00  0.00     0.302 C 
ENDBRANCH   8  23
TORSDOF 6
ENDMDL
MODEL 2
REMARK VINA RESULT: -5.368022647      3.365      5.359
REMARK  6 active torsions:
REMARK  status: ('A' for Active; 'I' for Inactive)
REMARK       I    between atoms: N1_2  and  C2_4 
REMARK       I    between atoms: C2_4  and  N2_6 
REMARK    1  A    between atoms: N2_6  and  C3_8 
REMARK    2  A    between atoms: C3_8  and  C4_9 
REMARK    3  A    between atoms: C4_9  and  C5_10 
REMARK       I    between atoms: C5_10  and  N3_12 
REMARK       I    between atoms: C6_14  and  N4_15 
REMARK       I    between atoms: C6_14  and  N5_21 
REMARK    4  A    between atoms: N4_15  and  C7_17 
REMARK    5  A    between atoms: C8_18  and  C9_19 
REMARK    6  A    between atoms: N5_21  and  N6_23 
ROOT
HETATM    1  C5  UNL     1      12.857 -20.161 -18.537  1.00  0.00     0.237 C 
HETATM    2  O2  UNL     1      11.681 -19.764 -18.606  1.00  0.00    -0.273 OA
HETATM    3  N3  UNL     1      13.158 -21.405 -17.993  1.00  0.00    -0.158 N 
ATOM      4  H3  UNL     1      12.962 -21.521 -16.999  1.00  0.00     0.187 HD
HETATM    5  C6  UNL     1      13.649 -22.417 -18.591  1.00  0.00     0.712 C 
HETATM    6  N4  UNL     1      13.951 -22.350 -19.962  1.00  0.00    -0.147 N 
ATOM      7  H4  UNL     1      14.908 -22.163 -20.261  1.00  0.00     0.195 HD
HETATM    8  N5  UNL     1      13.891 -23.606 -17.881  1.00  0.00    -0.048 N 
ATOM      9  H5  UNL     1      14.825 -24.015 -17.943  1.00  0.00     0.213 HD
ENDROOT
BRANCH   1  10
HETATM   10  C4  UNL     1      13.943 -19.289 -19.045  1.00  0.00     0.123 C 
BRANCH  10  11
HETATM   11  C3  UNL     1      14.009 -18.055 -18.190  1.00  0.00     0.133 C 
BRANCH  11  12
HETATM   12  N2  UNL     1      13.393 -18.240 -16.923  1.00  0.00    -0.343 N 
HETATM   13  C2  UNL     1      13.848 -17.622 -15.759  1.00  0.00     0.315 C 
HETATM   14  N1  UNL     1      13.195 -17.857 -14.508  1.00  0.00    -0.347 N 
HETATM   15  O1  UNL     1      14.834 -16.851 -15.785  1.00  0.00    -0.247 OA
HETATM   16  C1  UNL     1      13.685 -17.204 -13.315  1.00  0.00     0.151 C 
ATOM     17  H1  UNL     1      12.390 -18.481 -14.458  1.00  0.00     0.163 HD
ATOM     18  H2  UNL     1      12.580 -18.853 -16.861  1.00  0.00     0.164 HD
ENDBRANCH  11  12
ENDBRANCH  10  11
ENDBRANCH   1  10
BRANCH   6  19
HETATM   19  C7  UNL     1      12.934 -22.542 -20.932  1.00  0.00     0.026 C 
HETATM   20  C8  UNL     1      12.059 -22.720 -21.744  1.00  0.00    -0.072 C 
BRANCH  20  21
HETATM   21  C9  UNL     1      10.978 -22.940 -22.715  1.00  0.00     0.180 C 
HETATM   22 BR1  UNL     1      11.574 -24.307 -23.942  1.00  0.00    -0.083 Br
ENDBRANCH  20  21
ENDBRANCH   6  19
BRANCH   8  23
HETATM   23  N6  UNL     1      12.946 -24.266 -17.098  1.00  0.00     0.014 N 
HETATM   24  C10 UNL     1      13.271 -25.669 -17.041  1.00  0.00     0.302 C 
HETATM   25  C11 UNL     1      13.002 -23.692 -15.756  1.00  0.00     0.302 C 
HETATM   26  C12 UNL     1      11.628 -24.096 -17.644  1.00  0.00     0.302 C 
ENDBRANCH   8  23
TORSDOF 6
ENDMDL
MODEL 3
REMARK VINA RESULT: -5.347926741      2.902      4.937
REMARK  6 active torsions:
REMARK  status: ('A' for Active; 'I' for Inactive)
REMARK       I    between atoms: N1_2  and  C2_4 
REMARK       I    between atoms: C2_4  and  N2_6 
REMARK    1  A    between atoms: N2_6  and  C3_8 
REMARK    2  A    between atoms: C3_8  and  C4_9 
REMARK    3  A    between atoms: C4_9  and  C5_10 
REMARK       I    between atoms: C5_10  and  N3_12 
REMARK       I    between atoms: C6_14  and  N4_15 
REMARK       I    between atoms: C6_14  and  N5_21 
REMARK    4  A    between atoms: N4_15  and  C7_17 
REMARK    5  A    between atoms: C8_18  and  C9_19 
REMARK    6  A    between atoms: N5_21  and  N6_23 
ROOT
HETATM    1  C5  UNL     1      16.213 -21.082 -16.632  1.00  0.00     0.237 C 
HETATM    2  O2  UNL     1      17.171 -21.478 -15.945  1.00  0.00    -0.273 OA
HETATM    3  N3  UNL     1      15.117 -21.905 -16.866  1.00  0.00    -0.158 N 
ATOM      4  H3  UNL     1      15.293 -22.741 -17.424  1.00  0.00     0.187 HD
HETATM    5  C6  UNL     1      13.919 -21.738 -16.466  1.00  0.00     0.712 C 
HETATM    6  N4  UNL     1      13.583 -20.616 -15.690  1.00  0.00    -0.147 N 
ATOM      7  H4  UNL     1      13.164 -19.799 -16.135  1.00  0.00     0.195 HD
HETATM    8  N5  UNL     1      12.927 -22.678 -16.798  1.00  0.00    -0.048 N 
ATOM      9  H5  UNL     1      12.072 -22.332 -17.232  1.00  0.00     0.213 HD
ENDROOT
BRANCH   1  10
HETATM   10  C4  UNL     1      16.251 -19.713 -17.200  1.00  0.00     0.123 C 
BRANCH  10  11
HETATM   11  C3  UNL     1      17.091 -18.845 -16.307  1.00  0.00     0.133 C 
BRANCH  11  12
HETATM   12  N2  UNL     1      16.425 -18.503 -15.099  1.00  0.00    -0.343 N 
HETATM   13  C2  UNL     1      15.491 -17.471 -15.013  1.00  0.00     0.315 C 
HETATM   14  N1  UNL     1      14.861 -17.164 -13.765  1.00  0.00    -0.347 N 
HETATM   15  O1  UNL     1      15.187 -16.794 -16.021  1.00  0.00    -0.247 OA
HETATM   16  C1  UNL     1      13.897 -16.089 -13.700  1.00  0.00     0.151 C 
ATOM     17  H1  UNL     1      15.092 -17.699 -12.928  1.00  0.00     0.163 HD
ATOM     18  H2  UNL     1      16.638 -19.038 -14.258  1.00  0.00     0.164 HD
ENDBRANCH  11  12
ENDBRANCH  10  11
ENDBRANCH   1  10
BRANCH   6  19
HETATM   19  C7  UNL     1      13.823 -20.610 -14.292  1.00  0.00     0.026 C 
HETATM   20  C8  UNL     1      14.047 -20.610 -13.106  1.00  0.00    -0.072 C 
BRANCH  20  21
HETATM   21  C9  UNL     1      14.344 -20.601 -11.666  1.00  0.00     0.180 C 
HETATM   22 BR1  UNL     1      13.929 -22.358 -10.981  1.00  0.00    -0.083 Br
ENDBRANCH  20  21
ENDBRANCH   6  19
BRANCH   8  23
HETATM   23  N6  UNL     1      13.032 -24.050 -16.575  1.00  0.00     0.014 N 
HETATM   24  C10 UNL     1      13.453 -24.280 -15.216  1.00  0.00     0.302 C 
HETATM   25  C11 UNL     1      11.711 -24.636 -16.788  1.00  0.00     0.302 C 
HETATM   26  C12 UNL     1      13.977 -24.641 -17.481  1.00  0.00     0.302 C 
ENDBRANCH   8  23
TORSDOF 6
ENDMDL
MODEL 4
REMARK VINA RESULT: -5.340457422      3.384      7.110
REMARK  6 active torsions:
REMARK  status: ('A' for Active; 'I' for Inactive)
REMARK       I    between atoms: N1_2  and  C2_4 
REMARK       I    between atoms: C2_4  and  N2_6 
REMARK    1  A    between atoms: N2_6  and  C3_8 
REMARK    2  A    between atoms: C3_8  and  C4_9 
REMARK    3  A    between atoms: C4_9  and  C5_10 
REMARK       I    between atoms: C5_10  and  N3_12 
REMARK       I    between atoms: C6_14  and  N4_15 
REMARK       I    between atoms: C6_14  and  N5_21 
REMARK    4  A    between atoms: N4_15  and  C7_17 
REMARK    5  A    between atoms: C8_18  and  C9_19 
REMARK    6  A    between atoms: N5_21  and  N6_23 
ROOT
HETATM    1  C5  UNL     1      13.606 -20.968 -19.675  1.00  0.00     0.237 C 
HETATM    2  O2  UNL     1      14.692 -21.391 -19.241  1.00  0.00    -0.273 OA
HETATM    3  N3  UNL     1      12.940 -21.635 -20.699  1.00  0.00    -0.158 N 
ATOM      4  H3  UNL     1      13.406 -21.646 -21.606  1.00  0.00     0.187 HD
HETATM    5  C6  UNL     1      11.817 -22.233 -20.636  1.00  0.00     0.712 C 
HETATM    6  N4  UNL     1      11.104 -22.271 -19.426  1.00  0.00    -0.147 N 
ATOM      7  H4  UNL     1      10.348 -21.605 -19.262  1.00  0.00     0.195 HD
HETATM    8  N5  UNL     1      11.287 -22.860 -21.778  1.00  0.00    -0.048 N 
ATOM      9  H5  UNL     1      10.334 -22.619 -22.052  1.00  0.00     0.213 HD
ENDROOT
BRANCH   1  10
HETATM   10  C4  UNL     1      13.024 -19.739 -19.086  1.00  0.00     0.123 C 
BRANCH  10  11
HETATM   11  C3  UNL     1      13.991 -19.185 -18.078  1.00  0.00     0.133 C 
BRANCH  11  12
HETATM   12  N2  UNL     1      13.397 -19.004 -16.800  1.00  0.00    -0.343 N 
HETATM   13  C2  UNL     1      13.718 -17.940 -15.957  1.00  0.00     0.315 C 
HETATM   14  N1  UNL     1      13.096 -17.817 -14.674  1.00  0.00    -0.347 N 
HETATM   15  O1  UNL     1      14.553 -17.076 -16.304  1.00  0.00    -0.247 OA
HETATM   16  C1  UNL     1      13.445 -16.706 -13.818  1.00  0.00     0.151 C 
ATOM     17  H1  UNL     1      12.412 -18.508 -14.366  1.00  0.00     0.163 HD
ATOM     18  H2  UNL     1      12.704 -19.682 -16.484  1.00  0.00     0.164 HD
ENDBRANCH  11  12
ENDBRANCH  10  11
ENDBRANCH   1  10
BRANCH   6  19
HETATM   19  C7  UNL     1      11.426 -23.228 -18.431  1.00  0.00     0.026 C 
HETATM   20  C8  UNL     1      11.697 -24.028 -17.568  1.00  0.00    -0.072 C 
BRANCH  20  21
HETATM   21  C9  UNL     1      12.013 -24.990 -16.502  1.00  0.00     0.180 C 
HETATM   22 BR1  UNL     1      13.704 -25.809 -16.947  1.00  0.00    -0.083 Br
ENDBRANCH  20  21
ENDBRANCH   6  19
BRANCH   8  23
HETATM   23  N6  UNL     1      11.973 -23.786 -22.561  1.00  0.00     0.014 N 
HETATM   24  C10 UNL     1      12.375 -24.900 -21.738  1.00  0.00     0.302 C 
HETATM   25  C11 UNL     1      11.061 -24.248 -23.604  1.00  0.00     0.302 C 
HETATM   26  C12 UNL     1      13.132 -23.185 -23.161  1.00  0.00     0.302 C 
ENDBRANCH   8  23
TORSDOF 6
ENDMDL
MODEL 5
REMARK VINA RESULT: -5.275819032      4.326      6.120
REMARK  6 active torsions:
REMARK  status: ('A' for Active; 'I' for Inactive)
REMARK       I    between atoms: N1_2  and  C2_4 
REMARK       I    between atoms: C2_4  and  N2_6 
REMARK    1  A    between atoms: N2_6  and  C3_8 
REMARK    2  A    between atoms: C3_8  and  C4_9 
REMARK    3  A    between atoms: C4_9  and  C5_10 
REMARK       I    between atoms: C5_10  and  N3_12 
REMARK       I    between atoms: C6_14  and  N4_15 
REMARK       I    between atoms: C6_14  and  N5_21 
REMARK    4  A    between atoms: N4_15  and  C7_17 
REMARK    5  A    between atoms: C8_18  and  C9_19 
REMARK    6  A    between atoms: N5_21  and  N6_23 
ROOT
HETATM    1  C5  UNL     1      17.068 -20.226 -18.126  1.00  0.00     0.237 C 
HETATM    2  O2  UNL     1      17.381 -19.686 -19.202  1.00  0.00    -0.273 OA
HETATM    3  N3  UNL     1      16.255 -19.567 -17.209  1.00  0.00    -0.158 N 
ATOM      4  H3  UNL     1      16.646 -18.728 -16.783  1.00  0.00     0.187 HD
HETATM    5  C6  UNL     1      15.080 -19.891 -16.840  1.00  0.00     0.712 C 
HETATM    6  N4  UNL     1      14.460 -21.033 -17.376  1.00  0.00    -0.147 N 
ATOM      7  H4  UNL     1      14.474 -21.909 -16.853  1.00  0.00     0.195 HD
HETATM    8  N5  UNL     1      14.397 -19.105 -15.895  1.00  0.00    -0.048 N 
ATOM      9  H5  UNL     1      14.010 -19.577 -15.077  1.00  0.00     0.213 HD
ENDROOT
BRANCH   1  10
HETATM   10  C4  UNL     1      17.574 -21.587 -17.830  1.00  0.00     0.123 C 
BRANCH  10  11
HETATM   11  C3  UNL     1      19.054 -21.617 -18.089  1.00  0.00     0.133 C 
BRANCH  11  12
HETATM   12  N2  UNL     1      19.731 -20.518 -17.494  1.00  0.00    -0.343 N 
HETATM   13  C2  UNL     1      20.809 -20.671 -16.622  1.00  0.00     0.315 C 
HETATM   14  N1  UNL     1      21.443 -19.526 -16.043  1.00  0.00    -0.347 N 
HETATM   15  O1  UNL     1      21.241 -21.808 -16.329  1.00  0.00    -0.247 OA
HETATM   16  C1  UNL     1      22.558 -19.710 -15.143  1.00  0.00     0.151 C 
ATOM     17  H1  UNL     1      21.110 -18.587 -16.264  1.00  0.00     0.163 HD
ATOM     18  H2  UNL     1      19.414 -19.574 -17.715  1.00  0.00     0.164 HD
ENDBRANCH  11  12
ENDBRANCH  10  11
ENDBRANCH   1  10
BRANCH   6  19
HETATM   19  C7  UNL     1      13.815 -20.976 -18.637  1.00  0.00     0.026 C 
HETATM   20  C8  UNL     1      13.283 -20.937 -19.721  1.00  0.00    -0.072 C 
BRANCH  20  21
HETATM   21  C9  UNL     1      12.648 -20.910 -21.046  1.00  0.00     0.180 C 
HETATM   22 BR1  UNL     1      10.834 -21.536 -20.827  1.00  0.00    -0.083 Br
ENDBRANCH  20  21
ENDBRANCH   6  19
BRANCH   8  23
HETATM   23  N6  UNL     1      14.211 -17.728 -15.999  1.00  0.00     0.014 N 
HETATM   24  C10 UNL     1      13.814 -17.401 -17.345  1.00  0.00     0.302 C 
HETATM   25  C11 UNL     1      13.150 -17.352 -15.067  1.00  0.00     0.302 C 
HETATM   26  C12 UNL     1      15.420 -17.026 -15.666  1.00  0.00     0.302 C 
ENDBRANCH   8  23
TORSDOF 6
ENDMDL
