MODEL 1
REMARK VINA RESULT: -7.199116091      0.000      0.000
REMARK  7 active torsions:
REMARK  status: ('A' for Active; 'I' for Inactive)
REMARK    1  A    between atoms: C2_2  and  N1_3 
REMARK    2  A    between atoms: N1_3  and  C3_5 
REMARK    3  A    between atoms: C5_10  and  C6_11 
REMARK    4  A    between atoms: N4_15  and  C9_16 
REMARK    5  A    between atoms: C9_16  and  C10_17 
REMARK    6  A    between atoms: C10_17  and  C11_18 
REMARK    7  A    between atoms: C11_18  and  C12_19 
ROOT
HETATM    1  C3  UNL     1     -14.569   1.168   1.769  1.00  0.00     0.684 A 
HETATM    2  N2  UNL     1     -15.201   2.251   2.257  1.00  0.00    -0.155 N 
ATOM      3  H2  UNL     1     -14.703   2.888   2.879  1.00  0.00     0.187 HD
HETATM    4  C4  UNL     1     -16.483   2.502   1.935  1.00  0.00     0.269 A 
HETATM    5  O1  UNL     1     -17.090   3.527   2.395  1.00  0.00    -0.267 OA
HETATM    6  C5  UNL     1     -17.112   1.612   1.091  1.00  0.00     0.052 A 
HETATM    7  C8  UNL     1     -16.442   0.498   0.594  1.00  0.00     0.146 A 
HETATM    8  N3  UNL     1     -17.113  -0.410  -0.278  1.00  0.00    -0.081 NA
HETATM    9  N4  UNL     1     -15.164   0.290   0.946  1.00  0.00    -0.170 N 
ENDROOT
BRANCH   9  10
HETATM   10  C9  UNL     1     -14.435  -0.844   0.461  1.00  0.00     0.149 C 
BRANCH  10  11
HETATM   11  C10 UNL     1     -13.555  -0.473  -0.738  1.00  0.00     0.021 C 
BRANCH  11  12
HETATM   12  C11 UNL     1     -13.963  -1.287  -1.932  1.00  0.00     0.006 C 
BRANCH  12  13
HETATM   13  C12 UNL     1     -14.374  -0.420  -3.104  1.00  0.00    -0.014 C 
HETATM   14  C13 UNL     1     -15.693  -1.002  -3.610  1.00  0.00     0.004 C 
HETATM   15  C14 UNL     1     -15.928  -0.712  -5.060  1.00  0.00     0.000 C 
HETATM   16  C15 UNL     1     -15.124   0.494  -5.496  1.00  0.00     0.000 C 
HETATM   17  C16 UNL     1     -13.674   0.090  -5.468  1.00  0.00     0.000 C 
HETATM   18  C17 UNL     1     -13.295  -0.498  -4.131  1.00  0.00     0.004 C 
ENDBRANCH  12  13
ENDBRANCH  11  12
ENDBRANCH  10  11
ENDBRANCH   9  10
BRANCH   1  19
HETATM   19  N1  UNL     1     -13.355   0.979   2.107  1.00  0.00    -0.226 N 
ATOM     20  H1  UNL     1     -12.934   0.098   1.811  1.00  0.00     0.177 HD
BRANCH  19  21
HETATM   21  C2  UNL     1     -12.519   1.863   2.855  1.00  0.00     0.133 C 
HETATM   22  C1  UNL     1     -11.389   2.327   1.966  1.00  0.00     0.027 C 
ENDBRANCH  19  21
ENDBRANCH   1  19
BRANCH   6  23
HETATM   23  C6  UNL     1     -18.505   1.819   0.695  1.00  0.00     0.043 C 
HETATM   24  C7  UNL     1     -19.500   1.269   1.688  1.00  0.00     0.010 C 
ENDBRANCH   6  23
TORSDOF 7
ENDMDL
MODEL 2
REMARK VINA RESULT: -6.995000728      2.632      4.288
REMARK  7 active torsions:
REMARK  status: ('A' for Active; 'I' for Inactive)
REMARK    1  A    between atoms: C2_2  and  N1_3 
REMARK    2  A    between atoms: N1_3  and  C3_5 
REMARK    3  A    between atoms: C5_10  and  C6_11 
REMARK    4  A    between atoms: N4_15  and  C9_16 
REMARK    5  A    between atoms: C9_16  and  C10_17 
REMARK    6  A    between atoms: C10_17  and  C11_18 
REMARK    7  A    between atoms: C11_18  and  C12_19 
ROOT
HETATM    1  C3  UNL     1     -17.709  -2.460  -0.349  1.00  0.00     0.684 A 
HETATM    2  N2  UNL     1     -18.991  -2.060  -0.425  1.00  0.00    -0.155 N 
ATOM      3  H2  UNL     1     -19.725  -2.747  -0.595  1.00  0.00     0.187 HD
HETATM    4  C4  UNL     1     -19.316  -0.762  -0.277  1.00  0.00     0.269 A 
HETATM    5  O1  UNL     1     -20.530  -0.374  -0.348  1.00  0.00    -0.267 OA
HETATM    6  C5  UNL     1     -18.289   0.128  -0.047  1.00  0.00     0.052 A 
HETATM    7  C8  UNL     1     -16.968  -0.305   0.029  1.00  0.00     0.146 A 
HETATM    8  N3  UNL     1     -15.920   0.633   0.267  1.00  0.00    -0.081 NA
HETATM    9  N4  UNL     1     -16.695  -1.609  -0.126  1.00  0.00    -0.170 N 
ENDROOT
BRANCH   9  10
HETATM   10  C9  UNL     1     -15.350  -2.101  -0.058  1.00  0.00     0.149 C 
BRANCH  10  11
HETATM   11  C10 UNL     1     -14.753  -2.295  -1.456  1.00  0.00     0.021 C 
BRANCH  11  12
HETATM   12  C11 UNL     1     -13.817  -1.162  -1.765  1.00  0.00     0.006 C 
BRANCH  12  13
HETATM   13  C12 UNL     1     -14.264  -0.362  -2.970  1.00  0.00    -0.014 C 
HETATM   14  C13 UNL     1     -15.604  -0.961  -3.393  1.00  0.00     0.004 C 
HETATM   15  C14 UNL     1     -15.889  -0.756  -4.849  1.00  0.00     0.000 C 
HETATM   16  C15 UNL     1     -15.093   0.416  -5.384  1.00  0.00     0.000 C 
HETATM   17  C16 UNL     1     -13.646   0.001  -5.383  1.00  0.00     0.000 C 
HETATM   18  C17 UNL     1     -13.223  -0.509  -4.029  1.00  0.00     0.004 C 
ENDBRANCH  12  13
ENDBRANCH  11  12
ENDBRANCH  10  11
ENDBRANCH   9  10
BRANCH   1  19
HETATM   19  N1  UNL     1     -17.459  -3.701  -0.496  1.00  0.00    -0.226 N 
ATOM     20  H1  UNL     1     -16.511  -3.940  -0.789  1.00  0.00     0.177 HD
BRANCH  19  21
HETATM   21  C2  UNL     1     -18.358  -4.793  -0.298  1.00  0.00     0.133 C 
HETATM   22  C1  UNL     1     -17.806  -6.008  -1.008  1.00  0.00     0.027 C 
ENDBRANCH  19  21
ENDBRANCH   1  19
BRANCH   6  23
HETATM   23  C6  UNL     1     -18.563   1.554   0.124  1.00  0.00     0.043 C 
HETATM   24  C7  UNL     1     -18.937   1.929   1.538  1.00  0.00     0.010 C 
ENDBRANCH   6  23
TORSDOF 7
ENDMDL
MODEL 3
REMARK VINA RESULT: -6.843993048      1.213      1.406
REMARK  7 active torsions:
REMARK  status: ('A' for Active; 'I' for Inactive)
REMARK    1  A    between atoms: C2_2  and  N1_3 
REMARK    2  A    between atoms: N1_3  and  C3_5 
REMARK    3  A    between atoms: C5_10  and  C6_11 
REMARK    4  A    between atoms: N4_15  and  C9_16 
REMARK    5  A    between atoms: C9_16  and  C10_17 
REMARK    6  A    between atoms: C10_17  and  C11_18 
REMARK    7  A    between atoms: C11_18  and  C12_19 
ROOT
HETATM    1  C3  UNL     1     -15.473   0.259   0.950  1.00  0.00     0.684 A 
HETATM    2  N2  UNL     1     -16.191   1.365   1.215  1.00  0.00    -0.155 N 
ATOM      3  H2  UNL     1     -15.757   2.143   1.712  1.00  0.00     0.187 HD
HETATM    4  C4  UNL     1     -17.478   1.457   0.832  1.00  0.00     0.269 A 
HETATM    5  O1  UNL     1     -18.168   2.503   1.079  1.00  0.00    -0.267 OA
HETATM    6  C5  UNL     1     -18.020   0.381   0.162  1.00  0.00     0.052 A 
HETATM    7  C8  UNL     1     -17.261  -0.755  -0.104  1.00  0.00     0.146 A 
HETATM    8  N3  UNL     1     -17.842  -1.858  -0.797  1.00  0.00    -0.081 NA
HETATM    9  N4  UNL     1     -15.982  -0.799   0.301  1.00  0.00    -0.170 N 
ENDROOT
BRANCH   9  10
HETATM   10  C9  UNL     1     -15.162  -1.948   0.050  1.00  0.00     0.149 C 
BRANCH  10  11
HETATM   11  C10 UNL     1     -14.873  -2.114  -1.446  1.00  0.00     0.021 C 
BRANCH  11  12
HETATM   12  C11 UNL     1     -13.847  -1.105  -1.874  1.00  0.00     0.006 C 
BRANCH  12  13
HETATM   13  C12 UNL     1     -14.293  -0.313  -3.085  1.00  0.00    -0.014 C 
HETATM   14  C13 UNL     1     -15.633  -0.915  -3.505  1.00  0.00     0.004 C 
HETATM   15  C14 UNL     1     -15.918  -0.720  -4.962  1.00  0.00     0.000 C 
HETATM   16  C15 UNL     1     -15.120   0.447  -5.506  1.00  0.00     0.000 C 
HETATM   17  C16 UNL     1     -13.674   0.031  -5.501  1.00  0.00     0.000 C 
HETATM   18  C17 UNL     1     -13.252  -0.469  -4.143  1.00  0.00     0.004 C 
ENDBRANCH  12  13
ENDBRANCH  11  12
ENDBRANCH  10  11
ENDBRANCH   9  10
BRANCH   1  19
HETATM   19  N1  UNL     1     -14.259   0.226   1.336  1.00  0.00    -0.226 N 
ATOM     20  H1  UNL     1     -13.743  -0.631   1.138  1.00  0.00     0.177 HD
BRANCH  19  21
HETATM   21  C2  UNL     1     -13.540   1.257   2.017  1.00  0.00     0.133 C 
HETATM   22  C1  UNL     1     -12.073   1.124   1.683  1.00  0.00     0.027 C 
ENDBRANCH  19  21
ENDBRANCH   1  19
BRANCH   6  23
HETATM   23  C6  UNL     1     -19.411   0.406  -0.286  1.00  0.00     0.043 C 
HETATM   24  C7  UNL     1     -20.398   0.030   0.793  1.00  0.00     0.010 C 
ENDBRANCH   6  23
TORSDOF 7
ENDMDL
MODEL 4
REMARK VINA RESULT: -6.645815396      4.576      6.404
REMARK  7 active torsions:
REMARK  status: ('A' for Active; 'I' for Inactive)
REMARK    1  A    between atoms: C2_2  and  N1_3 
REMARK    2  A    between atoms: N1_3  and  C3_5 
REMARK    3  A    between atoms: C5_10  and  C6_11 
REMARK    4  A    between atoms: N4_15  and  C9_16 
REMARK    5  A    between atoms: C9_16  and  C10_17 
REMARK    6  A    between atoms: C10_17  and  C11_18 
REMARK    7  A    between atoms: C11_18  and  C12_19 
ROOT
HETATM    1  C3  UNL     1     -11.509  -2.986   0.792  1.00  0.00     0.684 A 
HETATM    2  N2  UNL     1     -10.237  -3.319   1.079  1.00  0.00    -0.155 N 
ATOM      3  H2  UNL     1      -9.714  -2.773   1.763  1.00  0.00     0.187 HD
HETATM    4  C4  UNL     1      -9.647  -4.366   0.472  1.00  0.00     0.269 A 
HETATM    5  O1  UNL     1      -8.441  -4.688   0.738  1.00  0.00    -0.267 OA
HETATM    6  C5  UNL     1     -10.395  -5.074  -0.444  1.00  0.00     0.052 A 
HETATM    7  C8  UNL     1     -11.710  -4.715  -0.727  1.00  0.00     0.146 A 
HETATM    8  N3  UNL     1     -12.466  -5.461  -1.679  1.00  0.00    -0.081 NA
HETATM    9  N4  UNL     1     -12.253  -3.662  -0.097  1.00  0.00    -0.170 N 
ENDROOT
BRANCH   9  10
HETATM   10  C9  UNL     1     -13.603  -3.254  -0.358  1.00  0.00     0.149 C 
BRANCH  10  11
HETATM   11  C10 UNL     1     -13.716  -2.515  -1.695  1.00  0.00     0.021 C 
BRANCH  11  12
HETATM   12  C11 UNL     1     -13.965  -1.055  -1.443  1.00  0.00     0.006 C 
BRANCH  12  13
HETATM   13  C12 UNL     1     -14.329  -0.310  -2.709  1.00  0.00    -0.014 C 
HETATM   14  C13 UNL     1     -15.679  -0.872  -3.150  1.00  0.00     0.004 C 
HETATM   15  C14 UNL     1     -15.901  -0.742  -4.626  1.00  0.00     0.000 C 
HETATM   16  C15 UNL     1     -15.030   0.358  -5.196  1.00  0.00     0.000 C 
HETATM   17  C16 UNL     1     -13.606  -0.120  -5.114  1.00  0.00     0.000 C 
HETATM   18  C17 UNL     1     -13.258  -0.567  -3.716  1.00  0.00     0.004 C 
ENDBRANCH  12  13
ENDBRANCH  11  12
ENDBRANCH  10  11
ENDBRANCH   9  10
BRANCH   1  19
HETATM   19  N1  UNL     1     -12.017  -1.986   1.396  1.00  0.00    -0.226 N 
ATOM     20  H1  UNL     1     -13.032  -1.893   1.345  1.00  0.00     0.177 HD
BRANCH  19  21
HETATM   21  C2  UNL     1     -11.324  -0.979   2.135  1.00  0.00     0.133 C 
HETATM   22  C1  UNL     1     -11.919   0.367   1.794  1.00  0.00     0.027 C 
ENDBRANCH  19  21
ENDBRANCH   1  19
BRANCH   6  23
HETATM   23  C6  UNL     1      -9.824  -6.223  -1.143  1.00  0.00     0.043 C 
HETATM   24  C7  UNL     1      -9.043  -5.848  -2.380  1.00  0.00     0.010 C 
ENDBRANCH   6  23
TORSDOF 7
ENDMDL
MODEL 5
REMARK VINA RESULT: -6.613480441      1.726      3.634
REMARK  7 active torsions:
REMARK  status: ('A' for Active; 'I' for Inactive)
REMARK    1  A    between atoms: C2_2  and  N1_3 
REMARK    2  A    between atoms: N1_3  and  C3_5 
REMARK    3  A    between atoms: C5_10  and  C6_11 
REMARK    4  A    between atoms: N4_15  and  C9_16 
REMARK    5  A    between atoms: C9_16  and  C10_17 
REMARK    6  A    between atoms: C10_17  and  C11_18 
REMARK    7  A    between atoms: C11_18  and  C12_19 
ROOT
HETATM    1  C3  UNL     1     -17.427  -0.690   0.034  1.00  0.00     0.684 A 
HETATM    2  N2  UNL     1     -18.192   0.400   0.224  1.00  0.00    -0.155 N 
ATOM      3  H2  UNL     1     -19.148   0.414  -0.130  1.00  0.00     0.187 HD
HETATM    4  C4  UNL     1     -17.709   1.472   0.878  1.00  0.00     0.269 A 
HETATM    5  O1  UNL     1     -18.428   2.511   1.063  1.00  0.00    -0.267 OA
HETATM    6  C5  UNL     1     -16.412   1.404   1.340  1.00  0.00     0.052 A 
HETATM    7  C8  UNL     1     -15.636   0.267   1.134  1.00  0.00     0.146 A 
HETATM    8  N3  UNL     1     -14.295   0.218   1.619  1.00  0.00    -0.081 NA
HETATM    9  N4  UNL     1     -16.162  -0.776   0.474  1.00  0.00    -0.170 N 
ENDROOT
BRANCH   9  10
HETATM   10  C9  UNL     1     -15.400  -1.967   0.238  1.00  0.00     0.149 C 
BRANCH  10  11
HETATM   11  C10 UNL     1     -15.066  -2.131  -1.249  1.00  0.00     0.021 C 
BRANCH  11  12
HETATM   12  C11 UNL     1     -13.990  -1.156  -1.633  1.00  0.00     0.006 C 
BRANCH  12  13
HETATM   13  C12 UNL     1     -14.355  -0.358  -2.868  1.00  0.00    -0.014 C 
HETATM   14  C13 UNL     1     -15.687  -0.927  -3.352  1.00  0.00     0.004 C 
HETATM   15  C14 UNL     1     -15.894  -0.731  -4.823  1.00  0.00     0.000 C 
HETATM   16  C15 UNL     1     -15.040   0.413  -5.329  1.00  0.00     0.000 C 
HETATM   17  C16 UNL     1     -13.607  -0.039  -5.250  1.00  0.00     0.000 C 
HETATM   18  C17 UNL     1     -13.266  -0.545  -3.871  1.00  0.00     0.004 C 
ENDBRANCH  12  13
ENDBRANCH  11  12
ENDBRANCH  10  11
ENDBRANCH   9  10
BRANCH   1  19
HETATM   19  N1  UNL     1     -17.935  -1.677  -0.592  1.00  0.00    -0.226 N 
ATOM     20  H1  UNL     1     -17.488  -1.935  -1.472  1.00  0.00     0.177 HD
BRANCH  19  21
HETATM   21  C2  UNL     1     -19.063  -2.462  -0.199  1.00  0.00     0.133 C 
HETATM   22  C1  UNL     1     -18.619  -3.898  -0.040  1.00  0.00     0.027 C 
ENDBRANCH  19  21
ENDBRANCH   1  19
BRANCH   6  23
HETATM   23  C6  UNL     1     -15.817   2.530   2.060  1.00  0.00     0.043 C 
HETATM   24  C7  UNL     1     -16.125   2.527   3.538  1.00  0.00     0.010 C 
ENDBRANCH   6  23
TORSDOF 7
ENDMDL
