MODEL 1
REMARK VINA RESULT: -7.985750442      0.000      0.000
REMARK  8 active torsions:
REMARK  status: ('A' for Active; 'I' for Inactive)
REMARK    1  A    between atoms: N2_4  and  C1_6 
REMARK    2  A    between atoms: C1_6  and  C2_7 
REMARK    3  A    between atoms: C2_7  and  C3_8 
REMARK    4  A    between atoms: C3_8  and  N3_9 
REMARK       I    between atoms: N3_9  and  C4_11 
REMARK    5  A    between atoms: C4_11  and  C5_13 
REMARK    6  A    between atoms: C5_13  and  C6_15 
REMARK    7  A    between atoms: C6_15  and  N4_16 
REMARK    8  A    between atoms: N4_16  and  C7_18 
ROOT
HETATM    1  N3  UNL     1     -19.693   7.569  -0.445  1.00  0.00    -0.360 N 
ATOM      2  H3  UNL     1     -20.496   7.433   0.168  1.00  0.00     0.162 HD
HETATM    3  C4  UNL     1     -19.223   6.496  -1.234  1.00  0.00     0.237 C 
HETATM    4  O1  UNL     1     -18.242   6.663  -1.981  1.00  0.00    -0.272 OA
ENDROOT
BRANCH   3   5
HETATM    5  C5  UNL     1     -19.906   5.194  -1.155  1.00  0.00     0.191 C 
HETATM    6 CL1  UNL     1     -20.826   4.883  -2.643  1.00  0.00    -0.113 Cl
BRANCH   5   7
HETATM    7  C6  UNL     1     -20.811   5.105   0.082  1.00  0.00     0.144 C 
BRANCH   7   8
HETATM    8  N4  UNL     1     -20.152   4.263   1.019  1.00  0.00    -0.415 N 
ATOM      9  H4  UNL     1     -19.708   3.388   0.737  1.00  0.00     0.153 HD
BRANCH   8  10
HETATM   10  C7  UNL     1     -20.145   4.704   2.365  1.00  0.00     0.076 C 
HETATM   11  C8  UNL     1     -20.146   6.179   2.575  1.00  0.00     0.026 C 
HETATM   12  C9  UNL     1     -20.984   6.550   3.793  1.00  0.00     0.022 C 
HETATM   13  C10 UNL     1     -20.619   5.677   4.965  1.00  0.00     0.082 C 
HETATM   14 CL2  UNL     1     -18.952   6.056   5.488  1.00  0.00    -0.125 Cl
HETATM   15  C11 UNL     1     -20.796   4.219   4.656  1.00  0.00     0.022 C 
HETATM   16  C12 UNL     1     -21.265   4.072   3.202  1.00  0.00     0.026 C 
ENDBRANCH   8  10
ENDBRANCH   7   8
ENDBRANCH   5   7
ENDBRANCH   3   5
BRANCH   1  17
HETATM   17  C3  UNL     1     -19.042   8.867  -0.500  1.00  0.00     0.124 C 
BRANCH  17  18
HETATM   18  C2  UNL     1     -19.712   9.739  -1.546  1.00  0.00     0.041 C 
BRANCH  18  19
HETATM   19  C1  UNL     1     -19.363  11.183  -1.207  1.00  0.00     0.140 C 
BRANCH  19  20
HETATM   20  N2  UNL     1     -19.742  12.028  -2.279  1.00  0.00    -0.343 N 
HETATM   21  N1  UNL     1     -20.158  13.186  -2.148  1.00  0.00    -0.349 N 
ATOM     22  H12 UNL     1     -20.227  13.542  -1.195  1.00  0.00     0.176 HD
ATOM     23  H11 UNL     1     -20.431  13.794  -2.920  1.00  0.00     0.176 HD
ATOM     24  H2  UNL     1     -19.666  11.656  -3.225  1.00  0.00     0.179 HD
ENDBRANCH  19  20
ENDBRANCH  18  19
ENDBRANCH  17  18
ENDBRANCH   1  17
TORSDOF 8
ENDMDL
MODEL 2
REMARK VINA RESULT: -7.413847190      3.973      6.298
REMARK  8 active torsions:
REMARK  status: ('A' for Active; 'I' for Inactive)
REMARK    1  A    between atoms: N2_4  and  C1_6 
REMARK    2  A    between atoms: C1_6  and  C2_7 
REMARK    3  A    between atoms: C2_7  and  C3_8 
REMARK    4  A    between atoms: C3_8  and  N3_9 
REMARK       I    between atoms: N3_9  and  C4_11 
REMARK    5  A    between atoms: C4_11  and  C5_13 
REMARK    6  A    between atoms: C5_13  and  C6_15 
REMARK    7  A    between atoms: C6_15  and  N4_16 
REMARK    8  A    between atoms: N4_16  and  C7_18 
ROOT
HETATM    1  N3  UNL     1     -21.364   2.830  -3.545  1.00  0.00    -0.360 N 
ATOM      2  H3  UNL     1     -22.086   3.471  -3.874  1.00  0.00     0.162 HD
HETATM    3  C4  UNL     1     -20.754   3.046  -2.289  1.00  0.00     0.237 C 
HETATM    4  O1  UNL     1     -19.873   2.264  -1.889  1.00  0.00    -0.272 OA
ENDROOT
BRANCH   3   5
HETATM    5  C5  UNL     1     -21.175   4.199  -1.475  1.00  0.00     0.191 C 
HETATM    6 CL1  UNL     1     -20.017   5.536  -1.645  1.00  0.00    -0.113 Cl
BRANCH   5   7
HETATM    7  C6  UNL     1     -21.358   3.812  -0.002  1.00  0.00     0.144 C 
BRANCH   7   8
HETATM    8  N4  UNL     1     -20.092   3.963   0.628  1.00  0.00    -0.415 N 
ATOM      9  H4  UNL     1     -19.226   3.675   0.172  1.00  0.00     0.153 HD
BRANCH   8  10
HETATM   10  C7  UNL     1     -20.098   4.535   1.924  1.00  0.00     0.076 C 
HETATM   11  C8  UNL     1     -20.001   6.021   1.989  1.00  0.00     0.026 C 
HETATM   12  C9  UNL     1     -20.849   6.568   3.130  1.00  0.00     0.022 C 
HETATM   13  C10 UNL     1     -20.587   5.794   4.396  1.00  0.00     0.082 C 
HETATM   14 CL2  UNL     1     -18.917   6.109   4.946  1.00  0.00    -0.125 Cl
HETATM   15  C11 UNL     1     -20.859   4.328   4.223  1.00  0.00     0.022 C 
HETATM   16  C12 UNL     1     -21.288   4.068   2.773  1.00  0.00     0.026 C 
ENDBRANCH   8  10
ENDBRANCH   7   8
ENDBRANCH   5   7
ENDBRANCH   3   5
BRANCH   1  17
HETATM   17  C3  UNL     1     -20.973   1.701  -4.372  1.00  0.00     0.124 C 
BRANCH  17  18
HETATM   18  C2  UNL     1     -21.994   0.586  -4.243  1.00  0.00     0.041 C 
BRANCH  18  19
HETATM   19  C1  UNL     1     -21.225  -0.679  -3.885  1.00  0.00     0.140 C 
BRANCH  19  20
HETATM   20  N2  UNL     1     -20.186  -0.363  -2.975  1.00  0.00    -0.343 N 
HETATM   21  N1  UNL     1     -19.968  -0.968  -1.918  1.00  0.00    -0.349 N 
ATOM     22  H12 UNL     1     -20.590  -1.747  -1.701  1.00  0.00     0.176 HD
ATOM     23  H11 UNL     1     -19.220  -0.739  -1.263  1.00  0.00     0.176 HD
ATOM     24  H2  UNL     1     -19.575   0.419  -3.208  1.00  0.00     0.179 HD
ENDBRANCH  19  20
ENDBRANCH  18  19
ENDBRANCH  17  18
ENDBRANCH   1  17
TORSDOF 8
ENDMDL
MODEL 3
REMARK VINA RESULT: -7.312597220      1.970      2.233
REMARK  8 active torsions:
REMARK  status: ('A' for Active; 'I' for Inactive)
REMARK    1  A    between atoms: N2_4  and  C1_6 
REMARK    2  A    between atoms: C1_6  and  C2_7 
REMARK    3  A    between atoms: C2_7  and  C3_8 
REMARK    4  A    between atoms: C3_8  and  N3_9 
REMARK       I    between atoms: N3_9  and  C4_11 
REMARK    5  A    between atoms: C4_11  and  C5_13 
REMARK    6  A    between atoms: C5_13  and  C6_15 
REMARK    7  A    between atoms: C6_15  and  N4_16 
REMARK    8  A    between atoms: N4_16  and  C7_18 
ROOT
HETATM    1  N3  UNL     1     -19.736   5.762  -1.392  1.00  0.00    -0.360 N 
ATOM      2  H3  UNL     1     -19.561   5.699  -0.390  1.00  0.00     0.162 HD
HETATM    3  C4  UNL     1     -20.538   4.786  -2.026  1.00  0.00     0.237 C 
HETATM    4  O1  UNL     1     -20.750   4.862  -3.249  1.00  0.00    -0.272 OA
ENDROOT
BRANCH   3   5
HETATM    5  C5  UNL     1     -21.109   3.693  -1.220  1.00  0.00     0.191 C 
HETATM    6 CL1  UNL     1     -22.554   3.027  -2.011  1.00  0.00    -0.113 Cl
BRANCH   5   7
HETATM    7  C6  UNL     1     -21.426   4.152   0.210  1.00  0.00     0.144 C 
BRANCH   7   8
HETATM    8  N4  UNL     1     -20.323   3.771   1.022  1.00  0.00    -0.415 N 
ATOM      9  H4  UNL     1     -19.637   3.083   0.710  1.00  0.00     0.153 HD
BRANCH   8  10
HETATM   10  C7  UNL     1     -20.228   4.399   2.288  1.00  0.00     0.076 C 
HETATM   11  C8  UNL     1     -20.117   5.885   2.281  1.00  0.00     0.026 C 
HETATM   12  C9  UNL     1     -20.875   6.488   3.458  1.00  0.00     0.022 C 
HETATM   13  C10 UNL     1     -20.521   5.767   4.733  1.00  0.00     0.082 C 
HETATM   14 CL2  UNL     1     -18.812   6.092   5.141  1.00  0.00    -0.125 Cl
HETATM   15  C11 UNL     1     -20.813   4.297   4.645  1.00  0.00     0.022 C 
HETATM   16  C12 UNL     1     -21.352   3.979   3.244  1.00  0.00     0.026 C 
ENDBRANCH   8  10
ENDBRANCH   7   8
ENDBRANCH   5   7
ENDBRANCH   3   5
BRANCH   1  17
HETATM   17  C3  UNL     1     -19.158   6.852  -2.158  1.00  0.00     0.124 C 
BRANCH  17  18
HETATM   18  C2  UNL     1     -18.435   7.812  -1.230  1.00  0.00     0.041 C 
BRANCH  18  19
HETATM   19  C1  UNL     1     -19.407   8.941  -0.916  1.00  0.00     0.140 C 
BRANCH  19  20
HETATM   20  N2  UNL     1     -19.680   8.962   0.474  1.00  0.00    -0.343 N 
HETATM   21  N1  UNL     1     -20.809   9.072   0.967  1.00  0.00    -0.349 N 
ATOM     22  H12 UNL     1     -21.587   9.152   0.313  1.00  0.00     0.176 HD
ATOM     23  H11 UNL     1     -21.005   9.088   1.968  1.00  0.00     0.176 HD
ATOM     24  H2  UNL     1     -18.889   8.881   1.112  1.00  0.00     0.179 HD
ENDBRANCH  19  20
ENDBRANCH  18  19
ENDBRANCH  17  18
ENDBRANCH   1  17
TORSDOF 8
ENDMDL
MODEL 4
REMARK VINA RESULT: -7.156295894      3.999      5.905
REMARK  8 active torsions:
REMARK  status: ('A' for Active; 'I' for Inactive)
REMARK    1  A    between atoms: N2_4  and  C1_6 
REMARK    2  A    between atoms: C1_6  and  C2_7 
REMARK    3  A    between atoms: C2_7  and  C3_8 
REMARK    4  A    between atoms: C3_8  and  N3_9 
REMARK       I    between atoms: N3_9  and  C4_11 
REMARK    5  A    between atoms: C4_11  and  C5_13 
REMARK    6  A    between atoms: C5_13  and  C6_15 
REMARK    7  A    between atoms: C6_15  and  N4_16 
REMARK    8  A    between atoms: N4_16  and  C7_18 
ROOT
HETATM    1  N3  UNL     1     -21.824   3.479  -3.304  1.00  0.00    -0.360 N 
ATOM      2  H3  UNL     1     -22.535   4.206  -3.380  1.00  0.00     0.162 HD
HETATM    3  C4  UNL     1     -20.997   3.424  -2.160  1.00  0.00     0.237 C 
HETATM    4  O1  UNL     1     -20.129   2.538  -2.068  1.00  0.00    -0.272 OA
ENDROOT
BRANCH   3   5
HETATM    5  C5  UNL     1     -21.181   4.423  -1.093  1.00  0.00     0.191 C 
HETATM    6 CL1  UNL     1     -19.903   5.655  -1.167  1.00  0.00    -0.113 Cl
BRANCH   5   7
HETATM    7  C6  UNL     1     -21.232   3.765   0.293  1.00  0.00     0.144 C 
BRANCH   7   8
HETATM    8  N4  UNL     1     -19.981   4.016   0.919  1.00  0.00    -0.415 N 
ATOM      9  H4  UNL     1     -19.096   3.809   0.456  1.00  0.00     0.153 HD
BRANCH   8  10
HETATM   10  C7  UNL     1     -20.029   4.572   2.222  1.00  0.00     0.076 C 
HETATM   11  C8  UNL     1     -19.940   6.057   2.309  1.00  0.00     0.026 C 
HETATM   12  C9  UNL     1     -20.827   6.586   3.430  1.00  0.00     0.022 C 
HETATM   13  C10 UNL     1     -20.600   5.796   4.693  1.00  0.00     0.082 C 
HETATM   14 CL2  UNL     1     -18.948   6.111   5.299  1.00  0.00    -0.125 Cl
HETATM   15  C11 UNL     1     -20.860   4.331   4.493  1.00  0.00     0.022 C 
HETATM   16  C12 UNL     1     -21.243   4.089   3.027  1.00  0.00     0.026 C 
ENDBRANCH   8  10
ENDBRANCH   7   8
ENDBRANCH   5   7
ENDBRANCH   3   5
BRANCH   1  17
HETATM   17  C3  UNL     1     -21.669   2.509  -4.373  1.00  0.00     0.124 C 
BRANCH  17  18
HETATM   18  C2  UNL     1     -22.985   1.793  -4.619  1.00  0.00     0.041 C 
BRANCH  18  19
HETATM   19  C1  UNL     1     -23.915   2.173  -3.474  1.00  0.00     0.140 C 
BRANCH  19  20
HETATM   20  N2  UNL     1     -24.341   1.003  -2.799  1.00  0.00    -0.343 N 
HETATM   21  N1  UNL     1     -24.157  -0.151  -3.207  1.00  0.00    -0.349 N 
ATOM     22  H12 UNL     1     -23.661  -0.249  -4.093  1.00  0.00     0.176 HD
ATOM     23  H11 UNL     1     -24.465  -0.993  -2.721  1.00  0.00     0.176 HD
ATOM     24  H2  UNL     1     -24.835   1.119  -1.915  1.00  0.00     0.179 HD
ENDBRANCH  19  20
ENDBRANCH  18  19
ENDBRANCH  17  18
ENDBRANCH   1  17
TORSDOF 8
ENDMDL
MODEL 5
REMARK VINA RESULT: -7.090179972      3.137      4.941
REMARK  8 active torsions:
REMARK  status: ('A' for Active; 'I' for Inactive)
REMARK    1  A    between atoms: N2_4  and  C1_6 
REMARK    2  A    between atoms: C1_6  and  C2_7 
REMARK    3  A    between atoms: C2_7  and  C3_8 
REMARK    4  A    between atoms: C3_8  and  N3_9 
REMARK       I    between atoms: N3_9  and  C4_11 
REMARK    5  A    between atoms: C4_11  and  C5_13 
REMARK    6  A    between atoms: C5_13  and  C6_15 
REMARK    7  A    between atoms: C6_15  and  N4_16 
REMARK    8  A    between atoms: N4_16  and  C7_18 
ROOT
HETATM    1  N3  UNL     1     -20.725   5.220  -0.657  1.00  0.00    -0.360 N 
ATOM      2  H3  UNL     1     -21.553   5.368  -0.080  1.00  0.00     0.162 HD
HETATM    3  C4  UNL     1     -19.762   6.246  -0.777  1.00  0.00     0.237 C 
HETATM    4  O1  UNL     1     -18.753   6.065  -1.482  1.00  0.00    -0.272 OA
ENDROOT
BRANCH   3   5
HETATM    5  C5  UNL     1     -19.973   7.516  -0.062  1.00  0.00     0.191 C 
HETATM    6 CL1  UNL     1     -19.167   8.851  -0.914  1.00  0.00    -0.113 Cl
BRANCH   5   7
HETATM    7  C6  UNL     1     -19.501   7.427   1.396  1.00  0.00     0.144 C 
BRANCH   7   8
HETATM    8  N4  UNL     1     -19.265   6.052   1.673  1.00  0.00    -0.415 N 
ATOM      9  H4  UNL     1     -18.784   5.445   1.009  1.00  0.00     0.153 HD
BRANCH   8  10
HETATM   10  C7  UNL     1     -19.733   5.573   2.921  1.00  0.00     0.076 C 
HETATM   11  C8  UNL     1     -20.014   6.605   3.960  1.00  0.00     0.026 C 
HETATM   12  C9  UNL     1     -21.228   6.213   4.794  1.00  0.00     0.022 C 
HETATM   13  C10 UNL     1     -21.114   4.780   5.244  1.00  0.00     0.082 C 
HETATM   14 CL2  UNL     1     -19.761   4.630   6.402  1.00  0.00    -0.125 Cl
HETATM   15  C11 UNL     1     -20.974   3.837   4.085  1.00  0.00     0.022 C 
HETATM   16  C12 UNL     1     -20.950   4.649   2.782  1.00  0.00     0.026 C 
ENDBRANCH   8  10
ENDBRANCH   7   8
ENDBRANCH   5   7
ENDBRANCH   3   5
BRANCH   1  17
HETATM   17  C3  UNL     1     -20.546   3.955  -1.349  1.00  0.00     0.124 C 
BRANCH  17  18
HETATM   18  C2  UNL     1     -21.228   4.005  -2.705  1.00  0.00     0.041 C 
BRANCH  18  19
HETATM   19  C1  UNL     1     -20.790   2.760  -3.466  1.00  0.00     0.140 C 
BRANCH  19  20
HETATM   20  N2  UNL     1     -20.206   1.834  -2.568  1.00  0.00    -0.343 N 
HETATM   21  N1  UNL     1     -20.105   0.619  -2.778  1.00  0.00    -0.349 N 
ATOM     22  H12 UNL     1     -20.473   0.277  -3.665  1.00  0.00     0.176 HD
ATOM     23  H11 UNL     1     -19.684  -0.048  -2.131  1.00  0.00     0.176 HD
ATOM     24  H2  UNL     1     -19.842   2.194  -1.686  1.00  0.00     0.179 HD
ENDBRANCH  19  20
ENDBRANCH  18  19
ENDBRANCH  17  18
ENDBRANCH   1  17
TORSDOF 8
ENDMDL
