MODEL 1
REMARK VINA RESULT: -6.938636166      0.000      0.000
REMARK  10 active torsions:
REMARK  status: ('A' for Active; 'I' for Inactive)
REMARK    1  A    between atoms: C2_2  and  C3_3 
REMARK    2  A    between atoms: C3_3  and  C4_4 
REMARK    3  A    between atoms: C4_4  and  C5_5 
REMARK    4  A    between atoms: C7_9  and  O3_10 
REMARK    5  A    between atoms: C7_9  and  C8_12 
REMARK    6  A    between atoms: C10_19  and  C11_20 
REMARK    7  A    between atoms: C11_20  and  C12_21 
REMARK    8  A    between atoms: C11_20  and  C14_27 
REMARK    9  A    between atoms: C12_21  and  C13_24 
REMARK   10  A    between atoms: C14_27  and  C15_30 
ROOT
HETATM    1  C4  UNL     1      65.238   9.979 -23.763  1.00  0.00     0.081 C 
HETATM    2  C6  UNL     1      65.319   8.449 -24.110  1.00  0.00     0.079 C 
HETATM    3  C7  UNL     1      64.840   8.274 -25.497  1.00  0.00     0.227 C 
HETATM    4  C9  UNL     1      64.143   9.551 -25.795  1.00  0.00     0.308 C 
HETATM    5  F4  UNL     1      64.746  10.294 -26.746  1.00  0.00    -0.197 F 
HETATM    6  F5  UNL     1      62.904   9.214 -26.286  1.00  0.00    -0.197 F 
HETATM    7  C10 UNL     1      64.017  10.313 -24.410  1.00  0.00     0.029 C 
ENDROOT
BRANCH   7   8
HETATM    8  C11 UNL     1      63.163  11.484 -24.528  1.00  0.00     0.087 C 
BRANCH   8   9
HETATM    9  C12 UNL     1      63.530  12.889 -24.483  1.00  0.00     0.331 C 
HETATM   10  F6  UNL     1      62.500  13.765 -24.954  1.00  0.00    -0.195 F 
HETATM   11  F7  UNL     1      64.411  13.200 -25.617  1.00  0.00    -0.195 F 
BRANCH   9  12
HETATM   12  C13 UNL     1      64.129  13.689 -23.434  1.00  0.00     0.429 C 
HETATM   13  F8  UNL     1      63.021  14.111 -22.578  1.00  0.00    -0.207 F 
HETATM   14  F9  UNL     1      64.605  14.951 -23.700  1.00  0.00    -0.207 F 
ENDBRANCH   9  12
ENDBRANCH   8   9
BRANCH   8  15
HETATM   15  C14 UNL     1      61.740  11.248 -23.976  1.00  0.00     0.353 C 
HETATM   16  F10 UNL     1      61.287   9.984 -24.064  1.00  0.00    -0.190 F 
HETATM   17  F11 UNL     1      61.700  11.612 -22.624  1.00  0.00    -0.190 F 
BRANCH  15  18
HETATM   18  C15 UNL     1      60.661  12.133 -24.539  1.00  0.00     0.320 C 
HETATM   19  F12 UNL     1      59.897  11.556 -25.525  1.00  0.00    -0.171 F 
HETATM   20  F13 UNL     1      60.014  12.965 -23.679  1.00  0.00    -0.171 F 
ENDBRANCH  15  18
ENDBRANCH   8  15
ENDBRANCH   7   8
BRANCH   1  21
HETATM   21  C3  UNL     1      65.205   9.840 -22.212  1.00  0.00     0.025 C 
BRANCH  21  22
HETATM   22  C2  UNL     1      65.371  11.238 -21.585  1.00  0.00    -0.003 C 
HETATM   23  C1  UNL     1      64.245  11.299 -20.531  1.00  0.00     0.005 C 
ENDBRANCH  21  22
ENDBRANCH   1  21
BRANCH   1  24
HETATM   24  C5  UNL     1      66.565  10.448 -24.002  1.00  0.00     0.186 C 
HETATM   25  O1  UNL     1      66.917  11.528 -24.547  1.00  0.00    -0.647 OA
HETATM   26  O2  UNL     1      67.656   9.645 -23.598  1.00  0.00    -0.647 OA
ENDBRANCH   1  24
BRANCH   3  27
HETATM   27  O3  UNL     1      65.857   7.968 -26.405  1.00  0.00    -0.376 OA
ATOM     28  H3  UNL     1      65.643   8.189 -27.305  1.00  0.00     0.211 HD
ENDBRANCH   3  27
BRANCH   3  29
HETATM   29  C8  UNL     1      63.940   7.045 -25.551  1.00  0.00     0.424 C 
HETATM   30  F1  UNL     1      64.700   5.986 -25.082  1.00  0.00    -0.168 F 
HETATM   31  F2  UNL     1      62.910   7.288 -24.662  1.00  0.00    -0.168 F 
HETATM   32  F3  UNL     1      63.448   6.770 -26.784  1.00  0.00    -0.168 F 
ENDBRANCH   3  29
TORSDOF 10
ENDMDL
MODEL 2
REMARK VINA RESULT: -6.887714600      1.378      2.477
REMARK  10 active torsions:
REMARK  status: ('A' for Active; 'I' for Inactive)
REMARK    1  A    between atoms: C2_2  and  C3_3 
REMARK    2  A    between atoms: C3_3  and  C4_4 
REMARK    3  A    between atoms: C4_4  and  C5_5 
REMARK    4  A    between atoms: C7_9  and  O3_10 
REMARK    5  A    between atoms: C7_9  and  C8_12 
REMARK    6  A    between atoms: C10_19  and  C11_20 
REMARK    7  A    between atoms: C11_20  and  C12_21 
REMARK    8  A    between atoms: C11_20  and  C14_27 
REMARK    9  A    between atoms: C12_21  and  C13_24 
REMARK   10  A    between atoms: C14_27  and  C15_30 
ROOT
HETATM    1  C4  UNL     1      65.993   9.716 -23.816  1.00  0.00     0.081 C 
HETATM    2  C6  UNL     1      65.519   8.220 -23.854  1.00  0.00     0.079 C 
HETATM    3  C7  UNL     1      65.027   7.936 -25.218  1.00  0.00     0.227 C 
HETATM    4  C9  UNL     1      64.844   9.283 -25.816  1.00  0.00     0.308 C 
HETATM    5  F4  UNL     1      65.688   9.546 -26.835  1.00  0.00    -0.197 F 
HETATM    6  F5  UNL     1      63.573   9.308 -26.341  1.00  0.00    -0.197 F 
HETATM    7  C10 UNL     1      64.986  10.313 -24.621  1.00  0.00     0.029 C 
ENDROOT
BRANCH   7   8
HETATM    8  C11 UNL     1      64.616  11.657 -25.036  1.00  0.00     0.087 C 
BRANCH   8   9
HETATM    9  C12 UNL     1      65.444  12.684 -25.646  1.00  0.00     0.331 C 
HETATM   10  F6  UNL     1      66.460  13.193 -24.775  1.00  0.00    -0.195 F 
HETATM   11  F7  UNL     1      64.714  13.959 -25.656  1.00  0.00    -0.195 F 
BRANCH   9  12
HETATM   12  C13 UNL     1      66.115  12.736 -26.929  1.00  0.00     0.429 C 
HETATM   13  F8  UNL     1      66.111  14.144 -27.321  1.00  0.00    -0.207 F 
HETATM   14  F9  UNL     1      65.498  12.260 -28.063  1.00  0.00    -0.207 F 
ENDBRANCH   9  12
ENDBRANCH   8   9
BRANCH   8  15
HETATM   15  C14 UNL     1      63.496  12.270 -24.166  1.00  0.00     0.353 C 
HETATM   16  F10 UNL     1      63.891  13.222 -23.302  1.00  0.00    -0.190 F 
HETATM   17  F11 UNL     1      62.523  12.838 -24.997  1.00  0.00    -0.190 F 
BRANCH  15  18
HETATM   18  C15 UNL     1      62.664  11.293 -23.382  1.00  0.00     0.320 C 
HETATM   19  F12 UNL     1      62.315  11.714 -22.121  1.00  0.00    -0.171 F 
HETATM   20  F13 UNL     1      61.733  10.570 -24.060  1.00  0.00    -0.171 F 
ENDBRANCH  15  18
ENDBRANCH   8  15
ENDBRANCH   7   8
BRANCH   1  21
HETATM   21  C3  UNL     1      65.892   9.928 -22.276  1.00  0.00     0.025 C 
BRANCH  21  22
HETATM   22  C2  UNL     1      66.360  11.359 -21.941  1.00  0.00    -0.003 C 
HETATM   23  C1  UNL     1      65.447  11.773 -20.767  1.00  0.00     0.005 C 
ENDBRANCH  21  22
ENDBRANCH   1  21
BRANCH   1  24
HETATM   24  C5  UNL     1      67.403   9.626 -24.022  1.00  0.00     0.186 C 
HETATM   25  O1  UNL     1      68.124  10.344 -24.765  1.00  0.00    -0.647 OA
HETATM   26  O2  UNL     1      68.131   8.628 -23.335  1.00  0.00    -0.647 OA
ENDBRANCH   1  24
BRANCH   3  27
HETATM   27  O3  UNL     1      65.875   7.106 -25.957  1.00  0.00    -0.376 OA
ATOM     28  H3  UNL     1      66.333   7.558 -26.657  1.00  0.00     0.211 HD
ENDBRANCH   3  27
BRANCH   3  29
HETATM   29  C8  UNL     1      63.742   7.121 -25.115  1.00  0.00     0.424 C 
HETATM   30  F1  UNL     1      63.468   6.663 -26.394  1.00  0.00    -0.168 F 
HETATM   31  F2  UNL     1      64.040   6.041 -24.305  1.00  0.00    -0.168 F 
HETATM   32  F3  UNL     1      62.685   7.809 -24.618  1.00  0.00    -0.168 F 
ENDBRANCH   3  29
TORSDOF 10
ENDMDL
MODEL 3
REMARK VINA RESULT: -6.885157920      2.542      5.507
REMARK  10 active torsions:
REMARK  status: ('A' for Active; 'I' for Inactive)
REMARK    1  A    between atoms: C2_2  and  C3_3 
REMARK    2  A    between atoms: C3_3  and  C4_4 
REMARK    3  A    between atoms: C4_4  and  C5_5 
REMARK    4  A    between atoms: C7_9  and  O3_10 
REMARK    5  A    between atoms: C7_9  and  C8_12 
REMARK    6  A    between atoms: C10_19  and  C11_20 
REMARK    7  A    between atoms: C11_20  and  C12_21 
REMARK    8  A    between atoms: C11_20  and  C14_27 
REMARK    9  A    between atoms: C12_21  and  C13_24 
REMARK   10  A    between atoms: C14_27  and  C15_30 
ROOT
HETATM    1  C4  UNL     1      67.238   9.061 -25.179  1.00  0.00     0.081 C 
HETATM    2  C6  UNL     1      68.082   9.988 -24.233  1.00  0.00     0.079 C 
HETATM    3  C7  UNL     1      67.801   9.587 -22.839  1.00  0.00     0.227 C 
HETATM    4  C9  UNL     1      66.571   8.763 -22.949  1.00  0.00     0.308 C 
HETATM    5  F4  UNL     1      66.755   7.462 -22.639  1.00  0.00    -0.197 F 
HETATM    6  F5  UNL     1      65.681   9.264 -22.028  1.00  0.00    -0.197 F 
HETATM    7  C10 UNL     1      66.036   8.971 -24.427  1.00  0.00     0.029 C 
ENDROOT
BRANCH   7   8
HETATM    8  C11 UNL     1      64.717   8.384 -24.598  1.00  0.00     0.087 C 
BRANCH   8   9
HETATM    9  C12 UNL     1      64.360   7.085 -25.142  1.00  0.00     0.331 C 
HETATM   10  F6  UNL     1      62.966   6.779 -25.025  1.00  0.00    -0.195 F 
HETATM   11  F7  UNL     1      64.744   6.034 -24.190  1.00  0.00    -0.195 F 
BRANCH   9  12
HETATM   12  C13 UNL     1      64.687   6.453 -26.404  1.00  0.00     0.429 C 
HETATM   13  F8  UNL     1      63.429   6.375 -27.144  1.00  0.00    -0.207 F 
HETATM   14  F9  UNL     1      64.982   5.111 -26.462  1.00  0.00    -0.207 F 
ENDBRANCH   9  12
ENDBRANCH   8   9
BRANCH   8  15
HETATM   15  C14 UNL     1      63.620   9.438 -24.872  1.00  0.00     0.353 C 
HETATM   16  F10 UNL     1      63.368   9.686 -26.169  1.00  0.00    -0.190 F 
HETATM   17  F11 UNL     1      62.420   9.019 -24.286  1.00  0.00    -0.190 F 
BRANCH  15  18
HETATM   18  C15 UNL     1      63.811  10.773 -24.206  1.00  0.00     0.320 C 
HETATM   19  F12 UNL     1      63.454  11.857 -24.972  1.00  0.00    -0.171 F 
HETATM   20  F13 UNL     1      63.546  10.858 -22.874  1.00  0.00    -0.171 F 
ENDBRANCH  15  18
ENDBRANCH   8  15
ENDBRANCH   7   8
BRANCH   1  21
HETATM   21  C3  UNL     1      67.228   9.991 -26.428  1.00  0.00     0.025 C 
BRANCH  21  22
HETATM   22  C2  UNL     1      66.812  11.409 -25.988  1.00  0.00    -0.003 C 
HETATM   23  C1  UNL     1      65.919  11.901 -27.146  1.00  0.00     0.005 C 
ENDBRANCH  21  22
ENDBRANCH   1  21
BRANCH   1  24
HETATM   24  C5  UNL     1      68.163   8.042 -25.562  1.00  0.00     0.186 C 
HETATM   25  O1  UNL     1      69.190   7.657 -24.942  1.00  0.00    -0.647 OA
HETATM   26  O2  UNL     1      67.950   7.349 -26.775  1.00  0.00    -0.647 OA
ENDBRANCH   1  24
BRANCH   3  27
HETATM   27  O3  UNL     1      68.865   8.924 -22.221  1.00  0.00    -0.376 OA
ATOM     28  H3  UNL     1      68.775   7.978 -22.223  1.00  0.00     0.211 HD
ENDBRANCH   3  27
BRANCH   3  29
HETATM   29  C8  UNL     1      67.634  10.845 -21.993  1.00  0.00     0.424 C 
HETATM   30  F1  UNL     1      68.875  11.461 -21.964  1.00  0.00    -0.168 F 
HETATM   31  F2  UNL     1      66.748  11.652 -22.682  1.00  0.00    -0.168 F 
HETATM   32  F3  UNL     1      67.186  10.614 -20.735  1.00  0.00    -0.168 F 
ENDBRANCH   3  29
TORSDOF 10
ENDMDL
MODEL 4
REMARK VINA RESULT: -6.840314179      2.421      5.401
REMARK  10 active torsions:
REMARK  status: ('A' for Active; 'I' for Inactive)
REMARK    1  A    between atoms: C2_2  and  C3_3 
REMARK    2  A    between atoms: C3_3  and  C4_4 
REMARK    3  A    between atoms: C4_4  and  C5_5 
REMARK    4  A    between atoms: C7_9  and  O3_10 
REMARK    5  A    between atoms: C7_9  and  C8_12 
REMARK    6  A    between atoms: C10_19  and  C11_20 
REMARK    7  A    between atoms: C11_20  and  C12_21 
REMARK    8  A    between atoms: C11_20  and  C14_27 
REMARK    9  A    between atoms: C12_21  and  C13_24 
REMARK   10  A    between atoms: C14_27  and  C15_30 
ROOT
HETATM    1  C4  UNL     1      63.534  12.108 -24.064  1.00  0.00     0.081 C 
HETATM    2  C6  UNL     1      63.249  12.734 -22.653  1.00  0.00     0.079 C 
HETATM    3  C7  UNL     1      64.309  12.274 -21.732  1.00  0.00     0.227 C 
HETATM    4  C9  UNL     1      64.933  11.134 -22.451  1.00  0.00     0.308 C 
HETATM    5  F4  UNL     1      66.208  11.359 -22.830  1.00  0.00    -0.197 F 
HETATM    6  F5  UNL     1      64.964  10.083 -21.565  1.00  0.00    -0.197 F 
HETATM    7  C10 UNL     1      63.977  10.816 -23.675  1.00  0.00     0.029 C 
ENDROOT
BRANCH   7   8
HETATM    8  C11 UNL     1      64.364   9.581 -24.339  1.00  0.00     0.087 C 
BRANCH   8   9
HETATM    9  C12 UNL     1      65.619   9.249 -24.992  1.00  0.00     0.331 C 
HETATM   10  F6  UNL     1      66.369  10.396 -25.407  1.00  0.00    -0.195 F 
HETATM   11  F7  UNL     1      65.354   8.833 -26.376  1.00  0.00    -0.195 F 
BRANCH   9  12
HETATM   12  C13 UNL     1      66.678   8.333 -24.621  1.00  0.00     0.429 C 
HETATM   13  F8  UNL     1      66.184   7.612 -23.449  1.00  0.00    -0.207 F 
HETATM   14  F9  UNL     1      67.835   8.796 -24.039  1.00  0.00    -0.207 F 
ENDBRANCH   9  12
ENDBRANCH   8   9
BRANCH   8  15
HETATM   15  C14 UNL     1      63.170   8.850 -24.993  1.00  0.00     0.353 C 
HETATM   16  F10 UNL     1      62.029   8.854 -24.281  1.00  0.00    -0.190 F 
HETATM   17  F11 UNL     1      62.890   9.438 -26.233  1.00  0.00    -0.190 F 
BRANCH  15  18
HETATM   18  C15 UNL     1      63.417   7.424 -25.405  1.00  0.00     0.320 C 
HETATM   19  F12 UNL     1      63.439   6.520 -24.370  1.00  0.00    -0.171 F 
HETATM   20  F13 UNL     1      62.861   6.999 -26.571  1.00  0.00    -0.171 F 
ENDBRANCH  15  18
ENDBRANCH   8  15
ENDBRANCH   7   8
BRANCH   1  21
HETATM   21  C3  UNL     1      62.091  12.222 -24.639  1.00  0.00     0.025 C 
BRANCH  21  22
HETATM   22  C2  UNL     1      61.083  11.913 -23.514  1.00  0.00    -0.003 C 
HETATM   23  C1  UNL     1      59.861  11.345 -24.267  1.00  0.00     0.005 C 
ENDBRANCH  21  22
ENDBRANCH   1  21
BRANCH   1  24
HETATM   24  C5  UNL     1      64.224  13.148 -24.759  1.00  0.00     0.186 C 
HETATM   25  O1  UNL     1      64.828  13.073 -25.862  1.00  0.00    -0.647 OA
HETATM   26  O2  UNL     1      64.266  14.440 -24.186  1.00  0.00    -0.647 OA
ENDBRANCH   1  24
BRANCH   3  27
HETATM   27  O3  UNL     1      65.218  13.275 -21.379  1.00  0.00    -0.376 OA
ATOM     28  H3  UNL     1      65.090  13.612 -20.499  1.00  0.00     0.211 HD
ENDBRANCH   3  27
BRANCH   3  29
HETATM   29  C8  UNL     1      63.670  11.895 -20.400  1.00  0.00     0.424 C 
HETATM   30  F1  UNL     1      63.429  13.086 -19.733  1.00  0.00    -0.168 F 
HETATM   31  F2  UNL     1      62.461  11.303 -20.713  1.00  0.00    -0.168 F 
HETATM   32  F3  UNL     1      64.422  11.065 -19.638  1.00  0.00    -0.168 F 
ENDBRANCH   3  29
TORSDOF 10
ENDMDL
MODEL 5
REMARK VINA RESULT: -6.834467691      3.441      6.429
REMARK  10 active torsions:
REMARK  status: ('A' for Active; 'I' for Inactive)
REMARK    1  A    between atoms: C2_2  and  C3_3 
REMARK    2  A    between atoms: C3_3  and  C4_4 
REMARK    3  A    between atoms: C4_4  and  C5_5 
REMARK    4  A    between atoms: C7_9  and  O3_10 
REMARK    5  A    between atoms: C7_9  and  C8_12 
REMARK    6  A    between atoms: C10_19  and  C11_20 
REMARK    7  A    between atoms: C11_20  and  C12_21 
REMARK    8  A    between atoms: C11_20  and  C14_27 
REMARK    9  A    between atoms: C12_21  and  C13_24 
REMARK   10  A    between atoms: C14_27  and  C15_30 
ROOT
HETATM    1  C4  UNL     1      63.445  12.809 -23.245  1.00  0.00     0.081 C 
HETATM    2  C6  UNL     1      62.623  14.073 -23.684  1.00  0.00     0.079 C 
HETATM    3  C7  UNL     1      63.475  15.262 -23.473  1.00  0.00     0.227 C 
HETATM    4  C9  UNL     1      64.562  14.767 -22.591  1.00  0.00     0.308 C 
HETATM    5  F4  UNL     1      65.778  14.756 -23.176  1.00  0.00    -0.197 F 
HETATM    6  F5  UNL     1      64.640  15.647 -21.537  1.00  0.00    -0.197 F 
HETATM    7  C10 UNL     1      64.105  13.331 -22.100  1.00  0.00     0.029 C 
ENDROOT
BRANCH   7   8
HETATM    8  C11 UNL     1      64.985  12.825 -21.059  1.00  0.00     0.087 C 
BRANCH   8   9
HETATM    9  C12 UNL     1      66.102  11.903 -21.176  1.00  0.00     0.331 C 
HETATM   10  F6  UNL     1      66.920  11.842 -20.003  1.00  0.00    -0.195 F 
HETATM   11  F7  UNL     1      67.168  12.525 -21.974  1.00  0.00    -0.195 F 
BRANCH   9  12
HETATM   12  C13 UNL     1      66.167  10.532 -21.642  1.00  0.00     0.429 C 
HETATM   13  F8  UNL     1      64.778  10.098 -21.785  1.00  0.00    -0.207 F 
HETATM   14  F9  UNL     1      66.557   9.521 -20.795  1.00  0.00    -0.207 F 
ENDBRANCH   9  12
ENDBRANCH   8   9
BRANCH   8  15
HETATM   15  C14 UNL     1      64.286  12.702 -19.687  1.00  0.00     0.353 C 
HETATM   16  F10 UNL     1      65.043  13.019 -18.621  1.00  0.00    -0.190 F 
HETATM   17  F11 UNL     1      63.162  13.536 -19.663  1.00  0.00    -0.190 F 
BRANCH  15  18
HETATM   18  C15 UNL     1      63.656  11.369 -19.387  1.00  0.00     0.320 C 
HETATM   19  F12 UNL     1      64.437  10.515 -18.645  1.00  0.00    -0.171 F 
HETATM   20  F13 UNL     1      62.320  11.345 -19.133  1.00  0.00    -0.171 F 
ENDBRANCH  15  18
ENDBRANCH   8  15
ENDBRANCH   7   8
BRANCH   1  21
HETATM   21  C3  UNL     1      62.241  11.852 -22.998  1.00  0.00     0.025 C 
BRANCH  21  22
HETATM   22  C2  UNL     1      61.028  12.364 -23.799  1.00  0.00    -0.003 C 
HETATM   23  C1  UNL     1      60.443  11.082 -24.429  1.00  0.00     0.005 C 
ENDBRANCH  21  22
ENDBRANCH   1  21
BRANCH   1  24
HETATM   24  C5  UNL     1      63.982  12.316 -24.473  1.00  0.00     0.186 C 
HETATM   25  O1  UNL     1      64.345  12.980 -25.481  1.00  0.00    -0.647 OA
HETATM   26  O2  UNL     1      64.150  10.922 -24.633  1.00  0.00    -0.647 OA
ENDBRANCH   1  24
BRANCH   3  27
HETATM   27  O3  UNL     1      63.937  15.837 -24.661  1.00  0.00    -0.376 OA
ATOM     28  H3  UNL     1      63.241  16.123 -25.241  1.00  0.00     0.211 HD
ENDBRANCH   3  27
BRANCH   3  29
HETATM   29  C8  UNL     1      62.627  16.368 -22.856  1.00  0.00     0.424 C 
HETATM   30  F1  UNL     1      63.339  17.545 -23.026  1.00  0.00    -0.168 F 
HETATM   31  F2  UNL     1      61.471  16.430 -23.612  1.00  0.00    -0.168 F 
HETATM   32  F3  UNL     1      62.328  16.176 -21.548  1.00  0.00    -0.168 F 
ENDBRANCH   3  29
TORSDOF 10
ENDMDL
