MODEL 1
REMARK VINA RESULT: -6.278956057      0.000      0.000
REMARK  10 active torsions:
REMARK  status: ('A' for Active; 'I' for Inactive)
REMARK    1  A    between atoms: C3_3  and  N1_4 
REMARK    2  A    between atoms: N1_4  and  C4_6 
REMARK    3  A    between atoms: C5_9  and  N3_10 
REMARK    4  A    between atoms: N3_10  and  C6_12 
REMARK    5  A    between atoms: C6_12  and  C7_13 
REMARK    6  A    between atoms: C7_13  and  N4_14 
REMARK    7  A    between atoms: C8_20  and  N6_21 
REMARK    8  A    between atoms: N6_21  and  C9_23 
REMARK    9  A    between atoms: C9_23  and  C10_24 
REMARK   10  A    between atoms: C10_24  and  C11_25 
ROOT
HETATM    1  C1  UNL     1     -86.733 -48.281 110.078  1.00  0.00     0.014 C 
HETATM    2  C2  UNL     1     -86.034 -48.176 109.098  1.00  0.00    -0.097 C 
HETATM    3  C3  UNL     1     -85.182 -48.023 107.917  1.00  0.00     0.231 C 
ENDROOT
BRANCH   3   4
HETATM    4  N1  UNL     1     -83.774 -48.076 108.284  1.00  0.00    -0.215 N 
ATOM      5  H1  UNL     1     -83.124 -48.539 107.648  1.00  0.00     0.178 HD
BRANCH   4   6
HETATM    6  C4  UNL     1     -83.314 -47.575 109.359  1.00  0.00     0.708 A 
HETATM    7  N2  UNL     1     -83.045 -48.376 110.399  1.00  0.00    -0.021 N 
HETATM    8  C5  UNL     1     -82.561 -47.853 111.532  1.00  0.00     0.707 A 
ATOM      9  H2  UNL     1     -83.208 -49.380 110.327  1.00  0.00     0.203 HD
HETATM   10  N5  UNL     1     -82.354 -46.534 111.609  1.00  0.00    -0.022 N 
HETATM   11  C8  UNL     1     -82.620 -45.716 110.574  1.00  0.00     0.707 A 
ATOM     12  H5  UNL     1     -81.985 -46.138 112.474  1.00  0.00     0.203 HD
HETATM   13  N7  UNL     1     -83.109 -46.252 109.429  1.00  0.00    -0.021 N 
ATOM     14  H7  UNL     1     -83.319 -45.655 108.628  1.00  0.00     0.203 HD
BRANCH   8  15
HETATM   15  N3  UNL     1     -82.289 -48.590 112.560  1.00  0.00    -0.223 N 
ATOM     16  H3  UNL     1     -81.324 -48.836 112.781  1.00  0.00     0.177 HD
BRANCH  15  17
HETATM   17  C6  UNL     1     -83.369 -49.057 113.384  1.00  0.00     0.165 C 
BRANCH  17  18
HETATM   18  C7  UNL     1     -82.777 -49.869 114.515  1.00  0.00     0.249 C 
BRANCH  18  19
HETATM   19  N4  UNL     1     -83.309 -51.219 114.383  1.00  0.00    -0.078 N 
ATOM     20  H43 UNL     1     -84.124 -51.390 114.972  1.00  0.00     0.274 HD
ATOM     21  H42 UNL     1     -83.763 -51.387 113.486  1.00  0.00     0.274 HD
ATOM     22  H41 UNL     1     -82.537 -51.858 114.570  1.00  0.00     0.274 HD
ENDBRANCH  18  19
ENDBRANCH  17  18
ENDBRANCH  15  17
ENDBRANCH   8  15
BRANCH  11  23
HETATM   23  N6  UNL     1     -82.418 -44.457 110.655  1.00  0.00    -0.225 N 
ATOM     24  H6  UNL     1     -82.835 -43.939 111.428  1.00  0.00     0.177 HD
BRANCH  23  25
HETATM   25  C9  UNL     1     -81.617 -43.743 109.685  1.00  0.00     0.142 C 
BRANCH  25  26
HETATM   26  C10 UNL     1     -80.245 -44.324 109.662  1.00  0.00     0.046 C 
BRANCH  26  27
HETATM   27  C11 UNL     1     -79.518 -43.911 108.455  1.00  0.00    -0.035 C 
HETATM   28  C12 UNL     1     -78.284 -44.156 108.144  1.00  0.00     0.007 C 
ENDBRANCH  26  27
ENDBRANCH  25  26
ENDBRANCH  23  25
ENDBRANCH  11  23
ENDBRANCH   4   6
ENDBRANCH   3   4
TORSDOF 10
ENDMDL
MODEL 2
REMARK VINA RESULT: -5.953362777      0.463      4.994
REMARK  10 active torsions:
REMARK  status: ('A' for Active; 'I' for Inactive)
REMARK    1  A    between atoms: C3_3  and  N1_4 
REMARK    2  A    between atoms: N1_4  and  C4_6 
REMARK    3  A    between atoms: C5_9  and  N3_10 
REMARK    4  A    between atoms: N3_10  and  C6_12 
REMARK    5  A    between atoms: C6_12  and  C7_13 
REMARK    6  A    between atoms: C7_13  and  N4_14 
REMARK    7  A    between atoms: C8_20  and  N6_21 
REMARK    8  A    between atoms: N6_21  and  C9_23 
REMARK    9  A    between atoms: C9_23  and  C10_24 
REMARK   10  A    between atoms: C10_24  and  C11_25 
ROOT
HETATM    1  C1  UNL     1     -78.953 -44.193 108.768  1.00  0.00     0.014 C 
HETATM    2  C2  UNL     1     -80.088 -44.014 109.144  1.00  0.00    -0.097 C 
HETATM    3  C3  UNL     1     -81.469 -43.821 109.588  1.00  0.00     0.231 C 
ENDROOT
BRANCH   3   4
HETATM    4  N1  UNL     1     -81.759 -44.647 110.752  1.00  0.00    -0.215 N 
ATOM      5  H1  UNL     1     -81.649 -44.235 111.679  1.00  0.00     0.178 HD
BRANCH   4   6
HETATM    6  C4  UNL     1     -82.143 -45.857 110.670  1.00  0.00     0.708 A 
HETATM    7  N2  UNL     1     -81.964 -46.679 111.713  1.00  0.00    -0.021 N 
HETATM    8  C5  UNL     1     -82.366 -47.953 111.631  1.00  0.00     0.707 A 
ATOM      9  H2  UNL     1     -81.523 -46.335 112.566  1.00  0.00     0.203 HD
HETATM   10  N5  UNL     1     -82.942 -48.387 110.505  1.00  0.00    -0.022 N 
HETATM   11  C8  UNL     1     -83.128 -47.575 109.449  1.00  0.00     0.707 A 
ATOM     12  H5  UNL     1     -83.248 -49.358 110.446  1.00  0.00     0.203 HD
HETATM   13  N7  UNL     1     -82.720 -46.285 109.538  1.00  0.00    -0.021 N 
ATOM     14  H7  UNL     1     -82.849 -45.647 108.753  1.00  0.00     0.203 HD
BRANCH   8  15
HETATM   15  N3  UNL     1     -82.211 -48.780 112.614  1.00  0.00    -0.223 N 
ATOM     16  H3  UNL     1     -81.288 -49.155 112.836  1.00  0.00     0.177 HD
BRANCH  15  17
HETATM   17  C6  UNL     1     -83.359 -49.160 113.388  1.00  0.00     0.165 C 
BRANCH  17  18
HETATM   18  C7  UNL     1     -82.874 -49.914 114.607  1.00  0.00     0.249 C 
BRANCH  18  19
HETATM   19  N4  UNL     1     -83.282 -51.301 114.431  1.00  0.00    -0.078 N 
ATOM     20  H43 UNL     1     -84.051 -51.575 115.042  1.00  0.00     0.274 HD
ATOM     21  H42 UNL     1     -83.757 -51.472 113.545  1.00  0.00     0.274 HD
ATOM     22  H41 UNL     1     -82.446 -51.871 114.556  1.00  0.00     0.274 HD
ENDBRANCH  18  19
ENDBRANCH  17  18
ENDBRANCH  15  17
ENDBRANCH   8  15
BRANCH  11  23
HETATM   23  N6  UNL     1     -83.681 -47.997 108.376  1.00  0.00    -0.225 N 
ATOM     24  H6  UNL     1     -83.141 -48.586 107.743  1.00  0.00     0.177 HD
BRANCH  23  25
HETATM   25  C9  UNL     1     -85.047 -47.667 108.034  1.00  0.00     0.142 C 
BRANCH  25  26
HETATM   26  C10 UNL     1     -85.966 -48.618 108.720  1.00  0.00     0.046 C 
BRANCH  26  27
HETATM   27  C11 UNL     1     -86.582 -47.997 109.900  1.00  0.00    -0.035 C 
HETATM   28  C12 UNL     1     -86.487 -48.367 111.139  1.00  0.00     0.007 C 
ENDBRANCH  26  27
ENDBRANCH  25  26
ENDBRANCH  23  25
ENDBRANCH  11  23
ENDBRANCH   4   6
ENDBRANCH   3   4
TORSDOF 10
ENDMDL
MODEL 3
REMARK VINA RESULT: -5.800226614      1.234      6.009
REMARK  10 active torsions:
REMARK  status: ('A' for Active; 'I' for Inactive)
REMARK    1  A    between atoms: C3_3  and  N1_4 
REMARK    2  A    between atoms: N1_4  and  C4_6 
REMARK    3  A    between atoms: C5_9  and  N3_10 
REMARK    4  A    between atoms: N3_10  and  C6_12 
REMARK    5  A    between atoms: C6_12  and  C7_13 
REMARK    6  A    between atoms: C7_13  and  N4_14 
REMARK    7  A    between atoms: C8_20  and  N6_21 
REMARK    8  A    between atoms: N6_21  and  C9_23 
REMARK    9  A    between atoms: C9_23  and  C10_24 
REMARK   10  A    between atoms: C10_24  and  C11_25 
ROOT
HETATM    1  C1  UNL     1     -82.927 -50.673 115.254  1.00  0.00     0.014 C 
HETATM    2  C2  UNL     1     -83.167 -49.885 114.368  1.00  0.00    -0.097 C 
HETATM    3  C3  UNL     1     -83.447 -48.912 113.311  1.00  0.00     0.231 C 
ENDROOT
BRANCH   3   4
HETATM    4  N1  UNL     1     -82.241 -48.616 112.548  1.00  0.00    -0.215 N 
ATOM      5  H1  UNL     1     -81.349 -48.972 112.894  1.00  0.00     0.178 HD
BRANCH   4   6
HETATM    6  C4  UNL     1     -82.246 -47.936 111.473  1.00  0.00     0.708 A 
HETATM    7  N2  UNL     1     -81.566 -46.782 111.420  1.00  0.00    -0.021 N 
HETATM    8  C5  UNL     1     -81.568 -46.062 110.291  1.00  0.00     0.707 A 
ATOM      9  H2  UNL     1     -81.050 -46.453 112.235  1.00  0.00     0.203 HD
HETATM   10  N5  UNL     1     -82.251 -46.508 109.231  1.00  0.00    -0.022 N 
HETATM   11  C8  UNL     1     -82.938 -47.664 109.270  1.00  0.00     0.707 A 
ATOM     12  H5  UNL     1     -82.250 -45.958 108.372  1.00  0.00     0.203 HD
HETATM   13  N7  UNL     1     -82.932 -48.389 110.415  1.00  0.00    -0.021 N 
ATOM     14  H7  UNL     1     -83.445 -49.269 110.472  1.00  0.00     0.203 HD
BRANCH   8  15
HETATM   15  N3  UNL     1     -80.926 -44.943 110.197  1.00  0.00    -0.223 N 
ATOM     16  H3  UNL     1     -79.964 -44.867 110.529  1.00  0.00     0.177 HD
BRANCH  15  17
HETATM   17  C6  UNL     1     -81.590 -43.809 109.617  1.00  0.00     0.165 C 
BRANCH  17  18
HETATM   18  C7  UNL     1     -80.649 -43.177 108.615  1.00  0.00     0.249 C 
BRANCH  18  19
HETATM   19  N4  UNL     1     -79.300 -43.559 109.010  1.00  0.00    -0.078 N 
ATOM     20  H43 UNL     1     -79.200 -44.559 109.186  1.00  0.00     0.274 HD
ATOM     21  H42 UNL     1     -78.623 -43.495 108.250  1.00  0.00     0.274 HD
ATOM     22  H41 UNL     1     -79.057 -42.983 109.816  1.00  0.00     0.274 HD
ENDBRANCH  18  19
ENDBRANCH  17  18
ENDBRANCH  15  17
ENDBRANCH   8  15
BRANCH  11  23
HETATM   23  N6  UNL     1     -83.588 -48.083 108.252  1.00  0.00    -0.225 N 
ATOM     24  H6  UNL     1     -83.149 -48.763 107.631  1.00  0.00     0.177 HD
BRANCH  23  25
HETATM   25  C9  UNL     1     -84.927 -47.625 107.953  1.00  0.00     0.142 C 
BRANCH  25  26
HETATM   26  C10 UNL     1     -85.911 -48.524 108.618  1.00  0.00     0.046 C 
BRANCH  26  27
HETATM   27  C11 UNL     1     -86.461 -47.901 109.828  1.00  0.00    -0.035 C 
HETATM   28  C12 UNL     1     -86.446 -48.360 111.040  1.00  0.00     0.007 C 
ENDBRANCH  26  27
ENDBRANCH  25  26
ENDBRANCH  23  25
ENDBRANCH  11  23
ENDBRANCH   4   6
ENDBRANCH   3   4
TORSDOF 10
ENDMDL
MODEL 4
REMARK VINA RESULT: -5.728770754      1.117      3.925
REMARK  10 active torsions:
REMARK  status: ('A' for Active; 'I' for Inactive)
REMARK    1  A    between atoms: C3_3  and  N1_4 
REMARK    2  A    between atoms: N1_4  and  C4_6 
REMARK    3  A    between atoms: C5_9  and  N3_10 
REMARK    4  A    between atoms: N3_10  and  C6_12 
REMARK    5  A    between atoms: C6_12  and  C7_13 
REMARK    6  A    between atoms: C7_13  and  N4_14 
REMARK    7  A    between atoms: C8_20  and  N6_21 
REMARK    8  A    between atoms: N6_21  and  C9_23 
REMARK    9  A    between atoms: C9_23  and  C10_24 
REMARK   10  A    between atoms: C10_24  and  C11_25 
ROOT
HETATM    1  C1  UNL     1     -82.884 -50.715 115.225  1.00  0.00     0.014 C 
HETATM    2  C2  UNL     1     -83.244 -49.933 114.376  1.00  0.00    -0.097 C 
HETATM    3  C3  UNL     1     -83.673 -48.966 113.363  1.00  0.00     0.231 C 
ENDROOT
BRANCH   3   4
HETATM    4  N1  UNL     1     -82.536 -48.498 112.582  1.00  0.00    -0.215 N 
ATOM      5  H1  UNL     1     -81.602 -48.809 112.850  1.00  0.00     0.178 HD
BRANCH   4   6
HETATM    6  C4  UNL     1     -82.650 -47.721 111.581  1.00  0.00     0.708 A 
HETATM    7  N2  UNL     1     -83.527 -48.017 110.612  1.00  0.00    -0.021 N 
HETATM    8  C5  UNL     1     -83.650 -47.202 109.557  1.00  0.00     0.707 A 
ATOM      9  H2  UNL     1     -84.098 -48.859 110.678  1.00  0.00     0.203 HD
HETATM   10  N5  UNL     1     -82.893 -46.102 109.487  1.00  0.00    -0.022 N 
HETATM   11  C8  UNL     1     -82.008 -45.791 110.452  1.00  0.00     0.707 A 
ATOM     12  H5  UNL     1     -82.990 -45.482 108.683  1.00  0.00     0.203 HD
HETATM   13  N7  UNL     1     -81.888 -46.620 111.518  1.00  0.00    -0.021 N 
ATOM     14  H7  UNL     1     -81.225 -46.408 112.264  1.00  0.00     0.203 HD
BRANCH   8  15
HETATM   15  N3  UNL     1     -84.484 -47.451 108.600  1.00  0.00    -0.223 N 
ATOM     16  H3  UNL     1     -84.387 -46.990 107.695  1.00  0.00     0.177 HD
BRANCH  15  17
HETATM   17  C6  UNL     1     -85.547 -48.388 108.832  1.00  0.00     0.165 C 
BRANCH  17  18
HETATM   18  C7  UNL     1     -86.675 -47.654 109.525  1.00  0.00     0.249 C 
BRANCH  18  19
HETATM   19  N4  UNL     1     -86.911 -48.346 110.785  1.00  0.00    -0.078 N 
ATOM     20  H43 UNL     1     -86.784 -49.356 110.720  1.00  0.00     0.274 HD
ATOM     21  H42 UNL     1     -86.187 -48.172 111.482  1.00  0.00     0.274 HD
ATOM     22  H41 UNL     1     -87.844 -48.077 111.096  1.00  0.00     0.274 HD
ENDBRANCH  18  19
ENDBRANCH  17  18
ENDBRANCH  15  17
ENDBRANCH   8  15
BRANCH  11  23
HETATM   23  N6  UNL     1     -81.289 -44.737 110.377  1.00  0.00    -0.225 N 
ATOM     24  H6  UNL     1     -80.391 -44.717 110.860  1.00  0.00     0.177 HD
BRANCH  23  25
HETATM   25  C9  UNL     1     -81.709 -43.572 109.630  1.00  0.00     0.142 C 
BRANCH  25  26
HETATM   26  C10 UNL     1     -80.626 -43.183 108.683  1.00  0.00     0.046 C 
BRANCH  26  27
HETATM   27  C11 UNL     1     -79.540 -44.172 108.690  1.00  0.00    -0.035 C 
HETATM   28  C12 UNL     1     -78.291 -43.988 108.394  1.00  0.00     0.007 C 
ENDBRANCH  26  27
ENDBRANCH  25  26
ENDBRANCH  23  25
ENDBRANCH  11  23
ENDBRANCH   4   6
ENDBRANCH   3   4
TORSDOF 10
ENDMDL
MODEL 5
REMARK VINA RESULT: -5.433187302      2.517      5.238
REMARK  10 active torsions:
REMARK  status: ('A' for Active; 'I' for Inactive)
REMARK    1  A    between atoms: C3_3  and  N1_4 
REMARK    2  A    between atoms: N1_4  and  C4_6 
REMARK    3  A    between atoms: C5_9  and  N3_10 
REMARK    4  A    between atoms: N3_10  and  C6_12 
REMARK    5  A    between atoms: C6_12  and  C7_13 
REMARK    6  A    between atoms: C7_13  and  N4_14 
REMARK    7  A    between atoms: C8_20  and  N6_21 
REMARK    8  A    between atoms: N6_21  and  C9_23 
REMARK    9  A    between atoms: C9_23  and  C10_24 
REMARK   10  A    between atoms: C10_24  and  C11_25 
ROOT
HETATM    1  C1  UNL     1     -86.430 -48.265 110.003  1.00  0.00     0.014 C 
HETATM    2  C2  UNL     1     -85.695 -48.109 109.056  1.00  0.00    -0.097 C 
HETATM    3  C3  UNL     1     -84.796 -47.899 107.919  1.00  0.00     0.231 C 
ENDROOT
BRANCH   3   4
HETATM    4  N1  UNL     1     -83.433 -48.282 108.260  1.00  0.00    -0.215 N 
ATOM      5  H1  UNL     1     -82.938 -48.921 107.636  1.00  0.00     0.178 HD
BRANCH   4   6
HETATM    6  C4  UNL     1     -82.828 -47.860 109.296  1.00  0.00     0.708 A 
HETATM    7  N2  UNL     1     -82.735 -46.541 109.516  1.00  0.00    -0.021 N 
HETATM    8  C5  UNL     1     -82.099 -46.093 110.605  1.00  0.00     0.707 A 
ATOM      9  H2  UNL     1     -83.148 -45.883 108.856  1.00  0.00     0.203 HD
HETATM   10  N5  UNL     1     -81.565 -46.971 111.459  1.00  0.00    -0.022 N 
HETATM   11  C8  UNL     1     -81.649 -48.298 111.253  1.00  0.00     0.707 A 
ATOM     12  H5  UNL     1     -81.081 -46.627 112.289  1.00  0.00     0.203 HD
HETATM   13  N7  UNL     1     -82.294 -48.747 110.148  1.00  0.00    -0.021 N 
ATOM     14  H7  UNL     1     -82.373 -49.747 109.968  1.00  0.00     0.203 HD
BRANCH   8  15
HETATM   15  N3  UNL     1     -81.987 -44.828 110.854  1.00  0.00    -0.223 N 
ATOM     16  H3  UNL     1     -81.593 -44.507 111.739  1.00  0.00     0.177 HD
BRANCH  15  17
HETATM   17  C6  UNL     1     -82.424 -43.885 109.863  1.00  0.00     0.165 C 
BRANCH  17  18
HETATM   18  C7  UNL     1     -81.213 -43.117 109.380  1.00  0.00     0.249 C 
BRANCH  18  19
HETATM   19  N4  UNL     1     -80.928 -43.593 108.032  1.00  0.00    -0.078 N 
ATOM     20  H43 UNL     1     -80.292 -44.390 108.013  1.00  0.00     0.274 HD
ATOM     21  H42 UNL     1     -81.723 -44.053 107.591  1.00  0.00     0.274 HD
ATOM     22  H41 UNL     1     -80.583 -42.791 107.506  1.00  0.00     0.274 HD
ENDBRANCH  18  19
ENDBRANCH  17  18
ENDBRANCH  15  17
ENDBRANCH   8  15
BRANCH  11  23
HETATM   23  N6  UNL     1     -81.135 -49.131 112.075  1.00  0.00    -0.225 N 
ATOM     24  H6  UNL     1     -81.241 -48.966 113.076  1.00  0.00     0.177 HD
BRANCH  23  25
HETATM   25  C9  UNL     1     -80.409 -50.301 111.631  1.00  0.00     0.142 C 
BRANCH  25  26
HETATM   26  C10 UNL     1     -79.063 -50.312 112.270  1.00  0.00     0.046 C 
BRANCH  26  27
HETATM   27  C11 UNL     1     -78.312 -51.517 111.894  1.00  0.00    -0.035 C 
HETATM   28  C12 UNL     1     -77.028 -51.653 111.777  1.00  0.00     0.007 C 
ENDBRANCH  26  27
ENDBRANCH  25  26
ENDBRANCH  23  25
ENDBRANCH  11  23
ENDBRANCH   4   6
ENDBRANCH   3   4
TORSDOF 10
ENDMDL
