MODEL 1
REMARK VINA RESULT: -7.754980851      0.000      0.000
REMARK  8 active torsions:
REMARK  status: ('A' for Active; 'I' for Inactive)
REMARK    1  A    between atoms: N2_4  and  C1_6 
REMARK    2  A    between atoms: C2_9  and  N4_10 
REMARK    3  A    between atoms: N6_16  and  C5_17 
REMARK    4  A    between atoms: C5_17  and  C6_18 
REMARK    5  A    between atoms: C6_18  and  C7_19 
REMARK    6  A    between atoms: C7_19  and  C8_20 
REMARK    7  A    between atoms: C8_20  and  C9_21 
REMARK    8  A    between atoms: C9_21  and  N7_22 
ROOT
HETATM    1  C1  UNL     1     -84.433 -47.751 109.288  1.00  0.00     0.700 A 
HETATM    2  N3  UNL     1     -85.645 -48.018 109.820  1.00  0.00    -0.174 N 
ATOM      3  H3  UNL     1     -86.457 -48.142 109.216  1.00  0.00     0.186 HD
HETATM    4  C2  UNL     1     -85.772 -48.118 111.162  1.00  0.00     0.140 A 
HETATM    5  C3  UNL     1     -84.674 -47.953 111.977  1.00  0.00     0.106 A 
HETATM    6  N5  UNL     1     -84.718 -48.040 113.380  1.00  0.00    -0.097 NA
HETATM    7  C4  UNL     1     -83.442 -47.679 111.388  1.00  0.00     0.139 A 
HETATM    8  N6  UNL     1     -83.336 -47.583 110.050  1.00  0.00    -0.190 N 
ENDROOT
BRANCH   8   9
HETATM    9  C5  UNL     1     -82.054 -47.297 109.428  1.00  0.00     0.147 C 
BRANCH   9  10
HETATM   10  C6  UNL     1     -81.535 -46.009 109.995  1.00  0.00     0.021 C 
BRANCH  10  11
HETATM   11  C7  UNL     1     -82.526 -44.891 109.944  1.00  0.00     0.003 C 
BRANCH  11  12
HETATM   12  C8  UNL     1     -81.881 -43.533 110.113  1.00  0.00     0.020 C 
BRANCH  12  13
HETATM   13  C9  UNL     1     -81.275 -43.140 108.771  1.00  0.00     0.122 C 
BRANCH  13  14
HETATM   14  N7  UNL     1     -79.865 -42.929 108.938  1.00  0.00    -0.367 N 
HETATM   15  C10 UNL     1     -79.010 -43.685 108.337  1.00  0.00     0.196 C 
HETATM   16  N8  UNL     1     -79.496 -44.722 107.512  1.00  0.00    -0.067 NA
HETATM   17  N9  UNL     1     -77.605 -43.460 108.515  1.00  0.00    -0.067 NA
ATOM     18  H7  UNL     1     -79.536 -42.173 109.538  1.00  0.00     0.161 HD
ENDBRANCH  13  14
ENDBRANCH  12  13
ENDBRANCH  11  12
ENDBRANCH  10  11
ENDBRANCH   9  10
ENDBRANCH   8   9
BRANCH   1  19
HETATM   19  N2  UNL     1     -84.317 -47.657 108.026  1.00  0.00    -0.138 N 
HETATM   20  N1  UNL     1     -84.460 -47.983 106.829  1.00  0.00    -0.331 N 
ATOM     21  H12 UNL     1     -84.990 -48.843 106.967  1.00  0.00     0.177 HD
ATOM     22  H11 UNL     1     -84.368 -47.907 105.816  1.00  0.00     0.177 HD
ATOM     23  H2  UNL     1     -83.786 -46.791 107.937  1.00  0.00     0.205 HD
ENDBRANCH   1  19
BRANCH   4  24
HETATM   24  N4  UNL     1     -86.897 -48.369 111.724  1.00  0.00    -0.383 N 
ATOM     25  H42 UNL     1     -87.707 -47.825 111.425  1.00  0.00     0.157 HD
ATOM     26  H41 UNL     1     -86.996 -49.083 112.445  1.00  0.00     0.157 HD
ENDBRANCH   4  24
TORSDOF 8
ENDMDL
MODEL 2
REMARK VINA RESULT: -7.474610099      1.144      2.673
REMARK  8 active torsions:
REMARK  status: ('A' for Active; 'I' for Inactive)
REMARK    1  A    between atoms: N2_4  and  C1_6 
REMARK    2  A    between atoms: C2_9  and  N4_10 
REMARK    3  A    between atoms: N6_16  and  C5_17 
REMARK    4  A    between atoms: C5_17  and  C6_18 
REMARK    5  A    between atoms: C6_18  and  C7_19 
REMARK    6  A    between atoms: C7_19  and  C8_20 
REMARK    7  A    between atoms: C8_20  and  C9_21 
REMARK    8  A    between atoms: C9_21  and  N7_22 
ROOT
HETATM    1  C1  UNL     1     -84.196 -48.318 111.797  1.00  0.00     0.700 A 
HETATM    2  N3  UNL     1     -85.541 -48.410 111.894  1.00  0.00    -0.174 N 
ATOM      3  H3  UNL     1     -85.980 -48.621 112.790  1.00  0.00     0.186 HD
HETATM    4  C2  UNL     1     -86.298 -48.220 110.791  1.00  0.00     0.140 A 
HETATM    5  C3  UNL     1     -85.704 -47.934 109.582  1.00  0.00     0.106 A 
HETATM    6  N5  UNL     1     -86.417 -47.722 108.387  1.00  0.00    -0.097 NA
HETATM    7  C4  UNL     1     -84.315 -47.848 109.525  1.00  0.00     0.139 A 
HETATM    8  N6  UNL     1     -83.578 -48.041 110.634  1.00  0.00    -0.190 N 
ENDROOT
BRANCH   8   9
HETATM    9  C5  UNL     1     -82.128 -47.954 110.584  1.00  0.00     0.147 C 
BRANCH   9  10
HETATM   10  C6  UNL     1     -81.758 -46.617 110.013  1.00  0.00     0.021 C 
BRANCH  10  11
HETATM   11  C7  UNL     1     -81.746 -45.517 111.025  1.00  0.00     0.003 C 
BRANCH  11  12
HETATM   12  C8  UNL     1     -81.914 -44.150 110.401  1.00  0.00     0.020 C 
BRANCH  12  13
HETATM   13  C9  UNL     1     -81.260 -44.187 109.025  1.00  0.00     0.122 C 
BRANCH  13  14
HETATM   14  N7  UNL     1     -79.967 -43.571 109.104  1.00  0.00    -0.367 N 
HETATM   15  C10 UNL     1     -78.946 -44.105 108.526  1.00  0.00     0.196 C 
HETATM   16  N8  UNL     1     -79.133 -45.309 107.813  1.00  0.00    -0.067 NA
HETATM   17  N9  UNL     1     -77.661 -43.476 108.614  1.00  0.00    -0.067 NA
ATOM     18  H7  UNL     1     -79.854 -42.700 109.623  1.00  0.00     0.161 HD
ENDBRANCH  13  14
ENDBRANCH  12  13
ENDBRANCH  11  12
ENDBRANCH  10  11
ENDBRANCH   9  10
ENDBRANCH   8   9
BRANCH   1  19
HETATM   19  N2  UNL     1     -83.487 -48.498 112.836  1.00  0.00    -0.138 N 
HETATM   20  N1  UNL     1     -82.922 -49.136 113.749  1.00  0.00    -0.331 N 
ATOM     21  H12 UNL     1     -83.218 -50.075 113.484  1.00  0.00     0.177 HD
ATOM     22  H11 UNL     1     -82.352 -49.281 114.582  1.00  0.00     0.177 HD
ATOM     23  H2  UNL     1     -83.216 -47.541 113.062  1.00  0.00     0.205 HD
ENDBRANCH   1  19
BRANCH   4  24
HETATM   24  N4  UNL     1     -87.578 -48.295 110.822  1.00  0.00    -0.383 N 
ATOM     25  H42 UNL     1     -88.071 -47.700 111.487  1.00  0.00     0.157 HD
ATOM     26  H41 UNL     1     -88.099 -48.924 110.210  1.00  0.00     0.157 HD
ENDBRANCH   4  24
TORSDOF 8
ENDMDL
MODEL 3
REMARK VINA RESULT: -7.404606131      1.688      2.798
REMARK  8 active torsions:
REMARK  status: ('A' for Active; 'I' for Inactive)
REMARK    1  A    between atoms: N2_4  and  C1_6 
REMARK    2  A    between atoms: C2_9  and  N4_10 
REMARK    3  A    between atoms: N6_16  and  C5_17 
REMARK    4  A    between atoms: C5_17  and  C6_18 
REMARK    5  A    between atoms: C6_18  and  C7_19 
REMARK    6  A    between atoms: C7_19  and  C8_20 
REMARK    7  A    between atoms: C8_20  and  C9_21 
REMARK    8  A    between atoms: C9_21  and  N7_22 
ROOT
HETATM    1  C1  UNL     1     -84.784 -48.230 111.988  1.00  0.00     0.700 A 
HETATM    2  N3  UNL     1     -84.666 -49.020 113.078  1.00  0.00    -0.174 N 
ATOM      3  H3  UNL     1     -85.495 -49.307 113.598  1.00  0.00     0.186 HD
HETATM    4  C2  UNL     1     -83.439 -49.427 113.472  1.00  0.00     0.140 A 
HETATM    5  C3  UNL     1     -82.320 -49.040 112.767  1.00  0.00     0.106 A 
HETATM    6  N5  UNL     1     -81.009 -49.418 113.108  1.00  0.00    -0.097 NA
HETATM    7  C4  UNL     1     -82.485 -48.225 111.650  1.00  0.00     0.139 A 
HETATM    8  N6  UNL     1     -83.715 -47.830 111.273  1.00  0.00    -0.190 N 
ENDROOT
BRANCH   8   9
HETATM    9  C5  UNL     1     -83.896 -46.980 110.109  1.00  0.00     0.147 C 
BRANCH   9  10
HETATM   10  C6  UNL     1     -82.655 -46.155 109.934  1.00  0.00     0.021 C 
BRANCH  10  11
HETATM   11  C7  UNL     1     -82.898 -44.683 110.025  1.00  0.00     0.003 C 
BRANCH  11  12
HETATM   12  C8  UNL     1     -81.669 -43.868 109.690  1.00  0.00     0.020 C 
BRANCH  12  13
HETATM   13  C9  UNL     1     -80.466 -44.802 109.750  1.00  0.00     0.122 C 
BRANCH  13  14
HETATM   14  N7  UNL     1     -79.789 -44.776 108.486  1.00  0.00    -0.367 N 
HETATM   15  C10 UNL     1     -78.614 -44.255 108.378  1.00  0.00     0.196 C 
HETATM   16  N8  UNL     1     -78.012 -43.714 109.534  1.00  0.00    -0.067 NA
HETATM   17  N9  UNL     1     -77.952 -44.238 107.106  1.00  0.00    -0.067 NA
ATOM     18  H7  UNL     1     -80.242 -45.174 107.663  1.00  0.00     0.161 HD
ENDBRANCH  13  14
ENDBRANCH  12  13
ENDBRANCH  11  12
ENDBRANCH  10  11
ENDBRANCH   9  10
ENDBRANCH   8   9
BRANCH   1  19
HETATM   19  N2  UNL     1     -85.939 -47.849 111.621  1.00  0.00    -0.138 N 
HETATM   20  N1  UNL     1     -87.104 -47.961 111.186  1.00  0.00    -0.331 N 
ATOM     21  H12 UNL     1     -87.119 -48.971 111.050  1.00  0.00     0.177 HD
ATOM     22  H11 UNL     1     -88.032 -47.656 110.892  1.00  0.00     0.177 HD
ATOM     23  H2  UNL     1     -85.877 -46.843 111.774  1.00  0.00     0.205 HD
ENDBRANCH   1  19
BRANCH   4  24
HETATM   24  N4  UNL     1     -83.266 -50.177 114.497  1.00  0.00    -0.383 N 
ATOM     25  H42 UNL     1     -82.531 -49.917 115.155  1.00  0.00     0.157 HD
ATOM     26  H41 UNL     1     -83.833 -51.008 114.664  1.00  0.00     0.157 HD
ENDBRANCH   4  24
TORSDOF 8
ENDMDL
MODEL 4
REMARK VINA RESULT: -7.217523409      1.231      1.669
REMARK  8 active torsions:
REMARK  status: ('A' for Active; 'I' for Inactive)
REMARK    1  A    between atoms: N2_4  and  C1_6 
REMARK    2  A    between atoms: C2_9  and  N4_10 
REMARK    3  A    between atoms: N6_16  and  C5_17 
REMARK    4  A    between atoms: C5_17  and  C6_18 
REMARK    5  A    between atoms: C6_18  and  C7_19 
REMARK    6  A    between atoms: C7_19  and  C8_20 
REMARK    7  A    between atoms: C8_20  and  C9_21 
REMARK    8  A    between atoms: C9_21  and  N7_22 
ROOT
HETATM    1  C1  UNL     1     -83.625 -47.825 109.674  1.00  0.00     0.700 A 
HETATM    2  N3  UNL     1     -84.883 -47.984 109.209  1.00  0.00    -0.174 N 
ATOM      3  H3  UNL     1     -85.057 -48.062 108.207  1.00  0.00     0.186 HD
HETATM    4  C2  UNL     1     -85.911 -48.041 110.085  1.00  0.00     0.140 A 
HETATM    5  C3  UNL     1     -85.676 -47.938 111.438  1.00  0.00     0.106 A 
HETATM    6  N5  UNL     1     -86.686 -47.987 112.417  1.00  0.00    -0.097 NA
HETATM    7  C4  UNL     1     -84.364 -47.774 111.876  1.00  0.00     0.139 A 
HETATM    8  N6  UNL     1     -83.354 -47.720 110.989  1.00  0.00    -0.190 N 
ENDROOT
BRANCH   8   9
HETATM    9  C5  UNL     1     -81.982 -47.548 111.437  1.00  0.00     0.147 C 
BRANCH   9  10
HETATM   10  C6  UNL     1     -81.762 -46.092 111.724  1.00  0.00     0.021 C 
BRANCH  10  11
HETATM   11  C7  UNL     1     -80.890 -45.410 110.720  1.00  0.00     0.003 C 
BRANCH  11  12
HETATM   12  C8  UNL     1     -81.661 -44.468 109.824  1.00  0.00     0.020 C 
BRANCH  12  13
HETATM   13  C9  UNL     1     -80.711 -43.354 109.399  1.00  0.00     0.122 C 
BRANCH  13  14
HETATM   14  N7  UNL     1     -79.969 -43.785 108.248  1.00  0.00    -0.367 N 
HETATM   15  C10 UNL     1     -78.688 -43.925 108.305  1.00  0.00     0.196 C 
HETATM   16  N8  UNL     1     -78.037 -43.646 109.525  1.00  0.00    -0.067 NA
HETATM   17  N9  UNL     1     -77.962 -44.357 107.147  1.00  0.00    -0.067 NA
ATOM     18  H7  UNL     1     -80.460 -43.982 107.376  1.00  0.00     0.161 HD
ENDBRANCH  13  14
ENDBRANCH  12  13
ENDBRANCH  11  12
ENDBRANCH  10  11
ENDBRANCH   9  10
ENDBRANCH   8   9
BRANCH   1  19
HETATM   19  N2  UNL     1     -82.662 -47.772 108.847  1.00  0.00    -0.138 N 
HETATM   20  N1  UNL     1     -81.605 -48.129 108.286  1.00  0.00    -0.331 N 
ATOM     21  H12 UNL     1     -81.419 -48.969 108.832  1.00  0.00     0.177 HD
ATOM     22  H11 UNL     1     -80.832 -48.087 107.622  1.00  0.00     0.177 HD
ATOM     23  H2  UNL     1     -82.889 -46.924 108.328  1.00  0.00     0.205 HD
ENDBRANCH   1  19
BRANCH   4  24
HETATM   24  N4  UNL     1     -87.126 -48.191 109.703  1.00  0.00    -0.383 N 
ATOM     25  H42 UNL     1     -87.653 -47.352 109.461  1.00  0.00     0.157 HD
ATOM     26  H41 UNL     1     -87.564 -49.110 109.637  1.00  0.00     0.157 HD
ENDBRANCH   4  24
TORSDOF 8
ENDMDL
MODEL 5
REMARK VINA RESULT: -6.677047201      1.459      2.120
REMARK  8 active torsions:
REMARK  status: ('A' for Active; 'I' for Inactive)
REMARK    1  A    between atoms: N2_4  and  C1_6 
REMARK    2  A    between atoms: C2_9  and  N4_10 
REMARK    3  A    between atoms: N6_16  and  C5_17 
REMARK    4  A    between atoms: C5_17  and  C6_18 
REMARK    5  A    between atoms: C6_18  and  C7_19 
REMARK    6  A    between atoms: C7_19  and  C8_20 
REMARK    7  A    between atoms: C8_20  and  C9_21 
REMARK    8  A    between atoms: C9_21  and  N7_22 
ROOT
HETATM    1  C1  UNL     1     -84.364 -47.742 109.266  1.00  0.00     0.700 A 
HETATM    2  N3  UNL     1     -85.576 -47.996 109.806  1.00  0.00    -0.174 N 
ATOM      3  H3  UNL     1     -86.389 -48.133 109.206  1.00  0.00     0.186 HD
HETATM    4  C2  UNL     1     -85.700 -48.067 111.150  1.00  0.00     0.140 A 
HETATM    5  C3  UNL     1     -84.601 -47.884 111.959  1.00  0.00     0.106 A 
HETATM    6  N5  UNL     1     -84.643 -47.940 113.365  1.00  0.00    -0.097 NA
HETATM    7  C4  UNL     1     -83.370 -47.624 111.363  1.00  0.00     0.139 A 
HETATM    8  N6  UNL     1     -83.266 -47.557 110.023  1.00  0.00    -0.190 N 
ENDROOT
BRANCH   8   9
HETATM    9  C5  UNL     1     -81.985 -47.285 109.392  1.00  0.00     0.147 C 
BRANCH   9  10
HETATM   10  C6  UNL     1     -81.264 -46.261 110.218  1.00  0.00     0.021 C 
BRANCH  10  11
HETATM   11  C7  UNL     1     -80.662 -45.158 109.409  1.00  0.00     0.003 C 
BRANCH  11  12
HETATM   12  C8  UNL     1     -81.414 -43.854 109.553  1.00  0.00     0.020 C 
BRANCH  12  13
HETATM   13  C9  UNL     1     -80.558 -42.757 108.929  1.00  0.00     0.122 C 
BRANCH  13  14
HETATM   14  N7  UNL     1     -81.393 -41.911 108.126  1.00  0.00    -0.367 N 
HETATM   15  C10 UNL     1     -81.359 -40.629 108.263  1.00  0.00     0.196 C 
HETATM   16  N8  UNL     1     -80.479 -40.081 109.221  1.00  0.00    -0.067 NA
HETATM   17  N9  UNL     1     -82.200 -39.798 107.452  1.00  0.00    -0.067 NA
ATOM     18  H7  UNL     1     -82.021 -42.328 107.438  1.00  0.00     0.161 HD
ENDBRANCH  13  14
ENDBRANCH  12  13
ENDBRANCH  11  12
ENDBRANCH  10  11
ENDBRANCH   9  10
ENDBRANCH   8   9
BRANCH   1  19
HETATM   19  N2  UNL     1     -84.251 -47.676 108.002  1.00  0.00    -0.138 N 
HETATM   20  N1  UNL     1     -84.474 -47.968 106.809  1.00  0.00    -0.331 N 
ATOM     21  H12 UNL     1     -85.165 -48.703 106.959  1.00  0.00     0.177 HD
ATOM     22  H11 UNL     1     -84.384 -47.915 105.794  1.00  0.00     0.177 HD
ATOM     23  H2  UNL     1     -83.557 -46.935 107.901  1.00  0.00     0.205 HD
ENDBRANCH   1  19
BRANCH   4  24
HETATM   24  N4  UNL     1     -86.825 -48.305 111.719  1.00  0.00    -0.383 N 
ATOM     25  H42 UNL     1     -87.253 -47.550 112.254  1.00  0.00     0.157 HD
ATOM     26  H41 UNL     1     -87.287 -49.211 111.649  1.00  0.00     0.157 HD
ENDBRANCH   4  24
TORSDOF 8
ENDMDL
