MODEL 1
REMARK VINA RESULT: -8.350410910      0.000      0.000
REMARK  13 active torsions:
REMARK  status: ('A' for Active; 'I' for Inactive)
REMARK    1  A    between atoms: N2_7  and  C5_8 
REMARK    2  A    between atoms: C5_8  and  C6_9 
REMARK    3  A    between atoms: C6_9  and  C7_10 
REMARK    4  A    between atoms: C7_10  and  N3_11 
REMARK       I    between atoms: N3_11  and  C8_13 
REMARK    5  A    between atoms: C8_13  and  C9_15 
REMARK    6  A    between atoms: C9_15  and  N4_16 
REMARK    7  A    between atoms: N4_16  and  C10_17 
REMARK    8  A    between atoms: C10_17  and  O2_18 
REMARK    9  A    between atoms: C10_17  and  N5_20 
REMARK   10  A    between atoms: C14_24  and  N6_25 
REMARK   11  A    between atoms: C15_27  and  O3_28 
REMARK   12  A    between atoms: C15_27  and  O4_30 
REMARK   13  A    between atoms: O4_30  and  C16_31 
ROOT
HETATM    1  C9  UNL     1      26.043   9.409  -7.903  1.00  0.00     0.184 C 
HETATM    2  C20 UNL     1      25.204   8.187  -8.395  1.00  0.00     0.062 C 
HETATM    3  C21 UNL     1      25.527   7.885  -9.859  1.00  0.00    -0.002 A 
HETATM    4  C22 UNL     1      24.260   7.668 -10.646  1.00  0.00     0.015 A 
HETATM    5  C23 UNL     1      25.073   8.979 -10.734  1.00  0.00    -0.039 A 
HETATM    6  C24 UNL     1      25.546   9.290 -12.099  1.00  0.00     0.015 C 
HETATM    7  C25 UNL     1      24.606  10.125  -9.916  1.00  0.00     0.022 C 
HETATM    8  C26 UNL     1      25.428  10.554  -8.754  1.00  0.00     0.000 C 
HETATM    9  C27 UNL     1      26.492  11.523  -9.171  1.00  0.00     0.019 C 
HETATM   10  C28 UNL     1      24.431  11.354  -7.918  1.00  0.00     0.019 C 
ENDROOT
BRANCH   1  11
HETATM   11  C8  UNL     1      27.363   8.992  -8.333  1.00  0.00     0.260 C 
HETATM   12  N3  UNL     1      28.054   7.957  -7.615  1.00  0.00    -0.358 N 
ATOM     13  H3  UNL     1      27.694   7.649  -6.711  1.00  0.00     0.162 HD
HETATM   14  O1  UNL     1      27.978   9.479  -9.336  1.00  0.00    -0.269 OA
BRANCH  12  15
HETATM   15  C7  UNL     1      29.263   7.335  -8.156  1.00  0.00     0.124 C 
BRANCH  15  16
HETATM   16  C6  UNL     1      29.295   5.888  -8.136  1.00  0.00     0.040 C 
BRANCH  16  17
HETATM   17  C5  UNL     1      28.309   5.075  -7.408  1.00  0.00     0.131 C 
BRANCH  17  18
HETATM   18  N2  UNL     1      27.056   4.783  -8.078  1.00  0.00    -0.346 N 
HETATM   19  C2  UNL     1      25.863   4.862  -7.414  1.00  0.00     0.024 A 
HETATM   20  C1  UNL     1      25.653   5.267  -6.004  1.00  0.00     0.070 C 
HETATM   21  C3  UNL     1      24.922   4.519  -8.366  1.00  0.00     0.113 A 
HETATM   22  N1  UNL     1      25.554   4.266  -9.497  1.00  0.00    -0.360 N 
HETATM   23  C4  UNL     1      26.880   4.427  -9.331  1.00  0.00     0.183 A 
ATOM     24  H1  UNL     1      25.103   3.990 -10.369  1.00  0.00     0.166 HD
ENDBRANCH  17  18
ENDBRANCH  16  17
ENDBRANCH  15  16
ENDBRANCH  12  15
ENDBRANCH   1  11
BRANCH   1  25
HETATM   25  N4  UNL     1      25.735   9.673  -6.605  1.00  0.00    -0.387 NA
BRANCH  25  26
HETATM   26  C10 UNL     1      25.415   9.796  -5.288  1.00  0.00     0.292 C 
BRANCH  26  27
HETATM   27  O2  UNL     1      24.147   9.939  -4.921  1.00  0.00    -0.322 OA
ATOM     28  H2  UNL     1      23.835  10.779  -4.604  1.00  0.00     0.222 HD
ENDBRANCH  26  27
BRANCH  26  29
HETATM   29  N5  UNL     1      26.319   9.822  -4.234  1.00  0.00    -0.331 N 
HETATM   30  C11 UNL     1      27.709   9.572  -4.509  1.00  0.00     0.128 C 
HETATM   31  C12 UNL     1      28.299   8.509  -3.618  1.00  0.00     0.026 C 
HETATM   32  C13 UNL     1      27.487   8.310  -2.383  1.00  0.00     0.056 C 
HETATM   33  C14 UNL     1      26.935   9.662  -1.963  1.00  0.00     0.008 C 
HETATM   34  C19 UNL     1      25.969  10.196  -2.883  1.00  0.00     0.180 C 
BRANCH  33  35
HETATM   35  N6  UNL     1      27.391  10.112  -0.949  1.00  0.00    -0.322 N 
HETATM   36  C15 UNL     1      27.170  10.462   0.330  1.00  0.00     0.262 C 
ATOM     37  H6  UNL     1      28.371  10.321  -1.140  1.00  0.00     0.169 HD
BRANCH  36  38
HETATM   38  O3  UNL     1      26.805   9.507   1.146  1.00  0.00    -0.327 OA
ATOM     39  H3  UNL     1      26.107   9.712   1.758  1.00  0.00     0.221 HD
ENDBRANCH  36  38
BRANCH  36  40
HETATM   40  O4  UNL     1      27.294  11.742   0.879  1.00  0.00    -0.312 OA
BRANCH  40  41
HETATM   41  C16 UNL     1      28.390  12.532   0.431  1.00  0.00     0.124 C 
HETATM   42  C17 UNL     1      29.154  13.190   1.451  1.00  0.00     0.040 C 
HETATM   43  C18 UNL     1      27.676  13.552  -0.541  1.00  0.00     0.040 C 
ENDBRANCH  40  41
ENDBRANCH  36  40
ENDBRANCH  33  35
ENDBRANCH  26  29
ENDBRANCH  25  26
ENDBRANCH   1  25
TORSDOF 13
ENDMDL
MODEL 2
REMARK VINA RESULT: -8.324054916      1.815      2.244
REMARK  13 active torsions:
REMARK  status: ('A' for Active; 'I' for Inactive)
REMARK    1  A    between atoms: N2_7  and  C5_8 
REMARK    2  A    between atoms: C5_8  and  C6_9 
REMARK    3  A    between atoms: C6_9  and  C7_10 
REMARK    4  A    between atoms: C7_10  and  N3_11 
REMARK       I    between atoms: N3_11  and  C8_13 
REMARK    5  A    between atoms: C8_13  and  C9_15 
REMARK    6  A    between atoms: C9_15  and  N4_16 
REMARK    7  A    between atoms: N4_16  and  C10_17 
REMARK    8  A    between atoms: C10_17  and  O2_18 
REMARK    9  A    between atoms: C10_17  and  N5_20 
REMARK   10  A    between atoms: C14_24  and  N6_25 
REMARK   11  A    between atoms: C15_27  and  O3_28 
REMARK   12  A    between atoms: C15_27  and  O4_30 
REMARK   13  A    between atoms: O4_30  and  C16_31 
ROOT
HETATM    1  C9  UNL     1      26.217   9.442  -7.590  1.00  0.00     0.184 C 
HETATM    2  C20 UNL     1      25.311   8.225  -7.964  1.00  0.00     0.062 C 
HETATM    3  C21 UNL     1      25.502   7.863  -9.438  1.00  0.00    -0.002 A 
HETATM    4  C22 UNL     1      24.169   7.653 -10.107  1.00  0.00     0.015 A 
HETATM    5  C23 UNL     1      25.001   8.937 -10.312  1.00  0.00    -0.039 A 
HETATM    6  C24 UNL     1      25.365   9.188 -11.722  1.00  0.00     0.015 C 
HETATM    7  C25 UNL     1      24.632  10.124  -9.501  1.00  0.00     0.022 C 
HETATM    8  C26 UNL     1      25.559  10.571  -8.429  1.00  0.00     0.000 C 
HETATM    9  C27 UNL     1      26.607  11.497  -8.969  1.00  0.00     0.019 C 
HETATM   10  C28 UNL     1      24.656  11.427  -7.544  1.00  0.00     0.019 C 
ENDROOT
BRANCH   1  11
HETATM   11  C8  UNL     1      27.486   8.975  -8.113  1.00  0.00     0.260 C 
HETATM   12  N3  UNL     1      28.252   8.011  -7.372  1.00  0.00    -0.358 N 
ATOM     13  H3  UNL     1      27.990   7.796  -6.410  1.00  0.00     0.162 HD
HETATM   14  O1  UNL     1      27.991   9.356  -9.218  1.00  0.00    -0.269 OA
BRANCH  12  15
HETATM   15  C7  UNL     1      29.400   7.331  -7.973  1.00  0.00     0.124 C 
BRANCH  15  16
HETATM   16  C6  UNL     1      29.242   5.911  -8.210  1.00  0.00     0.040 C 
BRANCH  16  17
HETATM   17  C5  UNL     1      28.326   5.066  -7.430  1.00  0.00     0.131 C 
BRANCH  17  18
HETATM   18  N2  UNL     1      27.039   4.751  -8.019  1.00  0.00    -0.346 N 
HETATM   19  C2  UNL     1      25.891   4.795  -7.277  1.00  0.00     0.024 A 
HETATM   20  C1  UNL     1      25.765   5.178  -5.851  1.00  0.00     0.070 C 
HETATM   21  C3  UNL     1      24.897   4.440  -8.169  1.00  0.00     0.113 A 
HETATM   22  N1  UNL     1      25.458   4.216  -9.343  1.00  0.00    -0.360 N 
HETATM   23  C4  UNL     1      26.788   4.406  -9.263  1.00  0.00     0.183 A 
ATOM     24  H1  UNL     1      24.957   3.939 -10.186  1.00  0.00     0.166 HD
ENDBRANCH  17  18
ENDBRANCH  16  17
ENDBRANCH  15  16
ENDBRANCH  12  15
ENDBRANCH   1  11
BRANCH   1  25
HETATM   25  N4  UNL     1      26.026   9.759  -6.282  1.00  0.00    -0.387 NA
BRANCH  25  26
HETATM   26  C10 UNL     1      25.832   9.936  -4.946  1.00  0.00     0.292 C 
BRANCH  26  27
HETATM   27  O2  UNL     1      24.668   9.614  -4.394  1.00  0.00    -0.322 OA
ATOM     28  H2  UNL     1      24.027  10.289  -4.204  1.00  0.00     0.222 HD
ENDBRANCH  26  27
BRANCH  26  29
HETATM   29  N5  UNL     1      26.753  10.477  -4.059  1.00  0.00    -0.331 N 
HETATM   30  C11 UNL     1      27.794   9.630  -3.542  1.00  0.00     0.128 C 
HETATM   31  C12 UNL     1      27.888   9.672  -2.038  1.00  0.00     0.026 C 
HETATM   32  C13 UNL     1      27.241  10.894  -1.477  1.00  0.00     0.056 C 
HETATM   33  C14 UNL     1      27.483  12.037  -2.448  1.00  0.00     0.008 C 
HETATM   34  C19 UNL     1      26.801  11.876  -3.703  1.00  0.00     0.180 C 
BRANCH  33  35
HETATM   35  N6  UNL     1      28.222  12.898  -2.057  1.00  0.00    -0.322 N 
HETATM   36  C15 UNL     1      28.355  14.172  -1.651  1.00  0.00     0.262 C 
ATOM     37  H6  UNL     1      29.152  12.483  -2.014  1.00  0.00     0.169 HD
BRANCH  36  38
HETATM   38  O3  UNL     1      27.694  14.520  -0.577  1.00  0.00    -0.327 OA
ATOM     39  H3  UNL     1      28.197  14.605   0.224  1.00  0.00     0.221 HD
ENDBRANCH  36  38
BRANCH  36  40
HETATM   40  O4  UNL     1      29.131  15.164  -2.259  1.00  0.00    -0.312 OA
BRANCH  40  41
HETATM   41  C16 UNL     1      29.382  15.024  -3.652  1.00  0.00     0.124 C 
HETATM   42  C17 UNL     1      30.753  14.836  -4.031  1.00  0.00     0.040 C 
HETATM   43  C18 UNL     1      28.776  16.365  -4.226  1.00  0.00     0.040 C 
ENDBRANCH  40  41
ENDBRANCH  36  40
ENDBRANCH  33  35
ENDBRANCH  26  29
ENDBRANCH  25  26
ENDBRANCH   1  25
TORSDOF 13
ENDMDL
MODEL 3
REMARK VINA RESULT: -8.288669776      4.112      6.916
REMARK  13 active torsions:
REMARK  status: ('A' for Active; 'I' for Inactive)
REMARK    1  A    between atoms: N2_7  and  C5_8 
REMARK    2  A    between atoms: C5_8  and  C6_9 
REMARK    3  A    between atoms: C6_9  and  C7_10 
REMARK    4  A    between atoms: C7_10  and  N3_11 
REMARK       I    between atoms: N3_11  and  C8_13 
REMARK    5  A    between atoms: C8_13  and  C9_15 
REMARK    6  A    between atoms: C9_15  and  N4_16 
REMARK    7  A    between atoms: N4_16  and  C10_17 
REMARK    8  A    between atoms: C10_17  and  O2_18 
REMARK    9  A    between atoms: C10_17  and  N5_20 
REMARK   10  A    between atoms: C14_24  and  N6_25 
REMARK   11  A    between atoms: C15_27  and  O3_28 
REMARK   12  A    between atoms: C15_27  and  O4_30 
REMARK   13  A    between atoms: O4_30  and  C16_31 
ROOT
HETATM    1  C9  UNL     1      27.163  11.023  -2.858  1.00  0.00     0.184 C 
HETATM    2  C20 UNL     1      28.268  10.672  -3.906  1.00  0.00     0.062 C 
HETATM    3  C21 UNL     1      27.942   9.342  -4.586  1.00  0.00    -0.002 A 
HETATM    4  C22 UNL     1      29.163   8.462  -4.640  1.00  0.00     0.015 A 
HETATM    5  C23 UNL     1      28.021   8.228  -3.627  1.00  0.00    -0.039 A 
HETATM    6  C24 UNL     1      27.390   6.896  -3.745  1.00  0.00     0.015 C 
HETATM    7  C25 UNL     1      28.212   8.751  -2.252  1.00  0.00     0.022 C 
HETATM    8  C26 UNL     1      27.385   9.903  -1.806  1.00  0.00     0.000 C 
HETATM    9  C27 UNL     1      26.072   9.443  -1.249  1.00  0.00     0.019 C 
HETATM   10  C28 UNL     1      28.180  10.444  -0.620  1.00  0.00     0.019 C 
ENDROOT
BRANCH   1  11
HETATM   11  C8  UNL     1      25.980  10.843  -3.677  1.00  0.00     0.260 C 
HETATM   12  N3  UNL     1      25.830  11.600  -4.890  1.00  0.00    -0.358 N 
ATOM     13  H3  UNL     1      26.461  12.379  -5.075  1.00  0.00     0.162 HD
HETATM   14  O1  UNL     1      25.035  10.035  -3.405  1.00  0.00    -0.269 OA
BRANCH  12  15
HETATM   15  C7  UNL     1      24.788  11.272  -5.864  1.00  0.00     0.124 C 
BRANCH  15  16
HETATM   16  C6  UNL     1      25.234  10.594  -7.064  1.00  0.00     0.040 C 
BRANCH  16  17
HETATM   17  C5  UNL     1      25.211   9.131  -7.211  1.00  0.00     0.131 C 
BRANCH  17  18
HETATM   18  N2  UNL     1      26.433   8.481  -7.644  1.00  0.00    -0.346 N 
HETATM   19  C2  UNL     1      26.615   7.135  -7.483  1.00  0.00     0.024 A 
HETATM   20  C1  UNL     1      25.650   6.167  -6.909  1.00  0.00     0.070 C 
HETATM   21  C3  UNL     1      27.872   6.898  -8.007  1.00  0.00     0.113 A 
HETATM   22  N1  UNL     1      28.360   8.046  -8.439  1.00  0.00    -0.360 N 
HETATM   23  C4  UNL     1      27.476   9.036  -8.221  1.00  0.00     0.183 A 
ATOM     24  H1  UNL     1      29.275   8.164  -8.875  1.00  0.00     0.166 HD
ENDBRANCH  17  18
ENDBRANCH  16  17
ENDBRANCH  15  16
ENDBRANCH  12  15
ENDBRANCH   1  11
BRANCH   1  25
HETATM   25  N4  UNL     1      27.474  12.200  -2.253  1.00  0.00    -0.387 NA
BRANCH  25  26
HETATM   26  C10 UNL     1      27.649  13.417  -1.669  1.00  0.00     0.292 C 
BRANCH  26  27
HETATM   27  O2  UNL     1      27.334  13.595  -0.392  1.00  0.00    -0.322 OA
ATOM     28  H2  UNL     1      27.678  14.341   0.085  1.00  0.00     0.222 HD
ENDBRANCH  26  27
BRANCH  26  29
HETATM   29  N5  UNL     1      28.112  14.561  -2.306  1.00  0.00    -0.331 N 
HETATM   30  C11 UNL     1      27.231  15.257  -3.205  1.00  0.00     0.128 C 
HETATM   31  C12 UNL     1      27.856  15.517  -4.552  1.00  0.00     0.026 C 
HETATM   32  C13 UNL     1      29.345  15.437  -4.494  1.00  0.00     0.056 C 
HETATM   33  C14 UNL     1      29.791  15.987  -3.150  1.00  0.00     0.008 C 
HETATM   34  C19 UNL     1      29.396  15.167  -2.037  1.00  0.00     0.180 C 
BRANCH  33  35
HETATM   35  N6  UNL     1      30.380  17.031  -3.189  1.00  0.00    -0.322 N 
HETATM   36  C15 UNL     1      30.325  18.365  -3.034  1.00  0.00     0.262 C 
ATOM     37  H6  UNL     1      31.340  16.811  -3.456  1.00  0.00     0.169 HD
BRANCH  36  38
HETATM   38  O3  UNL     1      30.015  18.806  -1.843  1.00  0.00    -0.327 OA
ATOM     39  H3  UNL     1      29.178  19.247  -1.756  1.00  0.00     0.221 HD
ENDBRANCH  36  38
BRANCH  36  40
HETATM   40  O4  UNL     1      30.569  19.329  -4.017  1.00  0.00    -0.312 OA
BRANCH  40  41
HETATM   41  C16 UNL     1      31.922  19.513  -4.419  1.00  0.00     0.124 C 
HETATM   42  C17 UNL     1      32.513  20.777  -4.090  1.00  0.00     0.040 C 
HETATM   43  C18 UNL     1      31.829  19.276  -5.978  1.00  0.00     0.040 C 
ENDBRANCH  40  41
ENDBRANCH  36  40
ENDBRANCH  33  35
ENDBRANCH  26  29
ENDBRANCH  25  26
ENDBRANCH   1  25
TORSDOF 13
ENDMDL
MODEL 4
REMARK VINA RESULT: -8.279941655      1.876      4.238
REMARK  13 active torsions:
REMARK  status: ('A' for Active; 'I' for Inactive)
REMARK    1  A    between atoms: N2_7  and  C5_8 
REMARK    2  A    between atoms: C5_8  and  C6_9 
REMARK    3  A    between atoms: C6_9  and  C7_10 
REMARK    4  A    between atoms: C7_10  and  N3_11 
REMARK       I    between atoms: N3_11  and  C8_13 
REMARK    5  A    between atoms: C8_13  and  C9_15 
REMARK    6  A    between atoms: C9_15  and  N4_16 
REMARK    7  A    between atoms: N4_16  and  C10_17 
REMARK    8  A    between atoms: C10_17  and  O2_18 
REMARK    9  A    between atoms: C10_17  and  N5_20 
REMARK   10  A    between atoms: C14_24  and  N6_25 
REMARK   11  A    between atoms: C15_27  and  O3_28 
REMARK   12  A    between atoms: C15_27  and  O4_30 
REMARK   13  A    between atoms: O4_30  and  C16_31 
ROOT
HETATM    1  C9  UNL     1      26.166   6.405  -6.315  1.00  0.00     0.184 C 
HETATM    2  C20 UNL     1      27.655   6.755  -6.634  1.00  0.00     0.062 C 
HETATM    3  C21 UNL     1      27.955   6.477  -8.108  1.00  0.00    -0.002 A 
HETATM    4  C22 UNL     1      29.252   5.725  -8.251  1.00  0.00     0.015 A 
HETATM    5  C23 UNL     1      27.878   5.035  -8.397  1.00  0.00    -0.039 A 
HETATM    6  C24 UNL     1      27.675   4.395  -9.713  1.00  0.00     0.015 C 
HETATM    7  C25 UNL     1      27.353   4.306  -7.217  1.00  0.00     0.022 C 
HETATM    8  C26 UNL     1      26.177   4.863  -6.499  1.00  0.00     0.000 C 
HETATM    9  C27 UNL     1      24.894   4.403  -7.121  1.00  0.00     0.019 C 
HETATM   10  C28 UNL     1      26.259   4.172  -5.139  1.00  0.00     0.019 C 
ENDROOT
BRANCH   1  11
HETATM   11  C8  UNL     1      25.508   7.126  -7.387  1.00  0.00     0.260 C 
HETATM   12  N3  UNL     1      25.489   8.563  -7.374  1.00  0.00    -0.358 N 
ATOM     13  H3  UNL     1      25.778   9.060  -6.531  1.00  0.00     0.162 HD
HETATM   14  O1  UNL     1      24.933   6.572  -8.378  1.00  0.00    -0.269 OA
BRANCH  12  15
HETATM   15  C7  UNL     1      25.063   9.327  -8.547  1.00  0.00     0.124 C 
BRANCH  15  16
HETATM   16  C6  UNL     1      25.950   9.278  -9.691  1.00  0.00     0.040 C 
BRANCH  16  17
HETATM   17  C5  UNL     1      25.465   9.239 -11.079  1.00  0.00     0.131 C 
BRANCH  17  18
HETATM   18  N2  UNL     1      24.889   7.995 -11.553  1.00  0.00    -0.346 N 
HETATM   19  C2  UNL     1      23.535   7.805 -11.574  1.00  0.00     0.024 A 
HETATM   20  C1  UNL     1      22.491   8.779 -11.178  1.00  0.00     0.070 C 
HETATM   21  C3  UNL     1      23.381   6.528 -12.080  1.00  0.00     0.113 A 
HETATM   22  N1  UNL     1      24.580   6.036 -12.329  1.00  0.00    -0.360 N 
HETATM   23  C4  UNL     1      25.525   6.938 -12.007  1.00  0.00     0.183 A 
ATOM     24  H1  UNL     1      24.763   5.108 -12.711  1.00  0.00     0.166 HD
ENDBRANCH  17  18
ENDBRANCH  16  17
ENDBRANCH  15  16
ENDBRANCH  12  15
ENDBRANCH   1  11
BRANCH   1  25
HETATM   25  N4  UNL     1      25.919   6.645  -5.000  1.00  0.00    -0.387 NA
BRANCH  25  26
HETATM   26  C10 UNL     1      25.577   6.982  -3.727  1.00  0.00     0.292 C 
BRANCH  26  27
HETATM   27  O2  UNL     1      24.801   6.177  -3.010  1.00  0.00    -0.322 OA
ATOM     28  H2  UNL     1      25.136   5.773  -2.218  1.00  0.00     0.222 HD
ENDBRANCH  26  27
BRANCH  26  29
HETATM   29  N5  UNL     1      25.940   8.153  -3.073  1.00  0.00    -0.331 N 
HETATM   30  C11 UNL     1      25.342   9.392  -3.492  1.00  0.00     0.128 C 
HETATM   31  C12 UNL     1      26.360  10.467  -3.774  1.00  0.00     0.026 C 
HETATM   32  C13 UNL     1      27.668  10.175  -3.117  1.00  0.00     0.056 C 
HETATM   33  C14 UNL     1      27.381   9.503  -1.785  1.00  0.00     0.008 C 
HETATM   34  C19 UNL     1      26.804   8.193  -1.917  1.00  0.00     0.180 C 
BRANCH  33  35
HETATM   35  N6  UNL     1      27.644  10.154  -0.812  1.00  0.00    -0.322 N 
HETATM   36  C15 UNL     1      27.194  10.731   0.315  1.00  0.00     0.262 C 
ATOM     37  H6  UNL     1      28.642  10.359  -0.862  1.00  0.00     0.169 HD
BRANCH  36  38
HETATM   38  O3  UNL     1      26.688   9.935   1.222  1.00  0.00    -0.327 OA
ATOM     39  H3  UNL     1      27.275   9.291   1.600  1.00  0.00     0.221 HD
ENDBRANCH  36  38
BRANCH  36  40
HETATM   40  O4  UNL     1      27.213  12.095   0.620  1.00  0.00    -0.312 OA
BRANCH  40  41
HETATM   41  C16 UNL     1      28.344  12.838   0.178  1.00  0.00     0.124 C 
HETATM   42  C17 UNL     1      29.112  13.488   1.200  1.00  0.00     0.040 C 
HETATM   43  C18 UNL     1      27.682  13.865  -0.824  1.00  0.00     0.040 C 
ENDBRANCH  40  41
ENDBRANCH  36  40
ENDBRANCH  33  35
ENDBRANCH  26  29
ENDBRANCH  25  26
ENDBRANCH   1  25
TORSDOF 13
ENDMDL
MODEL 5
REMARK VINA RESULT: -8.254681528      2.259      8.348
REMARK  13 active torsions:
REMARK  status: ('A' for Active; 'I' for Inactive)
REMARK    1  A    between atoms: N2_7  and  C5_8 
REMARK    2  A    between atoms: C5_8  and  C6_9 
REMARK    3  A    between atoms: C6_9  and  C7_10 
REMARK    4  A    between atoms: C7_10  and  N3_11 
REMARK       I    between atoms: N3_11  and  C8_13 
REMARK    5  A    between atoms: C8_13  and  C9_15 
REMARK    6  A    between atoms: C9_15  and  N4_16 
REMARK    7  A    between atoms: N4_16  and  C10_17 
REMARK    8  A    between atoms: C10_17  and  O2_18 
REMARK    9  A    between atoms: C10_17  and  N5_20 
REMARK   10  A    between atoms: C14_24  and  N6_25 
REMARK   11  A    between atoms: C15_27  and  O3_28 
REMARK   12  A    between atoms: C15_27  and  O4_30 
REMARK   13  A    between atoms: O4_30  and  C16_31 
ROOT
HETATM    1  C9  UNL     1      26.442   8.599  -3.345  1.00  0.00     0.184 C 
HETATM    2  C20 UNL     1      26.173   8.424  -1.815  1.00  0.00     0.062 C 
HETATM    3  C21 UNL     1      26.004   9.792  -1.153  1.00  0.00    -0.002 A 
HETATM    4  C22 UNL     1      26.808   9.867   0.119  1.00  0.00     0.015 A 
HETATM    5  C23 UNL     1      27.264  10.553  -1.188  1.00  0.00    -0.039 A 
HETATM    6  C24 UNL     1      27.431  12.015  -1.060  1.00  0.00     0.015 C 
HETATM    7  C25 UNL     1      28.267   9.840  -2.017  1.00  0.00     0.022 C 
HETATM    8  C26 UNL     1      27.840   9.276  -3.324  1.00  0.00     0.000 C 
HETATM    9  C27 UNL     1      27.940  10.300  -4.415  1.00  0.00     0.019 C 
HETATM   10  C28 UNL     1      28.929   8.245  -3.613  1.00  0.00     0.019 C 
ENDROOT
BRANCH   1  11
HETATM   11  C8  UNL     1      25.354   9.494  -3.686  1.00  0.00     0.260 C 
HETATM   12  N3  UNL     1      25.624  10.697  -4.423  1.00  0.00    -0.358 N 
ATOM     13  H3  UNL     1      26.589  11.003  -4.546  1.00  0.00     0.162 HD
HETATM   14  O1  UNL     1      24.134   9.288  -3.384  1.00  0.00    -0.269 OA
BRANCH  12  15
HETATM   15  C7  UNL     1      24.540  11.492  -5.002  1.00  0.00     0.124 C 
BRANCH  15  16
HETATM   16  C6  UNL     1      24.460  11.497  -6.448  1.00  0.00     0.040 C 
BRANCH  16  17
HETATM   17  C5  UNL     1      24.248  10.277  -7.242  1.00  0.00     0.131 C 
BRANCH  17  18
HETATM   18  N2  UNL     1      25.315   9.863  -8.132  1.00  0.00    -0.346 N 
HETATM   19  C2  UNL     1      25.051   9.455  -9.411  1.00  0.00     0.024 A 
HETATM   20  C1  UNL     1      23.727   9.401 -10.074  1.00  0.00     0.070 C 
HETATM   21  C3  UNL     1      26.294   9.149  -9.932  1.00  0.00     0.113 A 
HETATM   22  N1  UNL     1      27.199   9.378  -8.999  1.00  0.00    -0.360 N 
HETATM   23  C4  UNL     1      26.604   9.822  -7.877  1.00  0.00     0.183 A 
ATOM     24  H1  UNL     1      28.203   9.238  -9.112  1.00  0.00     0.166 HD
ENDBRANCH  17  18
ENDBRANCH  16  17
ENDBRANCH  15  16
ENDBRANCH  12  15
ENDBRANCH   1  11
BRANCH   1  25
HETATM   25  N4  UNL     1      26.604   7.376  -3.916  1.00  0.00    -0.387 NA
BRANCH  25  26
HETATM   26  C10 UNL     1      26.757   6.098  -4.356  1.00  0.00     0.292 C 
BRANCH  26  27
HETATM   27  O2  UNL     1      27.167   5.150  -3.522  1.00  0.00    -0.322 OA
ATOM     28  H2  UNL     1      26.534   4.639  -3.032  1.00  0.00     0.222 HD
ENDBRANCH  26  27
BRANCH  26  29
HETATM   29  N5  UNL     1      26.553   5.660  -5.659  1.00  0.00    -0.331 N 
HETATM   30  C11 UNL     1      26.946   4.321  -6.008  1.00  0.00     0.128 C 
HETATM   31  C12 UNL     1      27.818   4.270  -7.236  1.00  0.00     0.026 C 
HETATM   32  C13 UNL     1      27.683   5.505  -8.062  1.00  0.00     0.056 C 
HETATM   33  C14 UNL     1      26.239   5.969  -7.976  1.00  0.00     0.008 C 
HETATM   34  C19 UNL     1      25.864   6.431  -6.667  1.00  0.00     0.180 C 
BRANCH  33  35
HETATM   35  N6  UNL     1      25.603   5.865  -8.987  1.00  0.00    -0.322 N 
HETATM   36  C15 UNL     1      25.298   5.109 -10.056  1.00  0.00     0.262 C 
ATOM     37  H6  UNL     1      25.055   6.721  -9.074  1.00  0.00     0.169 HD
BRANCH  36  38
HETATM   38  O3  UNL     1      24.746   3.947  -9.818  1.00  0.00    -0.327 OA
ATOM     39  H3  UNL     1      23.940   3.755 -10.282  1.00  0.00     0.221 HD
ENDBRANCH  36  38
BRANCH  36  40
HETATM   40  O4  UNL     1      25.508   5.439 -11.399  1.00  0.00    -0.312 OA
BRANCH  40  41
HETATM   41  C16 UNL     1      24.598   6.362 -11.986  1.00  0.00     0.124 C 
HETATM   42  C17 UNL     1      23.565   5.797 -12.804  1.00  0.00     0.040 C 
HETATM   43  C18 UNL     1      25.572   7.298 -12.805  1.00  0.00     0.040 C 
ENDBRANCH  40  41
ENDBRANCH  36  40
ENDBRANCH  33  35
ENDBRANCH  26  29
ENDBRANCH  25  26
ENDBRANCH   1  25
TORSDOF 13
ENDMDL
