MODEL 1
REMARK VINA RESULT: -8.298716431      0.000      0.000
REMARK  9 active torsions:
REMARK  status: ('A' for Active; 'I' for Inactive)
REMARK    1  A    between atoms: C2_2  and  C3_3 
REMARK    2  A    between atoms: C3_3  and  C6_6 
REMARK    3  A    between atoms: C11_11  and  C12_12 
REMARK    4  A    between atoms: C15_15  and  N1_16 
REMARK    5  A    between atoms: C16_17  and  N2_18 
REMARK    6  A    between atoms: C17_20  and  O1_21 
REMARK    7  A    between atoms: C17_20  and  C18_23 
REMARK    8  A    between atoms: C18_23  and  C19_24 
REMARK    9  A    between atoms: C19_24  and  C20_25 
ROOT
HETATM    1  N1  UNL     1      25.950  10.686  -4.563  1.00  0.00    -0.215 N 
HETATM    2  C16 UNL     1      26.607  10.016  -5.671  1.00  0.00     0.154 A 
HETATM    3  C25 UNL     1      25.951  10.240  -6.944  1.00  0.00     0.122 A 
HETATM    4  N4  UNL     1      26.102   9.939  -8.263  1.00  0.00    -0.303 N 
ATOM      5  H4  UNL     1      26.849   9.358  -8.641  1.00  0.00     0.171 HD
HETATM    6  C26 UNL     1      25.122  10.519  -9.008  1.00  0.00     0.326 A 
HETATM    7  O2  UNL     1      24.958  10.452 -10.250  1.00  0.00    -0.247 OA
HETATM    8  N5  UNL     1      24.337  11.192  -8.173  1.00  0.00    -0.296 N 
ATOM      9  H5  UNL     1      23.510  11.736  -8.422  1.00  0.00     0.171 HD
HETATM   10  C27 UNL     1      24.847  11.017  -6.922  1.00  0.00     0.184 A 
HETATM   11  S1  UNL     1      24.589  11.386  -5.245  1.00  0.00     0.289 S 
HETATM   12  O3  UNL     1      24.498  12.905  -5.229  1.00  0.00    -0.198 OA
HETATM   13  O4  UNL     1      23.227  10.994  -4.786  1.00  0.00    -0.198 OA
ENDROOT
BRANCH   1  14
HETATM   14  C15 UNL     1      26.499  10.642  -3.238  1.00  0.00     0.070 A 
HETATM   15  C6  UNL     1      27.050  11.767  -2.669  1.00  0.00    -0.015 A 
HETATM   16  C7  UNL     1      27.355  11.793  -1.276  1.00  0.00    -0.053 A 
HETATM   17  C8  UNL     1      27.910  12.900  -0.538  1.00  0.00     0.049 C 
HETATM   18  C9  UNL     1      27.091  10.656  -0.523  1.00  0.00     0.008 A 
HETATM   19  C10 UNL     1      26.568   9.562  -1.087  1.00  0.00     0.014 A 
HETATM   20  C11 UNL     1      26.249   9.509  -2.487  1.00  0.00    -0.006 A 
BRANCH  15  21
HETATM   21  C3  UNL     1      27.542  12.907  -3.353  1.00  0.00    -0.018 C 
HETATM   22  C4  UNL     1      27.377  14.096  -2.350  1.00  0.00     0.020 C 
HETATM   23  C5  UNL     1      29.065  12.763  -3.691  1.00  0.00     0.020 C 
BRANCH  21  24
HETATM   24  C2  UNL     1      27.030  13.616  -4.527  1.00  0.00     0.009 C 
HETATM   25  C1  UNL     1      27.019  15.168  -4.293  1.00  0.00     0.006 C 
ENDBRANCH  21  24
ENDBRANCH  15  21
BRANCH  20  26
HETATM   26  C12 UNL     1      25.851   8.183  -2.867  1.00  0.00    -0.075 C 
HETATM   27  C13 UNL     1      26.825   7.083  -2.408  1.00  0.00     0.044 C 
HETATM   28  C14 UNL     1      24.521   7.640  -3.057  1.00  0.00     0.044 C 
ENDBRANCH  20  26
ENDBRANCH   1  14
BRANCH   2  29
HETATM   29  N2  UNL     1      27.641   9.318  -5.536  1.00  0.00    -0.324 N 
HETATM   30  C17 UNL     1      28.412   8.262  -5.544  1.00  0.00     0.117 C 
ATOM     31  H2  UNL     1      28.302  10.027  -5.217  1.00  0.00     0.169 HD
BRANCH  30  32
HETATM   32  O1  UNL     1      29.376   8.171  -4.641  1.00  0.00    -0.349 OA
ATOM     33  H1  UNL     1      29.144   8.212  -3.720  1.00  0.00     0.219 HD
ENDBRANCH  30  32
BRANCH  30  34
HETATM   34  C18 UNL     1      28.423   7.048  -6.435  1.00  0.00     0.088 C 
BRANCH  34  35
HETATM   35  C19 UNL     1      27.143   6.285  -6.169  1.00  0.00     0.048 C 
BRANCH  35  36
HETATM   36  C20 UNL     1      26.461   5.774  -7.342  1.00  0.00    -0.042 A 
HETATM   37  C21 UNL     1      26.629   6.366  -8.580  1.00  0.00     0.010 A 
HETATM   38  C22 UNL     1      25.943   5.864  -9.697  1.00  0.00     0.018 A 
HETATM   39  C23 UNL     1      25.108   4.786  -9.545  1.00  0.00     0.087 A 
HETATM   40  N3  UNL     1      24.951   4.217  -8.336  1.00  0.00    -0.375 N 
HETATM   41  C24 UNL     1      25.615   4.699  -7.255  1.00  0.00     0.094 A 
ATOM     42  H3  UNL     1      24.328   3.416  -8.232  1.00  0.00     0.164 HD
ENDBRANCH  35  36
ENDBRANCH  34  35
ENDBRANCH  30  34
ENDBRANCH   2  29
TORSDOF 9
ENDMDL
MODEL 2
REMARK VINA RESULT: -8.128574414      2.935      5.182
REMARK  9 active torsions:
REMARK  status: ('A' for Active; 'I' for Inactive)
REMARK    1  A    between atoms: C2_2  and  C3_3 
REMARK    2  A    between atoms: C3_3  and  C6_6 
REMARK    3  A    between atoms: C11_11  and  C12_12 
REMARK    4  A    between atoms: C15_15  and  N1_16 
REMARK    5  A    between atoms: C16_17  and  N2_18 
REMARK    6  A    between atoms: C17_20  and  O1_21 
REMARK    7  A    between atoms: C17_20  and  C18_23 
REMARK    8  A    between atoms: C18_23  and  C19_24 
REMARK    9  A    between atoms: C19_24  and  C20_25 
ROOT
HETATM    1  N1  UNL     1      26.059   8.657  -8.386  1.00  0.00    -0.215 N 
HETATM    2  C16 UNL     1      25.249   7.479  -8.640  1.00  0.00     0.154 A 
HETATM    3  C25 UNL     1      24.592   7.505  -9.932  1.00  0.00     0.122 A 
HETATM    4  N4  UNL     1      23.793   6.727 -10.711  1.00  0.00    -0.303 N 
ATOM      5  H4  UNL     1      23.427   5.815 -10.436  1.00  0.00     0.171 HD
HETATM    6  C26 UNL     1      23.547   7.328 -11.907  1.00  0.00     0.326 A 
HETATM    7  O2  UNL     1      22.854   6.895 -12.859  1.00  0.00    -0.247 OA
HETATM    8  N5  UNL     1      24.185   8.494 -11.901  1.00  0.00    -0.296 N 
ATOM      9  H5  UNL     1      24.199   9.183 -12.654  1.00  0.00     0.171 HD
HETATM   10  C27 UNL     1      24.816   8.594 -10.698  1.00  0.00     0.184 A 
HETATM   11  S1  UNL     1      25.798   9.639  -9.719  1.00  0.00     0.289 S 
HETATM   12  O3  UNL     1      26.991   9.940 -10.614  1.00  0.00    -0.198 OA
HETATM   13  O4  UNL     1      25.191  10.990  -9.555  1.00  0.00    -0.198 OA
ENDROOT
BRANCH   1  14
HETATM   14  C15 UNL     1      26.844   8.775  -7.192  1.00  0.00     0.070 A 
HETATM   15  C6  UNL     1      26.333   9.392  -6.074  1.00  0.00    -0.015 A 
HETATM   16  C7  UNL     1      27.004   9.281  -4.820  1.00  0.00    -0.053 A 
HETATM   17  C8  UNL     1      26.580   9.849  -3.564  1.00  0.00     0.049 C 
HETATM   18  C9  UNL     1      28.184   8.550  -4.767  1.00  0.00     0.008 A 
HETATM   19  C10 UNL     1      28.681   7.965  -5.862  1.00  0.00     0.014 A 
HETATM   20  C11 UNL     1      28.024   8.058  -7.137  1.00  0.00    -0.006 A 
BRANCH  15  21
HETATM   21  C3  UNL     1      25.259  10.317  -6.033  1.00  0.00    -0.018 C 
HETATM   22  C4  UNL     1      24.674  10.212  -4.586  1.00  0.00     0.020 C 
HETATM   23  C5  UNL     1      25.756  11.786  -6.251  1.00  0.00     0.020 C 
BRANCH  21  24
HETATM   24  C2  UNL     1      23.970  10.320  -6.726  1.00  0.00     0.009 C 
HETATM   25  C1  UNL     1      23.012  11.417  -6.141  1.00  0.00     0.006 C 
ENDBRANCH  21  24
ENDBRANCH  15  21
BRANCH  20  26
HETATM   26  C12 UNL     1      28.837   7.481  -8.170  1.00  0.00    -0.075 C 
HETATM   27  C13 UNL     1      29.682   8.508  -8.946  1.00  0.00     0.044 C 
HETATM   28  C14 UNL     1      29.442   6.166  -8.239  1.00  0.00     0.044 C 
ENDBRANCH  20  26
ENDBRANCH   1  14
BRANCH   2  29
HETATM   29  N2  UNL     1      25.135   6.534  -7.822  1.00  0.00    -0.324 N 
HETATM   30  C17 UNL     1      25.454   5.470  -7.132  1.00  0.00     0.117 C 
ATOM     31  H2  UNL     1      24.193   6.707  -7.471  1.00  0.00     0.169 HD
BRANCH  30  32
HETATM   32  O1  UNL     1      24.501   4.607  -6.817  1.00  0.00    -0.349 OA
ATOM     33  H1  UNL     1      23.917   4.301  -7.502  1.00  0.00     0.219 HD
ENDBRANCH  30  32
BRANCH  30  34
HETATM   34  C18 UNL     1      26.777   5.000  -6.590  1.00  0.00     0.088 C 
BRANCH  34  35
HETATM   35  C19 UNL     1      26.503   4.314  -5.269  1.00  0.00     0.048 C 
BRANCH  35  36
HETATM   36  C20 UNL     1      26.568   5.164  -4.095  1.00  0.00    -0.042 A 
HETATM   37  C21 UNL     1      25.527   6.012  -3.770  1.00  0.00     0.010 A 
HETATM   38  C22 UNL     1      25.622   6.839  -2.639  1.00  0.00     0.018 A 
HETATM   39  C23 UNL     1      26.754   6.793  -1.866  1.00  0.00     0.087 A 
HETATM   40  N3  UNL     1      27.762   5.964  -2.191  1.00  0.00    -0.375 N 
HETATM   41  C24 UNL     1      27.672   5.163  -3.283  1.00  0.00     0.094 A 
ATOM     42  H3  UNL     1      28.601   5.937  -1.612  1.00  0.00     0.164 HD
ENDBRANCH  35  36
ENDBRANCH  34  35
ENDBRANCH  30  34
ENDBRANCH   2  29
TORSDOF 9
ENDMDL
MODEL 3
REMARK VINA RESULT: -7.776637864      2.468      6.426
REMARK  9 active torsions:
REMARK  status: ('A' for Active; 'I' for Inactive)
REMARK    1  A    between atoms: C2_2  and  C3_3 
REMARK    2  A    between atoms: C3_3  and  C6_6 
REMARK    3  A    between atoms: C11_11  and  C12_12 
REMARK    4  A    between atoms: C15_15  and  N1_16 
REMARK    5  A    between atoms: C16_17  and  N2_18 
REMARK    6  A    between atoms: C17_20  and  O1_21 
REMARK    7  A    between atoms: C17_20  and  C18_23 
REMARK    8  A    between atoms: C18_23  and  C19_24 
REMARK    9  A    between atoms: C19_24  and  C20_25 
ROOT
HETATM    1  N1  UNL     1      25.192  10.356  -7.299  1.00  0.00    -0.215 N 
HETATM    2  C16 UNL     1      25.712  11.680  -7.593  1.00  0.00     0.154 A 
HETATM    3  C25 UNL     1      25.778  11.966  -9.012  1.00  0.00     0.122 A 
HETATM    4  N4  UNL     1      26.110  12.979  -9.857  1.00  0.00    -0.303 N 
ATOM      5  H4  UNL     1      26.469  13.886  -9.560  1.00  0.00     0.171 HD
HETATM    6  C26 UNL     1      25.898  12.620 -11.152  1.00  0.00     0.326 A 
HETATM    7  O2  UNL     1      26.094  13.307 -12.184  1.00  0.00    -0.247 OA
HETATM    8  N5  UNL     1      25.431  11.376 -11.146  1.00  0.00    -0.296 N 
ATOM      9  H5  UNL     1      25.174  10.819 -11.961  1.00  0.00     0.171 HD
HETATM   10  C27 UNL     1      25.362  10.985  -9.842  1.00  0.00     0.184 A 
HETATM   11  S1  UNL     1      24.972   9.650  -8.803  1.00  0.00     0.289 S 
HETATM   12  O3  UNL     1      23.551   9.292  -9.210  1.00  0.00    -0.198 OA
HETATM   13  O4  UNL     1      25.717   8.414  -9.173  1.00  0.00    -0.198 OA
ENDROOT
BRANCH   1  14
HETATM   14  C15 UNL     1      24.981   9.924  -5.948  1.00  0.00     0.070 A 
HETATM   15  C6  UNL     1      25.918   9.147  -5.306  1.00  0.00    -0.015 A 
HETATM   16  C7  UNL     1      25.835   8.936  -3.897  1.00  0.00    -0.053 A 
HETATM   17  C8  UNL     1      26.750   8.171  -3.087  1.00  0.00     0.049 C 
HETATM   18  C9  UNL     1      24.784   9.523  -3.205  1.00  0.00     0.008 A 
HETATM   19  C10 UNL     1      23.870  10.266  -3.839  1.00  0.00     0.014 A 
HETATM   20  C11 UNL     1      23.931  10.496  -5.256  1.00  0.00    -0.006 A 
BRANCH  15  21
HETATM   21  C3  UNL     1      26.913   8.342  -5.916  1.00  0.00    -0.018 C 
HETATM   22  C4  UNL     1      28.127   8.362  -4.929  1.00  0.00     0.020 C 
HETATM   23  C5  UNL     1      26.438   6.858  -6.072  1.00  0.00     0.020 C 
BRANCH  21  24
HETATM   24  C2  UNL     1      27.696   8.547  -7.136  1.00  0.00     0.009 C 
HETATM   25  C1  UNL     1      28.692   7.358  -7.378  1.00  0.00     0.006 C 
ENDBRANCH  21  24
ENDBRANCH  15  21
BRANCH  20  26
HETATM   26  C12 UNL     1      22.756  11.187  -5.709  1.00  0.00    -0.075 C 
HETATM   27  C13 UNL     1      22.742  12.688  -5.366  1.00  0.00     0.044 C 
HETATM   28  C14 UNL     1      21.918  10.919  -6.859  1.00  0.00     0.044 C 
ENDBRANCH  20  26
ENDBRANCH   1  14
BRANCH   2  29
HETATM   29  N2  UNL     1      26.063  12.493  -6.703  1.00  0.00    -0.324 N 
HETATM   30  C17 UNL     1      26.382  12.946  -5.519  1.00  0.00     0.117 C 
ATOM     31  H2  UNL     1      26.162  13.343  -7.259  1.00  0.00     0.169 HD
BRANCH  30  32
HETATM   32  O1  UNL     1      26.073  14.195  -5.211  1.00  0.00    -0.349 OA
ATOM     33  H1  UNL     1      26.523  14.611  -4.484  1.00  0.00     0.219 HD
ENDBRANCH  30  32
BRANCH  30  34
HETATM   34  C18 UNL     1      27.077  12.284  -4.359  1.00  0.00     0.088 C 
BRANCH  34  35
HETATM   35  C19 UNL     1      27.433  13.372  -3.369  1.00  0.00     0.048 C 
BRANCH  35  36
HETATM   36  C20 UNL     1      27.504  12.959  -1.980  1.00  0.00    -0.042 A 
HETATM   37  C21 UNL     1      27.420  11.626  -1.627  1.00  0.00     0.010 A 
HETATM   38  C22 UNL     1      27.472  11.254  -0.274  1.00  0.00     0.018 A 
HETATM   39  C23 UNL     1      27.605  12.224   0.686  1.00  0.00     0.087 A 
HETATM   40  N3  UNL     1      27.686  13.520   0.332  1.00  0.00    -0.375 N 
HETATM   41  C24 UNL     1      27.637  13.882  -0.975  1.00  0.00     0.094 A 
ATOM     42  H3  UNL     1      27.784  14.235   1.052  1.00  0.00     0.164 HD
ENDBRANCH  35  36
ENDBRANCH  34  35
ENDBRANCH  30  34
ENDBRANCH   2  29
TORSDOF 9
ENDMDL
MODEL 4
REMARK VINA RESULT: -7.757706886      2.578      6.079
REMARK  9 active torsions:
REMARK  status: ('A' for Active; 'I' for Inactive)
REMARK    1  A    between atoms: C2_2  and  C3_3 
REMARK    2  A    between atoms: C3_3  and  C6_6 
REMARK    3  A    between atoms: C11_11  and  C12_12 
REMARK    4  A    between atoms: C15_15  and  N1_16 
REMARK    5  A    between atoms: C16_17  and  N2_18 
REMARK    6  A    between atoms: C17_20  and  O1_21 
REMARK    7  A    between atoms: C17_20  and  C18_23 
REMARK    8  A    between atoms: C18_23  and  C19_24 
REMARK    9  A    between atoms: C19_24  and  C20_25 
ROOT
HETATM    1  N1  UNL     1      26.084   7.536  -6.237  1.00  0.00    -0.215 N 
HETATM    2  C16 UNL     1      27.511   7.270  -6.231  1.00  0.00     0.154 A 
HETATM    3  C25 UNL     1      27.923   6.332  -7.257  1.00  0.00     0.122 A 
HETATM    4  N4  UNL     1      29.052   5.757  -7.752  1.00  0.00    -0.303 N 
ATOM      5  H4  UNL     1      29.990   5.908  -7.379  1.00  0.00     0.171 HD
HETATM    6  C26 UNL     1      28.764   4.953  -8.811  1.00  0.00     0.326 A 
HETATM    7  O2  UNL     1      29.560   4.274  -9.503  1.00  0.00    -0.247 OA
HETATM    8  N5  UNL     1      27.449   5.006  -9.000  1.00  0.00    -0.296 N 
ATOM      9  H5  UNL     1      26.918   4.513  -9.718  1.00  0.00     0.171 HD
HETATM   10  C27 UNL     1      26.946   5.844  -8.051  1.00  0.00     0.184 A 
HETATM   11  S1  UNL     1      25.474   6.519  -7.422  1.00  0.00     0.289 S 
HETATM   12  O3  UNL     1      24.834   7.164  -8.641  1.00  0.00    -0.198 OA
HETATM   13  O4  UNL     1      24.478   5.467  -7.074  1.00  0.00    -0.198 OA
ENDROOT
BRANCH   1  14
HETATM   14  C15 UNL     1      25.503   8.497  -5.345  1.00  0.00     0.070 A 
HETATM   15  C6  UNL     1      25.146   9.746  -5.795  1.00  0.00    -0.015 A 
HETATM   16  C7  UNL     1      24.340  10.600  -4.985  1.00  0.00    -0.053 A 
HETATM   17  C8  UNL     1      23.869  11.919  -5.329  1.00  0.00     0.049 C 
HETATM   18  C9  UNL     1      23.942  10.140  -3.736  1.00  0.00     0.008 A 
HETATM   19  C10 UNL     1      24.306   8.929  -3.301  1.00  0.00     0.014 A 
HETATM   20  C11 UNL     1      25.115   8.047  -4.097  1.00  0.00    -0.006 A 
BRANCH  15  21
HETATM   21  C3  UNL     1      25.641  10.405  -6.949  1.00  0.00    -0.018 C 
HETATM   22  C4  UNL     1      24.434  10.466  -7.943  1.00  0.00     0.020 C 
HETATM   23  C5  UNL     1      26.083  11.873  -6.631  1.00  0.00     0.020 C 
BRANCH  21  24
HETATM   24  C2  UNL     1      26.638   9.988  -7.936  1.00  0.00     0.009 C 
HETATM   25  C1  UNL     1      26.655  10.956  -9.172  1.00  0.00     0.006 C 
ENDBRANCH  21  24
ENDBRANCH  15  21
BRANCH  20  26
HETATM   26  C12 UNL     1      25.491   6.884  -3.344  1.00  0.00    -0.075 C 
HETATM   27  C13 UNL     1      24.811   5.587  -3.816  1.00  0.00     0.044 C 
HETATM   28  C14 UNL     1      26.739   6.590  -2.669  1.00  0.00     0.044 C 
ENDBRANCH  20  26
ENDBRANCH   1  14
BRANCH   2  29
HETATM   29  N2  UNL     1      28.306   7.805  -5.421  1.00  0.00    -0.324 N 
HETATM   30  C17 UNL     1      28.895   8.743  -4.725  1.00  0.00     0.117 C 
ATOM     31  H2  UNL     1      28.822   6.986  -5.100  1.00  0.00     0.169 HD
BRANCH  30  32
HETATM   32  O1  UNL     1      30.182   8.614  -4.444  1.00  0.00    -0.349 OA
ATOM     33  H1  UNL     1      30.797   9.226  -4.830  1.00  0.00     0.219 HD
ENDBRANCH  30  32
BRANCH  30  34
HETATM   34  C18 UNL     1      28.365  10.025  -4.141  1.00  0.00     0.088 C 
BRANCH  34  35
HETATM   35  C19 UNL     1      27.925   9.726  -2.724  1.00  0.00     0.048 C 
BRANCH  35  36
HETATM   36  C20 UNL     1      27.880  10.864  -1.827  1.00  0.00    -0.042 A 
HETATM   37  C21 UNL     1      27.525  12.119  -2.283  1.00  0.00     0.010 A 
HETATM   38  C22 UNL     1      27.508  13.209  -1.398  1.00  0.00     0.018 A 
HETATM   39  C23 UNL     1      27.847  13.014  -0.084  1.00  0.00     0.087 A 
HETATM   40  N3  UNL     1      28.192  11.788   0.351  1.00  0.00    -0.375 N 
HETATM   41  C24 UNL     1      28.207  10.733  -0.502  1.00  0.00     0.094 A 
ATOM     42  H3  UNL     1      28.443  11.651   1.330  1.00  0.00     0.164 HD
ENDBRANCH  35  36
ENDBRANCH  34  35
ENDBRANCH  30  34
ENDBRANCH   2  29
TORSDOF 9
ENDMDL
MODEL 5
REMARK VINA RESULT: -7.727673378      2.870      5.907
REMARK  9 active torsions:
REMARK  status: ('A' for Active; 'I' for Inactive)
REMARK    1  A    between atoms: C2_2  and  C3_3 
REMARK    2  A    between atoms: C3_3  and  C6_6 
REMARK    3  A    between atoms: C11_11  and  C12_12 
REMARK    4  A    between atoms: C15_15  and  N1_16 
REMARK    5  A    between atoms: C16_17  and  N2_18 
REMARK    6  A    between atoms: C17_20  and  O1_21 
REMARK    7  A    between atoms: C17_20  and  C18_23 
REMARK    8  A    between atoms: C18_23  and  C19_24 
REMARK    9  A    between atoms: C19_24  and  C20_25 
ROOT
HETATM    1  N1  UNL     1      25.986   9.774  -7.748  1.00  0.00    -0.215 N 
HETATM    2  C16 UNL     1      24.749   9.255  -8.302  1.00  0.00     0.154 A 
HETATM    3  C25 UNL     1      24.950   8.143  -9.210  1.00  0.00     0.122 A 
HETATM    4  N4  UNL     1      24.230   7.265  -9.959  1.00  0.00    -0.303 N 
ATOM      5  H4  UNL     1      23.213   7.270 -10.038  1.00  0.00     0.171 HD
HETATM    6  C26 UNL     1      25.048   6.379 -10.588  1.00  0.00     0.326 A 
HETATM    7  O2  UNL     1      24.723   5.438 -11.352  1.00  0.00    -0.247 OA
HETATM    8  N5  UNL     1      26.297   6.684 -10.249  1.00  0.00    -0.296 N 
ATOM      9  H5  UNL     1      27.144   6.206 -10.556  1.00  0.00     0.171 HD
HETATM   10  C27 UNL     1      26.228   7.757  -9.412  1.00  0.00     0.184 A 
HETATM   11  S1  UNL     1      27.188   8.887  -8.508  1.00  0.00     0.289 S 
HETATM   12  O3  UNL     1      28.058   7.991  -7.638  1.00  0.00    -0.198 OA
HETATM   13  O4  UNL     1      28.206   9.566  -9.358  1.00  0.00    -0.198 OA
ENDROOT
BRANCH   1  14
HETATM   14  C15 UNL     1      25.981  10.824  -6.771  1.00  0.00     0.070 A 
HETATM   15  C6  UNL     1      26.292  10.562  -5.457  1.00  0.00    -0.015 A 
HETATM   16  C7  UNL     1      26.539  11.633  -4.548  1.00  0.00    -0.053 A 
HETATM   17  C8  UNL     1      26.895  11.516  -3.156  1.00  0.00     0.049 C 
HETATM   18  C9  UNL     1      26.445  12.935  -5.025  1.00  0.00     0.008 A 
HETATM   19  C10 UNL     1      26.130  13.181  -6.300  1.00  0.00     0.014 A 
HETATM   20  C11 UNL     1      25.878  12.121  -7.238  1.00  0.00    -0.006 A 
BRANCH  15  21
HETATM   21  C3  UNL     1      26.227   9.304  -4.806  1.00  0.00    -0.018 C 
HETATM   22  C4  UNL     1      27.699   8.974  -4.393  1.00  0.00     0.020 C 
HETATM   23  C5  UNL     1      25.360   9.373  -3.503  1.00  0.00     0.020 C 
BRANCH  21  24
HETATM   24  C2  UNL     1      25.904   7.973  -5.322  1.00  0.00     0.009 C 
HETATM   25  C1  UNL     1      26.713   6.859  -4.569  1.00  0.00     0.006 C 
ENDBRANCH  21  24
ENDBRANCH  15  21
BRANCH  20  26
HETATM   26  C12 UNL     1      25.411  12.649  -8.488  1.00  0.00    -0.075 C 
HETATM   27  C13 UNL     1      24.246  13.646  -8.349  1.00  0.00     0.044 C 
HETATM   28  C14 UNL     1      26.140  12.885  -9.718  1.00  0.00     0.044 C 
ENDBRANCH  20  26
ENDBRANCH   1  14
BRANCH   2  29
HETATM   29  N2  UNL     1      23.619   9.723  -8.017  1.00  0.00    -0.324 N 
HETATM   30  C17 UNL     1      22.480  10.345  -8.172  1.00  0.00     0.117 C 
ATOM     31  H2  UNL     1      23.540   9.432  -7.042  1.00  0.00     0.169 HD
BRANCH  30  32
HETATM   32  O1  UNL     1      21.962  10.991  -7.139  1.00  0.00    -0.349 OA
ATOM     33  H1  UNL     1      21.386  10.520  -6.548  1.00  0.00     0.219 HD
ENDBRANCH  30  32
BRANCH  30  34
HETATM   34  C18 UNL     1      21.580  10.482  -9.371  1.00  0.00     0.088 C 
BRANCH  34  35
HETATM   35  C19 UNL     1      22.369  11.201 -10.445  1.00  0.00     0.048 C 
BRANCH  35  36
HETATM   36  C20 UNL     1      22.993  10.352 -11.440  1.00  0.00    -0.042 A 
HETATM   37  C21 UNL     1      24.312  10.536 -11.809  1.00  0.00     0.010 A 
HETATM   38  C22 UNL     1      24.889   9.713 -12.790  1.00  0.00     0.018 A 
HETATM   39  C23 UNL     1      24.131   8.730 -13.374  1.00  0.00     0.087 A 
HETATM   40  N3  UNL     1      22.847   8.559 -13.008  1.00  0.00    -0.375 N 
HETATM   41  C24 UNL     1      22.288   9.352 -12.059  1.00  0.00     0.094 A 
ATOM     42  H3  UNL     1      22.290   7.827 -13.448  1.00  0.00     0.164 HD
ENDBRANCH  35  36
ENDBRANCH  34  35
ENDBRANCH  30  34
ENDBRANCH   2  29
TORSDOF 9
ENDMDL
