MODEL 1
REMARK VINA RESULT: -6.719866974      0.000      0.000
REMARK  3 active torsions:
REMARK  status: ('A' for Active; 'I' for Inactive)
REMARK    1  A    between atoms: C2_2  and  N1_4 
REMARK    2  A    between atoms: N1_4  and  C4_6 
REMARK    3  A    between atoms: C4_6  and  C5_7 
ROOT
HETATM    1  C5  UNL     1      23.625 -43.590 -11.455  1.00  0.00    -0.008 C 
HETATM    2  C6  UNL     1      24.132 -43.544  -9.995  1.00  0.00     0.019 C 
HETATM    3  C7  UNL     1      23.911 -44.842  -9.294  1.00  0.00    -0.013 C 
HETATM    4  C8  UNL     1      22.447 -45.160  -9.272  1.00  0.00     0.009 C 
HETATM    5  C9  UNL     1      21.983 -45.246 -10.731  1.00  0.00    -0.013 C 
HETATM    6  C10 UNL     1      22.744 -46.370 -11.361  1.00  0.00     0.009 C 
HETATM    7  C11 UNL     1      24.238 -46.011 -11.398  1.00  0.00    -0.013 C 
HETATM    8  C12 UNL     1      24.746 -45.878 -10.010  1.00  0.00     0.009 C 
HETATM    9  C13 UNL     1      24.303 -44.702 -12.204  1.00  0.00     0.019 C 
HETATM   10  C14 UNL     1      22.150 -43.919 -11.411  1.00  0.00     0.019 C 
ENDROOT
BRANCH   1  11
HETATM   11  C4  UNL     1      23.907 -42.237 -11.997  1.00  0.00     0.065 C 
BRANCH  11  12
HETATM   12  N1  UNL     1      23.971 -41.997 -13.355  1.00  0.00    -0.398 N 
ATOM     13  H1  UNL     1      24.772 -42.381 -13.857  1.00  0.00     0.159 HD
BRANCH  12  14
HETATM   14  C2  UNL     1      23.039 -41.279 -14.099  1.00  0.00     0.072 C 
HETATM   15  C1  UNL     1      22.051 -42.116 -14.891  1.00  0.00     0.031 C 
HETATM   16  C3  UNL     1      23.845 -40.482 -15.161  1.00  0.00     0.031 C 
ENDBRANCH  12  14
ENDBRANCH  11  12
ENDBRANCH   1  11
TORSDOF 3
ENDMDL
MODEL 2
REMARK VINA RESULT: -6.707551170      0.164      1.922
REMARK  3 active torsions:
REMARK  status: ('A' for Active; 'I' for Inactive)
REMARK    1  A    between atoms: C2_2  and  N1_4 
REMARK    2  A    between atoms: N1_4  and  C4_6 
REMARK    3  A    between atoms: C4_6  and  C5_7 
ROOT
HETATM    1  C5  UNL     1      23.707 -43.448 -11.329  1.00  0.00    -0.008 C 
HETATM    2  C6  UNL     1      22.207 -43.820 -11.341  1.00  0.00     0.019 C 
HETATM    3  C7  UNL     1      21.962 -45.146 -10.702  1.00  0.00    -0.013 C 
HETATM    4  C8  UNL     1      22.715 -46.208 -11.442  1.00  0.00     0.009 C 
HETATM    5  C9  UNL     1      24.202 -45.839 -11.374  1.00  0.00    -0.013 C 
HETATM    6  C10 UNL     1      24.584 -45.852  -9.927  1.00  0.00     0.009 C 
HETATM    7  C11 UNL     1      23.822 -44.737  -9.192  1.00  0.00    -0.013 C 
HETATM    8  C12 UNL     1      22.365 -45.017  -9.251  1.00  0.00     0.009 C 
HETATM    9  C13 UNL     1      24.229 -43.445  -9.920  1.00  0.00     0.019 C 
HETATM   10  C14 UNL     1      24.448 -44.534 -12.074  1.00  0.00     0.019 C 
ENDROOT
BRANCH   1  11
HETATM   11  C4  UNL     1      23.775 -42.126 -12.002  1.00  0.00     0.065 C 
BRANCH  11  12
HETATM   12  N1  UNL     1      23.829 -42.013 -13.376  1.00  0.00    -0.398 N 
ATOM     13  H1  UNL     1      24.571 -42.523 -13.856  1.00  0.00     0.159 HD
BRANCH  12  14
HETATM   14  C2  UNL     1      22.959 -41.266 -14.165  1.00  0.00     0.072 C 
HETATM   15  C1  UNL     1      22.003 -42.071 -15.027  1.00  0.00     0.031 C 
HETATM   16  C3  UNL     1      23.844 -40.473 -15.166  1.00  0.00     0.031 C 
ENDBRANCH  12  14
ENDBRANCH  11  12
ENDBRANCH   1  11
TORSDOF 3
ENDMDL
MODEL 3
REMARK VINA RESULT: -6.652646896      0.487      1.893
REMARK  3 active torsions:
REMARK  status: ('A' for Active; 'I' for Inactive)
REMARK    1  A    between atoms: C2_2  and  N1_4 
REMARK    2  A    between atoms: N1_4  and  C4_6 
REMARK    3  A    between atoms: C4_6  and  C5_7 
ROOT
HETATM    1  C5  UNL     1      23.648 -43.600 -11.839  1.00  0.00    -0.008 C 
HETATM    2  C6  UNL     1      24.431 -44.883 -12.198  1.00  0.00     0.019 C 
HETATM    3  C7  UNL     1      24.149 -45.989 -11.237  1.00  0.00    -0.013 C 
HETATM    4  C8  UNL     1      24.545 -45.568  -9.855  1.00  0.00     0.009 C 
HETATM    5  C9  UNL     1      23.720 -44.323  -9.508  1.00  0.00    -0.013 C 
HETATM    6  C10 UNL     1      22.283 -44.738  -9.526  1.00  0.00     0.009 C 
HETATM    7  C11 UNL     1      21.890 -45.139 -10.958  1.00  0.00    -0.013 C 
HETATM    8  C12 UNL     1      22.681 -46.325 -11.371  1.00  0.00     0.009 C 
HETATM    9  C13 UNL     1      22.174 -43.886 -11.803  1.00  0.00     0.019 C 
HETATM   10  C14 UNL     1      24.057 -43.196 -10.441  1.00  0.00     0.019 C 
ENDROOT
BRANCH   1  11
HETATM   11  C4  UNL     1      24.047 -42.612 -12.874  1.00  0.00     0.065 C 
BRANCH  11  12
HETATM   12  N1  UNL     1      23.340 -41.443 -13.072  1.00  0.00    -0.398 N 
ATOM     13  H1  UNL     1      23.188 -40.848 -12.257  1.00  0.00     0.159 HD
BRANCH  12  14
HETATM   14  C2  UNL     1      22.816 -41.005 -14.285  1.00  0.00     0.072 C 
HETATM   15  C1  UNL     1      22.011 -42.033 -15.059  1.00  0.00     0.031 C 
HETATM   16  C3  UNL     1      24.031 -40.669 -15.193  1.00  0.00     0.031 C 
ENDBRANCH  12  14
ENDBRANCH  11  12
ENDBRANCH   1  11
TORSDOF 3
ENDMDL
MODEL 4
REMARK VINA RESULT: -6.461720641      1.268      2.204
REMARK  3 active torsions:
REMARK  status: ('A' for Active; 'I' for Inactive)
REMARK    1  A    between atoms: C2_2  and  N1_4 
REMARK    2  A    between atoms: N1_4  and  C4_6 
REMARK    3  A    between atoms: C4_6  and  C5_7 
ROOT
HETATM    1  C5  UNL     1      22.347 -44.863 -11.628  1.00  0.00    -0.008 C 
HETATM    2  C6  UNL     1      21.591 -44.451 -10.345  1.00  0.00     0.019 C 
HETATM    3  C7  UNL     1      22.366 -44.788  -9.116  1.00  0.00    -0.013 C 
HETATM    4  C8  UNL     1      22.609 -46.265  -9.063  1.00  0.00     0.009 C 
HETATM    5  C9  UNL     1      23.400 -46.638 -10.322  1.00  0.00    -0.013 C 
HETATM    6  C10 UNL     1      24.700 -45.900 -10.250  1.00  0.00     0.009 C 
HETATM    7  C11 UNL     1      24.430 -44.389 -10.333  1.00  0.00    -0.013 C 
HETATM    8  C12 UNL     1      23.633 -43.966  -9.155  1.00  0.00     0.009 C 
HETATM    9  C13 UNL     1      23.694 -44.200 -11.672  1.00  0.00     0.019 C 
HETATM   10  C14 UNL     1      22.588 -46.354 -11.552  1.00  0.00     0.019 C 
ENDROOT
BRANCH   1  11
HETATM   11  C4  UNL     1      21.445 -44.473 -12.741  1.00  0.00     0.065 C 
BRANCH  11  12
HETATM   12  N1  UNL     1      21.934 -43.952 -13.923  1.00  0.00    -0.398 N 
ATOM     13  H1  UNL     1      22.759 -44.400 -14.322  1.00  0.00     0.159 HD
BRANCH  12  14
HETATM   14  C2  UNL     1      21.399 -42.871 -14.618  1.00  0.00     0.072 C 
HETATM   15  C1  UNL     1      21.060 -43.134 -16.074  1.00  0.00     0.031 C 
HETATM   16  C3  UNL     1      22.501 -41.777 -14.645  1.00  0.00     0.031 C 
ENDBRANCH  12  14
ENDBRANCH  11  12
ENDBRANCH   1  11
TORSDOF 3
ENDMDL
MODEL 5
REMARK VINA RESULT: -6.403734766      1.299      2.676
REMARK  3 active torsions:
REMARK  status: ('A' for Active; 'I' for Inactive)
REMARK    1  A    between atoms: C2_2  and  N1_4 
REMARK    2  A    between atoms: N1_4  and  C4_6 
REMARK    3  A    between atoms: C4_6  and  C5_7 
ROOT
HETATM    1  C5  UNL     1      22.347 -44.773 -11.629  1.00  0.00    -0.008 C 
HETATM    2  C6  UNL     1      22.434 -46.315 -11.585  1.00  0.00     0.019 C 
HETATM    3  C7  UNL     1      23.363 -46.785 -10.516  1.00  0.00    -0.013 C 
HETATM    4  C8  UNL     1      24.737 -46.244 -10.769  1.00  0.00     0.009 C 
HETATM    5  C9  UNL     1      24.628 -44.715 -10.760  1.00  0.00    -0.013 C 
HETATM    6  C10 UNL     1      24.166 -44.322  -9.393  1.00  0.00     0.009 C 
HETATM    7  C11 UNL     1      22.745 -44.863  -9.164  1.00  0.00    -0.013 C 
HETATM    8  C12 UNL     1      22.773 -46.346  -9.195  1.00  0.00     0.009 C 
HETATM    9  C13 UNL     1      21.907 -44.240 -10.295  1.00  0.00     0.019 C 
HETATM   10  C14 UNL     1      23.742 -44.248 -11.878  1.00  0.00     0.019 C 
ENDROOT
BRANCH   1  11
HETATM   11  C4  UNL     1      21.404 -44.479 -12.738  1.00  0.00     0.065 C 
BRANCH  11  12
HETATM   12  N1  UNL     1      21.845 -44.022 -13.964  1.00  0.00    -0.398 N 
ATOM     13  H1  UNL     1      22.586 -44.554 -14.419  1.00  0.00     0.159 HD
BRANCH  12  14
HETATM   14  C2  UNL     1      21.367 -42.899 -14.633  1.00  0.00     0.072 C 
HETATM   15  C1  UNL     1      21.068 -43.096 -16.108  1.00  0.00     0.031 C 
HETATM   16  C3  UNL     1      22.502 -41.840 -14.583  1.00  0.00     0.031 C 
ENDBRANCH  12  14
ENDBRANCH  11  12
ENDBRANCH   1  11
TORSDOF 3
ENDMDL
