MODEL 1
REMARK VINA RESULT: -6.616236012      0.000      0.000
REMARK  3 active torsions:
REMARK  status: ('A' for Active; 'I' for Inactive)
REMARK    1  A    between atoms: C3_3  and  N1_4 
REMARK    2  A    between atoms: N1_4  and  C4_7 
REMARK    3  A    between atoms: C4_7  and  C5_8 
ROOT
HETATM    1  C5  UNL     1      23.927 -43.253 -11.018  1.00  0.00    -0.009 C 
HETATM    2  C6  UNL     1      24.435 -43.387  -9.599  1.00  0.00     0.016 C 
HETATM    3  C7  UNL     1      23.939 -44.803  -9.275  1.00  0.00    -0.011 C 
HETATM    4  C8  UNL     1      24.558 -45.829 -10.165  1.00  0.00     0.029 C 
HETATM    5  C9  UNL     1      24.381 -45.566 -11.642  1.00  0.00     0.077 C 
HETATM    6  C10 UNL     1      24.771 -44.136 -11.902  1.00  0.00     0.036 C 
HETATM    7  N2  UNL     1      23.057 -45.774 -12.118  1.00  0.00    -0.417 N 
ATOM      8  H2  UNL     1      22.721 -46.687 -12.427  1.00  0.00     0.153 HD
HETATM    9  C11 UNL     1      22.224 -44.595 -12.133  1.00  0.00     0.119 C 
HETATM   10  C12 UNL     1      22.524 -43.760 -10.880  1.00  0.00     0.013 C 
HETATM   11  C13 UNL     1      22.472 -44.635  -9.648  1.00  0.00     0.011 C 
ENDROOT
BRANCH   1  12
HETATM   12  C4  UNL     1      24.004 -41.819 -11.497  1.00  0.00     0.242 C 
BRANCH  12  13
HETATM   13  N1  UNL     1      24.156 -41.906 -12.941  1.00  0.00    -0.070 N 
ATOM     14  H12 UNL     1      23.931 -42.846 -13.269  1.00  0.00     0.277 HD
ATOM     15  H11 UNL     1      25.142 -41.865 -13.201  1.00  0.00     0.277 HD
BRANCH  13  16
HETATM   16  C3  UNL     1      23.399 -40.921 -13.668  1.00  0.00     0.186 A 
HETATM   17  C1  UNL     1      23.909 -40.603 -15.052  1.00  0.00     0.035 A 
HETATM   18  C2  UNL     1      22.652 -41.380 -14.893  1.00  0.00     0.035 A 
ENDBRANCH  13  16
ENDBRANCH  12  13
ENDBRANCH   1  12
TORSDOF 3
ENDMDL
MODEL 2
REMARK VINA RESULT: -6.558654268      1.120      2.060
REMARK  3 active torsions:
REMARK  status: ('A' for Active; 'I' for Inactive)
REMARK    1  A    between atoms: C3_3  and  N1_4 
REMARK    2  A    between atoms: N1_4  and  C4_7 
REMARK    3  A    between atoms: C4_7  and  C5_8 
ROOT
HETATM    1  C5  UNL     1      23.726 -43.679 -11.257  1.00  0.00    -0.009 C 
HETATM    2  C6  UNL     1      24.432 -44.698 -12.125  1.00  0.00     0.016 C 
HETATM    3  C7  UNL     1      24.065 -45.983 -11.372  1.00  0.00    -0.011 C 
HETATM    4  C8  UNL     1      22.592 -46.221 -11.358  1.00  0.00     0.029 C 
HETATM    5  C9  UNL     1      21.778 -45.074 -10.809  1.00  0.00     0.077 C 
HETATM    6  C10 UNL     1      22.242 -43.815 -11.490  1.00  0.00     0.036 C 
HETATM    7  N2  UNL     1      21.887 -44.900  -9.401  1.00  0.00    -0.417 N 
ATOM      8  H2  UNL     1      21.293 -45.399  -8.738  1.00  0.00     0.153 HD
HETATM    9  C11 UNL     1      22.902 -43.963  -8.981  1.00  0.00     0.119 C 
HETATM   10  C12 UNL     1      24.132 -44.125  -9.886  1.00  0.00     0.013 C 
HETATM   11  C13 UNL     1      24.523 -45.583  -9.976  1.00  0.00     0.011 C 
ENDROOT
BRANCH   1  12
HETATM   12  C4  UNL     1      24.173 -42.270 -11.588  1.00  0.00     0.242 C 
BRANCH  12  13
HETATM   13  N1  UNL     1      24.228 -42.220 -13.041  1.00  0.00    -0.070 N 
ATOM     14  H12 UNL     1      23.878 -43.089 -13.444  1.00  0.00     0.277 HD
ATOM     15  H11 UNL     1      25.195 -42.257 -13.365  1.00  0.00     0.277 HD
BRANCH  13  16
HETATM   16  C3  UNL     1      23.547 -41.087 -13.611  1.00  0.00     0.186 A 
HETATM   17  C1  UNL     1      23.974 -40.708 -15.008  1.00  0.00     0.035 A 
HETATM   18  C2  UNL     1      22.645 -41.338 -14.792  1.00  0.00     0.035 A 
ENDBRANCH  13  16
ENDBRANCH  12  13
ENDBRANCH   1  12
TORSDOF 3
ENDMDL
MODEL 3
REMARK VINA RESULT: -6.435780313      1.565      2.857
REMARK  3 active torsions:
REMARK  status: ('A' for Active; 'I' for Inactive)
REMARK    1  A    between atoms: C3_3  and  N1_4 
REMARK    2  A    between atoms: N1_4  and  C4_7 
REMARK    3  A    between atoms: C4_7  and  C5_8 
ROOT
HETATM    1  C5  UNL     1      22.769 -44.729 -11.675  1.00  0.00    -0.009 C 
HETATM    2  C6  UNL     1      22.938 -46.232 -11.606  1.00  0.00     0.016 C 
HETATM    3  C7  UNL     1      24.400 -46.309 -11.145  1.00  0.00    -0.011 C 
HETATM    4  C8  UNL     1      24.597 -45.685  -9.804  1.00  0.00     0.029 C 
HETATM    5  C9  UNL     1      24.119 -44.256  -9.702  1.00  0.00     0.077 C 
HETATM    6  C10 UNL     1      22.724 -44.198 -10.265  1.00  0.00     0.036 C 
HETATM    7  N2  UNL     1      24.933 -43.316 -10.394  1.00  0.00    -0.417 N 
ATOM      8  H2  UNL     1      25.752 -42.880  -9.970  1.00  0.00     0.153 HD
HETATM    9  C11 UNL     1      24.511 -43.026 -11.744  1.00  0.00     0.119 C 
HETATM   10  C12 UNL     1      24.016 -44.323 -12.399  1.00  0.00     0.013 C 
HETATM   11  C13 UNL     1      25.035 -45.423 -12.209  1.00  0.00     0.011 C 
ENDROOT
BRANCH   1  12
HETATM   12  C4  UNL     1      21.498 -44.352 -12.409  1.00  0.00     0.242 C 
BRANCH  12  13
HETATM   13  N1  UNL     1      21.906 -44.123 -13.785  1.00  0.00    -0.070 N 
ATOM     14  H12 UNL     1      21.871 -44.992 -14.320  1.00  0.00     0.277 HD
ATOM     15  H11 UNL     1      22.906 -43.931 -13.836  1.00  0.00     0.277 HD
BRANCH  13  16
HETATM   16  C3  UNL     1      21.158 -43.089 -14.451  1.00  0.00     0.186 A 
HETATM   17  C1  UNL     1      21.981 -42.070 -15.198  1.00  0.00     0.035 A 
HETATM   18  C2  UNL     1      21.184 -43.068 -15.957  1.00  0.00     0.035 A 
ENDBRANCH  13  16
ENDBRANCH  12  13
ENDBRANCH   1  12
TORSDOF 3
ENDMDL
MODEL 4
REMARK VINA RESULT: -6.421685375      1.438      2.662
REMARK  3 active torsions:
REMARK  status: ('A' for Active; 'I' for Inactive)
REMARK    1  A    between atoms: C3_3  and  N1_4 
REMARK    2  A    between atoms: N1_4  and  C4_7 
REMARK    3  A    between atoms: C4_7  and  C5_8 
ROOT
HETATM    1  C5  UNL     1      22.740 -44.546 -11.422  1.00  0.00    -0.009 C 
HETATM    2  C6  UNL     1      22.300 -44.929 -10.025  1.00  0.00     0.016 C 
HETATM    3  C7  UNL     1      23.660 -44.927  -9.313  1.00  0.00    -0.011 C 
HETATM    4  C8  UNL     1      24.294 -43.576  -9.324  1.00  0.00     0.029 C 
HETATM    5  C9  UNL     1      24.452 -42.969 -10.698  1.00  0.00     0.077 C 
HETATM    6  C10 UNL     1      23.130 -43.089 -11.406  1.00  0.00     0.036 C 
HETATM    7  N2  UNL     1      25.458 -43.583 -11.496  1.00  0.00    -0.417 N 
ATOM      8  H2  UNL     1      26.438 -43.300 -11.458  1.00  0.00     0.153 HD
HETATM    9  C11 UNL     1      24.986 -44.635 -12.364  1.00  0.00     0.119 C 
HETATM   10  C12 UNL     1      23.918 -45.450 -11.621  1.00  0.00     0.013 C 
HETATM   11  C13 UNL     1      24.425 -45.848 -10.253  1.00  0.00     0.011 C 
ENDROOT
BRANCH   1  12
HETATM   12  C4  UNL     1      21.631 -44.772 -12.429  1.00  0.00     0.242 C 
BRANCH  12  13
HETATM   13  N1  UNL     1      21.411 -43.476 -13.050  1.00  0.00    -0.070 N 
ATOM     14  H12 UNL     1      21.854 -42.736 -12.504  1.00  0.00     0.277 HD
ATOM     15  H11 UNL     1      20.435 -43.195 -12.959  1.00  0.00     0.277 HD
BRANCH  13  16
HETATM   16  C3  UNL     1      21.830 -43.409 -14.426  1.00  0.00     0.186 A 
HETATM   17  C1  UNL     1      20.891 -42.684 -15.357  1.00  0.00     0.035 A 
HETATM   18  C2  UNL     1      22.184 -42.055 -14.983  1.00  0.00     0.035 A 
ENDBRANCH  13  16
ENDBRANCH  12  13
ENDBRANCH   1  12
TORSDOF 3
ENDMDL
MODEL 5
REMARK VINA RESULT: -6.351112048      1.499      2.014
REMARK  3 active torsions:
REMARK  status: ('A' for Active; 'I' for Inactive)
REMARK    1  A    between atoms: C3_3  and  N1_4 
REMARK    2  A    between atoms: N1_4  and  C4_7 
REMARK    3  A    between atoms: C4_7  and  C5_8 
ROOT
HETATM    1  C5  UNL     1      23.496 -43.761 -11.287  1.00  0.00    -0.009 C 
HETATM    2  C6  UNL     1      24.137 -43.499  -9.941  1.00  0.00     0.016 C 
HETATM    3  C7  UNL     1      23.779 -44.807  -9.222  1.00  0.00    -0.011 C 
HETATM    4  C8  UNL     1      24.392 -45.995  -9.885  1.00  0.00     0.029 C 
HETATM    5  C9  UNL     1      24.065 -46.130 -11.354  1.00  0.00     0.077 C 
HETATM    6  C10 UNL     1      24.322 -44.798 -12.005  1.00  0.00     0.036 C 
HETATM    7  N2  UNL     1      22.722 -46.520 -11.621  1.00  0.00    -0.417 N 
ATOM      8  H2  UNL     1      22.429 -47.496 -11.652  1.00  0.00     0.153 HD
HETATM    9  C11 UNL     1      21.806 -45.426 -11.844  1.00  0.00     0.119 C 
HETATM   10  C12 UNL     1      22.153 -44.283 -10.879  1.00  0.00     0.013 C 
HETATM   11  C13 UNL     1      22.277 -44.813  -9.468  1.00  0.00     0.011 C 
ENDROOT
BRANCH   1  12
HETATM   12  C4  UNL     1      23.423 -42.495 -12.116  1.00  0.00     0.242 C 
BRANCH  12  13
HETATM   13  N1  UNL     1      24.130 -41.490 -11.340  1.00  0.00    -0.070 N 
ATOM     14  H12 UNL     1      24.435 -41.876 -10.445  1.00  0.00     0.277 HD
ATOM     15  H11 UNL     1      23.485 -40.774 -11.007  1.00  0.00     0.277 HD
BRANCH  13  16
HETATM   16  C3  UNL     1      25.238 -40.889 -12.036  1.00  0.00     0.186 A 
HETATM   17  C1  UNL     1      26.121 -39.995 -11.201  1.00  0.00     0.035 A 
HETATM   18  C2  UNL     1      26.626 -41.321 -11.641  1.00  0.00     0.035 A 
ENDBRANCH  13  16
ENDBRANCH  12  13
ENDBRANCH   1  12
TORSDOF 3
ENDMDL
