MODEL 1
REMARK VINA RESULT: -5.090743994      0.000      0.000
REMARK  2 active torsions:
REMARK  status: ('A' for Active; 'I' for Inactive)
REMARK    1  A    between atoms: C1_4  and  O1_6 
REMARK    2  A    between atoms: O1_6  and  N3_7 
ROOT
HETATM    1  N3  UNL     1     -27.417   7.742 -14.522  1.00  0.00    -0.188 NA
HETATM    2  C2  UNL     1     -28.129   6.566 -14.193  1.00  0.00     0.121 C 
HETATM    3  C3  UNL     1     -28.941   5.928 -15.253  1.00  0.00     0.017 C 
HETATM    4  C4  UNL     1     -29.794   6.831 -16.073  1.00  0.00     0.001 C 
HETATM    5  C5  UNL     1     -28.937   7.481 -17.131  1.00  0.00     0.001 C 
HETATM    6  C6  UNL     1     -28.235   8.697 -16.636  1.00  0.00     0.017 C 
HETATM    7  C7  UNL     1     -28.188   8.788 -15.120  1.00  0.00     0.121 C 
ENDROOT
BRANCH   1   8
HETATM    8  O1  UNL     1     -26.932   8.261 -13.316  1.00  0.00    -0.228 OA
BRANCH   8   9
HETATM    9  C1  UNL     1     -25.598   8.463 -13.076  1.00  0.00     0.243 C 
HETATM   10  N1  UNL     1     -24.989   7.739 -12.211  1.00  0.00    -0.367 N 
ATOM     11  H12 UNL     1     -23.996   7.889 -12.032  1.00  0.00     0.159 HD
ATOM     12  H11 UNL     1     -25.460   7.004 -11.683  1.00  0.00     0.159 HD
HETATM   13  N2  UNL     1     -24.936   9.497 -13.819  1.00  0.00    -0.055 NA
ENDBRANCH   8   9
ENDBRANCH   1   8
TORSDOF 2
ENDMDL
MODEL 2
REMARK VINA RESULT: -5.060037099      3.100      4.608
REMARK  2 active torsions:
REMARK  status: ('A' for Active; 'I' for Inactive)
REMARK    1  A    between atoms: C1_4  and  O1_6 
REMARK    2  A    between atoms: O1_6  and  N3_7 
ROOT
HETATM    1  N3  UNL     1     -28.714   5.715 -15.740  1.00  0.00    -0.188 NA
HETATM    2  C2  UNL     1     -29.440   6.282 -16.813  1.00  0.00     0.121 C 
HETATM    3  C3  UNL     1     -29.200   7.706 -17.136  1.00  0.00     0.017 C 
HETATM    4  C4  UNL     1     -29.159   8.652 -15.988  1.00  0.00     0.001 C 
HETATM    5  C5  UNL     1     -27.798   8.577 -15.343  1.00  0.00     0.001 C 
HETATM    6  C6  UNL     1     -27.690   7.470 -14.353  1.00  0.00     0.017 C 
HETATM    7  C7  UNL     1     -28.782   6.424 -14.500  1.00  0.00     0.121 C 
ENDROOT
BRANCH   1   8
HETATM    8  O1  UNL     1     -29.281   4.459 -15.499  1.00  0.00    -0.228 OA
BRANCH   8   9
HETATM    9  C1  UNL     1     -28.686   3.287 -15.883  1.00  0.00     0.243 C 
HETATM   10  N1  UNL     1     -29.005   2.745 -17.001  1.00  0.00    -0.367 N 
ATOM     11  H12 UNL     1     -28.561   1.873 -17.287  1.00  0.00     0.159 HD
ATOM     12  H11 UNL     1     -29.696   3.155 -17.630  1.00  0.00     0.159 HD
HETATM   13  N2  UNL     1     -27.714   2.711 -14.998  1.00  0.00    -0.055 NA
ENDBRANCH   8   9
ENDBRANCH   1   8
TORSDOF 2
ENDMDL
MODEL 3
REMARK VINA RESULT: -5.038220200      2.265      3.057
REMARK  2 active torsions:
REMARK  status: ('A' for Active; 'I' for Inactive)
REMARK    1  A    between atoms: C1_4  and  O1_6 
REMARK    2  A    between atoms: O1_6  and  N3_7 
ROOT
HETATM    1  N3  UNL     1     -27.821   6.497 -14.478  1.00  0.00    -0.188 NA
HETATM    2  C2  UNL     1     -29.076   6.186 -15.052  1.00  0.00     0.121 C 
HETATM    3  C3  UNL     1     -29.492   6.938 -16.257  1.00  0.00     0.017 C 
HETATM    4  C4  UNL     1     -29.295   8.413 -16.222  1.00  0.00     0.001 C 
HETATM    5  C5  UNL     1     -27.853   8.719 -16.538  1.00  0.00     0.001 C 
HETATM    6  C6  UNL     1     -26.970   8.636 -15.342  1.00  0.00     0.017 C 
HETATM    7  C7  UNL     1     -27.597   7.878 -14.184  1.00  0.00     0.121 C 
ENDROOT
BRANCH   1   8
HETATM    8  O1  UNL     1     -27.772   5.828 -13.250  1.00  0.00    -0.228 OA
BRANCH   8   9
HETATM    9  C1  UNL     1     -27.523   4.485 -13.143  1.00  0.00     0.243 C 
HETATM   10  N1  UNL     1     -28.277   3.751 -12.410  1.00  0.00    -0.367 N 
ATOM     11  H12 UNL     1     -28.091   2.752 -12.331  1.00  0.00     0.159 HD
ATOM     12  H11 UNL     1     -29.070   4.129 -11.891  1.00  0.00     0.159 HD
HETATM   13  N2  UNL     1     -26.407   3.954 -13.873  1.00  0.00    -0.055 NA
ENDBRANCH   8   9
ENDBRANCH   1   8
TORSDOF 2
ENDMDL
MODEL 4
REMARK VINA RESULT: -4.974530524      0.929      1.058
REMARK  2 active torsions:
REMARK  status: ('A' for Active; 'I' for Inactive)
REMARK    1  A    between atoms: C1_4  and  O1_6 
REMARK    2  A    between atoms: O1_6  and  N3_7 
ROOT
HETATM    1  N3  UNL     1     -27.640   8.300 -14.905  1.00  0.00    -0.188 NA
HETATM    2  C2  UNL     1     -28.018   7.081 -14.294  1.00  0.00     0.121 C 
HETATM    3  C3  UNL     1     -28.702   6.070 -15.131  1.00  0.00     0.017 C 
HETATM    4  C4  UNL     1     -29.797   6.563 -16.010  1.00  0.00     0.001 C 
HETATM    5  C5  UNL     1     -29.190   7.167 -17.251  1.00  0.00     0.001 C 
HETATM    6  C6  UNL     1     -28.786   8.588 -17.062  1.00  0.00     0.017 C 
HETATM    7  C7  UNL     1     -28.679   8.993 -15.602  1.00  0.00     0.121 C 
ENDROOT
BRANCH   1   8
HETATM    8  O1  UNL     1     -27.234   9.151 -13.871  1.00  0.00    -0.228 OA
BRANCH   8   9
HETATM    9  C1  UNL     1     -25.984   9.708 -13.814  1.00  0.00     0.243 C 
HETATM   10  N1  UNL     1     -24.976   8.985 -13.490  1.00  0.00    -0.367 N 
ATOM     11  H12 UNL     1     -24.046   9.400 -13.448  1.00  0.00     0.159 HD
ATOM     12  H11 UNL     1     -25.063   7.993 -13.268  1.00  0.00     0.159 HD
HETATM   13  N2  UNL     1     -25.862  11.104 -14.126  1.00  0.00    -0.055 NA
ENDBRANCH   8   9
ENDBRANCH   1   8
TORSDOF 2
ENDMDL
MODEL 5
REMARK VINA RESULT: -4.969049715      0.249      1.044
REMARK  2 active torsions:
REMARK  status: ('A' for Active; 'I' for Inactive)
REMARK    1  A    between atoms: C1_4  and  O1_6 
REMARK    2  A    between atoms: O1_6  and  N3_7 
ROOT
HETATM    1  N3  UNL     1     -27.465   7.942 -14.708  1.00  0.00    -0.188 NA
HETATM    2  C2  UNL     1     -28.070   6.748 -14.250  1.00  0.00     0.121 C 
HETATM    3  C3  UNL     1     -28.874   5.965 -15.215  1.00  0.00     0.017 C 
HETATM    4  C4  UNL     1     -29.828   6.731 -16.064  1.00  0.00     0.001 C 
HETATM    5  C5  UNL     1     -29.069   7.350 -17.210  1.00  0.00     0.001 C 
HETATM    6  C6  UNL     1     -28.442   8.652 -16.850  1.00  0.00     0.017 C 
HETATM    7  C7  UNL     1     -28.338   8.874 -15.351  1.00  0.00     0.121 C 
ENDROOT
BRANCH   1   8
HETATM    8  O1  UNL     1     -26.971   8.594 -13.573  1.00  0.00    -0.228 OA
BRANCH   8   9
HETATM    9  C1  UNL     1     -25.633   8.691 -13.293  1.00  0.00     0.243 C 
HETATM   10  N1  UNL     1     -24.932   9.617 -13.835  1.00  0.00    -0.367 N 
ATOM     11  H12 UNL     1     -23.936   9.689 -13.626  1.00  0.00     0.159 HD
ATOM     12  H11 UNL     1     -25.332  10.300 -14.479  1.00  0.00     0.159 HD
HETATM   13  N2  UNL     1     -25.071   7.729 -12.388  1.00  0.00    -0.055 NA
ENDBRANCH   8   9
ENDBRANCH   1   8
TORSDOF 2
ENDMDL
