MODEL 1
REMARK VINA RESULT: -4.870292108      0.000      0.000
REMARK  1 active torsions:
REMARK  status: ('A' for Active; 'I' for Inactive)
REMARK    1  A    between atoms: N1_1  and  C1_5 
ROOT
HETATM    1  C1  UNL     1     -28.591   2.408 -32.152  1.00  0.00     0.188 C 
HETATM    2  C2  UNL     1     -28.348   3.284 -33.378  1.00  0.00     0.039 C 
HETATM    3  C3  UNL     1     -27.084   3.730 -32.780  1.00  0.00     0.002 C 
HETATM    4  C4  UNL     1     -27.217   2.703 -31.648  1.00  0.00     0.021 C 
HETATM    5  C5  UNL     1     -27.120   3.481 -30.367  1.00  0.00     0.008 C 
HETATM    6  C6  UNL     1     -26.276   4.673 -30.792  1.00  0.00     0.010 C 
HETATM    7  C7  UNL     1     -26.960   5.028 -32.120  1.00  0.00    -0.036 C 
HETATM    8  C8  UNL     1     -26.087   5.942 -32.953  1.00  0.00     0.010 C 
HETATM    9  C9  UNL     1     -26.865   7.233 -33.113  1.00  0.00     0.001 C 
HETATM   10  C10 UNL     1     -27.683   7.240 -31.822  1.00  0.00     0.001 C 
HETATM   11  C11 UNL     1     -28.181   5.786 -31.817  1.00  0.00     0.010 C 
ENDROOT
BRANCH   1  12
HETATM   12  N1  UNL     1     -28.750   1.025 -32.555  1.00  0.00    -0.075 N 
ATOM     13  H13 UNL     1     -29.270   0.938 -33.428  1.00  0.00     0.274 HD
ATOM     14  H12 UNL     1     -27.870   0.613 -32.866  1.00  0.00     0.274 HD
ATOM     15  H11 UNL     1     -29.178   0.489 -31.801  1.00  0.00     0.274 HD
ENDBRANCH   1  12
TORSDOF 1
ENDMDL
MODEL 2
REMARK VINA RESULT: -4.427757888      0.996      1.134
REMARK  1 active torsions:
REMARK  status: ('A' for Active; 'I' for Inactive)
REMARK    1  A    between atoms: N1_1  and  C1_5 
ROOT
HETATM    1  C1  UNL     1     -28.534   3.374 -32.940  1.00  0.00     0.188 C 
HETATM    2  C2  UNL     1     -28.316   4.442 -34.008  1.00  0.00     0.039 C 
HETATM    3  C3  UNL     1     -27.076   4.836 -33.329  1.00  0.00     0.002 C 
HETATM    4  C4  UNL     1     -27.177   3.637 -32.377  1.00  0.00     0.021 C 
HETATM    5  C5  UNL     1     -27.121   4.205 -30.986  1.00  0.00     0.008 C 
HETATM    6  C6  UNL     1     -26.323   5.481 -31.205  1.00  0.00     0.010 C 
HETATM    7  C7  UNL     1     -27.010   6.016 -32.470  1.00  0.00    -0.036 C 
HETATM    8  C8  UNL     1     -26.169   7.085 -33.134  1.00  0.00     0.010 C 
HETATM    9  C9  UNL     1     -26.997   8.353 -33.098  1.00  0.00     0.001 C 
HETATM   10  C10 UNL     1     -27.824   8.123 -31.834  1.00  0.00     0.001 C 
HETATM   11  C11 UNL     1     -28.262   6.668 -32.066  1.00  0.00     0.010 C 
ENDROOT
BRANCH   1  12
HETATM   12  N1  UNL     1     -28.634   2.067 -33.560  1.00  0.00    -0.075 N 
ATOM     13  H13 UNL     1     -29.385   2.027 -34.248  1.00  0.00     0.274 HD
ATOM     14  H12 UNL     1     -27.850   1.880 -34.185  1.00  0.00     0.274 HD
ATOM     15  H11 UNL     1     -28.732   1.348 -32.843  1.00  0.00     0.274 HD
ENDBRANCH   1  12
TORSDOF 1
ENDMDL
MODEL 3
REMARK VINA RESULT: -4.412661108      2.575      4.416
REMARK  1 active torsions:
REMARK  status: ('A' for Active; 'I' for Inactive)
REMARK    1  A    between atoms: N1_1  and  C1_5 
ROOT
HETATM    1  C1  UNL     1     -28.758   7.997 -31.828  1.00  0.00     0.188 C 
HETATM    2  C2  UNL     1     -28.882   6.940 -30.734  1.00  0.00     0.039 C 
HETATM    3  C3  UNL     1     -27.479   6.573 -30.961  1.00  0.00     0.002 C 
HETATM    4  C4  UNL     1     -27.285   7.764 -31.909  1.00  0.00     0.021 C 
HETATM    5  C5  UNL     1     -26.761   7.191 -33.195  1.00  0.00     0.008 C 
HETATM    6  C6  UNL     1     -26.053   5.936 -32.708  1.00  0.00     0.010 C 
HETATM    7  C7  UNL     1     -27.108   5.391 -31.735  1.00  0.00    -0.036 C 
HETATM    8  C8  UNL     1     -26.510   4.347 -30.816  1.00  0.00     0.010 C 
HETATM    9  C9  UNL     1     -27.252   3.058 -31.107  1.00  0.00     0.001 C 
HETATM   10  C10 UNL     1     -27.621   3.261 -32.576  1.00  0.00     0.001 C 
HETATM   11  C11 UNL     1     -28.143   4.706 -32.520  1.00  0.00     0.010 C 
ENDROOT
BRANCH   1  12
HETATM   12  N1  UNL     1     -29.084   9.304 -31.292  1.00  0.00    -0.075 N 
ATOM     13  H13 UNL     1     -29.397   9.253 -30.323  1.00  0.00     0.274 HD
ATOM     14  H12 UNL     1     -28.253   9.878 -31.150  1.00  0.00     0.274 HD
ATOM     15  H11 UNL     1     -29.769   9.765 -31.891  1.00  0.00     0.274 HD
ENDBRANCH   1  12
TORSDOF 1
ENDMDL
MODEL 4
REMARK VINA RESULT: -4.335639360      1.713      2.923
REMARK  1 active torsions:
REMARK  status: ('A' for Active; 'I' for Inactive)
REMARK    1  A    between atoms: N1_1  and  C1_5 
ROOT
HETATM    1  C1  UNL     1     -26.975   4.060 -32.976  1.00  0.00     0.188 C 
HETATM    2  C2  UNL     1     -28.443   4.289 -32.624  1.00  0.00     0.039 C 
HETATM    3  C3  UNL     1     -28.279   5.708 -32.960  1.00  0.00     0.002 C 
HETATM    4  C4  UNL     1     -26.870   5.450 -33.512  1.00  0.00     0.021 C 
HETATM    5  C5  UNL     1     -25.958   6.390 -32.776  1.00  0.00     0.008 C 
HETATM    6  C6  UNL     1     -26.904   7.529 -32.426  1.00  0.00     0.010 C 
HETATM    7  C7  UNL     1     -28.116   6.730 -31.929  1.00  0.00    -0.036 C 
HETATM    8  C8  UNL     1     -29.353   7.600 -31.873  1.00  0.00     0.010 C 
HETATM    9  C9  UNL     1     -29.773   7.638 -30.417  1.00  0.00     0.001 C 
HETATM   10  C10 UNL     1     -28.423   7.465 -29.722  1.00  0.00     0.001 C 
HETATM   11  C11 UNL     1     -27.847   6.305 -30.549  1.00  0.00     0.010 C 
ENDROOT
BRANCH   1  12
HETATM   12  N1  UNL     1     -26.866   3.055 -34.015  1.00  0.00    -0.075 N 
ATOM     13  H13 UNL     1     -26.993   2.112 -33.650  1.00  0.00     0.274 HD
ATOM     14  H12 UNL     1     -27.662   3.076 -34.653  1.00  0.00     0.274 HD
ATOM     15  H11 UNL     1     -25.979   3.158 -34.507  1.00  0.00     0.274 HD
ENDBRANCH   1  12
TORSDOF 1
ENDMDL
MODEL 5
REMARK VINA RESULT: -4.314598767      1.183      1.488
REMARK  1 active torsions:
REMARK  status: ('A' for Active; 'I' for Inactive)
REMARK    1  A    between atoms: N1_1  and  C1_5 
ROOT
HETATM    1  C1  UNL     1     -27.593   3.104 -31.857  1.00  0.00     0.188 C 
HETATM    2  C2  UNL     1     -27.137   3.763 -33.156  1.00  0.00     0.039 C 
HETATM    3  C3  UNL     1     -26.555   4.858 -32.370  1.00  0.00     0.002 C 
HETATM    4  C4  UNL     1     -26.823   4.105 -31.060  1.00  0.00     0.021 C 
HETATM    5  C5  UNL     1     -27.623   5.042 -30.199  1.00  0.00     0.008 C 
HETATM    6  C6  UNL     1     -27.169   6.399 -30.714  1.00  0.00     0.010 C 
HETATM    7  C7  UNL     1     -27.228   6.146 -32.227  1.00  0.00    -0.036 C 
HETATM    8  C8  UNL     1     -26.462   7.209 -32.985  1.00  0.00     0.010 C 
HETATM    9  C9  UNL     1     -27.478   7.917 -33.858  1.00  0.00     0.001 C 
HETATM   10  C10 UNL     1     -28.745   7.752 -33.020  1.00  0.00     0.001 C 
HETATM   11  C11 UNL     1     -28.628   6.264 -32.655  1.00  0.00     0.010 C 
ENDROOT
BRANCH   1  12
HETATM   12  N1  UNL     1     -27.037   1.769 -31.757  1.00  0.00    -0.075 N 
ATOM     13  H13 UNL     1     -26.446   1.540 -32.556  1.00  0.00     0.274 HD
ATOM     14  H12 UNL     1     -26.328   1.704 -31.026  1.00  0.00     0.274 HD
ATOM     15  H11 UNL     1     -27.785   1.089 -31.627  1.00  0.00     0.274 HD
ENDBRANCH   1  12
TORSDOF 1
ENDMDL
