MODEL 1
REMARK VINA RESULT: -5.661842740      0.000      0.000
REMARK  4 active torsions:
REMARK  status: ('A' for Active; 'I' for Inactive)
REMARK    1  A    between atoms: C3_3  and  N1_4 
REMARK       I    between atoms: N1_4  and  C4_6 
REMARK    2  A    between atoms: C4_6  and  C5_8 
REMARK    3  A    between atoms: C11_14  and  C12_15 
REMARK    4  A    between atoms: C12_15  and  C13_17 
ROOT
HETATM    1  C1  UNL     1     126.696 101.914 -42.049  1.00  0.00     0.014 C 
HETATM    2  C2  UNL     1     125.720 102.191 -42.689  1.00  0.00    -0.098 C 
HETATM    3  C3  UNL     1     124.539 102.543 -43.490  1.00  0.00     0.216 C 
ENDROOT
BRANCH   3   4
HETATM    4  N1  UNL     1     124.615 101.854 -44.760  1.00  0.00    -0.350 N 
HETATM    5  C4  UNL     1     124.258 102.475 -45.987  1.00  0.00     0.222 C 
HETATM    6  O1  UNL     1     123.863 103.672 -45.936  1.00  0.00    -0.273 OA
ATOM      7  H1  UNL     1     124.937 100.887 -44.775  1.00  0.00     0.163 HD
BRANCH   5   8
HETATM    8  C5  UNL     1     124.333 101.783 -47.286  1.00  0.00     0.078 C 
HETATM    9  C6  UNL     1     123.148 102.225 -48.116  1.00  0.00     0.014 C 
HETATM   10  C7  UNL     1     123.346 101.671 -49.493  1.00  0.00     0.006 C 
HETATM   11  C8  UNL     1     123.656 100.221 -49.551  1.00  0.00    -0.004 A 
HETATM   12  C9  UNL     1     124.050  99.520 -48.354  1.00  0.00    -0.003 A 
HETATM   13  C11 UNL     1     122.707  99.281 -48.903  1.00  0.00     0.014 A 
HETATM   14  C10 UNL     1     124.241 100.311 -47.099  1.00  0.00     0.019 C 
BRANCH  13  15
HETATM   15  C12 UNL     1     122.219  98.056 -49.556  1.00  0.00     0.101 C 
HETATM   16 CL1  UNL     1     123.194  96.674 -48.932  1.00  0.00    -0.123 Cl
BRANCH  15  17
HETATM   17  C13 UNL     1     120.797  97.686 -49.469  1.00  0.00     0.135 C 
HETATM   18 CL2  UNL     1     119.655  99.017 -49.749  1.00  0.00    -0.129 Cl
ENDBRANCH  15  17
ENDBRANCH  13  15
ENDBRANCH   5   8
ENDBRANCH   3   4
TORSDOF 4
ENDMDL
MODEL 2
REMARK VINA RESULT: -5.407789793      1.686      2.175
REMARK  4 active torsions:
REMARK  status: ('A' for Active; 'I' for Inactive)
REMARK    1  A    between atoms: C3_3  and  N1_4 
REMARK       I    between atoms: N1_4  and  C4_6 
REMARK    2  A    between atoms: C4_6  and  C5_8 
REMARK    3  A    between atoms: C11_14  and  C12_15 
REMARK    4  A    between atoms: C12_15  and  C13_17 
ROOT
HETATM    1  C1  UNL     1     123.549 106.754 -45.050  1.00  0.00     0.014 C 
HETATM    2  C2  UNL     1     123.910 105.615 -44.956  1.00  0.00    -0.098 C 
HETATM    3  C3  UNL     1     124.329 104.211 -44.846  1.00  0.00     0.216 C 
ENDROOT
BRANCH   3   4
HETATM    4  N1  UNL     1     124.275 103.604 -46.159  1.00  0.00    -0.350 N 
HETATM    5  C4  UNL     1     124.339 102.198 -46.353  1.00  0.00     0.222 C 
HETATM    6  O1  UNL     1     124.448 101.477 -45.324  1.00  0.00    -0.273 OA
ATOM      7  H1  UNL     1     124.187 104.208 -46.976  1.00  0.00     0.163 HD
BRANCH   5   8
HETATM    8  C5  UNL     1     124.284 101.571 -47.685  1.00  0.00     0.078 C 
HETATM    9  C6  UNL     1     123.034 102.064 -48.379  1.00  0.00     0.014 C 
HETATM   10  C7  UNL     1     123.097 101.576 -49.794  1.00  0.00     0.006 C 
HETATM   11  C8  UNL     1     123.381 100.128 -49.951  1.00  0.00    -0.004 A 
HETATM   12  C9  UNL     1     123.875  99.366 -48.831  1.00  0.00    -0.003 A 
HETATM   13  C11 UNL     1     122.484  99.166 -49.263  1.00  0.00     0.014 A 
HETATM   14  C10 UNL     1     124.191 100.092 -47.563  1.00  0.00     0.019 C 
BRANCH  13  15
HETATM   15  C12 UNL     1     121.921  97.979 -49.927  1.00  0.00     0.101 C 
HETATM   16 CL1  UNL     1     122.759  96.529 -49.262  1.00  0.00    -0.123 Cl
BRANCH  15  17
HETATM   17  C13 UNL     1     120.471  97.725 -49.888  1.00  0.00     0.135 C 
HETATM   18 CL2  UNL     1     119.466  99.153 -49.568  1.00  0.00    -0.129 Cl
ENDBRANCH  15  17
ENDBRANCH  13  15
ENDBRANCH   5   8
ENDBRANCH   3   4
TORSDOF 4
ENDMDL
MODEL 3
REMARK VINA RESULT: -5.332791576      5.627      8.691
REMARK  4 active torsions:
REMARK  status: ('A' for Active; 'I' for Inactive)
REMARK    1  A    between atoms: C3_3  and  N1_4 
REMARK       I    between atoms: N1_4  and  C4_6 
REMARK    2  A    between atoms: C4_6  and  C5_8 
REMARK    3  A    between atoms: C11_14  and  C12_15 
REMARK    4  A    between atoms: C12_15  and  C13_17 
ROOT
HETATM    1  C1  UNL     1     124.044 101.344 -47.481  1.00  0.00     0.014 C 
HETATM    2  C2  UNL     1     124.325 101.434 -46.319  1.00  0.00    -0.098 C 
HETATM    3  C3  UNL     1     124.696 101.551 -44.901  1.00  0.00     0.216 C 
ENDROOT
BRANCH   3   4
HETATM    4  N1  UNL     1     124.973 102.940 -44.605  1.00  0.00    -0.350 N 
HETATM    5  C4  UNL     1     124.776 103.499 -43.314  1.00  0.00     0.222 C 
HETATM    6  O1  UNL     1     124.342 102.731 -42.412  1.00  0.00    -0.273 OA
ATOM      7  H1  UNL     1     125.322 103.541 -45.351  1.00  0.00     0.163 HD
BRANCH   5   8
HETATM    8  C5  UNL     1     125.055 104.911 -43.002  1.00  0.00     0.078 C 
HETATM    9  C6  UNL     1     124.631 105.163 -41.572  1.00  0.00     0.014 C 
HETATM   10  C7  UNL     1     125.102 106.538 -41.211  1.00  0.00     0.006 C 
HETATM   11  C8  UNL     1     124.739 107.604 -42.177  1.00  0.00    -0.004 A 
HETATM   12  C9  UNL     1     124.267 107.252 -43.493  1.00  0.00    -0.003 A 
HETATM   13  C11 UNL     1     123.304 107.777 -42.514  1.00  0.00     0.014 A 
HETATM   14  C10 UNL     1     124.262 105.808 -43.883  1.00  0.00     0.019 C 
BRANCH  13  15
HETATM   15  C12 UNL     1     122.637 109.089 -42.538  1.00  0.00     0.101 C 
HETATM   16 CL1  UNL     1     122.877 109.798 -44.177  1.00  0.00    -0.123 Cl
BRANCH  15  17
HETATM   17  C13 UNL     1     121.210 109.202 -42.196  1.00  0.00     0.135 C 
HETATM   18 CL2  UNL     1     120.112 108.265 -43.231  1.00  0.00    -0.129 Cl
ENDBRANCH  15  17
ENDBRANCH  13  15
ENDBRANCH   5   8
ENDBRANCH   3   4
TORSDOF 4
ENDMDL
MODEL 4
REMARK VINA RESULT: -5.212027561      0.839      1.440
REMARK  4 active torsions:
REMARK  status: ('A' for Active; 'I' for Inactive)
REMARK    1  A    between atoms: C3_3  and  N1_4 
REMARK       I    between atoms: N1_4  and  C4_6 
REMARK    2  A    between atoms: C4_6  and  C5_8 
REMARK    3  A    between atoms: C11_14  and  C12_15 
REMARK    4  A    between atoms: C12_15  and  C13_17 
ROOT
HETATM    1  C1  UNL     1     126.561 101.957 -41.958  1.00  0.00     0.014 C 
HETATM    2  C2  UNL     1     125.681 102.347 -42.674  1.00  0.00    -0.098 C 
HETATM    3  C3  UNL     1     124.621 102.836 -43.567  1.00  0.00     0.216 C 
ENDROOT
BRANCH   3   4
HETATM    4  N1  UNL     1     124.653 102.065 -44.792  1.00  0.00    -0.350 N 
HETATM    5  C4  UNL     1     124.277 102.613 -46.048  1.00  0.00     0.222 C 
HETATM    6  O1  UNL     1     123.906 103.819 -46.065  1.00  0.00    -0.273 OA
ATOM      7  H1  UNL     1     124.956 101.093 -44.752  1.00  0.00     0.163 HD
BRANCH   5   8
HETATM    8  C5  UNL     1     124.306 101.838 -47.300  1.00  0.00     0.078 C 
HETATM    9  C6  UNL     1     123.107 102.247 -48.127  1.00  0.00     0.014 C 
HETATM   10  C7  UNL     1     123.261 101.601 -49.470  1.00  0.00     0.006 C 
HETATM   11  C8  UNL     1     123.545 100.145 -49.442  1.00  0.00    -0.004 A 
HETATM   12  C9  UNL     1     123.960  99.516 -48.213  1.00  0.00    -0.003 A 
HETATM   13  C11 UNL     1     122.599  99.266 -48.711  1.00  0.00     0.014 A 
HETATM   14  C10 UNL     1     124.196 100.383 -47.017  1.00  0.00     0.019 C 
BRANCH  13  15
HETATM   15  C12 UNL     1     122.074  98.010 -49.271  1.00  0.00     0.101 C 
HETATM   16 CL1  UNL     1     121.494  98.354 -50.942  1.00  0.00    -0.123 Cl
BRANCH  15  17
HETATM   17  C13 UNL     1     122.922  96.808 -49.320  1.00  0.00     0.135 C 
HETATM   18 CL2  UNL     1     122.234  95.439 -50.218  1.00  0.00    -0.129 Cl
ENDBRANCH  15  17
ENDBRANCH  13  15
ENDBRANCH   5   8
ENDBRANCH   3   4
TORSDOF 4
ENDMDL
MODEL 5
REMARK VINA RESULT: -5.195238572      5.814      7.432
REMARK  4 active torsions:
REMARK  status: ('A' for Active; 'I' for Inactive)
REMARK    1  A    between atoms: C3_3  and  N1_4 
REMARK       I    between atoms: N1_4  and  C4_6 
REMARK    2  A    between atoms: C4_6  and  C5_8 
REMARK    3  A    between atoms: C11_14  and  C12_15 
REMARK    4  A    between atoms: C12_15  and  C13_17 
ROOT
HETATM    1  C1  UNL     1     127.493 101.852 -41.216  1.00  0.00     0.014 C 
HETATM    2  C2  UNL     1     126.417 101.919 -41.742  1.00  0.00    -0.098 C 
HETATM    3  C3  UNL     1     125.091 102.017 -42.368  1.00  0.00     0.216 C 
ENDROOT
BRANCH   3   4
HETATM    4  N1  UNL     1     124.894 103.374 -42.832  1.00  0.00    -0.350 N 
HETATM    5  C4  UNL     1     124.694 103.690 -44.202  1.00  0.00     0.222 C 
HETATM    6  O1  UNL     1     124.693 102.731 -45.022  1.00  0.00    -0.273 OA
ATOM      7  H1  UNL     1     124.898 104.132 -42.150  1.00  0.00     0.163 HD
BRANCH   5   8
HETATM    8  C5  UNL     1     124.492 105.067 -44.685  1.00  0.00     0.078 C 
HETATM    9  C6  UNL     1     124.351 105.966 -43.477  1.00  0.00     0.014 C 
HETATM   10  C7  UNL     1     124.346 107.377 -43.979  1.00  0.00     0.006 C 
HETATM   11  C8  UNL     1     123.397 107.650 -45.088  1.00  0.00    -0.004 A 
HETATM   12  C9  UNL     1     122.797 106.554 -45.808  1.00  0.00    -0.003 A 
HETATM   13  C11 UNL     1     121.965 107.325 -44.872  1.00  0.00     0.014 A 
HETATM   14  C10 UNL     1     123.240 105.163 -45.480  1.00  0.00     0.019 C 
BRANCH  13  15
HETATM   15  C12 UNL     1     120.872 108.251 -45.210  1.00  0.00     0.101 C 
HETATM   16 CL1  UNL     1     119.706 107.365 -46.260  1.00  0.00    -0.123 Cl
BRANCH  15  17
HETATM   17  C13 UNL     1     120.109 108.918 -44.142  1.00  0.00     0.135 C 
HETATM   18 CL2  UNL     1     120.776 108.726 -42.508  1.00  0.00    -0.129 Cl
ENDBRANCH  15  17
ENDBRANCH  13  15
ENDBRANCH   5   8
ENDBRANCH   3   4
TORSDOF 4
ENDMDL
