MODEL 1
REMARK VINA RESULT: -5.883152634      0.000      0.000
REMARK  9 active torsions:
REMARK  status: ('A' for Active; 'I' for Inactive)
REMARK    1  A    between atoms: N3_4  and  C2_6 
REMARK    2  A    between atoms: C2_6  and  C3_7 
REMARK    3  A    between atoms: C3_7  and  C4_8 
REMARK    4  A    between atoms: C4_8  and  C5_9 
REMARK    5  A    between atoms: N6_19  and  C10_20 
REMARK    6  A    between atoms: C10_20  and  C11_21 
REMARK    7  A    between atoms: C11_21  and  C12_22 
REMARK    8  A    between atoms: C12_22  and  N7_23 
REMARK    9  A    between atoms: N7_23  and  C13_24 
ROOT
HETATM    1  C5  UNL     1      -4.562 -28.385  19.385  1.00  0.00     0.181 C 
HETATM    2  C6  UNL     1      -4.746 -29.166  20.671  1.00  0.00     0.240 C 
HETATM    3  O1  UNL     1      -4.362 -28.535  21.672  1.00  0.00    -0.271 OA
HETATM    4  N4  UNL     1      -5.257 -30.449  21.001  1.00  0.00    -0.358 N 
ATOM      5  H4  UNL     1      -5.804 -30.432  21.863  1.00  0.00     0.162 HD
HETATM    6  C7  UNL     1      -5.198 -31.760  20.430  1.00  0.00     0.142 C 
HETATM    7  C8  UNL     1      -5.843 -31.910  19.075  1.00  0.00     0.140 C 
HETATM    8  N5  UNL     1      -5.888 -30.617  18.485  1.00  0.00    -0.384 N 
ATOM      9  H5  UNL     1      -6.702 -30.003  18.512  1.00  0.00     0.160 HD
HETATM   10  C9  UNL     1      -4.673 -30.289  17.863  1.00  0.00     0.178 C 
HETATM   11  N6  UNL     1      -3.940 -29.186  18.422  1.00  0.00    -0.343 N 
ENDROOT
BRANCH   1  12
HETATM   12  C4  UNL     1      -5.851 -27.695  19.026  1.00  0.00     0.037 C 
BRANCH  12  13
HETATM   13  C3  UNL     1      -5.563 -26.204  18.930  1.00  0.00     0.022 C 
BRANCH  13  14
HETATM   14  C2  UNL     1      -5.735 -25.466  20.197  1.00  0.00     0.122 C 
BRANCH  14  15
HETATM   15  N3  UNL     1      -6.513 -26.041  21.230  1.00  0.00    -0.367 N 
HETATM   16  C1  UNL     1      -6.645 -25.385  22.359  1.00  0.00     0.196 C 
HETATM   17  N1  UNL     1      -6.009 -24.126  22.501  1.00  0.00    -0.067 NA
HETATM   18  N2  UNL     1      -7.407 -25.860  23.437  1.00  0.00    -0.067 NA
ATOM     19  H3  UNL     1      -6.961 -26.948  21.100  1.00  0.00     0.161 HD
ENDBRANCH  14  15
ENDBRANCH  13  14
ENDBRANCH  12  13
ENDBRANCH   1  12
BRANCH  11  20
HETATM   20  C10 UNL     1      -2.827 -28.782  17.703  1.00  0.00     0.068 C 
BRANCH  20  21
HETATM   21  C11 UNL     1      -3.089 -27.931  16.484  1.00  0.00     0.078 C 
BRANCH  21  22
HETATM   22  C12 UNL     1      -2.541 -26.504  16.835  1.00  0.00     0.226 C 
BRANCH  22  23
HETATM   23  N7  UNL     1      -1.167 -26.482  16.762  1.00  0.00    -0.423 NA
BRANCH  23  24
HETATM   24  C13 UNL     1       0.175 -26.459  16.699  1.00  0.00     0.435 C 
HETATM   25  O2  UNL     1       1.083 -26.184  17.540  1.00  0.00    -0.269 OA
ENDBRANCH  23  24
ENDBRANCH  22  23
ENDBRANCH  21  22
ENDBRANCH  20  21
ENDBRANCH  11  20
TORSDOF 9
ENDMDL
MODEL 2
REMARK VINA RESULT: -5.863856348      2.412      5.290
REMARK  9 active torsions:
REMARK  status: ('A' for Active; 'I' for Inactive)
REMARK    1  A    between atoms: N3_4  and  C2_6 
REMARK    2  A    between atoms: C2_6  and  C3_7 
REMARK    3  A    between atoms: C3_7  and  C4_8 
REMARK    4  A    between atoms: C4_8  and  C5_9 
REMARK    5  A    between atoms: N6_19  and  C10_20 
REMARK    6  A    between atoms: C10_20  and  C11_21 
REMARK    7  A    between atoms: C11_21  and  C12_22 
REMARK    8  A    between atoms: C12_22  and  N7_23 
REMARK    9  A    between atoms: N7_23  and  C13_24 
ROOT
HETATM    1  C5  UNL     1      -5.878 -29.853  19.826  1.00  0.00     0.181 C 
HETATM    2  C6  UNL     1      -6.838 -31.026  19.827  1.00  0.00     0.240 C 
HETATM    3  O1  UNL     1      -7.460 -31.136  18.755  1.00  0.00    -0.271 OA
HETATM    4  N4  UNL     1      -7.193 -32.033  20.764  1.00  0.00    -0.358 N 
ATOM      5  H4  UNL     1      -7.329 -32.940  20.317  1.00  0.00     0.162 HD
HETATM    6  C7  UNL     1      -7.407 -32.095  22.178  1.00  0.00     0.142 C 
HETATM    7  C8  UNL     1      -6.200 -31.798  23.033  1.00  0.00     0.140 C 
HETATM    8  N5  UNL     1      -5.301 -31.033  22.240  1.00  0.00    -0.384 N 
ATOM      9  H5  UNL     1      -4.512 -31.427  21.728  1.00  0.00     0.160 HD
HETATM   10  C9  UNL     1      -5.634 -29.669  22.248  1.00  0.00     0.178 C 
HETATM   11  N6  UNL     1      -6.043 -29.099  20.993  1.00  0.00    -0.343 N 
ENDROOT
BRANCH   1  12
HETATM   12  C4  UNL     1      -4.498 -30.332  19.466  1.00  0.00     0.037 C 
BRANCH  12  13
HETATM   13  C3  UNL     1      -4.103 -29.658  18.161  1.00  0.00     0.022 C 
BRANCH  13  14
HETATM   14  C2  UNL     1      -3.656 -28.258  18.307  1.00  0.00     0.122 C 
BRANCH  14  15
HETATM   15  N3  UNL     1      -2.338 -27.911  17.924  1.00  0.00    -0.367 N 
HETATM   16  C1  UNL     1      -2.160 -26.863  17.154  1.00  0.00     0.196 C 
HETATM   17  N1  UNL     1      -3.291 -26.118  16.736  1.00  0.00    -0.067 NA
HETATM   18  N2  UNL     1      -0.896 -26.428  16.733  1.00  0.00    -0.067 NA
ATOM     19  H3  UNL     1      -1.542 -28.465  18.241  1.00  0.00     0.161 HD
ENDBRANCH  14  15
ENDBRANCH  13  14
ENDBRANCH  12  13
ENDBRANCH   1  12
BRANCH  11  20
HETATM   20  C10 UNL     1      -6.217 -27.725  20.990  1.00  0.00     0.068 C 
BRANCH  20  21
HETATM   21  C11 UNL     1      -6.209 -27.044  22.338  1.00  0.00     0.078 C 
BRANCH  21  22
HETATM   22  C12 UNL     1      -6.757 -25.596  22.087  1.00  0.00     0.226 C 
BRANCH  22  23
HETATM   23  N7  UNL     1      -5.907 -24.893  21.263  1.00  0.00    -0.423 NA
BRANCH  23  24
HETATM   24  C13 UNL     1      -5.084 -24.204  20.456  1.00  0.00     0.435 C 
HETATM   25  O2  UNL     1      -4.901 -24.193  19.201  1.00  0.00    -0.269 OA
ENDBRANCH  23  24
ENDBRANCH  22  23
ENDBRANCH  21  22
ENDBRANCH  20  21
ENDBRANCH  11  20
TORSDOF 9
ENDMDL
MODEL 3
REMARK VINA RESULT: -5.775951705      2.213      3.420
REMARK  9 active torsions:
REMARK  status: ('A' for Active; 'I' for Inactive)
REMARK    1  A    between atoms: N3_4  and  C2_6 
REMARK    2  A    between atoms: C2_6  and  C3_7 
REMARK    3  A    between atoms: C3_7  and  C4_8 
REMARK    4  A    between atoms: C4_8  and  C5_9 
REMARK    5  A    between atoms: N6_19  and  C10_20 
REMARK    6  A    between atoms: C10_20  and  C11_21 
REMARK    7  A    between atoms: C11_21  and  C12_22 
REMARK    8  A    between atoms: C12_22  and  N7_23 
REMARK    9  A    between atoms: N7_23  and  C13_24 
ROOT
HETATM    1  C5  UNL     1      -5.638 -28.270  22.573  1.00  0.00     0.181 C 
HETATM    2  C6  UNL     1      -5.298 -29.224  23.700  1.00  0.00     0.240 C 
HETATM    3  O1  UNL     1      -4.456 -28.754  24.487  1.00  0.00    -0.271 OA
HETATM    4  N4  UNL     1      -5.719 -30.528  24.073  1.00  0.00    -0.358 N 
ATOM      5  H4  UNL     1      -5.822 -30.622  25.084  1.00  0.00     0.162 HD
HETATM    6  C7  UNL     1      -6.035 -31.745  23.387  1.00  0.00     0.142 C 
HETATM    7  C8  UNL     1      -7.226 -31.681  22.464  1.00  0.00     0.140 C 
HETATM    8  N5  UNL     1      -7.414 -30.316  22.115  1.00  0.00    -0.384 N 
ATOM      9  H5  UNL     1      -8.075 -29.692  22.578  1.00  0.00     0.160 HD
HETATM   10  C9  UNL     1      -6.579 -29.932  21.053  1.00  0.00     0.178 C 
HETATM   11  N6  UNL     1      -5.581 -28.940  21.346  1.00  0.00    -0.343 N 
ENDROOT
BRANCH   1  12
HETATM   12  C4  UNL     1      -6.886 -27.504  22.919  1.00  0.00     0.037 C 
BRANCH  12  13
HETATM   13  C3  UNL     1      -6.462 -26.117  23.378  1.00  0.00     0.022 C 
BRANCH  13  14
HETATM   14  C2  UNL     1      -6.798 -25.032  22.434  1.00  0.00     0.122 C 
BRANCH  14  15
HETATM   15  N3  UNL     1      -6.468 -25.181  21.066  1.00  0.00    -0.367 N 
HETATM   16  C1  UNL     1      -5.467 -24.484  20.580  1.00  0.00     0.196 C 
HETATM   17  N1  UNL     1      -4.754 -23.613  21.440  1.00  0.00    -0.067 NA
HETATM   18  N2  UNL     1      -5.051 -24.572  19.244  1.00  0.00    -0.067 NA
ATOM     19  H3  UNL     1      -6.997 -25.817  20.470  1.00  0.00     0.161 HD
ENDBRANCH  14  15
ENDBRANCH  13  14
ENDBRANCH  12  13
ENDBRANCH   1  12
BRANCH  11  20
HETATM   20  C10 UNL     1      -4.873 -28.464  20.254  1.00  0.00     0.068 C 
BRANCH  20  21
HETATM   21  C11 UNL     1      -5.662 -28.252  18.984  1.00  0.00     0.078 C 
BRANCH  21  22
HETATM   22  C12 UNL     1      -4.813 -28.911  17.841  1.00  0.00     0.226 C 
BRANCH  22  23
HETATM   23  N7  UNL     1      -4.092 -27.955  17.162  1.00  0.00    -0.423 NA
BRANCH  23  24
HETATM   24  C13 UNL     1      -3.383 -27.028  16.496  1.00  0.00     0.435 C 
HETATM   25  O2  UNL     1      -3.113 -25.810  16.721  1.00  0.00    -0.269 OA
ENDBRANCH  23  24
ENDBRANCH  22  23
ENDBRANCH  21  22
ENDBRANCH  20  21
ENDBRANCH  11  20
TORSDOF 9
ENDMDL
MODEL 4
REMARK VINA RESULT: -5.761504432      3.835      7.060
REMARK  9 active torsions:
REMARK  status: ('A' for Active; 'I' for Inactive)
REMARK    1  A    between atoms: N3_4  and  C2_6 
REMARK    2  A    between atoms: C2_6  and  C3_7 
REMARK    3  A    between atoms: C3_7  and  C4_8 
REMARK    4  A    between atoms: C4_8  and  C5_9 
REMARK    5  A    between atoms: N6_19  and  C10_20 
REMARK    6  A    between atoms: C10_20  and  C11_21 
REMARK    7  A    between atoms: C11_21  and  C12_22 
REMARK    8  A    between atoms: C12_22  and  N7_23 
REMARK    9  A    between atoms: N7_23  and  C13_24 
ROOT
HETATM    1  C5  UNL     1      -5.826 -25.462  22.793  1.00  0.00     0.181 C 
HETATM    2  C6  UNL     1      -6.775 -25.908  23.886  1.00  0.00     0.240 C 
HETATM    3  O1  UNL     1      -7.845 -25.273  23.880  1.00  0.00    -0.271 OA
HETATM    4  N4  UNL     1      -6.732 -26.886  24.916  1.00  0.00    -0.358 N 
ATOM      5  H4  UNL     1      -7.631 -27.353  25.037  1.00  0.00     0.162 HD
HETATM    6  C7  UNL     1      -5.744 -27.379  25.827  1.00  0.00     0.142 C 
HETATM    7  C8  UNL     1      -4.562 -28.070  25.194  1.00  0.00     0.140 C 
HETATM    8  N5  UNL     1      -4.471 -27.604  23.853  1.00  0.00    -0.384 N 
ATOM      9  H5  UNL     1      -4.855 -28.098  23.048  1.00  0.00     0.160 HD
HETATM   10  C9  UNL     1      -3.789 -26.379  23.775  1.00  0.00     0.178 C 
HETATM   11  N6  UNL     1      -4.550 -25.246  23.324  1.00  0.00    -0.343 N 
ENDROOT
BRANCH   1  12
HETATM   12  C4  UNL     1      -5.967 -26.370  21.601  1.00  0.00     0.037 C 
BRANCH  12  13
HETATM   13  C3  UNL     1      -5.890 -25.506  20.352  1.00  0.00     0.022 C 
BRANCH  13  14
HETATM   14  C2  UNL     1      -5.508 -26.236  19.126  1.00  0.00     0.122 C 
BRANCH  14  15
HETATM   15  N3  UNL     1      -4.396 -25.787  18.374  1.00  0.00    -0.367 N 
HETATM   16  C1  UNL     1      -3.859 -26.602  17.496  1.00  0.00     0.196 C 
HETATM   17  N1  UNL     1      -4.410 -27.897  17.333  1.00  0.00    -0.067 NA
HETATM   18  N2  UNL     1      -2.767 -26.248  16.691  1.00  0.00    -0.067 NA
ATOM     19  H3  UNL     1      -4.021 -24.848  18.511  1.00  0.00     0.161 HD
ENDBRANCH  14  15
ENDBRANCH  13  14
ENDBRANCH  12  13
ENDBRANCH   1  12
BRANCH  11  20
HETATM   20  C10 UNL     1      -3.824 -24.087  23.107  1.00  0.00     0.068 C 
BRANCH  20  21
HETATM   21  C11 UNL     1      -4.610 -22.874  22.669  1.00  0.00     0.078 C 
BRANCH  21  22
HETATM   22  C12 UNL     1      -4.990 -22.113  23.987  1.00  0.00     0.226 C 
BRANCH  22  23
HETATM   23  N7  UNL     1      -6.288 -21.659  23.926  1.00  0.00    -0.423 NA
BRANCH  23  24
HETATM   24  C13 UNL     1      -7.552 -21.210  23.862  1.00  0.00     0.435 C 
HETATM   25  O2  UNL     1      -8.074 -20.129  23.452  1.00  0.00    -0.269 OA
ENDBRANCH  23  24
ENDBRANCH  22  23
ENDBRANCH  21  22
ENDBRANCH  20  21
ENDBRANCH  11  20
TORSDOF 9
ENDMDL
MODEL 5
REMARK VINA RESULT: -5.736202202      2.786      5.446
REMARK  9 active torsions:
REMARK  status: ('A' for Active; 'I' for Inactive)
REMARK    1  A    between atoms: N3_4  and  C2_6 
REMARK    2  A    between atoms: C2_6  and  C3_7 
REMARK    3  A    between atoms: C3_7  and  C4_8 
REMARK    4  A    between atoms: C4_8  and  C5_9 
REMARK    5  A    between atoms: N6_19  and  C10_20 
REMARK    6  A    between atoms: C10_20  and  C11_21 
REMARK    7  A    between atoms: C11_21  and  C12_22 
REMARK    8  A    between atoms: C12_22  and  N7_23 
REMARK    9  A    between atoms: N7_23  and  C13_24 
ROOT
HETATM    1  C5  UNL     1      -5.770 -29.037  19.744  1.00  0.00     0.181 C 
HETATM    2  C6  UNL     1      -6.838 -30.040  20.133  1.00  0.00     0.240 C 
HETATM    3  O1  UNL     1      -7.571 -30.353  19.177  1.00  0.00    -0.271 OA
HETATM    4  N4  UNL     1      -7.197 -30.710  21.333  1.00  0.00    -0.358 N 
ATOM      5  H4  UNL     1      -7.467 -31.679  21.163  1.00  0.00     0.162 HD
HETATM    6  C7  UNL     1      -7.274 -30.368  22.721  1.00  0.00     0.142 C 
HETATM    7  C8  UNL     1      -5.965 -30.006  23.376  1.00  0.00     0.140 C 
HETATM    8  N5  UNL     1      -5.077 -29.596  22.344  1.00  0.00    -0.384 N 
ATOM      9  H5  UNL     1      -4.386 -30.206  21.907  1.00  0.00     0.160 HD
HETATM   10  C9  UNL     1      -5.269 -28.249  21.999  1.00  0.00     0.178 C 
HETATM   11  N6  UNL     1      -5.741 -27.986  20.667  1.00  0.00    -0.343 N 
ENDROOT
BRANCH   1  12
HETATM   12  C4  UNL     1      -4.487 -29.761  19.436  1.00  0.00     0.037 C 
BRANCH  12  13
HETATM   13  C3  UNL     1      -4.366 -29.858  17.922  1.00  0.00     0.022 C 
BRANCH  13  14
HETATM   14  C2  UNL     1      -4.025 -28.586  17.254  1.00  0.00     0.122 C 
BRANCH  14  15
HETATM   15  N3  UNL     1      -2.663 -28.245  17.074  1.00  0.00    -0.367 N 
HETATM   16  C1  UNL     1      -2.339 -26.977  16.980  1.00  0.00     0.196 C 
HETATM   17  N1  UNL     1      -3.360 -25.998  17.063  1.00  0.00    -0.067 NA
HETATM   18  N2  UNL     1      -1.018 -26.534  16.817  1.00  0.00    -0.067 NA
ATOM     19  H3  UNL     1      -1.948 -28.970  17.019  1.00  0.00     0.161 HD
ENDBRANCH  14  15
ENDBRANCH  13  14
ENDBRANCH  12  13
ENDBRANCH   1  12
BRANCH  11  20
HETATM   20  C10 UNL     1      -5.776 -26.652  20.298  1.00  0.00     0.068 C 
BRANCH  20  21
HETATM   21  C11 UNL     1      -6.176 -25.668  21.371  1.00  0.00     0.078 C 
BRANCH  21  22
HETATM   22  C12 UNL     1      -5.400 -24.344  21.048  1.00  0.00     0.226 C 
BRANCH  22  23
HETATM   23  N7  UNL     1      -4.623 -23.965  22.119  1.00  0.00    -0.423 NA
BRANCH  23  24
HETATM   24  C13 UNL     1      -3.871 -23.596  23.169  1.00  0.00     0.435 C 
HETATM   25  O2  UNL     1      -4.075 -22.837  24.164  1.00  0.00    -0.269 OA
ENDBRANCH  23  24
ENDBRANCH  22  23
ENDBRANCH  21  22
ENDBRANCH  20  21
ENDBRANCH  11  20
TORSDOF 9
ENDMDL
