MODEL 1
REMARK VINA RESULT: -6.411993520      0.000      0.000
REMARK  9 active torsions:
REMARK  status: ('A' for Active; 'I' for Inactive)
REMARK    1  A    between atoms: N1_1  and  C1_5 
REMARK    2  A    between atoms: C1_5  and  C2_6 
REMARK    3  A    between atoms: C5_12  and  N3_13 
REMARK    4  A    between atoms: N3_13  and  C6_16 
REMARK    5  A    between atoms: C6_16  and  C7_17 
REMARK    6  A    between atoms: C6_16  and  C8_19 
REMARK    7  A    between atoms: C8_19  and  C9_20 
REMARK    8  A    between atoms: C9_20  and  C10_21 
REMARK    9  A    between atoms: C10_21  and  N4_22 
ROOT
HETATM    1  C2  UNL     1      -6.008 -25.680  21.009  1.00  0.00     0.043 C 
HETATM    2  C3  UNL     1      -5.374 -24.675  20.032  1.00  0.00     0.239 C 
HETATM    3  N2  UNL     1      -4.948 -25.467  18.866  1.00  0.00    -0.068 N 
ATOM      4  H21 UNL     1      -3.942 -25.621  18.803  1.00  0.00     0.277 HD
ATOM      5  H22 UNL     1      -5.037 -24.985  17.971  1.00  0.00     0.277 HD
HETATM    6  C4  UNL     1      -5.711 -26.637  18.977  1.00  0.00     0.220 C 
HETATM    7  C5  UNL     1      -5.247 -27.885  18.377  1.00  0.00     0.217 C 
HETATM    8  C12 UNL     1      -5.836 -28.944  19.326  1.00  0.00     0.036 C 
HETATM    9  C13 UNL     1      -6.274 -28.173  20.581  1.00  0.00     0.009 C 
HETATM   10  C14 UNL     1      -5.467 -26.949  20.472  1.00  0.00     0.025 C 
ENDROOT
BRANCH   7  11
HETATM   11  N3  UNL     1      -3.817 -28.023  18.266  1.00  0.00    -0.059 N 
ATOM     12  H32 UNL     1      -3.306 -27.312  18.789  1.00  0.00     0.278 HD
ATOM     13  H31 UNL     1      -3.454 -28.837  18.762  1.00  0.00     0.278 HD
BRANCH  11  14
HETATM   14  C6  UNL     1      -3.483 -28.030  16.797  1.00  0.00     0.247 C 
BRANCH  14  15
HETATM   15  C7  UNL     1      -2.628 -26.871  16.521  1.00  0.00     0.264 C 
HETATM   16  O1  UNL     1      -3.079 -25.747  16.645  1.00  0.00    -0.305 OA
ENDBRANCH  14  15
BRANCH  14  17
HETATM   17  C8  UNL     1      -2.800 -29.327  16.499  1.00  0.00     0.042 C 
BRANCH  17  18
HETATM   18  C9  UNL     1      -3.526 -30.382  15.769  1.00  0.00     0.022 C 
BRANCH  18  19
HETATM   19  C10 UNL     1      -2.910 -31.002  14.573  1.00  0.00     0.122 C 
BRANCH  19  20
HETATM   20  N4  UNL     1      -4.040 -31.256  13.638  1.00  0.00    -0.367 N 
HETATM   21  C11 UNL     1      -4.022 -30.744  12.453  1.00  0.00     0.196 C 
HETATM   22  N5  UNL     1      -5.140 -31.031  11.616  1.00  0.00    -0.067 NA
HETATM   23  N6  UNL     1      -2.966 -29.932  11.967  1.00  0.00    -0.067 NA
ATOM     24  H4  UNL     1      -4.827 -31.834  13.933  1.00  0.00     0.161 HD
ENDBRANCH  19  20
ENDBRANCH  18  19
ENDBRANCH  17  18
ENDBRANCH  14  17
ENDBRANCH  11  14
ENDBRANCH   7  11
BRANCH   1  25
HETATM   25  C1  UNL     1      -5.624 -25.363  22.426  1.00  0.00     0.236 C 
BRANCH  25  26
HETATM   26  N1  UNL     1      -4.356 -24.715  22.527  1.00  0.00    -0.079 N 
ATOM     27  H13 UNL     1      -3.612 -25.311  22.163  1.00  0.00     0.274 HD
ATOM     28  H12 UNL     1      -4.289 -23.942  21.865  1.00  0.00     0.274 HD
ATOM     29  H11 UNL     1      -4.144 -24.403  23.475  1.00  0.00     0.274 HD
ENDBRANCH  25  26
ENDBRANCH   1  25
TORSDOF 9
ENDMDL
MODEL 2
REMARK VINA RESULT: -6.385361029      3.797      6.981
REMARK  9 active torsions:
REMARK  status: ('A' for Active; 'I' for Inactive)
REMARK    1  A    between atoms: N1_1  and  C1_5 
REMARK    2  A    between atoms: C1_5  and  C2_6 
REMARK    3  A    between atoms: C5_12  and  N3_13 
REMARK    4  A    between atoms: N3_13  and  C6_16 
REMARK    5  A    between atoms: C6_16  and  C7_17 
REMARK    6  A    between atoms: C6_16  and  C8_19 
REMARK    7  A    between atoms: C8_19  and  C9_20 
REMARK    8  A    between atoms: C9_20  and  C10_21 
REMARK    9  A    between atoms: C10_21  and  N4_22 
ROOT
HETATM    1  C2  UNL     1      -7.695 -20.983  24.950  1.00  0.00     0.043 C 
HETATM    2  C3  UNL     1      -8.396 -21.993  25.875  1.00  0.00     0.239 C 
HETATM    3  N2  UNL     1      -7.630 -23.244  25.751  1.00  0.00    -0.068 N 
ATOM      4  H21 UNL     1      -8.089 -23.969  25.201  1.00  0.00     0.277 HD
ATOM      5  H22 UNL     1      -7.568 -23.789  26.612  1.00  0.00     0.277 HD
HETATM    6  C4  UNL     1      -6.397 -22.817  25.241  1.00  0.00     0.220 C 
HETATM    7  C5  UNL     1      -5.552 -23.731  24.477  1.00  0.00     0.217 C 
HETATM    8  C12 UNL     1      -4.830 -22.778  23.508  1.00  0.00     0.036 C 
HETATM    9  C13 UNL     1      -5.609 -21.455  23.575  1.00  0.00     0.009 C 
HETATM   10  C14 UNL     1      -6.906 -21.903  24.101  1.00  0.00     0.025 C 
ENDROOT
BRANCH   7  11
HETATM   11  N3  UNL     1      -6.254 -24.767  23.762  1.00  0.00    -0.059 N 
ATOM     12  H32 UNL     1      -6.674 -25.464  24.378  1.00  0.00     0.278 HD
ATOM     13  H31 UNL     1      -7.117 -24.439  23.328  1.00  0.00     0.278 HD
BRANCH  11  14
HETATM   14  C6  UNL     1      -5.284 -25.361  22.774  1.00  0.00     0.247 C 
BRANCH  14  15
HETATM   15  C7  UNL     1      -4.609 -26.489  23.424  1.00  0.00     0.264 C 
HETATM   16  O1  UNL     1      -3.416 -26.424  23.655  1.00  0.00    -0.305 OA
ENDBRANCH  14  15
BRANCH  14  17
HETATM   17  C8  UNL     1      -6.070 -25.781  21.572  1.00  0.00     0.042 C 
BRANCH  17  18
HETATM   18  C9  UNL     1      -5.680 -25.291  20.239  1.00  0.00     0.022 C 
BRANCH  18  19
HETATM   19  C10 UNL     1      -5.647 -26.229  19.093  1.00  0.00     0.122 C 
BRANCH  19  20
HETATM   20  N4  UNL     1      -4.451 -25.837  18.298  1.00  0.00    -0.367 N 
HETATM   21  C11 UNL     1      -3.900 -26.689  17.500  1.00  0.00     0.196 C 
HETATM   22  N5  UNL     1      -2.759 -26.239  16.774  1.00  0.00    -0.067 NA
HETATM   23  N6  UNL     1      -4.373 -28.014  17.323  1.00  0.00    -0.067 NA
ATOM     24  H4  UNL     1      -4.068 -24.896  18.384  1.00  0.00     0.161 HD
ENDBRANCH  19  20
ENDBRANCH  18  19
ENDBRANCH  17  18
ENDBRANCH  14  17
ENDBRANCH  11  14
ENDBRANCH   7  11
BRANCH   1  25
HETATM   25  C1  UNL     1      -8.701 -20.137  24.223  1.00  0.00     0.236 C 
BRANCH  25  26
HETATM   26  N1  UNL     1      -9.764 -20.901  23.655  1.00  0.00    -0.079 N 
ATOM     27  H13 UNL     1     -10.526 -21.019  24.323  1.00  0.00     0.274 HD
ATOM     28  H12 UNL     1     -10.254 -20.367  22.938  1.00  0.00     0.274 HD
ATOM     29  H11 UNL     1      -9.455 -21.803  23.291  1.00  0.00     0.274 HD
ENDBRANCH  25  26
ENDBRANCH   1  25
TORSDOF 9
ENDMDL
MODEL 3
REMARK VINA RESULT: -6.361298060      0.803      1.062
REMARK  9 active torsions:
REMARK  status: ('A' for Active; 'I' for Inactive)
REMARK    1  A    between atoms: N1_1  and  C1_5 
REMARK    2  A    between atoms: C1_5  and  C2_6 
REMARK    3  A    between atoms: C5_12  and  N3_13 
REMARK    4  A    between atoms: N3_13  and  C6_16 
REMARK    5  A    between atoms: C6_16  and  C7_17 
REMARK    6  A    between atoms: C6_16  and  C8_19 
REMARK    7  A    between atoms: C8_19  and  C9_20 
REMARK    8  A    between atoms: C9_20  and  C10_21 
REMARK    9  A    between atoms: C10_21  and  N4_22 
ROOT
HETATM    1  C2  UNL     1      -5.827 -25.180  21.608  1.00  0.00     0.043 C 
HETATM    2  C3  UNL     1      -5.248 -24.286  20.498  1.00  0.00     0.239 C 
HETATM    3  N2  UNL     1      -5.047 -25.169  19.338  1.00  0.00    -0.068 N 
ATOM      4  H21 UNL     1      -4.075 -25.416  19.156  1.00  0.00     0.277 HD
ATOM      5  H22 UNL     1      -5.214 -24.727  18.434  1.00  0.00     0.277 HD
HETATM    6  C4  UNL     1      -5.882 -26.260  19.617  1.00  0.00     0.220 C 
HETATM    7  C5  UNL     1      -5.607 -27.573  19.041  1.00  0.00     0.217 C 
HETATM    8  C12 UNL     1      -6.148 -28.526  20.121  1.00  0.00     0.036 C 
HETATM    9  C13 UNL     1      -6.351 -27.656  21.372  1.00  0.00     0.009 C 
HETATM   10  C14 UNL     1      -5.469 -26.517  21.086  1.00  0.00     0.025 C 
ENDROOT
BRANCH   7  11
HETATM   11  N3  UNL     1      -4.220 -27.843  18.756  1.00  0.00    -0.059 N 
ATOM     12  H32 UNL     1      -3.588 -27.149  19.154  1.00  0.00     0.278 HD
ATOM     13  H31 UNL     1      -3.859 -28.653  19.262  1.00  0.00     0.278 HD
BRANCH  11  14
HETATM   14  C6  UNL     1      -4.089 -27.974  17.261  1.00  0.00     0.247 C 
BRANCH  14  15
HETATM   15  C7  UNL     1      -3.095 -26.996  16.807  1.00  0.00     0.264 C 
HETATM   16  O1  UNL     1      -3.349 -25.807  16.866  1.00  0.00    -0.305 OA
ENDBRANCH  14  15
BRANCH  14  17
HETATM   17  C8  UNL     1      -3.680 -29.383  16.968  1.00  0.00     0.042 C 
BRANCH  17  18
HETATM   18  C9  UNL     1      -2.837 -29.667  15.794  1.00  0.00     0.022 C 
BRANCH  18  19
HETATM   19  C10 UNL     1      -3.065 -30.903  15.010  1.00  0.00     0.122 C 
BRANCH  19  20
HETATM   20  N4  UNL     1      -2.682 -30.558  13.613  1.00  0.00    -0.367 N 
HETATM   21  C11 UNL     1      -3.454 -30.888  12.633  1.00  0.00     0.196 C 
HETATM   22  N5  UNL     1      -3.019 -30.523  11.326  1.00  0.00    -0.067 NA
HETATM   23  N6  UNL     1      -4.682 -31.578  12.802  1.00  0.00    -0.067 NA
ATOM     24  H4  UNL     1      -1.810 -30.061  13.431  1.00  0.00     0.161 HD
ENDBRANCH  19  20
ENDBRANCH  18  19
ENDBRANCH  17  18
ENDBRANCH  14  17
ENDBRANCH  11  14
ENDBRANCH   7  11
BRANCH   1  25
HETATM   25  C1  UNL     1      -5.234 -24.827  22.942  1.00  0.00     0.236 C 
BRANCH  25  26
HETATM   26  N1  UNL     1      -3.817 -24.660  22.894  1.00  0.00    -0.079 N 
ATOM     27  H13 UNL     1      -3.339 -25.542  23.080  1.00  0.00     0.274 HD
ATOM     28  H12 UNL     1      -3.502 -24.499  21.937  1.00  0.00     0.274 HD
ATOM     29  H11 UNL     1      -3.482 -23.925  23.517  1.00  0.00     0.274 HD
ENDBRANCH  25  26
ENDBRANCH   1  25
TORSDOF 9
ENDMDL
MODEL 4
REMARK VINA RESULT: -6.292187041      2.623      2.934
REMARK  9 active torsions:
REMARK  status: ('A' for Active; 'I' for Inactive)
REMARK    1  A    between atoms: N1_1  and  C1_5 
REMARK    2  A    between atoms: C1_5  and  C2_6 
REMARK    3  A    between atoms: C5_12  and  N3_13 
REMARK    4  A    between atoms: N3_13  and  C6_16 
REMARK    5  A    between atoms: C6_16  and  C7_17 
REMARK    6  A    between atoms: C6_16  and  C8_19 
REMARK    7  A    between atoms: C8_19  and  C9_20 
REMARK    8  A    between atoms: C9_20  and  C10_21 
REMARK    9  A    between atoms: C10_21  and  N4_22 
ROOT
HETATM    1  C2  UNL     1      -5.855 -25.149  21.398  1.00  0.00     0.043 C 
HETATM    2  C3  UNL     1      -5.239 -24.292  20.278  1.00  0.00     0.239 C 
HETATM    3  N2  UNL     1      -4.991 -25.216  19.160  1.00  0.00    -0.068 N 
ATOM      4  H21 UNL     1      -4.011 -25.463  19.023  1.00  0.00     0.277 HD
ATOM      5  H22 UNL     1      -5.127 -24.808  18.235  1.00  0.00     0.277 HD
HETATM    6  C4  UNL     1      -5.830 -26.302  19.447  1.00  0.00     0.220 C 
HETATM    7  C5  UNL     1      -5.527 -27.633  18.930  1.00  0.00     0.217 C 
HETATM    8  C12 UNL     1      -6.103 -28.549  20.023  1.00  0.00     0.036 C 
HETATM    9  C13 UNL     1      -6.357 -27.636  21.233  1.00  0.00     0.009 C 
HETATM   10  C14 UNL     1      -5.470 -26.502  20.939  1.00  0.00     0.025 C 
ENDROOT
BRANCH   7  11
HETATM   11  N3  UNL     1      -4.129 -27.904  18.707  1.00  0.00    -0.059 N 
ATOM     12  H32 UNL     1      -3.516 -27.183  19.088  1.00  0.00     0.278 HD
ATOM     13  H31 UNL     1      -3.779 -28.682  19.266  1.00  0.00     0.278 HD
BRANCH  11  14
HETATM   14  C6  UNL     1      -3.947 -28.112  17.226  1.00  0.00     0.247 C 
BRANCH  14  15
HETATM   15  C7  UNL     1      -3.026 -27.083  16.734  1.00  0.00     0.264 C 
HETATM   16  O1  UNL     1      -3.378 -25.918  16.718  1.00  0.00    -0.305 OA
ENDBRANCH  14  15
BRANCH  14  17
HETATM   17  C8  UNL     1      -3.413 -29.496  17.031  1.00  0.00     0.042 C 
BRANCH  17  18
HETATM   18  C9  UNL     1      -4.349 -30.617  16.834  1.00  0.00     0.022 C 
BRANCH  18  19
HETATM   19  C10 UNL     1      -4.739 -31.457  17.990  1.00  0.00     0.122 C 
BRANCH  19  20
HETATM   20  N4  UNL     1      -6.224 -31.549  17.925  1.00  0.00    -0.367 N 
HETATM   21  C11 UNL     1      -6.784 -32.637  17.516  1.00  0.00     0.196 C 
HETATM   22  N5  UNL     1      -8.209 -32.647  17.481  1.00  0.00    -0.067 NA
HETATM   23  N6  UNL     1      -6.060 -33.787  17.113  1.00  0.00    -0.067 NA
ATOM     24  H4  UNL     1      -6.797 -30.752  18.204  1.00  0.00     0.161 HD
ENDBRANCH  19  20
ENDBRANCH  18  19
ENDBRANCH  17  18
ENDBRANCH  14  17
ENDBRANCH  11  14
ENDBRANCH   7  11
BRANCH   1  25
HETATM   25  C1  UNL     1      -5.313 -24.745  22.739  1.00  0.00     0.236 C 
BRANCH  25  26
HETATM   26  N1  UNL     1      -3.935 -25.077  22.906  1.00  0.00    -0.079 N 
ATOM     27  H13 UNL     1      -3.632 -25.741  22.193  1.00  0.00     0.274 HD
ATOM     28  H12 UNL     1      -3.338 -24.287  22.662  1.00  0.00     0.274 HD
ATOM     29  H11 UNL     1      -3.720 -25.422  23.842  1.00  0.00     0.274 HD
ENDBRANCH  25  26
ENDBRANCH   1  25
TORSDOF 9
ENDMDL
MODEL 5
REMARK VINA RESULT: -6.291202631      1.510      1.966
REMARK  9 active torsions:
REMARK  status: ('A' for Active; 'I' for Inactive)
REMARK    1  A    between atoms: N1_1  and  C1_5 
REMARK    2  A    between atoms: C1_5  and  C2_6 
REMARK    3  A    between atoms: C5_12  and  N3_13 
REMARK    4  A    between atoms: N3_13  and  C6_16 
REMARK    5  A    between atoms: C6_16  and  C7_17 
REMARK    6  A    between atoms: C6_16  and  C8_19 
REMARK    7  A    between atoms: C8_19  and  C9_20 
REMARK    8  A    between atoms: C9_20  and  C10_21 
REMARK    9  A    between atoms: C10_21  and  N4_22 
ROOT
HETATM    1  C2  UNL     1      -6.016 -25.625  21.657  1.00  0.00     0.043 C 
HETATM    2  C3  UNL     1      -5.501 -24.634  20.599  1.00  0.00     0.239 C 
HETATM    3  N2  UNL     1      -5.237 -25.438  19.395  1.00  0.00    -0.068 N 
ATOM      4  H21 UNL     1      -4.249 -25.605  19.205  1.00  0.00     0.277 HD
ATOM      5  H22 UNL     1      -5.434 -24.961  18.515  1.00  0.00     0.277 HD
HETATM    6  C4  UNL     1      -5.993 -26.599  19.612  1.00  0.00     0.220 C 
HETATM    7  C5  UNL     1      -5.624 -27.856  18.967  1.00  0.00     0.217 C 
HETATM    8  C12 UNL     1      -6.098 -28.901  19.993  1.00  0.00     0.036 C 
HETATM    9  C13 UNL     1      -6.363 -28.117  21.287  1.00  0.00     0.009 C 
HETATM   10  C14 UNL     1      -5.563 -26.904  21.067  1.00  0.00     0.025 C 
ENDROOT
BRANCH   7  11
HETATM   11  N3  UNL     1      -4.221 -28.012  18.676  1.00  0.00    -0.059 N 
ATOM     12  H32 UNL     1      -3.640 -27.302  19.120  1.00  0.00     0.278 HD
ATOM     13  H31 UNL     1      -3.806 -28.825  19.131  1.00  0.00     0.278 HD
BRANCH  11  14
HETATM   14  C6  UNL     1      -4.079 -28.038  17.176  1.00  0.00     0.247 C 
BRANCH  14  15
HETATM   15  C7  UNL     1      -3.124 -26.992  16.794  1.00  0.00     0.264 C 
HETATM   16  O1  UNL     1      -3.357 -25.832  17.078  1.00  0.00    -0.305 OA
ENDBRANCH  14  15
BRANCH  14  17
HETATM   17  C8  UNL     1      -3.610 -29.407  16.794  1.00  0.00     0.042 C 
BRANCH  17  18
HETATM   18  C9  UNL     1      -2.709 -29.572  15.640  1.00  0.00     0.022 C 
BRANCH  18  19
HETATM   19  C10 UNL     1      -2.840 -30.767  14.774  1.00  0.00     0.122 C 
BRANCH  19  20
HETATM   20  N4  UNL     1      -1.625 -30.762  13.913  1.00  0.00    -0.367 N 
HETATM   21  C11 UNL     1      -0.813 -31.765  13.940  1.00  0.00     0.196 C 
HETATM   22  N5  UNL     1       0.328 -31.686  13.089  1.00  0.00    -0.067 NA
HETATM   23  N6  UNL     1      -1.007 -32.907  14.758  1.00  0.00    -0.067 NA
ATOM     24  H4  UNL     1      -1.434 -29.967  13.304  1.00  0.00     0.161 HD
ENDBRANCH  19  20
ENDBRANCH  18  19
ENDBRANCH  17  18
ENDBRANCH  14  17
ENDBRANCH  11  14
ENDBRANCH   7  11
BRANCH   1  25
HETATM   25  C1  UNL     1      -5.451 -25.303  23.011  1.00  0.00     0.236 C 
BRANCH  25  26
HETATM   26  N1  UNL     1      -4.039 -25.498  23.084  1.00  0.00    -0.079 N 
ATOM     27  H13 UNL     1      -3.814 -26.351  23.596  1.00  0.00     0.274 HD
ATOM     28  H12 UNL     1      -3.658 -25.746  22.171  1.00  0.00     0.274 HD
ATOM     29  H11 UNL     1      -3.547 -24.695  23.479  1.00  0.00     0.274 HD
ENDBRANCH  25  26
ENDBRANCH   1  25
TORSDOF 9
ENDMDL
