MODEL 1
REMARK VINA RESULT: -9.622007782      0.000      0.000
REMARK  7 active torsions:
REMARK  status: ('A' for Active; 'I' for Inactive)
REMARK    1  A    between atoms: C5_5  and  C7_7 
REMARK    2  A    between atoms: C7_7  and  C8_8 
REMARK    3  A    between atoms: C9_9  and  C11_11 
REMARK    4  A    between atoms: C14_15  and  O1_16 
REMARK    5  A    between atoms: C20_24  and  C21_25 
REMARK    6  A    between atoms: C21_25  and  S1_26 
REMARK    7  A    between atoms: S1_26  and  N2_29 
ROOT
HETATM    1  C11 UNL     1     134.533  89.843  69.856  1.00  0.00     0.157 C 
HETATM    2  C12 UNL     1     133.488  90.566  70.630  1.00  0.00     0.063 C 
HETATM    3  N1  UNL     1     132.680  91.125  71.232  1.00  0.00    -0.197 NA
ENDROOT
BRANCH   1   4
HETATM    4  C9  UNL     1     134.545  90.266  68.454  1.00  0.00    -0.074 C 
HETATM    5  C8  UNL     1     134.730  89.480  67.428  1.00  0.00    -0.023 C 
HETATM    6  C10 UNL     1     134.333  91.735  68.201  1.00  0.00     0.044 C 
BRANCH   5   7
HETATM    7  C7  UNL     1     134.946  88.049  67.529  1.00  0.00     0.036 C 
BRANCH   7   8
HETATM    8  C5  UNL     1     136.358  87.556  67.195  1.00  0.00    -0.038 C 
HETATM    9  C4  UNL     1     136.975  88.518  66.259  1.00  0.00     0.014 C 
HETATM   10  C3  UNL     1     136.861  88.251  64.824  1.00  0.00     0.035 C 
HETATM   11  C2  UNL     1     137.642  87.138  64.346  1.00  0.00    -0.076 C 
HETATM   12  C1  UNL     1     138.297  87.388  63.208  1.00  0.00     0.015 C 
HETATM   13  C20 UNL     1     137.844  85.715  64.797  1.00  0.00     0.039 C 
HETATM   14  C14 UNL     1     137.384  85.447  66.170  1.00  0.00     0.082 C 
HETATM   15  C18 UNL     1     139.318  85.464  64.848  1.00  0.00     0.068 C 
HETATM   16  C13 UNL     1     136.238  86.177  66.736  1.00  0.00     0.049 C 
HETATM   17  C15 UNL     1     138.582  85.340  67.090  1.00  0.00     0.087 C 
HETATM   18  C16 UNL     1     138.387  84.255  68.159  1.00  0.00     0.021 C 
HETATM   19  C17 UNL     1     139.580  84.743  66.158  1.00  0.00     0.138 C 
HETATM   20  O2  UNL     1     140.411  83.905  66.321  1.00  0.00    -0.297 OA
HETATM   21  C19 UNL     1     140.228  86.659  64.938  1.00  0.00     0.019 C 
HETATM   22  C6  UNL     1     137.075  87.745  68.543  1.00  0.00     0.015 C 
BRANCH  13  23
HETATM   23  C21 UNL     1     137.114  84.970  63.735  1.00  0.00     0.181 C 
BRANCH  23  24
HETATM   24  S1  UNL     1     137.572  83.603  62.869  1.00  0.00     0.230 S 
HETATM   25  O3  UNL     1     139.028  83.254  62.715  1.00  0.00    -0.206 OA
HETATM   26  O4  UNL     1     137.116  82.370  63.747  1.00  0.00    -0.206 OA
BRANCH  24  27
HETATM   27  N2  UNL     1     136.692  83.347  61.422  1.00  0.00    -0.306 N 
HETATM   28  C22 UNL     1     135.972  84.456  60.919  1.00  0.00     0.135 C 
HETATM   29  C23 UNL     1     135.206  84.151  59.653  1.00  0.00     0.021 C 
HETATM   30  C24 UNL     1     135.101  82.670  59.392  1.00  0.00     0.004 C 
HETATM   31  C25 UNL     1     136.374  81.914  59.540  1.00  0.00     0.026 C 
HETATM   32  C26 UNL     1     137.382  82.557  60.450  1.00  0.00     0.091 C 
HETATM   33  C27 UNL     1     138.408  83.331  59.657  1.00  0.00     0.033 C 
ENDBRANCH  24  27
ENDBRANCH  23  24
ENDBRANCH  13  23
BRANCH  14  34
HETATM   34  O1  UNL     1     136.930  84.117  66.180  1.00  0.00    -0.388 OA
ATOM     35  H1  UNL     1     136.505  84.053  67.027  1.00  0.00     0.210 HD
ENDBRANCH  14  34
ENDBRANCH   7   8
ENDBRANCH   5   7
ENDBRANCH   1   4
TORSDOF 7
ENDMDL
MODEL 2
REMARK VINA RESULT: -9.506984782      0.996      1.270
REMARK  7 active torsions:
REMARK  status: ('A' for Active; 'I' for Inactive)
REMARK    1  A    between atoms: C5_5  and  C7_7 
REMARK    2  A    between atoms: C7_7  and  C8_8 
REMARK    3  A    between atoms: C9_9  and  C11_11 
REMARK    4  A    between atoms: C14_15  and  O1_16 
REMARK    5  A    between atoms: C20_24  and  C21_25 
REMARK    6  A    between atoms: C21_25  and  S1_26 
REMARK    7  A    between atoms: S1_26  and  N2_29 
ROOT
HETATM    1  C11 UNL     1     134.675  91.440  67.144  1.00  0.00     0.157 C 
HETATM    2  C12 UNL     1     133.903  92.700  67.330  1.00  0.00     0.063 C 
HETATM    3  N1  UNL     1     133.306  93.675  67.471  1.00  0.00    -0.197 NA
ENDROOT
BRANCH   1   4
HETATM    4  C9  UNL     1     134.824  90.717  68.408  1.00  0.00    -0.074 C 
HETATM    5  C8  UNL     1     135.008  89.429  68.526  1.00  0.00    -0.023 C 
HETATM    6  C10 UNL     1     134.746  91.545  69.663  1.00  0.00     0.044 C 
BRANCH   5   7
HETATM    7  C7  UNL     1     135.102  88.515  67.403  1.00  0.00     0.036 C 
BRANCH   7   8
HETATM    8  C5  UNL     1     136.476  87.877  67.168  1.00  0.00    -0.038 C 
HETATM    9  C4  UNL     1     137.160  88.631  66.097  1.00  0.00     0.014 C 
HETATM   10  C3  UNL     1     137.026  88.146  64.722  1.00  0.00     0.035 C 
HETATM   11  C2  UNL     1     137.726  86.919  64.437  1.00  0.00    -0.076 C 
HETATM   12  C1  UNL     1     138.396  86.936  63.280  1.00  0.00     0.015 C 
HETATM   13  C20 UNL     1     137.825  85.576  65.111  1.00  0.00     0.039 C 
HETATM   14  C14 UNL     1     137.349  85.564  66.505  1.00  0.00     0.082 C 
HETATM   15  C18 UNL     1     139.279  85.234  65.217  1.00  0.00     0.068 C 
HETATM   16  C13 UNL     1     136.258  86.454  66.934  1.00  0.00     0.049 C 
HETATM   17  C15 UNL     1     138.537  85.523  67.443  1.00  0.00     0.087 C 
HETATM   18  C16 UNL     1     138.266  84.639  68.669  1.00  0.00     0.021 C 
HETATM   19  C17 UNL     1     139.489  84.715  66.629  1.00  0.00     0.138 C 
HETATM   20  O2  UNL     1     140.259  83.858  66.933  1.00  0.00    -0.297 OA
HETATM   21  C19 UNL     1     140.271  86.361  65.126  1.00  0.00     0.019 C 
HETATM   22  C6  UNL     1     137.205  88.228  68.476  1.00  0.00     0.015 C 
BRANCH  13  23
HETATM   23  C21 UNL     1     137.044  84.724  64.175  1.00  0.00     0.181 C 
BRANCH  23  24
HETATM   24  S1  UNL     1     137.567  83.526  63.116  1.00  0.00     0.230 S 
HETATM   25  O3  UNL     1     139.037  83.315  62.874  1.00  0.00    -0.206 OA
HETATM   26  O4  UNL     1     137.236  82.154  63.828  1.00  0.00    -0.206 OA
BRANCH  24  27
HETATM   27  N2  UNL     1     136.652  83.400  61.673  1.00  0.00    -0.306 N 
HETATM   28  C22 UNL     1     136.028  84.586  61.219  1.00  0.00     0.135 C 
HETATM   29  C23 UNL     1     135.224  84.395  59.954  1.00  0.00     0.021 C 
HETATM   30  C24 UNL     1     134.987  82.939  59.642  1.00  0.00     0.004 C 
HETATM   31  C25 UNL     1     136.191  82.070  59.746  1.00  0.00     0.026 C 
HETATM   32  C26 UNL     1     137.261  82.590  60.664  1.00  0.00     0.091 C 
HETATM   33  C27 UNL     1     138.342  83.299  59.885  1.00  0.00     0.033 C 
ENDBRANCH  24  27
ENDBRANCH  23  24
ENDBRANCH  13  23
BRANCH  14  34
HETATM   34  O1  UNL     1     136.802  84.289  66.722  1.00  0.00    -0.388 OA
ATOM     35  H1  UNL     1     136.444  84.367  67.599  1.00  0.00     0.210 HD
ENDBRANCH  14  34
ENDBRANCH   7   8
ENDBRANCH   5   7
ENDBRANCH   1   4
TORSDOF 7
ENDMDL
MODEL 3
REMARK VINA RESULT: -8.798293866      2.059      2.568
REMARK  7 active torsions:
REMARK  status: ('A' for Active; 'I' for Inactive)
REMARK    1  A    between atoms: C5_5  and  C7_7 
REMARK    2  A    between atoms: C7_7  and  C8_8 
REMARK    3  A    between atoms: C9_9  and  C11_11 
REMARK    4  A    between atoms: C14_15  and  O1_16 
REMARK    5  A    between atoms: C20_24  and  C21_25 
REMARK    6  A    between atoms: C21_25  and  S1_26 
REMARK    7  A    between atoms: S1_26  and  N2_29 
ROOT
HETATM    1  C11 UNL     1     133.975  89.605  64.806  1.00  0.00     0.157 C 
HETATM    2  C12 UNL     1     133.787  89.832  63.347  1.00  0.00     0.063 C 
HETATM    3  N1  UNL     1     133.643  90.011  62.218  1.00  0.00    -0.197 NA
ENDROOT
BRANCH   1   4
HETATM    4  C9  UNL     1     133.559  88.255  65.192  1.00  0.00    -0.074 C 
HETATM    5  C8  UNL     1     134.031  87.578  66.205  1.00  0.00    -0.023 C 
HETATM    6  C10 UNL     1     132.505  87.612  64.332  1.00  0.00     0.044 C 
BRANCH   5   7
HETATM    7  C7  UNL     1     135.046  88.076  67.113  1.00  0.00     0.036 C 
BRANCH   7   8
HETATM    8  C5  UNL     1     136.448  87.475  66.951  1.00  0.00    -0.038 C 
HETATM    9  C4  UNL     1     137.239  88.374  66.085  1.00  0.00     0.014 C 
HETATM   10  C3  UNL     1     137.272  88.092  64.649  1.00  0.00     0.035 C 
HETATM   11  C2  UNL     1     138.018  86.917  64.275  1.00  0.00    -0.076 C 
HETATM   12  C1  UNL     1     138.818  87.098  63.219  1.00  0.00     0.015 C 
HETATM   13  C20 UNL     1     138.059  85.490  64.758  1.00  0.00     0.039 C 
HETATM   14  C14 UNL     1     137.425  85.279  66.070  1.00  0.00     0.082 C 
HETATM   15  C18 UNL     1     139.495  85.133  64.982  1.00  0.00     0.068 C 
HETATM   16  C13 UNL     1     136.278  86.101  66.492  1.00  0.00     0.049 C 
HETATM   17  C15 UNL     1     138.496  85.101  67.124  1.00  0.00     0.087 C 
HETATM   18  C16 UNL     1     138.098  84.050  68.171  1.00  0.00     0.021 C 
HETATM   19  C17 UNL     1     139.548  84.416  66.320  1.00  0.00     0.138 C 
HETATM   20  O2  UNL     1     140.290  83.523  66.586  1.00  0.00    -0.297 OA
HETATM   21  C19 UNL     1     140.474  86.259  65.169  1.00  0.00     0.019 C 
HETATM   22  C6  UNL     1     137.015  87.633  68.372  1.00  0.00     0.015 C 
BRANCH  13  23
HETATM   23  C21 UNL     1     137.403  84.783  63.624  1.00  0.00     0.181 C 
BRANCH  23  24
HETATM   24  S1  UNL     1     137.829  83.347  62.859  1.00  0.00     0.230 S 
HETATM   25  O3  UNL     1     139.276  82.958  62.724  1.00  0.00    -0.206 OA
HETATM   26  O4  UNL     1     137.353  82.191  63.828  1.00  0.00    -0.206 OA
BRANCH  24  27
HETATM   27  N2  UNL     1     136.935  83.002  61.440  1.00  0.00    -0.306 N 
HETATM   28  C22 UNL     1     135.933  83.937  61.085  1.00  0.00     0.135 C 
HETATM   29  C23 UNL     1     135.174  83.558  59.834  1.00  0.00     0.021 C 
HETATM   30  C24 UNL     1     135.414  82.125  59.433  1.00  0.00     0.004 C 
HETATM   31  C25 UNL     1     136.840  81.700  59.442  1.00  0.00     0.026 C 
HETATM   32  C26 UNL     1     137.725  82.495  60.360  1.00  0.00     0.091 C 
HETATM   33  C27 UNL     1     138.472  83.563  59.599  1.00  0.00     0.033 C 
ENDBRANCH  24  27
ENDBRANCH  23  24
ENDBRANCH  13  23
BRANCH  14  34
HETATM   34  O1  UNL     1     136.874  83.987  66.038  1.00  0.00    -0.388 OA
ATOM     35  H1  UNL     1     137.646  83.438  65.968  1.00  0.00     0.210 HD
ENDBRANCH  14  34
ENDBRANCH   7   8
ENDBRANCH   5   7
ENDBRANCH   1   4
TORSDOF 7
ENDMDL
MODEL 4
REMARK VINA RESULT: -8.748286254      1.393      1.758
REMARK  7 active torsions:
REMARK  status: ('A' for Active; 'I' for Inactive)
REMARK    1  A    between atoms: C5_5  and  C7_7 
REMARK    2  A    between atoms: C7_7  and  C8_8 
REMARK    3  A    between atoms: C9_9  and  C11_11 
REMARK    4  A    between atoms: C14_15  and  O1_16 
REMARK    5  A    between atoms: C20_24  and  C21_25 
REMARK    6  A    between atoms: C21_25  and  S1_26 
REMARK    7  A    between atoms: S1_26  and  N2_29 
ROOT
HETATM    1  C11 UNL     1     134.977  91.466  67.196  1.00  0.00     0.157 C 
HETATM    2  C12 UNL     1     134.112  92.665  67.374  1.00  0.00     0.063 C 
HETATM    3  N1  UNL     1     133.445  93.593  67.513  1.00  0.00    -0.197 NA
ENDROOT
BRANCH   1   4
HETATM    4  C9  UNL     1     134.555  90.672  66.041  1.00  0.00    -0.074 C 
HETATM    5  C8  UNL     1     134.560  89.367  65.978  1.00  0.00    -0.023 C 
HETATM    6  C10 UNL     1     134.090  91.445  64.836  1.00  0.00     0.044 C 
BRANCH   5   7
HETATM    7  C7  UNL     1     134.981  88.502  67.063  1.00  0.00     0.036 C 
BRANCH   7   8
HETATM    8  C5  UNL     1     136.377  87.883  66.927  1.00  0.00    -0.038 C 
HETATM    9  C4  UNL     1     137.132  88.660  65.922  1.00  0.00     0.014 C 
HETATM   10  C3  UNL     1     137.111  88.194  64.534  1.00  0.00     0.035 C 
HETATM   11  C2  UNL     1     137.846  86.979  64.288  1.00  0.00    -0.076 C 
HETATM   12  C1  UNL     1     138.604  87.021  63.187  1.00  0.00     0.015 C 
HETATM   13  C20 UNL     1     137.911  85.628  64.949  1.00  0.00     0.039 C 
HETATM   14  C14 UNL     1     137.328  85.590  66.301  1.00  0.00     0.082 C 
HETATM   15  C18 UNL     1     139.356  85.301  65.163  1.00  0.00     0.068 C 
HETATM   16  C13 UNL     1     136.196  86.461  66.657  1.00  0.00     0.049 C 
HETATM   17  C15 UNL     1     138.440  85.549  67.328  1.00  0.00     0.087 C 
HETATM   18  C16 UNL     1     138.086  84.644  68.517  1.00  0.00     0.021 C 
HETATM   19  C17 UNL     1     139.463  84.764  66.580  1.00  0.00     0.138 C 
HETATM   20  O2  UNL     1     140.218  83.912  66.931  1.00  0.00    -0.297 OA
HETATM   21  C19 UNL     1     140.337  86.441  65.164  1.00  0.00     0.019 C 
HETATM   22  C6  UNL     1     136.998  88.224  68.292  1.00  0.00     0.015 C 
BRANCH  13  23
HETATM   23  C21 UNL     1     137.215  84.780  63.944  1.00  0.00     0.181 C 
BRANCH  23  24
HETATM   24  S1  UNL     1     137.819  83.549  62.969  1.00  0.00     0.230 S 
HETATM   25  O3  UNL     1     139.288  83.224  62.979  1.00  0.00    -0.206 OA
HETATM   26  O4  UNL     1     137.265  82.205  63.589  1.00  0.00    -0.206 OA
BRANCH  24  27
HETATM   27  N2  UNL     1     137.160  83.502  61.389  1.00  0.00    -0.306 N 
HETATM   28  C22 UNL     1     136.088  82.602  61.180  1.00  0.00     0.135 C 
HETATM   29  C23 UNL     1     135.571  82.603  59.761  1.00  0.00     0.021 C 
HETATM   30  C24 UNL     1     136.512  83.299  58.810  1.00  0.00     0.004 C 
HETATM   31  C25 UNL     1     137.021  84.615  59.282  1.00  0.00     0.026 C 
HETATM   32  C26 UNL     1     137.024  84.787  60.775  1.00  0.00     0.091 C 
HETATM   33  C27 UNL     1     135.806  85.554  61.232  1.00  0.00     0.033 C 
ENDBRANCH  24  27
ENDBRANCH  23  24
ENDBRANCH  13  23
BRANCH  14  34
HETATM   34  O1  UNL     1     136.782  84.305  66.459  1.00  0.00    -0.388 OA
ATOM     35  H1  UNL     1     135.885  84.494  66.708  1.00  0.00     0.210 HD
ENDBRANCH  14  34
ENDBRANCH   7   8
ENDBRANCH   5   7
ENDBRANCH   1   4
TORSDOF 7
ENDMDL
MODEL 5
REMARK VINA RESULT: -8.534673468      1.719      2.212
REMARK  7 active torsions:
REMARK  status: ('A' for Active; 'I' for Inactive)
REMARK    1  A    between atoms: C5_5  and  C7_7 
REMARK    2  A    between atoms: C7_7  and  C8_8 
REMARK    3  A    between atoms: C9_9  and  C11_11 
REMARK    4  A    between atoms: C14_15  and  O1_16 
REMARK    5  A    between atoms: C20_24  and  C21_25 
REMARK    6  A    between atoms: C21_25  and  S1_26 
REMARK    7  A    between atoms: S1_26  and  N2_29 
ROOT
HETATM    1  C11 UNL     1     134.290  92.172  65.716  1.00  0.00     0.157 C 
HETATM    2  C12 UNL     1     133.687  93.528  65.836  1.00  0.00     0.063 C 
HETATM    3  N1  UNL     1     133.220  94.577  65.926  1.00  0.00    -0.197 NA
ENDROOT
BRANCH   1   4
HETATM    4  C9  UNL     1     134.621  91.618  67.030  1.00  0.00    -0.074 C 
HETATM    5  C8  UNL     1     135.442  90.626  67.248  1.00  0.00    -0.023 C 
HETATM    6  C10 UNL     1     133.939  92.256  68.211  1.00  0.00     0.044 C 
BRANCH   5   7
HETATM    7  C7  UNL     1     136.164  89.924  66.205  1.00  0.00     0.036 C 
BRANCH   7   8
HETATM    8  C5  UNL     1     136.914  88.660  66.641  1.00  0.00    -0.038 C 
HETATM    9  C4  UNL     1     138.351  88.851  66.350  1.00  0.00     0.014 C 
HETATM   10  C3  UNL     1     138.864  88.360  65.069  1.00  0.00     0.035 C 
HETATM   11  C2  UNL     1     138.932  86.925  64.949  1.00  0.00    -0.076 C 
HETATM   12  C1  UNL     1     140.073  86.482  64.411  1.00  0.00     0.015 C 
HETATM   13  C20 UNL     1     137.977  85.793  65.226  1.00  0.00     0.039 C 
HETATM   14  C14 UNL     1     136.825  86.168  66.062  1.00  0.00     0.082 C 
HETATM   15  C18 UNL     1     138.711  84.778  66.046  1.00  0.00     0.068 C 
HETATM   16  C13 UNL     1     136.259  87.525  66.000  1.00  0.00     0.049 C 
HETATM   17  C15 UNL     1     137.024  85.631  67.464  1.00  0.00     0.087 C 
HETATM   18  C16 UNL     1     135.706  85.137  68.079  1.00  0.00     0.021 C 
HETATM   19  C17 UNL     1     137.766  84.374  67.164  1.00  0.00     0.138 C 
HETATM   20  O2  UNL     1     137.696  83.282  67.636  1.00  0.00    -0.297 OA
HETATM   21  C19 UNL     1     139.934  85.235  66.793  1.00  0.00     0.019 C 
HETATM   22  C6  UNL     1     136.771  88.729  68.170  1.00  0.00     0.015 C 
BRANCH  13  23
HETATM   23  C21 UNL     1     137.635  85.359  63.845  1.00  0.00     0.181 C 
BRANCH  23  24
HETATM   24  S1  UNL     1     137.672  83.824  63.157  1.00  0.00     0.230 S 
HETATM   25  O3  UNL     1     138.967  83.065  63.064  1.00  0.00    -0.206 OA
HETATM   26  O4  UNL     1     136.908  82.884  64.173  1.00  0.00    -0.206 OA
BRANCH  24  27
HETATM   27  N2  UNL     1     136.722  83.654  61.742  1.00  0.00    -0.306 N 
HETATM   28  C22 UNL     1     136.186  84.845  61.196  1.00  0.00     0.135 C 
HETATM   29  C23 UNL     1     135.346  84.615  59.962  1.00  0.00     0.021 C 
HETATM   30  C24 UNL     1     134.987  83.163  59.778  1.00  0.00     0.004 C 
HETATM   31  C25 UNL     1     136.119  82.210  59.940  1.00  0.00     0.026 C 
HETATM   32  C26 UNL     1     137.244  82.715  60.798  1.00  0.00     0.091 C 
HETATM   33  C27 UNL     1     138.364  83.266  59.948  1.00  0.00     0.033 C 
ENDBRANCH  24  27
ENDBRANCH  23  24
ENDBRANCH  13  23
BRANCH  14  34
HETATM   34  O1  UNL     1     135.750  85.373  65.630  1.00  0.00    -0.388 OA
ATOM     35  H1  UNL     1     135.374  85.074  66.449  1.00  0.00     0.210 HD
ENDBRANCH  14  34
ENDBRANCH   7   8
ENDBRANCH   5   7
ENDBRANCH   1   4
TORSDOF 7
ENDMDL
