MODEL 1
REMARK VINA RESULT: -7.341731833      0.000      0.000
REMARK  17 active torsions:
REMARK  status: ('A' for Active; 'I' for Inactive)
REMARK    1  A    between atoms: C2_2  and  O1_3 
REMARK    2  A    between atoms: C2_2  and  C3_5 
REMARK    3  A    between atoms: C3_5  and  N1_6 
REMARK    4  A    between atoms: C3_5  and  C4_10 
REMARK    5  A    between atoms: C4_10  and  C5_11 
REMARK    6  A    between atoms: C4_10  and  C15_43 
REMARK    7  A    between atoms: C5_11  and  C6_13 
REMARK    8  A    between atoms: C6_13  and  N2_14 
REMARK    9  A    between atoms: C6_13  and  C7_18 
REMARK   10  A    between atoms: C7_18  and  C8_19 
REMARK   11  A    between atoms: N5_23  and  C9_24 
REMARK   12  A    between atoms: C9_24  and  C10_25 
REMARK   13  A    between atoms: C11_27  and  O4_28 
REMARK   14  A    between atoms: C12_30  and  O5_31 
REMARK   15  A    between atoms: C13_33  and  N6_34 
REMARK   16  A    between atoms: C14_38  and  O6_39 
REMARK   17  A    between atoms: C17_48  and  N10_49 
ROOT
HETATM    1  C6  UNL     1     -17.610 -63.309 -49.864  1.00  0.00     0.260 C 
ENDROOT
BRANCH   1   2
HETATM    2  C5  UNL     1     -18.938 -63.762 -49.551  1.00  0.00     0.168 C 
HETATM    3  O2  UNL     1     -19.743 -63.660 -50.531  1.00  0.00    -0.295 OA
BRANCH   2   4
HETATM    4  C4  UNL     1     -19.591 -64.329 -48.316  1.00  0.00     0.132 C 
BRANCH   4   5
HETATM    5  C3  UNL     1     -20.366 -63.251 -47.669  1.00  0.00     0.227 C 
BRANCH   5   6
HETATM    6  C2  UNL     1     -20.806 -61.964 -48.102  1.00  0.00     0.145 C 
HETATM    7  C1  UNL     1     -21.629 -61.336 -46.921  1.00  0.00     0.041 C 
BRANCH   6   8
HETATM    8  O1  UNL     1     -21.835 -62.057 -49.104  1.00  0.00    -0.394 OA
ATOM      9  H1  UNL     1     -21.633 -62.911 -49.469  1.00  0.00     0.210 HD
ENDBRANCH   6   8
ENDBRANCH   5   6
BRANCH   5  10
HETATM   10  N1  UNL     1     -21.340 -63.820 -46.717  1.00  0.00    -0.071 N 
ATOM     11  H13 UNL     1     -21.781 -63.101 -46.144  1.00  0.00     0.274 HD
ATOM     12  H12 UNL     1     -22.175 -64.168 -47.188  1.00  0.00     0.274 HD
ATOM     13  H11 UNL     1     -20.892 -64.540 -46.151  1.00  0.00     0.274 HD
ENDBRANCH   5  10
ENDBRANCH   4   5
BRANCH   4  14
HETATM   14  C15 UNL     1     -20.272 -65.596 -48.605  1.00  0.00     0.065 A 
HETATM   15  C16 UNL     1     -19.576 -66.813 -48.301  1.00  0.00     0.144 A 
HETATM   16  N8  UNL     1     -18.321 -66.817 -47.672  1.00  0.00    -0.081 NA
HETATM   17  N9  UNL     1     -20.129 -68.012 -48.566  1.00  0.00    -0.178 N 
HETATM   18  C17 UNL     1     -21.339 -68.126 -49.119  1.00  0.00     0.680 A 
ATOM     19  H9  UNL     1     -19.608 -68.858 -48.338  1.00  0.00     0.185 HD
HETATM   20  N11 UNL     1     -21.990 -67.032 -49.416  1.00  0.00    -0.156 N 
HETATM   21  C18 UNL     1     -21.474 -65.799 -49.171  1.00  0.00     0.270 A 
ATOM     22  H11 UNL     1     -22.912 -67.106 -49.845  1.00  0.00     0.187 HD
HETATM   23  O7  UNL     1     -22.211 -64.797 -49.528  1.00  0.00    -0.267 OA
BRANCH  18  24
HETATM   24  N10 UNL     1     -21.827 -69.334 -49.326  1.00  0.00    -0.234 N 
ATOM     25 2H10 UNL     1     -22.593 -69.521 -49.974  1.00  0.00     0.174 HD
ATOM     26 1H10 UNL     1     -21.431 -70.117 -48.806  1.00  0.00     0.174 HD
ENDBRANCH  18  24
ENDBRANCH   4  14
ENDBRANCH   2   4
ENDBRANCH   1   2
BRANCH   1  27
HETATM   27  N2  UNL     1     -17.128 -62.112 -49.258  1.00  0.00    -0.068 N 
ATOM     28  H23 UNL     1     -17.229 -61.344 -49.921  1.00  0.00     0.275 HD
ATOM     29  H22 UNL     1     -17.779 -61.829 -48.526  1.00  0.00     0.275 HD
ATOM     30  H21 UNL     1     -16.181 -62.096 -48.880  1.00  0.00     0.275 HD
ENDBRANCH   1  27
BRANCH   1  31
HETATM   31  C7  UNL     1     -17.562 -63.023 -51.404  1.00  0.00     0.119 C 
BRANCH  31  32
HETATM   32  C8  UNL     1     -16.879 -64.136 -52.064  1.00  0.00     0.112 A 
HETATM   33  N3  UNL     1     -15.671 -64.432 -52.463  1.00  0.00    -0.270 N 
HETATM   34  N4  UNL     1     -15.566 -65.621 -53.063  1.00  0.00    -0.003 NA
ATOM     35  H3  UNL     1     -14.875 -63.808 -52.326  1.00  0.00     0.185 HD
HETATM   36  N5  UNL     1     -16.828 -66.092 -53.034  1.00  0.00    -0.214 N 
HETATM   37  N7  UNL     1     -17.628 -65.245 -52.451  1.00  0.00    -0.273 N 
ATOM     38  H7  UNL     1     -18.630 -65.373 -52.302  1.00  0.00     0.189 HD
BRANCH  36  39
HETATM   39  C9  UNL     1     -17.213 -67.367 -53.582  1.00  0.00     0.202 C 
BRANCH  39  40
HETATM   40  C10 UNL     1     -17.893 -68.292 -52.576  1.00  0.00     0.176 C 
HETATM   41  O3  UNL     1     -19.133 -67.932 -52.183  1.00  0.00    -0.349 OA
HETATM   42  C11 UNL     1     -20.189 -68.554 -52.794  1.00  0.00     0.288 C 
HETATM   43  C12 UNL     1     -20.039 -70.060 -52.647  1.00  0.00     0.206 C 
HETATM   44  C13 UNL     1     -18.858 -70.428 -53.539  1.00  0.00     0.247 C 
HETATM   45  C14 UNL     1     -17.668 -69.700 -53.007  1.00  0.00     0.182 C 
BRANCH  42  46
HETATM   46  O4  UNL     1     -21.395 -68.192 -52.158  1.00  0.00    -0.369 OA
ATOM     47  H4  UNL     1     -22.134 -68.420 -52.710  1.00  0.00     0.212 HD
ENDBRANCH  42  46
BRANCH  43  48
HETATM   48  O5  UNL     1     -19.679 -70.374 -51.361  1.00  0.00    -0.388 OA
ATOM     49  H5  UNL     1     -19.234 -71.214 -51.342  1.00  0.00     0.210 HD
ENDBRANCH  43  48
BRANCH  44  50
HETATM   50  N6  UNL     1     -18.664 -71.877 -53.383  1.00  0.00    -0.070 N 
ATOM     51  H63 UNL     1     -18.003 -72.122 -52.645  1.00  0.00     0.274 HD
ATOM     52  H62 UNL     1     -19.474 -72.355 -52.986  1.00  0.00     0.274 HD
ATOM     53  H61 UNL     1     -18.396 -72.228 -54.302  1.00  0.00     0.274 HD
ENDBRANCH  44  50
BRANCH  45  54
HETATM   54  O6  UNL     1     -17.130 -70.464 -51.943  1.00  0.00    -0.391 OA
ATOM     55  H6  UNL     1     -16.330 -70.067 -51.619  1.00  0.00     0.210 HD
ENDBRANCH  45  54
ENDBRANCH  39  40
ENDBRANCH  36  39
ENDBRANCH  31  32
ENDBRANCH   1  31
TORSDOF 17
ENDMDL
MODEL 2
REMARK VINA RESULT: -7.322603617      4.797      7.305
REMARK  17 active torsions:
REMARK  status: ('A' for Active; 'I' for Inactive)
REMARK    1  A    between atoms: C2_2  and  O1_3 
REMARK    2  A    between atoms: C2_2  and  C3_5 
REMARK    3  A    between atoms: C3_5  and  N1_6 
REMARK    4  A    between atoms: C3_5  and  C4_10 
REMARK    5  A    between atoms: C4_10  and  C5_11 
REMARK    6  A    between atoms: C4_10  and  C15_43 
REMARK    7  A    between atoms: C5_11  and  C6_13 
REMARK    8  A    between atoms: C6_13  and  N2_14 
REMARK    9  A    between atoms: C6_13  and  C7_18 
REMARK   10  A    between atoms: C7_18  and  C8_19 
REMARK   11  A    between atoms: N5_23  and  C9_24 
REMARK   12  A    between atoms: C9_24  and  C10_25 
REMARK   13  A    between atoms: C11_27  and  O4_28 
REMARK   14  A    between atoms: C12_30  and  O5_31 
REMARK   15  A    between atoms: C13_33  and  N6_34 
REMARK   16  A    between atoms: C14_38  and  O6_39 
REMARK   17  A    between atoms: C17_48  and  N10_49 
ROOT
HETATM    1  C6  UNL     1     -14.781 -63.978 -51.978  1.00  0.00     0.260 C 
ENDROOT
BRANCH   1   2
HETATM    2  C5  UNL     1     -15.850 -64.812 -52.454  1.00  0.00     0.168 C 
HETATM    3  O2  UNL     1     -16.090 -64.657 -53.693  1.00  0.00    -0.295 OA
BRANCH   2   4
HETATM    4  C4  UNL     1     -16.756 -65.829 -51.807  1.00  0.00     0.132 C 
BRANCH   4   5
HETATM    5  C3  UNL     1     -16.703 -67.069 -52.607  1.00  0.00     0.227 C 
BRANCH   5   6
HETATM    6  C2  UNL     1     -17.646 -67.737 -53.444  1.00  0.00     0.145 C 
HETATM    7  C1  UNL     1     -18.896 -68.073 -52.554  1.00  0.00     0.041 C 
BRANCH   6   8
HETATM    8  O1  UNL     1     -17.216 -69.066 -53.786  1.00  0.00    -0.394 OA
ATOM      9  H1  UNL     1     -17.827 -69.264 -54.486  1.00  0.00     0.210 HD
ENDBRANCH   6   8
ENDBRANCH   5   6
BRANCH   5  10
HETATM   10  N1  UNL     1     -15.335 -67.293 -53.113  1.00  0.00    -0.071 N 
ATOM     11  H13 UNL     1     -15.319 -67.440 -54.122  1.00  0.00     0.274 HD
ATOM     12  H12 UNL     1     -14.770 -66.445 -53.078  1.00  0.00     0.274 HD
ATOM     13  H11 UNL     1     -14.899 -68.064 -52.608  1.00  0.00     0.274 HD
ENDBRANCH   5  10
ENDBRANCH   4   5
BRANCH   4  14
HETATM   14  C15 UNL     1     -16.510 -65.923 -50.364  1.00  0.00     0.065 A 
HETATM   15  C16 UNL     1     -17.332 -65.134 -49.493  1.00  0.00     0.144 A 
HETATM   16  N8  UNL     1     -18.395 -64.354 -49.974  1.00  0.00    -0.081 NA
HETATM   17  N9  UNL     1     -17.143 -65.149 -48.159  1.00  0.00    -0.178 N 
HETATM   18  C17 UNL     1     -16.192 -65.891 -47.588  1.00  0.00     0.680 A 
ATOM     19  H9  UNL     1     -17.744 -64.575 -47.568  1.00  0.00     0.185 HD
HETATM   20  N11 UNL     1     -15.421 -66.612 -48.361  1.00  0.00    -0.156 N 
HETATM   21  C18 UNL     1     -15.570 -66.628 -49.711  1.00  0.00     0.270 A 
ATOM     22  H11 UNL     1     -14.686 -67.178 -47.937  1.00  0.00     0.187 HD
HETATM   23  O7  UNL     1     -14.733 -67.369 -50.363  1.00  0.00    -0.267 OA
BRANCH  18  24
HETATM   24  N10 UNL     1     -16.082 -65.876 -46.274  1.00  0.00    -0.234 N 
ATOM     25 2H10 UNL     1     -16.852 -65.624 -45.653  1.00  0.00     0.174 HD
ATOM     26 1H10 UNL     1     -15.183 -66.115 -45.856  1.00  0.00     0.174 HD
ENDBRANCH  18  24
ENDBRANCH   4  14
ENDBRANCH   2   4
ENDBRANCH   1   2
BRANCH   1  27
HETATM   27  N2  UNL     1     -14.970 -62.565 -51.940  1.00  0.00    -0.068 N 
ATOM     28  H23 UNL     1     -15.866 -62.342 -52.372  1.00  0.00     0.275 HD
ATOM     29  H22 UNL     1     -15.139 -62.282 -50.975  1.00  0.00     0.275 HD
ATOM     30  H21 UNL     1     -14.254 -61.959 -52.339  1.00  0.00     0.275 HD
ENDBRANCH   1  27
BRANCH   1  31
HETATM   31  C7  UNL     1     -13.559 -64.189 -52.936  1.00  0.00     0.119 C 
BRANCH  31  32
HETATM   32  C8  UNL     1     -12.372 -64.463 -52.125  1.00  0.00     0.112 A 
HETATM   33  N3  UNL     1     -11.143 -64.032 -52.030  1.00  0.00    -0.270 N 
HETATM   34  N4  UNL     1     -10.412 -64.653 -51.099  1.00  0.00    -0.003 NA
ATOM     35  H3  UNL     1     -10.772 -63.285 -52.618  1.00  0.00     0.185 HD
HETATM   36  N5  UNL     1     -11.274 -65.550 -50.580  1.00  0.00    -0.214 N 
HETATM   37  N7  UNL     1     -12.438 -65.465 -51.159  1.00  0.00    -0.273 N 
ATOM     38  H7  UNL     1     -13.257 -66.033 -50.941  1.00  0.00     0.189 HD
BRANCH  36  39
HETATM   39  C9  UNL     1     -10.926 -66.469 -49.528  1.00  0.00     0.202 C 
BRANCH  39  40
HETATM   40  C10 UNL     1     -12.053 -66.715 -48.528  1.00  0.00     0.176 C 
HETATM   41  O3  UNL     1     -12.421 -68.003 -48.354  1.00  0.00    -0.349 OA
HETATM   42  C11 UNL     1     -11.912 -68.658 -47.265  1.00  0.00     0.288 C 
HETATM   43  C12 UNL     1     -12.243 -67.873 -46.005  1.00  0.00     0.206 C 
HETATM   44  C13 UNL     1     -11.381 -66.616 -46.085  1.00  0.00     0.247 C 
HETATM   45  C14 UNL     1     -11.797 -65.883 -47.318  1.00  0.00     0.182 C 
BRANCH  42  46
HETATM   46  O4  UNL     1     -12.519 -69.925 -47.138  1.00  0.00    -0.369 OA
ATOM     47  H4  UNL     1     -12.913 -70.011 -46.278  1.00  0.00     0.212 HD
ENDBRANCH  42  46
BRANCH  43  48
HETATM   48  O5  UNL     1     -13.551 -67.462 -46.037  1.00  0.00    -0.388 OA
ATOM     49  H5  UNL     1     -13.832 -67.197 -45.169  1.00  0.00     0.210 HD
ENDBRANCH  43  48
BRANCH  44  50
HETATM   50  N6  UNL     1     -11.715 -65.817 -44.897  1.00  0.00    -0.070 N 
ATOM     51  H63 UNL     1     -11.916 -64.840 -45.108  1.00  0.00     0.274 HD
ATOM     52  H62 UNL     1     -12.623 -66.047 -44.494  1.00  0.00     0.274 HD
ATOM     53  H61 UNL     1     -10.939 -65.941 -44.246  1.00  0.00     0.274 HD
ENDBRANCH  44  50
BRANCH  45  54
HETATM   54  O6  UNL     1     -12.938 -65.107 -47.000  1.00  0.00    -0.391 OA
ATOM     55  H6  UNL     1     -13.490 -65.568 -46.380  1.00  0.00     0.210 HD
ENDBRANCH  45  54
ENDBRANCH  39  40
ENDBRANCH  36  39
ENDBRANCH  31  32
ENDBRANCH   1  31
TORSDOF 17
ENDMDL
MODEL 3
REMARK VINA RESULT: -7.319941443      4.270      5.672
REMARK  17 active torsions:
REMARK  status: ('A' for Active; 'I' for Inactive)
REMARK    1  A    between atoms: C2_2  and  O1_3 
REMARK    2  A    between atoms: C2_2  and  C3_5 
REMARK    3  A    between atoms: C3_5  and  N1_6 
REMARK    4  A    between atoms: C3_5  and  C4_10 
REMARK    5  A    between atoms: C4_10  and  C5_11 
REMARK    6  A    between atoms: C4_10  and  C15_43 
REMARK    7  A    between atoms: C5_11  and  C6_13 
REMARK    8  A    between atoms: C6_13  and  N2_14 
REMARK    9  A    between atoms: C6_13  and  C7_18 
REMARK   10  A    between atoms: C7_18  and  C8_19 
REMARK   11  A    between atoms: N5_23  and  C9_24 
REMARK   12  A    between atoms: C9_24  and  C10_25 
REMARK   13  A    between atoms: C11_27  and  O4_28 
REMARK   14  A    between atoms: C12_30  and  O5_31 
REMARK   15  A    between atoms: C13_33  and  N6_34 
REMARK   16  A    between atoms: C14_38  and  O6_39 
REMARK   17  A    between atoms: C17_48  and  N10_49 
ROOT
HETATM    1  C6  UNL     1     -17.443 -64.081 -51.248  1.00  0.00     0.260 C 
ENDROOT
BRANCH   1   2
HETATM    2  C5  UNL     1     -18.616 -64.589 -50.591  1.00  0.00     0.168 C 
HETATM    3  O2  UNL     1     -19.668 -63.928 -50.868  1.00  0.00    -0.295 OA
BRANCH   2   4
HETATM    4  C4  UNL     1     -18.878 -65.731 -49.642  1.00  0.00     0.132 C 
BRANCH   4   5
HETATM    5  C3  UNL     1     -18.639 -65.249 -48.266  1.00  0.00     0.227 C 
BRANCH   5   6
HETATM    6  C2  UNL     1     -17.686 -65.590 -47.260  1.00  0.00     0.145 C 
HETATM    7  C1  UNL     1     -16.392 -64.747 -47.547  1.00  0.00     0.041 C 
BRANCH   6   8
HETATM    8  O1  UNL     1     -17.165 -66.919 -47.441  1.00  0.00    -0.394 OA
ATOM      9  H1  UNL     1     -17.915 -67.431 -47.162  1.00  0.00     0.210 HD
ENDBRANCH   6   8
ENDBRANCH   5   6
BRANCH   5  10
HETATM   10  N1  UNL     1     -19.002 -63.823 -48.152  1.00  0.00    -0.071 N 
ATOM     11  H13 UNL     1     -18.592 -63.389 -47.325  1.00  0.00     0.274 HD
ATOM     12  H12 UNL     1     -18.542 -63.255 -48.862  1.00  0.00     0.274 HD
ATOM     13  H11 UNL     1     -20.016 -63.720 -48.175  1.00  0.00     0.274 HD
ENDBRANCH   5  10
ENDBRANCH   4   5
BRANCH   4  14
HETATM   14  C15 UNL     1     -20.157 -66.387 -49.935  1.00  0.00     0.065 A 
HETATM   15  C16 UNL     1     -20.145 -67.493 -50.848  1.00  0.00     0.144 A 
HETATM   16  N8  UNL     1     -18.954 -68.001 -51.391  1.00  0.00    -0.081 NA
HETATM   17  N9  UNL     1     -21.286 -68.126 -51.186  1.00  0.00    -0.178 N 
HETATM   18  C17 UNL     1     -22.470 -67.758 -50.692  1.00  0.00     0.680 A 
ATOM     19  H9  UNL     1     -21.243 -68.908 -51.838  1.00  0.00     0.185 HD
HETATM   20  N11 UNL     1     -22.510 -66.745 -49.866  1.00  0.00    -0.156 N 
HETATM   21  C18 UNL     1     -21.388 -66.073 -49.497  1.00  0.00     0.270 A 
ATOM     22  H11 UNL     1     -23.410 -66.451 -49.487  1.00  0.00     0.187 HD
HETATM   23  O7  UNL     1     -21.565 -65.080 -48.688  1.00  0.00    -0.267 OA
BRANCH  18  24
HETATM   24  N10 UNL     1     -23.542 -68.440 -51.047  1.00  0.00    -0.234 N 
ATOM     25 2H10 UNL     1     -24.453 -68.006 -51.201  1.00  0.00     0.174 HD
ATOM     26 1H10 UNL     1     -23.463 -69.450 -51.163  1.00  0.00     0.174 HD
ENDBRANCH  18  24
ENDBRANCH   4  14
ENDBRANCH   2   4
ENDBRANCH   1   2
BRANCH   1  27
HETATM   27  N2  UNL     1     -17.521 -62.835 -51.938  1.00  0.00    -0.068 N 
ATOM     28  H23 UNL     1     -18.485 -62.684 -52.233  1.00  0.00     0.275 HD
ATOM     29  H22 UNL     1     -17.399 -62.079 -51.264  1.00  0.00     0.275 HD
ATOM     30  H21 UNL     1     -16.904 -62.670 -52.733  1.00  0.00     0.275 HD
ENDBRANCH   1  27
BRANCH   1  31
HETATM   31  C7  UNL     1     -17.033 -65.119 -52.347  1.00  0.00     0.119 C 
BRANCH  31  32
HETATM   32  C8  UNL     1     -16.097 -66.078 -51.759  1.00  0.00     0.112 A 
HETATM   33  N3  UNL     1     -16.005 -67.370 -51.601  1.00  0.00    -0.270 N 
HETATM   34  N4  UNL     1     -14.912 -67.769 -50.943  1.00  0.00    -0.003 NA
ATOM     35  H3  UNL     1     -16.709 -68.022 -51.950  1.00  0.00     0.185 HD
HETATM   36  N5  UNL     1     -14.280 -66.611 -50.670  1.00  0.00    -0.214 N 
HETATM   37  N7  UNL     1     -14.947 -65.594 -51.137  1.00  0.00    -0.273 N 
ATOM     38  H7  UNL     1     -14.675 -64.613 -51.061  1.00  0.00     0.189 HD
BRANCH  36  39
HETATM   39  C9  UNL     1     -13.033 -66.536 -49.953  1.00  0.00     0.202 C 
BRANCH  39  40
HETATM   40  C10 UNL     1     -12.893 -67.580 -48.849  1.00  0.00     0.176 C 
HETATM   41  O3  UNL     1     -11.668 -68.128 -48.701  1.00  0.00    -0.349 OA
HETATM   42  C11 UNL     1     -10.870 -67.622 -47.711  1.00  0.00     0.288 C 
HETATM   43  C12 UNL     1     -11.609 -67.694 -46.384  1.00  0.00     0.206 C 
HETATM   44  C13 UNL     1     -12.723 -66.657 -46.494  1.00  0.00     0.247 C 
HETATM   45  C14 UNL     1     -13.593 -67.074 -47.634  1.00  0.00     0.182 C 
BRANCH  42  46
HETATM   46  O4  UNL     1      -9.705 -68.406 -47.582  1.00  0.00    -0.369 OA
ATOM     47  H4  UNL     1      -9.938 -69.325 -47.521  1.00  0.00     0.212 HD
ENDBRANCH  42  46
BRANCH  43  48
HETATM   48  O5  UNL     1     -12.216 -68.917 -46.249  1.00  0.00    -0.388 OA
ATOM     49  H5  UNL     1     -13.071 -68.815 -45.845  1.00  0.00     0.210 HD
ENDBRANCH  43  48
BRANCH  44  50
HETATM   50  N6  UNL     1     -13.480 -66.737 -45.236  1.00  0.00    -0.070 N 
ATOM     51  H63 UNL     1     -13.842 -67.670 -45.038  1.00  0.00     0.274 HD
ATOM     52  H62 UNL     1     -12.897 -66.651 -44.404  1.00  0.00     0.274 HD
ATOM     53  H61 UNL     1     -14.207 -66.024 -45.298  1.00  0.00     0.274 HD
ENDBRANCH  44  50
BRANCH  45  54
HETATM   54  O6  UNL     1     -14.510 -68.040 -47.152  1.00  0.00    -0.391 OA
ATOM     55  H6  UNL     1     -15.218 -67.619 -46.680  1.00  0.00     0.210 HD
ENDBRANCH  45  54
ENDBRANCH  39  40
ENDBRANCH  36  39
ENDBRANCH  31  32
ENDBRANCH   1  31
TORSDOF 17
ENDMDL
MODEL 4
REMARK VINA RESULT: -7.249928661      4.791      7.944
REMARK  17 active torsions:
REMARK  status: ('A' for Active; 'I' for Inactive)
REMARK    1  A    between atoms: C2_2  and  O1_3 
REMARK    2  A    between atoms: C2_2  and  C3_5 
REMARK    3  A    between atoms: C3_5  and  N1_6 
REMARK    4  A    between atoms: C3_5  and  C4_10 
REMARK    5  A    between atoms: C4_10  and  C5_11 
REMARK    6  A    between atoms: C4_10  and  C15_43 
REMARK    7  A    between atoms: C5_11  and  C6_13 
REMARK    8  A    between atoms: C6_13  and  N2_14 
REMARK    9  A    between atoms: C6_13  and  C7_18 
REMARK   10  A    between atoms: C7_18  and  C8_19 
REMARK   11  A    between atoms: N5_23  and  C9_24 
REMARK   12  A    between atoms: C9_24  and  C10_25 
REMARK   13  A    between atoms: C11_27  and  O4_28 
REMARK   14  A    between atoms: C12_30  and  O5_31 
REMARK   15  A    between atoms: C13_33  and  N6_34 
REMARK   16  A    between atoms: C14_38  and  O6_39 
REMARK   17  A    between atoms: C17_48  and  N10_49 
ROOT
HETATM    1  C6  UNL     1     -19.041 -70.643 -51.952  1.00  0.00     0.260 C 
ENDROOT
BRANCH   1   2
HETATM    2  C5  UNL     1     -20.049 -69.659 -52.235  1.00  0.00     0.168 C 
HETATM    3  O2  UNL     1     -21.073 -70.145 -52.812  1.00  0.00    -0.295 OA
BRANCH   2   4
HETATM    4  C4  UNL     1     -20.160 -68.173 -52.005  1.00  0.00     0.132 C 
BRANCH   4   5
HETATM    5  C3  UNL     1     -21.105 -67.948 -50.891  1.00  0.00     0.227 C 
BRANCH   5   6
HETATM    6  C2  UNL     1     -22.471 -67.543 -50.832  1.00  0.00     0.145 C 
HETATM    7  C1  UNL     1     -23.008 -67.936 -49.409  1.00  0.00     0.041 C 
BRANCH   6   8
HETATM    8  O1  UNL     1     -23.313 -68.370 -51.655  1.00  0.00    -0.394 OA
ATOM      9  H1  UNL     1     -23.822 -67.700 -52.097  1.00  0.00     0.210 HD
ENDBRANCH   6   8
ENDBRANCH   5   6
BRANCH   5  10
HETATM   10  N1  UNL     1     -20.802 -68.861 -49.772  1.00  0.00    -0.071 N 
ATOM     11  H13 UNL     1     -21.635 -69.089 -49.228  1.00  0.00     0.274 HD
ATOM     12  H12 UNL     1     -20.575 -69.801 -50.096  1.00  0.00     0.274 HD
ATOM     13  H11 UNL     1     -20.062 -68.467 -49.192  1.00  0.00     0.274 HD
ENDBRANCH   5  10
ENDBRANCH   4   5
BRANCH   4  14
HETATM   14  C15 UNL     1     -18.837 -67.543 -51.930  1.00  0.00     0.065 A 
HETATM   15  C16 UNL     1     -18.006 -67.594 -53.098  1.00  0.00     0.144 A 
HETATM   16  N8  UNL     1     -18.453 -68.148 -54.308  1.00  0.00    -0.081 NA
HETATM   17  N9  UNL     1     -16.769 -67.062 -53.092  1.00  0.00    -0.178 N 
HETATM   18  C17 UNL     1     -16.260 -66.467 -52.011  1.00  0.00     0.680 A 
ATOM     19  H9  UNL     1     -16.204 -67.115 -53.940  1.00  0.00     0.185 HD
HETATM   20  N11 UNL     1     -16.993 -66.418 -50.929  1.00  0.00    -0.156 N 
HETATM   21  C18 UNL     1     -18.245 -66.942 -50.884  1.00  0.00     0.270 A 
ATOM     22  H11 UNL     1     -16.612 -65.972 -50.094  1.00  0.00     0.187 HD
HETATM   23  O7  UNL     1     -18.858 -66.843 -49.749  1.00  0.00    -0.267 OA
BRANCH  18  24
HETATM   24  N10 UNL     1     -15.051 -65.946 -52.087  1.00  0.00    -0.234 N 
ATOM     25 2H10 UNL     1     -14.232 -66.478 -52.382  1.00  0.00     0.174 HD
ATOM     26 1H10 UNL     1     -14.924 -64.968 -51.827  1.00  0.00     0.174 HD
ENDBRANCH  18  24
ENDBRANCH   4  14
ENDBRANCH   2   4
ENDBRANCH   1   2
BRANCH   1  27
HETATM   27  N2  UNL     1     -17.981 -70.836 -52.886  1.00  0.00    -0.068 N 
ATOM     28  H23 UNL     1     -17.134 -71.085 -52.374  1.00  0.00     0.275 HD
ATOM     29  H22 UNL     1     -18.156 -71.694 -53.408  1.00  0.00     0.275 HD
ATOM     30  H21 UNL     1     -17.760 -70.090 -53.544  1.00  0.00     0.275 HD
ENDBRANCH   1  27
BRANCH   1  31
HETATM   31  C7  UNL     1     -19.755 -72.036 -51.868  1.00  0.00     0.119 C 
BRANCH  31  32
HETATM   32  C8  UNL     1     -20.171 -72.264 -50.483  1.00  0.00     0.112 A 
HETATM   33  N3  UNL     1     -19.809 -71.883 -49.288  1.00  0.00    -0.270 N 
HETATM   34  N4  UNL     1     -20.529 -72.420 -48.297  1.00  0.00    -0.003 NA
ATOM     35  H3  UNL     1     -19.042 -71.231 -49.124  1.00  0.00     0.185 HD
HETATM   36  N5  UNL     1     -21.408 -73.206 -48.949  1.00  0.00    -0.214 N 
HETATM   37  N7  UNL     1     -21.228 -73.138 -50.238  1.00  0.00    -0.273 N 
ATOM     38  H7  UNL     1     -21.769 -73.637 -50.945  1.00  0.00     0.189 HD
BRANCH  36  39
HETATM   39  C9  UNL     1     -22.403 -74.007 -48.284  1.00  0.00     0.202 C 
BRANCH  39  40
HETATM   40  C10 UNL     1     -22.835 -75.238 -49.076  1.00  0.00     0.176 C 
HETATM   41  O3  UNL     1     -22.752 -76.420 -48.429  1.00  0.00    -0.349 OA
HETATM   42  C11 UNL     1     -23.904 -76.917 -47.882  1.00  0.00     0.288 C 
HETATM   43  C12 UNL     1     -24.970 -77.017 -48.961  1.00  0.00     0.206 C 
HETATM   44  C13 UNL     1     -25.339 -75.573 -49.287  1.00  0.00     0.247 C 
HETATM   45  C14 UNL     1     -24.100 -74.913 -49.795  1.00  0.00     0.182 C 
BRANCH  42  46
HETATM   46  O4  UNL     1     -23.681 -78.222 -47.394  1.00  0.00    -0.369 OA
ATOM     47  H4  UNL     1     -22.762 -78.448 -47.480  1.00  0.00     0.212 HD
ENDBRANCH  42  46
BRANCH  43  48
HETATM   48  O5  UNL     1     -24.436 -77.559 -50.103  1.00  0.00    -0.388 OA
ATOM     49  H5  UNL     1     -23.910 -76.911 -50.556  1.00  0.00     0.210 HD
ENDBRANCH  43  48
BRANCH  44  50
HETATM   50  N6  UNL     1     -26.341 -75.641 -50.361  1.00  0.00    -0.070 N 
ATOM     51  H63 UNL     1     -25.981 -75.355 -51.271  1.00  0.00     0.274 HD
ATOM     52  H62 UNL     1     -26.594 -76.594 -50.621  1.00  0.00     0.274 HD
ATOM     53  H61 UNL     1     -27.134 -75.082 -50.044  1.00  0.00     0.274 HD
ENDBRANCH  44  50
BRANCH  45  54
HETATM   54  O6  UNL     1     -23.978 -75.216 -51.173  1.00  0.00    -0.391 OA
ATOM     55  H6  UNL     1     -24.220 -74.465 -51.701  1.00  0.00     0.210 HD
ENDBRANCH  45  54
ENDBRANCH  39  40
ENDBRANCH  36  39
ENDBRANCH  31  32
ENDBRANCH   1  31
TORSDOF 17
ENDMDL
MODEL 5
REMARK VINA RESULT: -7.222108107      3.735      6.705
REMARK  17 active torsions:
REMARK  status: ('A' for Active; 'I' for Inactive)
REMARK    1  A    between atoms: C2_2  and  O1_3 
REMARK    2  A    between atoms: C2_2  and  C3_5 
REMARK    3  A    between atoms: C3_5  and  N1_6 
REMARK    4  A    between atoms: C3_5  and  C4_10 
REMARK    5  A    between atoms: C4_10  and  C5_11 
REMARK    6  A    between atoms: C4_10  and  C15_43 
REMARK    7  A    between atoms: C5_11  and  C6_13 
REMARK    8  A    between atoms: C6_13  and  N2_14 
REMARK    9  A    between atoms: C6_13  and  C7_18 
REMARK   10  A    between atoms: C7_18  and  C8_19 
REMARK   11  A    between atoms: N5_23  and  C9_24 
REMARK   12  A    between atoms: C9_24  and  C10_25 
REMARK   13  A    between atoms: C11_27  and  O4_28 
REMARK   14  A    between atoms: C12_30  and  O5_31 
REMARK   15  A    between atoms: C13_33  and  N6_34 
REMARK   16  A    between atoms: C14_38  and  O6_39 
REMARK   17  A    between atoms: C17_48  and  N10_49 
ROOT
HETATM    1  C6  UNL     1     -18.868 -68.408 -53.345  1.00  0.00     0.260 C 
ENDROOT
BRANCH   1   2
HETATM    2  C5  UNL     1     -19.153 -68.987 -52.061  1.00  0.00     0.168 C 
HETATM    3  O2  UNL     1     -18.121 -69.459 -51.487  1.00  0.00    -0.295 OA
BRANCH   2   4
HETATM    4  C4  UNL     1     -20.408 -69.165 -51.245  1.00  0.00     0.132 C 
BRANCH   4   5
HETATM    5  C3  UNL     1     -21.552 -68.687 -52.047  1.00  0.00     0.227 C 
BRANCH   5   6
HETATM    6  C2  UNL     1     -21.960 -68.903 -53.397  1.00  0.00     0.145 C 
HETATM    7  C1  UNL     1     -23.518 -68.705 -53.445  1.00  0.00     0.041 C 
BRANCH   6   8
HETATM    8  O1  UNL     1     -21.872 -70.289 -53.770  1.00  0.00    -0.394 OA
ATOM      9  H1  UNL     1     -21.605 -70.200 -54.678  1.00  0.00     0.210 HD
ENDBRANCH   6   8
ENDBRANCH   5   6
BRANCH   5  10
HETATM   10  N1  UNL     1     -22.737 -68.498 -51.188  1.00  0.00    -0.071 N 
ATOM     11  H13 UNL     1     -23.569 -68.263 -51.729  1.00  0.00     0.274 HD
ATOM     12  H12 UNL     1     -23.063 -69.378 -50.788  1.00  0.00     0.274 HD
ATOM     13  H11 UNL     1     -22.538 -67.802 -50.469  1.00  0.00     0.274 HD
ENDBRANCH   5  10
ENDBRANCH   4   5
BRANCH   4  14
HETATM   14  C15 UNL     1     -20.481 -70.511 -50.665  1.00  0.00     0.065 A 
HETATM   15  C16 UNL     1     -20.822 -70.622 -49.276  1.00  0.00     0.144 A 
HETATM   16  N8  UNL     1     -21.159 -69.503 -48.498  1.00  0.00    -0.081 NA
HETATM   17  N9  UNL     1     -20.881 -71.824 -48.671  1.00  0.00    -0.178 N 
HETATM   18  C17 UNL     1     -20.627 -72.959 -49.326  1.00  0.00     0.680 A 
ATOM     19  H9  UNL     1     -21.126 -71.868 -47.682  1.00  0.00     0.185 HD
HETATM   20  N11 UNL     1     -20.302 -72.885 -50.591  1.00  0.00    -0.156 N 
HETATM   21  C18 UNL     1     -20.227 -71.696 -51.245  1.00  0.00     0.270 A 
ATOM     22  H11 UNL     1     -20.099 -73.744 -51.101  1.00  0.00     0.187 HD
HETATM   23  O7  UNL     1     -19.879 -71.758 -52.490  1.00  0.00    -0.267 OA
BRANCH  18  24
HETATM   24  N10 UNL     1     -20.728 -74.101 -48.674  1.00  0.00    -0.234 N 
ATOM     25 2H10 UNL     1     -20.922 -74.157 -47.674  1.00  0.00     0.174 HD
ATOM     26 1H10 UNL     1     -20.596 -74.971 -49.190  1.00  0.00     0.174 HD
ENDBRANCH  18  24
ENDBRANCH   4  14
ENDBRANCH   2   4
ENDBRANCH   1   2
BRANCH   1  27
HETATM   27  N2  UNL     1     -18.791 -69.259 -54.487  1.00  0.00    -0.068 N 
ATOM     28  H23 UNL     1     -19.678 -69.754 -54.587  1.00  0.00     0.275 HD
ATOM     29  H22 UNL     1     -18.791 -68.681 -55.327  1.00  0.00     0.275 HD
ATOM     30  H21 UNL     1     -18.030 -69.934 -54.551  1.00  0.00     0.275 HD
ENDBRANCH   1  27
BRANCH   1  31
HETATM   31  C7  UNL     1     -17.454 -67.737 -53.254  1.00  0.00     0.119 C 
BRANCH  31  32
HETATM   32  C8  UNL     1     -17.485 -66.724 -52.199  1.00  0.00     0.112 A 
HETATM   33  N3  UNL     1     -18.185 -65.665 -51.894  1.00  0.00    -0.270 N 
HETATM   34  N4  UNL     1     -17.780 -65.038 -50.784  1.00  0.00    -0.003 NA
ATOM     35  H3  UNL     1     -18.974 -65.342 -52.454  1.00  0.00     0.185 HD
HETATM   36  N5  UNL     1     -16.732 -65.781 -50.378  1.00  0.00    -0.214 N 
HETATM   37  N7  UNL     1     -16.531 -66.784 -51.186  1.00  0.00    -0.273 N 
ATOM     38  H7  UNL     1     -15.801 -67.491 -51.092  1.00  0.00     0.189 HD
BRANCH  36  39
HETATM   39  C9  UNL     1     -15.954 -65.483 -49.203  1.00  0.00     0.202 C 
BRANCH  39  40
HETATM   40  C10 UNL     1     -15.325 -66.712 -48.552  1.00  0.00     0.176 C 
HETATM   41  O3  UNL     1     -14.253 -67.235 -49.184  1.00  0.00    -0.349 OA
HETATM   42  C11 UNL     1     -13.016 -66.898 -48.703  1.00  0.00     0.288 C 
HETATM   43  C12 UNL     1     -12.939 -67.246 -47.225  1.00  0.00     0.206 C 
HETATM   44  C13 UNL     1     -13.862 -66.246 -46.535  1.00  0.00     0.247 C 
HETATM   45  C14 UNL     1     -15.233 -66.469 -47.085  1.00  0.00     0.182 C 
BRANCH  42  46
HETATM   46  O4  UNL     1     -12.022 -67.652 -49.360  1.00  0.00    -0.369 OA
ATOM     47  H4  UNL     1     -11.339 -67.894 -48.746  1.00  0.00     0.212 HD
ENDBRANCH  42  46
BRANCH  43  48
HETATM   48  O5  UNL     1     -13.469 -68.493 -47.006  1.00  0.00    -0.388 OA
ATOM     49  H5  UNL     1     -14.302 -68.578 -47.457  1.00  0.00     0.210 HD
ENDBRANCH  43  48
BRANCH  44  50
HETATM   50  N6  UNL     1     -13.839 -66.589 -45.105  1.00  0.00    -0.070 N 
ATOM     51  H63 UNL     1     -14.583 -66.142 -44.568  1.00  0.00     0.274 HD
ATOM     52  H62 UNL     1     -14.110 -67.553 -44.914  1.00  0.00     0.274 HD
ATOM     53  H61 UNL     1     -12.903 -66.357 -44.774  1.00  0.00     0.274 HD
ENDBRANCH  44  50
BRANCH  45  54
HETATM   54  O6  UNL     1     -15.821 -67.540 -46.367  1.00  0.00    -0.391 OA
ATOM     55  H6  UNL     1     -16.767 -67.457 -46.363  1.00  0.00     0.210 HD
ENDBRANCH  45  54
ENDBRANCH  39  40
ENDBRANCH  36  39
ENDBRANCH  31  32
ENDBRANCH   1  31
TORSDOF 17
ENDMDL
