MODEL 1
REMARK VINA RESULT: -6.538301684      0.000      0.000
REMARK  8 active torsions:
REMARK  status: ('A' for Active; 'I' for Inactive)
REMARK    1  A    between atoms: C3_5  and  N2_6 
REMARK    2  A    between atoms: C4_13  and  C5_14 
REMARK    3  A    between atoms: C5_14  and  C6_15 
REMARK    4  A    between atoms: C6_15  and  N5_16 
REMARK    5  A    between atoms: N5_16  and  C7_18 
REMARK    6  A    between atoms: C9_24  and  N8_25 
REMARK    7  A    between atoms: C13_29  and  C14_30 
REMARK    8  A    between atoms: C14_30  and  N9_31 
ROOT
HETATM    1  C7  UNL     1     -39.115  11.960   0.518  1.00  0.00     0.693 A 
HETATM    2  N6  UNL     1     -39.596  11.530  -0.679  1.00  0.00    -0.187 N 
ATOM      3  H6  UNL     1     -38.953  11.135  -1.365  1.00  0.00     0.185 HD
HETATM    4  C8  UNL     1     -40.901  11.614  -0.975  1.00  0.00     0.215 A 
HETATM    5  N7  UNL     1     -41.743  12.135  -0.069  1.00  0.00    -0.187 N 
ATOM      6  H7  UNL     1     -42.735  12.198  -0.296  1.00  0.00     0.185 HD
HETATM    7  C9  UNL     1     -41.323  12.575   1.128  1.00  0.00     0.695 A 
HETATM    8  N10 UNL     1     -40.000  12.468   1.381  1.00  0.00    -0.022 N 
ATOM      9  H10 UNL     1     -39.657  12.796   2.284  1.00  0.00     0.203 HD
ENDROOT
BRANCH   1  10
HETATM   10  N5  UNL     1     -37.865  11.886   0.822  1.00  0.00    -0.225 N 
ATOM     11  H5  UNL     1     -37.305  12.731   0.937  1.00  0.00     0.177 HD
BRANCH  10  12
HETATM   12  C6  UNL     1     -37.276  10.578   0.995  1.00  0.00     0.144 C 
BRANCH  12  13
HETATM   13  C5  UNL     1     -36.647  10.453   2.377  1.00  0.00     0.081 C 
BRANCH  13  14
HETATM   14  C4  UNL     1     -37.621   9.936   3.349  1.00  0.00     0.050 A 
HETATM   15  C2  UNL     1     -37.423  10.078   4.700  1.00  0.00     0.046 A 
HETATM   16  C1  UNL     1     -36.226  10.747   5.239  1.00  0.00     0.071 C 
HETATM   17  N1  UNL     1     -38.388   9.567   5.517  1.00  0.00    -0.193 N 
HETATM   18  C3  UNL     1     -39.483   8.952   5.043  1.00  0.00     0.690 A 
ATOM     19  H1  UNL     1     -38.274   9.656   6.527  1.00  0.00     0.184 HD
HETATM   20  N3  UNL     1     -39.667   8.818   3.714  1.00  0.00    -0.132 N 
HETATM   21  N4  UNL     1     -38.737   9.309   2.918  1.00  0.00    -0.289 N 
ATOM     22  H3  UNL     1     -40.494   8.353   3.339  1.00  0.00     0.205 HD
ATOM     23  H4  UNL     1     -38.870   9.209   1.911  1.00  0.00     0.187 HD
BRANCH  18  24
HETATM   24  N2  UNL     1     -40.385   8.477   5.859  1.00  0.00    -0.233 N 
ATOM     25  H22 UNL     1     -40.963   9.127   6.391  1.00  0.00     0.174 HD
ATOM     26  H21 UNL     1     -40.511   7.470   5.966  1.00  0.00     0.174 HD
ENDBRANCH  18  24
ENDBRANCH  13  14
ENDBRANCH  12  13
ENDBRANCH  10  12
ENDBRANCH   1  10
BRANCH   7  27
HETATM   27  N8  UNL     1     -42.177  13.131   2.114  1.00  0.00    -0.217 N 
HETATM   28  C10 UNL     1     -41.909  14.357   2.812  1.00  0.00     0.141 C 
HETATM   29  C11 UNL     1     -42.217  14.151   4.273  1.00  0.00     0.021 C 
HETATM   30  C12 UNL     1     -43.666  13.821   4.516  1.00  0.00     0.009 C 
HETATM   31  C13 UNL     1     -44.339  13.224   3.308  1.00  0.00     0.029 C 
HETATM   32  C15 UNL     1     -43.397  12.431   2.448  1.00  0.00     0.147 C 
BRANCH  31  33
HETATM   33  C14 UNL     1     -45.424  12.293   3.808  1.00  0.00     0.235 C 
BRANCH  33  34
HETATM   34  N9  UNL     1     -45.550  12.332   5.245  1.00  0.00    -0.079 N 
ATOM     35  H93 UNL     1     -46.032  13.177   5.551  1.00  0.00     0.274 HD
ATOM     36  H92 UNL     1     -46.217  11.636   5.577  1.00  0.00     0.274 HD
ATOM     37  H91 UNL     1     -44.648  12.231   5.710  1.00  0.00     0.274 HD
ENDBRANCH  33  34
ENDBRANCH  31  33
ENDBRANCH   7  27
TORSDOF 8
ENDMDL
MODEL 2
REMARK VINA RESULT: -6.432969935      1.110      1.817
REMARK  8 active torsions:
REMARK  status: ('A' for Active; 'I' for Inactive)
REMARK    1  A    between atoms: C3_5  and  N2_6 
REMARK    2  A    between atoms: C4_13  and  C5_14 
REMARK    3  A    between atoms: C5_14  and  C6_15 
REMARK    4  A    between atoms: C6_15  and  N5_16 
REMARK    5  A    between atoms: N5_16  and  C7_18 
REMARK    6  A    between atoms: C9_24  and  N8_25 
REMARK    7  A    between atoms: C13_29  and  C14_30 
REMARK    8  A    between atoms: C14_30  and  N9_31 
ROOT
HETATM    1  C7  UNL     1     -39.139  11.698   0.338  1.00  0.00     0.693 A 
HETATM    2  N6  UNL     1     -39.565  11.214  -0.859  1.00  0.00    -0.187 N 
ATOM      3  H6  UNL     1     -38.880  10.861  -1.528  1.00  0.00     0.185 HD
HETATM    4  C8  UNL     1     -40.866  11.193  -1.178  1.00  0.00     0.215 A 
HETATM    5  N7  UNL     1     -41.763  11.659  -0.294  1.00  0.00    -0.187 N 
ATOM      6  H7  UNL     1     -42.753  11.641  -0.539  1.00  0.00     0.185 HD
HETATM    7  C9  UNL     1     -41.399  12.148   0.902  1.00  0.00     0.695 A 
HETATM    8  N10 UNL     1     -40.077  12.149   1.179  1.00  0.00    -0.022 N 
ATOM      9  H10 UNL     1     -39.776  12.515   2.082  1.00  0.00     0.203 HD
ENDROOT
BRANCH   1  10
HETATM   10  N5  UNL     1     -37.894  11.727   0.663  1.00  0.00    -0.225 N 
ATOM     11  H5  UNL     1     -37.384  12.610   0.700  1.00  0.00     0.177 HD
BRANCH  10  12
HETATM   12  C6  UNL     1     -37.236  10.479   0.975  1.00  0.00     0.144 C 
BRANCH  12  13
HETATM   13  C5  UNL     1     -36.659  10.515   2.385  1.00  0.00     0.081 C 
BRANCH  13  14
HETATM   14  C4  UNL     1     -37.618   9.967   3.355  1.00  0.00     0.050 A 
HETATM   15  C2  UNL     1     -37.412  10.089   4.707  1.00  0.00     0.046 A 
HETATM   16  C1  UNL     1     -36.220  10.765   5.249  1.00  0.00     0.071 C 
HETATM   17  N1  UNL     1     -38.363   9.552   5.522  1.00  0.00    -0.193 N 
HETATM   18  C3  UNL     1     -39.453   8.930   5.046  1.00  0.00     0.690 A 
ATOM     19  H1  UNL     1     -38.243   9.625   6.532  1.00  0.00     0.184 HD
HETATM   20  N3  UNL     1     -39.646   8.815   3.717  1.00  0.00    -0.132 N 
HETATM   21  N4  UNL     1     -38.729   9.333   2.922  1.00  0.00    -0.289 N 
ATOM     22  H3  UNL     1     -40.469   8.346   3.340  1.00  0.00     0.205 HD
ATOM     23  H4  UNL     1     -38.868   9.248   1.915  1.00  0.00     0.187 HD
BRANCH  18  24
HETATM   24  N2  UNL     1     -40.343   8.428   5.861  1.00  0.00    -0.233 N 
ATOM     25  H22 UNL     1     -40.380   8.768   6.823  1.00  0.00     0.174 HD
ATOM     26  H21 UNL     1     -40.990   7.707   5.544  1.00  0.00     0.174 HD
ENDBRANCH  18  24
ENDBRANCH  13  14
ENDBRANCH  12  13
ENDBRANCH  10  12
ENDBRANCH   1  10
BRANCH   7  27
HETATM   27  N8  UNL     1     -42.311  12.650   1.865  1.00  0.00    -0.217 N 
HETATM   28  C10 UNL     1     -43.601  12.078   2.128  1.00  0.00     0.141 C 
HETATM   29  C11 UNL     1     -44.603  13.197   2.245  1.00  0.00     0.021 C 
HETATM   30  C12 UNL     1     -44.299  14.126   3.391  1.00  0.00     0.009 C 
HETATM   31  C13 UNL     1     -42.848  14.102   3.792  1.00  0.00     0.029 C 
HETATM   32  C15 UNL     1     -41.929  13.810   2.639  1.00  0.00     0.147 C 
BRANCH  31  33
HETATM   33  C14 UNL     1     -42.506  15.474   4.336  1.00  0.00     0.235 C 
BRANCH  33  34
HETATM   34  N9  UNL     1     -41.466  16.116   3.569  1.00  0.00    -0.079 N 
ATOM     35  H93 UNL     1     -40.670  16.363   4.157  1.00  0.00     0.274 HD
ATOM     36  H92 UNL     1     -41.006  15.455   2.944  1.00  0.00     0.274 HD
ATOM     37  H91 UNL     1     -41.814  16.927   3.057  1.00  0.00     0.274 HD
ENDBRANCH  33  34
ENDBRANCH  31  33
ENDBRANCH   7  27
TORSDOF 8
ENDMDL
MODEL 3
REMARK VINA RESULT: -6.386722336      1.731      6.953
REMARK  8 active torsions:
REMARK  status: ('A' for Active; 'I' for Inactive)
REMARK    1  A    between atoms: C3_5  and  N2_6 
REMARK    2  A    between atoms: C4_13  and  C5_14 
REMARK    3  A    between atoms: C5_14  and  C6_15 
REMARK    4  A    between atoms: C6_15  and  N5_16 
REMARK    5  A    between atoms: N5_16  and  C7_18 
REMARK    6  A    between atoms: C9_24  and  N8_25 
REMARK    7  A    between atoms: C13_29  and  C14_30 
REMARK    8  A    between atoms: C14_30  and  N9_31 
ROOT
HETATM    1  C7  UNL     1     -42.106   9.050   4.318  1.00  0.00     0.693 A 
HETATM    2  N6  UNL     1     -42.352   8.669   5.600  1.00  0.00    -0.187 N 
ATOM      3  H6  UNL     1     -43.309   8.460   5.885  1.00  0.00     0.185 HD
HETATM    4  C8  UNL     1     -41.361   8.561   6.496  1.00  0.00     0.215 A 
HETATM    5  N7  UNL     1     -40.104   8.837   6.115  1.00  0.00    -0.187 N 
ATOM      6  H7  UNL     1     -39.352   8.754   6.799  1.00  0.00     0.185 HD
HETATM    7  C9  UNL     1     -39.804   9.218   4.864  1.00  0.00     0.695 A 
HETATM    8  N10 UNL     1     -40.835   9.312   3.996  1.00  0.00    -0.022 N 
ATOM      9  H10 UNL     1     -40.631   9.599   3.038  1.00  0.00     0.203 HD
ENDROOT
BRANCH   1  10
HETATM   10  N5  UNL     1     -43.044   9.159   3.442  1.00  0.00    -0.225 N 
ATOM     11  H5  UNL     1     -43.129   8.484   2.682  1.00  0.00     0.177 HD
BRANCH  10  12
HETATM   12  C6  UNL     1     -43.971  10.261   3.562  1.00  0.00     0.144 C 
BRANCH  12  13
HETATM   13  C5  UNL     1     -43.852  11.194   2.363  1.00  0.00     0.081 C 
BRANCH  13  14
HETATM   14  C4  UNL     1     -43.292  12.491   2.766  1.00  0.00     0.050 A 
HETATM   15  C2  UNL     1     -42.021  12.863   2.400  1.00  0.00     0.046 A 
HETATM   16  C1  UNL     1     -41.159  11.978   1.596  1.00  0.00     0.071 C 
HETATM   17  N1  UNL     1     -41.598  14.089   2.820  1.00  0.00    -0.193 N 
HETATM   18  C3  UNL     1     -42.368  14.905   3.555  1.00  0.00     0.690 A 
ATOM     19  H1  UNL     1     -40.659  14.397   2.565  1.00  0.00     0.184 HD
HETATM   20  N3  UNL     1     -43.614  14.530   3.909  1.00  0.00    -0.132 N 
HETATM   21  N4  UNL     1     -44.031  13.345   3.507  1.00  0.00    -0.289 N 
ATOM     22  H3  UNL     1     -44.212  15.140   4.467  1.00  0.00     0.205 HD
ATOM     23  H4  UNL     1     -44.972  13.055   3.772  1.00  0.00     0.187 HD
BRANCH  18  24
HETATM   24  N2  UNL     1     -41.925  16.074   3.937  1.00  0.00    -0.233 N 
ATOM     25  H22 UNL     1     -42.548  16.880   3.889  1.00  0.00     0.174 HD
ATOM     26  H21 UNL     1     -40.970  16.181   4.278  1.00  0.00     0.174 HD
ENDBRANCH  18  24
ENDBRANCH  13  14
ENDBRANCH  12  13
ENDBRANCH  10  12
ENDBRANCH   1  10
BRANCH   7  27
HETATM   27  N8  UNL     1     -38.491   9.518   4.418  1.00  0.00    -0.217 N 
HETATM   28  C10 UNL     1     -37.320   9.423   5.242  1.00  0.00     0.141 C 
HETATM   29  C11 UNL     1     -36.469  10.644   5.004  1.00  0.00     0.021 C 
HETATM   30  C12 UNL     1     -35.990  10.746   3.580  1.00  0.00     0.009 C 
HETATM   31  C13 UNL     1     -36.869   9.995   2.614  1.00  0.00     0.029 C 
HETATM   32  C15 UNL     1     -38.307   9.948   3.050  1.00  0.00     0.147 C 
BRANCH  31  33
HETATM   33  C14 UNL     1     -36.799  10.716   1.284  1.00  0.00     0.235 C 
BRANCH  33  34
HETATM   34  N9  UNL     1     -37.489  11.983   1.320  1.00  0.00    -0.079 N 
ATOM     35  H93 UNL     1     -38.356  11.948   0.783  1.00  0.00     0.274 HD
ATOM     36  H92 UNL     1     -37.879  12.166   2.244  1.00  0.00     0.274 HD
ATOM     37  H91 UNL     1     -36.893  12.750   1.011  1.00  0.00     0.274 HD
ENDBRANCH  33  34
ENDBRANCH  31  33
ENDBRANCH   7  27
TORSDOF 8
ENDMDL
MODEL 4
REMARK VINA RESULT: -6.350238830      1.733      2.974
REMARK  8 active torsions:
REMARK  status: ('A' for Active; 'I' for Inactive)
REMARK    1  A    between atoms: C3_5  and  N2_6 
REMARK    2  A    between atoms: C4_13  and  C5_14 
REMARK    3  A    between atoms: C5_14  and  C6_15 
REMARK    4  A    between atoms: C6_15  and  N5_16 
REMARK    5  A    between atoms: N5_16  and  C7_18 
REMARK    6  A    between atoms: C9_24  and  N8_25 
REMARK    7  A    between atoms: C13_29  and  C14_30 
REMARK    8  A    between atoms: C14_30  and  N9_31 
ROOT
HETATM    1  C7  UNL     1     -40.867  11.197  -0.403  1.00  0.00     0.693 A 
HETATM    2  N6  UNL     1     -41.490  10.044  -0.765  1.00  0.00    -0.187 N 
ATOM      3  H6  UNL     1     -41.068   9.450  -1.479  1.00  0.00     0.185 HD
HETATM    4  C8  UNL     1     -42.648   9.673  -0.202  1.00  0.00     0.215 A 
HETATM    5  N7  UNL     1     -43.199  10.459   0.737  1.00  0.00    -0.187 N 
ATOM      6  H7  UNL     1     -44.080  10.174   1.164  1.00  0.00     0.185 HD
HETATM    7  C9  UNL     1     -42.628  11.607   1.132  1.00  0.00     0.695 A 
HETATM    8  N10 UNL     1     -41.461  11.940   0.537  1.00  0.00    -0.022 N 
ATOM      9  H10 UNL     1     -41.008  12.808   0.822  1.00  0.00     0.203 HD
ENDROOT
BRANCH   1  10
HETATM   10  N5  UNL     1     -39.753  11.571  -0.931  1.00  0.00    -0.225 N 
ATOM     11  H5  UNL     1     -39.684  11.747  -1.934  1.00  0.00     0.177 HD
BRANCH  10  12
HETATM   12  C6  UNL     1     -38.605  11.735  -0.070  1.00  0.00     0.144 C 
BRANCH  12  13
HETATM   13  C5  UNL     1     -38.029  10.378   0.318  1.00  0.00     0.081 C 
BRANCH  13  14
HETATM   14  C4  UNL     1     -37.550  10.392   1.707  1.00  0.00     0.050 A 
HETATM   15  C2  UNL     1     -38.331   9.922   2.734  1.00  0.00     0.046 A 
HETATM   16  C1  UNL     1     -39.684   9.390   2.495  1.00  0.00     0.071 C 
HETATM   17  N1  UNL     1     -37.792   9.974   3.985  1.00  0.00    -0.193 N 
HETATM   18  C3  UNL     1     -36.563  10.459   4.222  1.00  0.00     0.690 A 
ATOM     19  H1  UNL     1     -38.344   9.632   4.772  1.00  0.00     0.184 HD
HETATM   20  N3  UNL     1     -35.805  10.919   3.206  1.00  0.00    -0.132 N 
HETATM   21  N4  UNL     1     -36.320  10.871   1.993  1.00  0.00    -0.289 N 
ATOM     22  H3  UNL     1     -34.869  11.289   3.370  1.00  0.00     0.205 HD
ATOM     23  H4  UNL     1     -35.752  11.219   1.220  1.00  0.00     0.187 HD
BRANCH  18  24
HETATM   24  N2  UNL     1     -36.083  10.491   5.437  1.00  0.00    -0.233 N 
ATOM     25  H22 UNL     1     -35.501  11.281   5.718  1.00  0.00     0.174 HD
ATOM     26  H21 UNL     1     -36.284   9.739   6.096  1.00  0.00     0.174 HD
ENDBRANCH  18  24
ENDBRANCH  13  14
ENDBRANCH  12  13
ENDBRANCH  10  12
ENDBRANCH   1  10
BRANCH   7  27
HETATM   27  N8  UNL     1     -43.173  12.467   2.120  1.00  0.00    -0.217 N 
HETATM   28  C10 UNL     1     -44.578  12.597   2.387  1.00  0.00     0.141 C 
HETATM   29  C11 UNL     1     -44.899  14.061   2.544  1.00  0.00     0.021 C 
HETATM   30  C12 UNL     1     -44.177  14.689   3.706  1.00  0.00     0.009 C 
HETATM   31  C13 UNL     1     -42.925  13.944   4.086  1.00  0.00     0.029 C 
HETATM   32  C15 UNL     1     -42.270  13.268   2.915  1.00  0.00     0.147 C 
BRANCH  31  33
HETATM   33  C14 UNL     1     -41.952  14.955   4.656  1.00  0.00     0.235 C 
BRANCH  33  34
HETATM   34  N9  UNL     1     -41.581  15.955   3.685  1.00  0.00    -0.079 N 
ATOM     35  H93 UNL     1     -40.647  15.780   3.312  1.00  0.00     0.274 HD
ATOM     36  H92 UNL     1     -42.119  15.853   2.825  1.00  0.00     0.274 HD
ATOM     37  H91 UNL     1     -41.659  16.899   4.060  1.00  0.00     0.274 HD
ENDBRANCH  33  34
ENDBRANCH  31  33
ENDBRANCH   7  27
TORSDOF 8
ENDMDL
MODEL 5
REMARK VINA RESULT: -6.322639849      1.702      6.941
REMARK  8 active torsions:
REMARK  status: ('A' for Active; 'I' for Inactive)
REMARK    1  A    between atoms: C3_5  and  N2_6 
REMARK    2  A    between atoms: C4_13  and  C5_14 
REMARK    3  A    between atoms: C5_14  and  C6_15 
REMARK    4  A    between atoms: C6_15  and  N5_16 
REMARK    5  A    between atoms: N5_16  and  C7_18 
REMARK    6  A    between atoms: C9_24  and  N8_25 
REMARK    7  A    between atoms: C13_29  and  C14_30 
REMARK    8  A    between atoms: C14_30  and  N9_31 
ROOT
HETATM    1  C7  UNL     1     -42.073   9.088   4.706  1.00  0.00     0.693 A 
HETATM    2  N6  UNL     1     -42.242   8.678   5.992  1.00  0.00    -0.187 N 
ATOM      3  H6  UNL     1     -43.181   8.463   6.329  1.00  0.00     0.185 HD
HETATM    4  C8  UNL     1     -41.200   8.551   6.824  1.00  0.00     0.215 A 
HETATM    5  N7  UNL     1     -39.967   8.835   6.375  1.00  0.00    -0.187 N 
ATOM      6  H7  UNL     1     -39.176   8.737   7.011  1.00  0.00     0.185 HD
HETATM    7  C9  UNL     1     -39.743   9.244   5.117  1.00  0.00     0.695 A 
HETATM    8  N10 UNL     1     -40.823   9.357   4.314  1.00  0.00    -0.022 N 
ATOM      9  H10 UNL     1     -40.677   9.665   3.353  1.00  0.00     0.203 HD
ENDROOT
BRANCH   1  10
HETATM   10  N5  UNL     1     -43.062   9.216   3.891  1.00  0.00    -0.225 N 
ATOM     11  H5  UNL     1     -43.999   8.910   4.154  1.00  0.00     0.177 HD
BRANCH  10  12
HETATM   12  C6  UNL     1     -42.811   9.802   2.594  1.00  0.00     0.144 C 
BRANCH  12  13
HETATM   13  C5  UNL     1     -43.770  10.958   2.336  1.00  0.00     0.081 C 
BRANCH  13  14
HETATM   14  C4  UNL     1     -43.217  12.220   2.849  1.00  0.00     0.050 A 
HETATM   15  C2  UNL     1     -43.773  12.852   3.934  1.00  0.00     0.046 A 
HETATM   16  C1  UNL     1     -44.950  12.301   4.629  1.00  0.00     0.071 C 
HETATM   17  N1  UNL     1     -43.183  14.013   4.333  1.00  0.00    -0.193 N 
HETATM   18  C3  UNL     1     -42.112  14.530   3.710  1.00  0.00     0.690 A 
ATOM     19  H1  UNL     1     -43.568  14.509   5.137  1.00  0.00     0.184 HD
HETATM   20  N3  UNL     1     -41.575  13.902   2.645  1.00  0.00    -0.132 N 
HETATM   21  N4  UNL     1     -42.141  12.777   2.252  1.00  0.00    -0.289 N 
ATOM     22  H3  UNL     1     -40.762  14.282   2.161  1.00  0.00     0.205 HD
ATOM     23  H4  UNL     1     -41.740  12.297   1.446  1.00  0.00     0.187 HD
BRANCH  18  24
HETATM   24  N2  UNL     1     -41.575  15.647   4.125  1.00  0.00    -0.233 N 
ATOM     25  H22 UNL     1     -41.761  15.962   5.077  1.00  0.00     0.174 HD
ATOM     26  H21 UNL     1     -40.979  16.198   3.507  1.00  0.00     0.174 HD
ENDBRANCH  18  24
ENDBRANCH  13  14
ENDBRANCH  12  13
ENDBRANCH  10  12
ENDBRANCH   1  10
BRANCH   7  27
HETATM   27  N8  UNL     1     -38.459   9.555   4.600  1.00  0.00    -0.217 N 
HETATM   28  C10 UNL     1     -37.241   9.451   5.353  1.00  0.00     0.141 C 
HETATM   29  C11 UNL     1     -36.409  10.678   5.084  1.00  0.00     0.021 C 
HETATM   30  C12 UNL     1     -36.013  10.801   3.635  1.00  0.00     0.009 C 
HETATM   31  C13 UNL     1     -36.945  10.061   2.712  1.00  0.00     0.029 C 
HETATM   32  C15 UNL     1     -38.355  10.004   3.230  1.00  0.00     0.147 C 
BRANCH  31  33
HETATM   33  C14 UNL     1     -36.954  10.801   1.390  1.00  0.00     0.235 C 
BRANCH  33  34
HETATM   34  N9  UNL     1     -38.085  11.690   1.276  1.00  0.00    -0.079 N 
ATOM     35  H93 UNL     1     -37.941  12.379   0.538  1.00  0.00     0.274 HD
ATOM     36  H92 UNL     1     -38.897  11.208   0.891  1.00  0.00     0.274 HD
ATOM     37  H91 UNL     1     -38.308  12.139   2.164  1.00  0.00     0.274 HD
ENDBRANCH  33  34
ENDBRANCH  31  33
ENDBRANCH   7  27
TORSDOF 8
ENDMDL
