MODEL 1
REMARK VINA RESULT: -4.719751772      0.000      0.000
REMARK  1 active torsions:
REMARK  status: ('A' for Active; 'I' for Inactive)
REMARK    1  A    between atoms: C2_2  and  C3_3 
ROOT
HETATM    1  C3  UNL     1      35.229  -0.223   4.558  1.00  0.00     0.320 C 
HETATM    2  N1  UNL     1      35.314  -0.268   3.130  1.00  0.00    -0.049 N 
ATOM      3  H11 UNL     1      34.821  -1.074   2.744  1.00  0.00     0.280 HD
ATOM      4  H12 UNL     1      36.254  -0.500   2.809  1.00  0.00     0.280 HD
HETATM    5  C4  UNL     1      34.848   0.962   2.572  1.00  0.00     0.237 C 
HETATM    6  C5  UNL     1      35.506   2.139   3.196  1.00  0.00     0.054 C 
HETATM    7  C6  UNL     1      35.891   1.984   4.616  1.00  0.00     0.172 C 
HETATM    8  O1  UNL     1      36.121   0.719   5.056  1.00  0.00    -0.359 OA
ENDROOT
BRANCH   1   9
HETATM    9  C2  UNL     1      35.581  -1.596   5.074  1.00  0.00     0.057 C 
HETATM   10  C1  UNL     1      36.074  -2.437   3.936  1.00  0.00     0.009 C 
ENDBRANCH   1   9
TORSDOF 1
ENDMDL
MODEL 2
REMARK VINA RESULT: -4.578305285      1.578      3.389
REMARK  1 active torsions:
REMARK  status: ('A' for Active; 'I' for Inactive)
REMARK    1  A    between atoms: C2_2  and  C3_3 
ROOT
HETATM    1  C3  UNL     1      35.337  -0.190   3.760  1.00  0.00     0.320 C 
HETATM    2  N1  UNL     1      36.207   0.783   4.350  1.00  0.00    -0.049 N 
ATOM      3  H11 UNL     1      35.743   1.683   4.476  1.00  0.00     0.280 HD
ATOM      4  H12 UNL     1      36.940   1.081   3.706  1.00  0.00     0.280 HD
HETATM    5  C4  UNL     1      36.743   0.281   5.575  1.00  0.00     0.237 C 
HETATM    6  C5  UNL     1      37.343  -1.069   5.407  1.00  0.00     0.054 C 
HETATM    7  C6  UNL     1      36.715  -1.929   4.380  1.00  0.00     0.172 C 
HETATM    8  O1  UNL     1      36.070  -1.301   3.363  1.00  0.00    -0.359 OA
ENDROOT
BRANCH   1   9
HETATM    9  C2  UNL     1      34.685   0.458   2.563  1.00  0.00     0.057 C 
HETATM   10  C1  UNL     1      35.073   1.904   2.514  1.00  0.00     0.009 C 
ENDBRANCH   1   9
TORSDOF 1
ENDMDL
MODEL 3
REMARK VINA RESULT: -4.556684297      1.459      1.657
REMARK  1 active torsions:
REMARK  status: ('A' for Active; 'I' for Inactive)
REMARK    1  A    between atoms: C2_2  and  C3_3 
ROOT
HETATM    1  C3  UNL     1      36.822  -0.255   5.150  1.00  0.00     0.320 C 
HETATM    2  N1  UNL     1      35.850   0.161   4.185  1.00  0.00    -0.049 N 
ATOM      3  H11 UNL     1      35.053  -0.475   4.147  1.00  0.00     0.280 HD
ATOM      4  H12 UNL     1      36.184   0.038   3.228  1.00  0.00     0.280 HD
HETATM    5  C4  UNL     1      35.448   1.508   4.442  1.00  0.00     0.237 C 
HETATM    6  C5  UNL     1      36.615   2.418   4.581  1.00  0.00     0.054 C 
HETATM    7  C6  UNL     1      37.841   1.812   5.146  1.00  0.00     0.172 C 
HETATM    8  O1  UNL     1      37.994   0.472   4.985  1.00  0.00    -0.359 OA
ENDROOT
BRANCH   1   9
HETATM    9  C2  UNL     1      37.083  -1.723   4.922  1.00  0.00     0.057 C 
HETATM   10  C1  UNL     1      36.251  -2.197   3.770  1.00  0.00     0.009 C 
ENDBRANCH   1   9
TORSDOF 1
ENDMDL
MODEL 4
REMARK VINA RESULT: -4.492277972      1.385      1.941
REMARK  1 active torsions:
REMARK  status: ('A' for Active; 'I' for Inactive)
REMARK    1  A    between atoms: C2_2  and  C3_3 
ROOT
HETATM    1  C3  UNL     1      36.322  -0.468   3.316  1.00  0.00     0.320 C 
HETATM    2  N1  UNL     1      36.693   0.301   4.466  1.00  0.00    -0.049 N 
ATOM      3  H11 UNL     1      37.522  -0.075   4.925  1.00  0.00     0.280 HD
ATOM      4  H12 UNL     1      36.031   0.184   5.234  1.00  0.00     0.280 HD
HETATM    5  C4  UNL     1      36.857   1.674   4.106  1.00  0.00     0.237 C 
HETATM    6  C5  UNL     1      35.681   2.197   3.362  1.00  0.00     0.054 C 
HETATM    7  C6  UNL     1      34.963   1.214   2.520  1.00  0.00     0.172 C 
HETATM    8  O1  UNL     1      35.057  -0.091   2.883  1.00  0.00    -0.359 OA
ENDROOT
BRANCH   1   9
HETATM    9  C2  UNL     1      36.321  -1.920   3.726  1.00  0.00     0.057 C 
HETATM   10  C1  UNL     1      35.544  -2.070   4.998  1.00  0.00     0.009 C 
ENDBRANCH   1   9
TORSDOF 1
ENDMDL
MODEL 5
REMARK VINA RESULT: -4.481874093      1.386      3.073
REMARK  1 active torsions:
REMARK  status: ('A' for Active; 'I' for Inactive)
REMARK    1  A    between atoms: C2_2  and  C3_3 
ROOT
HETATM    1  C3  UNL     1      36.011   0.034   3.426  1.00  0.00     0.320 C 
HETATM    2  N1  UNL     1      35.769  -1.274   3.954  1.00  0.00    -0.049 N 
ATOM      3  H11 UNL     1      35.479  -1.931   3.230  1.00  0.00     0.280 HD
ATOM      4  H12 UNL     1      34.926  -1.305   4.529  1.00  0.00     0.280 HD
HETATM    5  C4  UNL     1      36.919  -1.736   4.666  1.00  0.00     0.237 C 
HETATM    6  C5  UNL     1      37.391  -0.741   5.664  1.00  0.00     0.054 C 
HETATM    7  C6  UNL     1      37.167   0.679   5.312  1.00  0.00     0.172 C 
HETATM    8  O1  UNL     1      36.140   0.948   4.465  1.00  0.00    -0.359 OA
ENDROOT
BRANCH   1   9
HETATM    9  C2  UNL     1      34.830   0.395   2.559  1.00  0.00     0.057 C 
HETATM   10  C1  UNL     1      34.803   1.879   2.358  1.00  0.00     0.009 C 
ENDBRANCH   1   9
TORSDOF 1
ENDMDL
