MODEL 1
REMARK VINA RESULT: -7.070675115      0.000      0.000
REMARK  5 active torsions:
REMARK  status: ('A' for Active; 'I' for Inactive)
REMARK    1  A    between atoms: C4_7  and  C5_8 
REMARK    2  A    between atoms: C5_8  and  C7_11 
REMARK    3  A    between atoms: C7_11  and  N3_12 
REMARK    4  A    between atoms: C10_15  and  N4_16 
REMARK    5  A    between atoms: C18_24  and  O1_25 
ROOT
HETATM    1  C5  UNL     1     -33.175  76.649   8.861  1.00  0.00     0.175 C 
HETATM    2  C6  UNL     1     -34.519  76.236   9.204  1.00  0.00     0.074 C 
HETATM    3  N2  UNL     1     -35.605  75.861   9.489  1.00  0.00    -0.196 NA
ENDROOT
BRANCH   1   4
HETATM    4  C4  UNL     1     -32.614  75.638   7.946  1.00  0.00     0.061 A 
HETATM    5  S1  UNL     1     -31.813  75.937   6.493  1.00  0.00    -0.050 SA
HETATM    6  C3  UNL     1     -31.293  74.335   6.139  1.00  0.00     0.174 A 
HETATM    7  N1  UNL     1     -30.609  73.504   5.272  1.00  0.00    -0.324 N 
HETATM    8  N5  UNL     1     -31.775  73.643   7.181  1.00  0.00    -0.208 N 
HETATM    9  C2  UNL     1     -30.698  72.254   5.833  1.00  0.00     0.094 A 
ATOM     10  H1  UNL     1     -30.140  73.763   4.403  1.00  0.00     0.169 HD
HETATM   11  C1  UNL     1     -30.126  71.052   5.182  1.00  0.00     0.090 C 
HETATM   12  N6  UNL     1     -31.394  72.356   6.963  1.00  0.00    -0.279 N 
ATOM     13  H6  UNL     1     -31.612  71.575   7.581  1.00  0.00     0.189 HD
HETATM   14  C18 UNL     1     -32.449  74.296   8.109  1.00  0.00     0.179 A 
BRANCH  14  15
HETATM   15  O1  UNL     1     -33.019  73.661   9.266  1.00  0.00    -0.344 OA
ATOM     16  H1  UNL     1     -32.442  73.375   9.963  1.00  0.00     0.219 HD
ENDBRANCH  14  15
ENDBRANCH   1   4
BRANCH   1  17
HETATM   17  C7  UNL     1     -33.048  78.028   8.396  1.00  0.00     0.083 C 
BRANCH  17  18
HETATM   18  N3  UNL     1     -32.044  78.824   8.936  1.00  0.00    -0.392 N 
HETATM   19  C8  UNL     1     -31.888  78.751  10.377  1.00  0.00     0.124 C 
HETATM   20  C9  UNL     1     -30.383  78.567  10.672  1.00  0.00     0.055 C 
HETATM   21  C10 UNL     1     -29.664  79.875  10.370  1.00  0.00     0.226 C 
HETATM   22  C16 UNL     1     -30.334  80.409   9.137  1.00  0.00     0.055 C 
HETATM   23  C17 UNL     1     -30.893  79.230   8.317  1.00  0.00     0.124 C 
BRANCH  21  24
HETATM   24  N4  UNL     1     -28.284  79.595  10.150  1.00  0.00     0.093 N 
HETATM   25  C11 UNL     1     -27.600  79.142  11.342  1.00  0.00     0.273 C 
HETATM   26  C12 UNL     1     -27.584  80.142  12.467  1.00  0.00     0.030 C 
HETATM   27  C13 UNL     1     -26.672  81.273  11.988  1.00  0.00     0.003 C 
HETATM   28  C14 UNL     1     -27.329  81.787  10.721  1.00  0.00     0.030 C 
HETATM   29  C15 UNL     1     -27.544  80.752   9.675  1.00  0.00     0.273 C 
ENDBRANCH  21  24
ENDBRANCH  17  18
ENDBRANCH   1  17
TORSDOF 5
ENDMDL
MODEL 2
REMARK VINA RESULT: -6.961022784      0.967      1.167
REMARK  5 active torsions:
REMARK  status: ('A' for Active; 'I' for Inactive)
REMARK    1  A    between atoms: C4_7  and  C5_8 
REMARK    2  A    between atoms: C5_8  and  C7_11 
REMARK    3  A    between atoms: C7_11  and  N3_12 
REMARK    4  A    between atoms: C10_15  and  N4_16 
REMARK    5  A    between atoms: C18_24  and  O1_25 
ROOT
HETATM    1  C5  UNL     1     -33.246  76.117   9.162  1.00  0.00     0.175 C 
HETATM    2  C6  UNL     1     -34.359  75.386   9.729  1.00  0.00     0.074 C 
HETATM    3  N2  UNL     1     -35.246  74.755  10.192  1.00  0.00    -0.196 NA
ENDROOT
BRANCH   1   4
HETATM    4  C4  UNL     1     -32.652  75.281   8.102  1.00  0.00     0.061 A 
HETATM    5  S1  UNL     1     -31.964  75.828   6.663  1.00  0.00    -0.050 SA
HETATM    6  C3  UNL     1     -31.327  74.336   6.087  1.00  0.00     0.174 A 
HETATM    7  N1  UNL     1     -30.624  73.683   5.091  1.00  0.00    -0.324 N 
HETATM    8  N5  UNL     1     -31.687  73.481   7.054  1.00  0.00    -0.208 N 
HETATM    9  C2  UNL     1     -30.573  72.372   5.495  1.00  0.00     0.094 A 
ATOM     10  H1  UNL     1     -30.230  74.089   4.242  1.00  0.00     0.169 HD
HETATM   11  C1  UNL     1     -29.936  71.316   4.672  1.00  0.00     0.090 C 
HETATM   12  N6  UNL     1     -31.210  72.271   6.659  1.00  0.00    -0.279 N 
ATOM     13  H6  UNL     1     -31.323  71.404   7.183  1.00  0.00     0.189 HD
HETATM   14  C18 UNL     1     -32.363  73.951   8.086  1.00  0.00     0.179 A 
BRANCH  14  15
HETATM   15  O1  UNL     1     -32.809  73.130   9.179  1.00  0.00    -0.344 OA
ATOM     16  H1  UNL     1     -33.571  72.576   9.056  1.00  0.00     0.219 HD
ENDBRANCH  14  15
ENDBRANCH   1   4
BRANCH   1  17
HETATM   17  C7  UNL     1     -33.545  77.489   8.758  1.00  0.00     0.083 C 
BRANCH  17  18
HETATM   18  N3  UNL     1     -32.688  78.506   9.166  1.00  0.00    -0.392 N 
HETATM   19  C8  UNL     1     -31.724  78.145  10.188  1.00  0.00     0.124 C 
HETATM   20  C9  UNL     1     -30.344  78.666   9.729  1.00  0.00     0.055 C 
HETATM   21  C10 UNL     1     -30.334  80.184   9.845  1.00  0.00     0.226 C 
HETATM   22  C16 UNL     1     -31.705  80.615   9.412  1.00  0.00     0.055 C 
HETATM   23  C17 UNL     1     -32.271  79.577   8.424  1.00  0.00     0.124 C 
BRANCH  21  24
HETATM   24  N4  UNL     1     -29.317  80.698   8.988  1.00  0.00     0.093 N 
HETATM   25  C11 UNL     1     -27.994  80.217   9.324  1.00  0.00     0.273 C 
HETATM   26  C12 UNL     1     -27.525  80.603  10.701  1.00  0.00     0.030 C 
HETATM   27  C13 UNL     1     -27.308  82.116  10.644  1.00  0.00     0.003 C 
HETATM   28  C14 UNL     1     -28.665  82.686  10.279  1.00  0.00     0.030 C 
HETATM   29  C15 UNL     1     -29.238  82.149   9.016  1.00  0.00     0.273 C 
ENDBRANCH  21  24
ENDBRANCH  17  18
ENDBRANCH   1  17
TORSDOF 5
ENDMDL
MODEL 3
REMARK VINA RESULT: -6.960640902      0.834      1.595
REMARK  5 active torsions:
REMARK  status: ('A' for Active; 'I' for Inactive)
REMARK    1  A    between atoms: C4_7  and  C5_8 
REMARK    2  A    between atoms: C5_8  and  C7_11 
REMARK    3  A    between atoms: C7_11  and  N3_12 
REMARK    4  A    between atoms: C10_15  and  N4_16 
REMARK    5  A    between atoms: C18_24  and  O1_25 
ROOT
HETATM    1  C5  UNL     1     -33.360  76.543   8.951  1.00  0.00     0.175 C 
HETATM    2  C6  UNL     1     -34.797  76.470   8.796  1.00  0.00     0.074 C 
HETATM    3  N2  UNL     1     -35.969  76.372   8.667  1.00  0.00    -0.196 NA
ENDROOT
BRANCH   1   4
HETATM    4  C4  UNL     1     -32.758  75.562   8.029  1.00  0.00     0.061 A 
HETATM    5  S1  UNL     1     -31.976  75.904   6.574  1.00  0.00    -0.050 SA
HETATM    6  C3  UNL     1     -31.387  74.328   6.210  1.00  0.00     0.174 A 
HETATM    7  N1  UNL     1     -30.671  73.532   5.336  1.00  0.00    -0.324 N 
HETATM    8  N5  UNL     1     -31.834  73.610   7.250  1.00  0.00    -0.208 N 
HETATM    9  C2  UNL     1     -30.703  72.277   5.891  1.00  0.00     0.094 A 
ATOM     10  H1  UNL     1     -30.217  73.816   4.467  1.00  0.00     0.169 HD
HETATM   11  C1  UNL     1     -30.080  71.104   5.232  1.00  0.00     0.090 C 
HETATM   12  N6  UNL     1     -31.398  72.342   7.024  1.00  0.00    -0.279 N 
ATOM     13  H6  UNL     1     -31.578  71.549   7.639  1.00  0.00     0.189 HD
HETATM   14  C18 UNL     1     -32.533  74.228   8.184  1.00  0.00     0.179 A 
BRANCH  14  15
HETATM   15  O1  UNL     1     -33.070  73.563   9.340  1.00  0.00    -0.344 OA
ATOM     16  H1  UNL     1     -33.111  72.614   9.346  1.00  0.00     0.219 HD
ENDBRANCH  14  15
ENDBRANCH   1   4
BRANCH   1  17
HETATM   17  C7  UNL     1     -32.792  77.886   8.865  1.00  0.00     0.083 C 
BRANCH  17  18
HETATM   18  N3  UNL     1     -31.610  78.155   9.547  1.00  0.00    -0.392 N 
HETATM   19  C8  UNL     1     -30.599  78.876   8.798  1.00  0.00     0.124 C 
HETATM   20  C9  UNL     1     -30.087  80.025   9.695  1.00  0.00     0.055 C 
HETATM   21  C10 UNL     1     -29.246  79.430  10.816  1.00  0.00     0.226 C 
HETATM   22  C16 UNL     1     -29.956  78.166  11.203  1.00  0.00     0.055 C 
HETATM   23  C17 UNL     1     -31.459  78.317  10.898  1.00  0.00     0.124 C 
BRANCH  21  24
HETATM   24  N4  UNL     1     -29.197  80.365  11.891  1.00  0.00     0.093 N 
HETATM   25  C11 UNL     1     -28.459  81.567  11.564  1.00  0.00     0.273 C 
HETATM   26  C12 UNL     1     -27.011  81.335  11.229  1.00  0.00     0.030 C 
HETATM   27  C13 UNL     1     -26.355  80.909  12.543  1.00  0.00     0.003 C 
HETATM   28  C14 UNL     1     -27.098  79.650  12.953  1.00  0.00     0.030 C 
HETATM   29  C15 UNL     1     -28.569  79.819  13.083  1.00  0.00     0.273 C 
ENDBRANCH  21  24
ENDBRANCH  17  18
ENDBRANCH   1  17
TORSDOF 5
ENDMDL
MODEL 4
REMARK VINA RESULT: -6.858037523      1.357      1.779
REMARK  5 active torsions:
REMARK  status: ('A' for Active; 'I' for Inactive)
REMARK    1  A    between atoms: C4_7  and  C5_8 
REMARK    2  A    between atoms: C5_8  and  C7_11 
REMARK    3  A    between atoms: C7_11  and  N3_12 
REMARK    4  A    between atoms: C10_15  and  N4_16 
REMARK    5  A    between atoms: C18_24  and  O1_25 
ROOT
HETATM    1  C5  UNL     1     -33.268  76.628   8.670  1.00  0.00     0.175 C 
HETATM    2  C6  UNL     1     -34.700  76.571   8.467  1.00  0.00     0.074 C 
HETATM    3  N2  UNL     1     -35.868  76.484   8.300  1.00  0.00    -0.196 NA
ENDROOT
BRANCH   1   4
HETATM    4  C4  UNL     1     -32.649  75.618   7.793  1.00  0.00     0.061 A 
HETATM    5  S1  UNL     1     -31.747  75.918   6.400  1.00  0.00    -0.050 SA
HETATM    6  C3  UNL     1     -31.209  74.315   6.078  1.00  0.00     0.174 A 
HETATM    7  N1  UNL     1     -30.470  73.484   5.257  1.00  0.00    -0.324 N 
HETATM    8  N5  UNL     1     -31.765  73.622   7.081  1.00  0.00    -0.208 N 
HETATM    9  C2  UNL     1     -30.603  72.233   5.807  1.00  0.00     0.094 A 
ATOM     10  H1  UNL     1     -29.941  73.744   4.425  1.00  0.00     0.169 HD
HETATM   11  C1  UNL     1     -29.991  71.030   5.194  1.00  0.00     0.090 C 
HETATM   12  N6  UNL     1     -31.375  72.334   6.887  1.00  0.00    -0.279 N 
ATOM     13  H6  UNL     1     -31.638  71.552   7.486  1.00  0.00     0.189 HD
HETATM   14  C18 UNL     1     -32.500  74.275   7.963  1.00  0.00     0.179 A 
BRANCH  14  15
HETATM   15  O1  UNL     1     -33.151  73.639   9.076  1.00  0.00    -0.344 OA
ATOM     16  H1  UNL     1     -33.525  72.774   8.955  1.00  0.00     0.219 HD
ENDBRANCH  14  15
ENDBRANCH   1   4
BRANCH   1  17
HETATM   17  C7  UNL     1     -32.679  77.962   8.572  1.00  0.00     0.083 C 
BRANCH  17  18
HETATM   18  N3  UNL     1     -31.829  78.391   9.586  1.00  0.00    -0.392 N 
HETATM   19  C8  UNL     1     -32.258  78.091  10.938  1.00  0.00     0.124 C 
HETATM   20  C9  UNL     1     -31.050  77.485  11.686  1.00  0.00     0.055 C 
HETATM   21  C10 UNL     1     -30.033  78.589  11.944  1.00  0.00     0.226 C 
HETATM   22  C16 UNL     1     -30.058  79.435  10.705  1.00  0.00     0.055 C 
HETATM   23  C17 UNL     1     -30.473  78.561   9.505  1.00  0.00     0.124 C 
BRANCH  21  24
HETATM   24  N4  UNL     1     -28.758  77.990  12.156  1.00  0.00     0.093 N 
HETATM   25  C11 UNL     1     -28.706  77.170  13.348  1.00  0.00     0.273 C 
HETATM   26  C12 UNL     1     -28.965  77.918  14.628  1.00  0.00     0.030 C 
HETATM   27  C13 UNL     1     -27.749  78.828  14.816  1.00  0.00     0.003 C 
HETATM   28  C14 UNL     1     -27.735  79.712  13.583  1.00  0.00     0.030 C 
HETATM   29  C15 UNL     1     -27.693  78.970  12.295  1.00  0.00     0.273 C 
ENDBRANCH  21  24
ENDBRANCH  17  18
ENDBRANCH   1  17
TORSDOF 5
ENDMDL
MODEL 5
REMARK VINA RESULT: -6.685803126      2.921      3.904
REMARK  5 active torsions:
REMARK  status: ('A' for Active; 'I' for Inactive)
REMARK    1  A    between atoms: C4_7  and  C5_8 
REMARK    2  A    between atoms: C5_8  and  C7_11 
REMARK    3  A    between atoms: C7_11  and  N3_12 
REMARK    4  A    between atoms: C10_15  and  N4_16 
REMARK    5  A    between atoms: C18_24  and  O1_25 
ROOT
HETATM    1  C5  UNL     1     -33.333  76.215   8.805  1.00  0.00     0.175 C 
HETATM    2  C6  UNL     1     -34.650  76.516   8.288  1.00  0.00     0.074 C 
HETATM    3  N2  UNL     1     -35.732  76.723   7.856  1.00  0.00    -0.196 NA
ENDROOT
BRANCH   1   4
HETATM    4  C4  UNL     1     -32.689  75.271   7.872  1.00  0.00     0.061 A 
HETATM    5  S1  UNL     1     -31.906  75.664   6.431  1.00  0.00    -0.050 SA
HETATM    6  C3  UNL     1     -31.259  74.116   6.047  1.00  0.00     0.174 A 
HETATM    7  N1  UNL     1     -30.508  73.360   5.167  1.00  0.00    -0.324 N 
HETATM    8  N5  UNL     1     -31.690  73.365   7.071  1.00  0.00    -0.208 N 
HETATM    9  C2  UNL     1     -30.501  72.096   5.702  1.00  0.00     0.094 A 
ATOM     10  H1  UNL     1     -30.056  73.674   4.308  1.00  0.00     0.169 HD
HETATM   11  C1  UNL     1     -29.832  70.956   5.029  1.00  0.00     0.090 C 
HETATM   12  N6  UNL     1     -31.208  72.118   6.829  1.00  0.00    -0.279 N 
ATOM     13  H6  UNL     1     -31.367  71.309   7.429  1.00  0.00     0.189 HD
HETATM   14  C18 UNL     1     -32.419  73.943   8.008  1.00  0.00     0.179 A 
BRANCH  14  15
HETATM   15  O1  UNL     1     -32.943  73.241   9.148  1.00  0.00    -0.344 OA
ATOM     16  H1  UNL     1     -32.636  72.360   9.325  1.00  0.00     0.219 HD
ENDBRANCH  14  15
ENDBRANCH   1   4
BRANCH   1  17
HETATM   17  C7  UNL     1     -32.519  77.379   9.150  1.00  0.00     0.083 C 
BRANCH  17  18
HETATM   18  N3  UNL     1     -32.842  78.608   8.585  1.00  0.00    -0.392 N 
HETATM   19  C8  UNL     1     -33.199  79.657   9.521  1.00  0.00     0.124 C 
HETATM   20  C9  UNL     1     -32.408  80.923   9.123  1.00  0.00     0.055 C 
HETATM   21  C10 UNL     1     -32.992  81.477   7.831  1.00  0.00     0.226 C 
HETATM   22  C16 UNL     1     -33.328  80.268   7.008  1.00  0.00     0.055 C 
HETATM   23  C17 UNL     1     -32.384  79.114   7.399  1.00  0.00     0.124 C 
BRANCH  21  24
HETATM   24  N4  UNL     1     -32.009  82.295   7.203  1.00  0.00     0.093 N 
HETATM   25  C11 UNL     1     -31.744  83.522   7.924  1.00  0.00     0.273 C 
HETATM   26  C12 UNL     1     -32.934  84.434   8.055  1.00  0.00     0.030 C 
HETATM   27  C13 UNL     1     -33.204  84.951   6.641  1.00  0.00     0.003 C 
HETATM   28  C14 UNL     1     -33.477  83.703   5.821  1.00  0.00     0.030 C 
HETATM   29  C15 UNL     1     -32.386  82.694   5.856  1.00  0.00     0.273 C 
ENDBRANCH  21  24
ENDBRANCH  17  18
ENDBRANCH   1  17
TORSDOF 5
ENDMDL
