MODEL 1
REMARK VINA RESULT: -6.528288094      0.000      0.000
REMARK  8 active torsions:
REMARK  status: ('A' for Active; 'I' for Inactive)
REMARK    1  A    between atoms: C1_4  and  C2_5 
REMARK    2  A    between atoms: C3_8  and  N3_9 
REMARK    3  A    between atoms: N4_15  and  C8_16 
REMARK    4  A    between atoms: C8_16  and  C9_17 
REMARK    5  A    between atoms: C10_20  and  C11_21 
REMARK    6  A    between atoms: C11_21  and  N6_22 
REMARK    7  A    between atoms: C11_21  and  O2_26 
REMARK    8  A    between atoms: N9_33  and  O3_34 
ROOT
HETATM    1  C2  UNL     1     -13.544 -15.255  13.309  1.00  0.00     0.135 A 
HETATM    2  N2  UNL     1     -12.947 -15.843  12.248  1.00  0.00    -0.183 N 
ATOM      3  H2  UNL     1     -13.154 -15.489  11.314  1.00  0.00     0.184 HD
HETATM    4  C3  UNL     1     -12.077 -16.892  12.372  1.00  0.00     0.700 A 
HETATM    5  N4  UNL     1     -11.814 -17.346  13.600  1.00  0.00    -0.092 N 
HETATM    6  N9  UNL     1     -12.382 -16.796  14.688  1.00  0.00    -0.104 N 
HETATM    7  C14 UNL     1     -13.232 -15.767  14.529  1.00  0.00     0.316 A 
HETATM    8  O4  UNL     1     -13.751 -15.270  15.578  1.00  0.00    -0.262 OA
ENDROOT
BRANCH   5   9
HETATM    9  C8  UNL     1     -10.884 -18.394  13.837  1.00  0.00     0.203 C 
BRANCH   9  10
HETATM   10  C9  UNL     1     -11.452 -19.797  13.803  1.00  0.00     0.162 C 
HETATM   11  N5  UNL     1     -12.124 -20.244  14.939  1.00  0.00    -0.400 N 
HETATM   12  C10 UNL     1     -11.917 -21.575  15.394  1.00  0.00     0.151 C 
ATOM     13  H5  UNL     1     -12.758 -19.622  15.439  1.00  0.00     0.154 HD
HETATM   14  C12 UNL     1     -10.440 -21.926  15.409  1.00  0.00     0.149 C 
HETATM   15  N7  UNL     1      -9.907 -21.613  14.123  1.00  0.00    -0.378 N 
HETATM   16  C13 UNL     1     -10.335 -20.675  13.388  1.00  0.00     0.113 C 
ATOM     17  H7  UNL     1      -9.133 -22.179  13.775  1.00  0.00     0.160 HD
HETATM   18  N8  UNL     1      -9.713 -20.444  12.079  1.00  0.00    -0.086 NA
BRANCH  12  19
HETATM   19  C11 UNL     1     -12.616 -22.611  14.545  1.00  0.00     0.340 C 
BRANCH  19  20
HETATM   20  N6  UNL     1     -12.275 -23.971  14.893  1.00  0.00    -0.051 N 
ATOM     21  H63 UNL     1     -11.585 -23.988  15.643  1.00  0.00     0.277 HD
ATOM     22  H62 UNL     1     -13.054 -24.428  15.367  1.00  0.00     0.277 HD
ATOM     23  H61 UNL     1     -11.959 -24.529  14.100  1.00  0.00     0.277 HD
ENDBRANCH  19  20
BRANCH  19  24
HETATM   24  O2  UNL     1     -14.020 -22.490  14.712  1.00  0.00    -0.368 OA
ATOM     25  H2  UNL     1     -14.297 -21.622  14.440  1.00  0.00     0.212 HD
ENDBRANCH  19  24
ENDBRANCH  12  19
ENDBRANCH   9  10
ENDBRANCH   5   9
BRANCH   4  26
HETATM   26  N3  UNL     1     -11.612 -17.413  11.151  1.00  0.00    -0.212 N 
HETATM   27  C4  UNL     1     -12.526 -18.232  10.367  1.00  0.00     0.167 C 
HETATM   28  C5  UNL     1     -11.837 -19.270   9.548  1.00  0.00     0.188 C 
HETATM   29  O1  UNL     1     -10.838 -18.724   8.790  1.00  0.00    -0.388 OA
HETATM   30  C6  UNL     1     -10.576 -17.394   9.033  1.00  0.00     0.188 C 
HETATM   31  C7  UNL     1     -10.323 -17.193  10.540  1.00  0.00     0.167 C 
ENDBRANCH   4  26
BRANCH   6  32
HETATM   32  O3  UNL     1     -12.128 -17.243  15.956  1.00  0.00    -0.264 OA
ATOM     33  H3  UNL     1     -12.441 -16.789  16.730  1.00  0.00     0.247 HD
ENDBRANCH   6  32
BRANCH   1  34
HETATM   34  C1  UNL     1     -14.436 -14.160  13.068  1.00  0.00     0.116 C 
HETATM   35  N1  UNL     1     -14.483 -13.023  13.635  1.00  0.00    -0.406 N 
ATOM     36  H12 UNL     1     -13.780 -12.888  14.361  1.00  0.00     0.155 HD
ATOM     37  H11 UNL     1     -15.118 -12.244  13.462  1.00  0.00     0.155 HD
ENDBRANCH   1  34
TORSDOF 8
ENDMDL
MODEL 2
REMARK VINA RESULT: -6.359359333      2.427      7.089
REMARK  8 active torsions:
REMARK  status: ('A' for Active; 'I' for Inactive)
REMARK    1  A    between atoms: C1_4  and  C2_5 
REMARK    2  A    between atoms: C3_8  and  N3_9 
REMARK    3  A    between atoms: N4_15  and  C8_16 
REMARK    4  A    between atoms: C8_16  and  C9_17 
REMARK    5  A    between atoms: C10_20  and  C11_21 
REMARK    6  A    between atoms: C11_21  and  N6_22 
REMARK    7  A    between atoms: C11_21  and  O2_26 
REMARK    8  A    between atoms: N9_33  and  O3_34 
ROOT
HETATM    1  C2  UNL     1     -10.438 -21.320  13.684  1.00  0.00     0.135 A 
HETATM    2  N2  UNL     1     -10.874 -20.191  14.288  1.00  0.00    -0.183 N 
ATOM      3  H2  UNL     1     -10.806 -20.125  15.304  1.00  0.00     0.184 HD
HETATM    4  C3  UNL     1     -11.403 -19.135  13.598  1.00  0.00     0.700 A 
HETATM    5  N4  UNL     1     -11.485 -19.233  12.269  1.00  0.00    -0.092 N 
HETATM    6  N9  UNL     1     -11.066 -20.334  11.620  1.00  0.00    -0.104 N 
HETATM    7  C14 UNL     1     -10.553 -21.353  12.329  1.00  0.00     0.316 A 
HETATM    8  O4  UNL     1     -10.166 -22.379  11.686  1.00  0.00    -0.262 OA
ENDROOT
BRANCH   5   9
HETATM    9  C8  UNL     1     -11.968 -18.170  11.459  1.00  0.00     0.203 C 
BRANCH   9  10
HETATM   10  C9  UNL     1     -11.070 -16.955  11.365  1.00  0.00     0.162 C 
HETATM   11  N5  UNL     1     -11.494 -15.793  12.007  1.00  0.00    -0.400 N 
HETATM   12  C10 UNL     1     -11.328 -14.538  11.359  1.00  0.00     0.151 C 
ATOM     13  H5  UNL     1     -11.920 -15.842  12.932  1.00  0.00     0.154 HD
HETATM   14  C12 UNL     1     -11.774 -14.606   9.910  1.00  0.00     0.149 C 
HETATM   15  N7  UNL     1     -11.114 -15.716   9.304  1.00  0.00    -0.378 N 
HETATM   16  C13 UNL     1     -10.789 -16.771   9.925  1.00  0.00     0.113 C 
ATOM     17  H7  UNL     1     -10.891 -15.656   8.311  1.00  0.00     0.160 HD
HETATM   18  N8  UNL     1     -10.109 -17.851   9.201  1.00  0.00    -0.086 NA
BRANCH  12  19
HETATM   19  C11 UNL     1      -9.899 -14.047  11.366  1.00  0.00     0.340 C 
BRANCH  19  20
HETATM   20  N6  UNL     1      -9.619 -13.064  10.346  1.00  0.00    -0.051 N 
ATOM     21  H63 UNL     1      -8.750 -12.571  10.550  1.00  0.00     0.277 HD
ATOM     22  H62 UNL     1      -9.356 -13.518   9.471  1.00  0.00     0.277 HD
ATOM     23  H61 UNL     1     -10.381 -12.403  10.195  1.00  0.00     0.277 HD
ENDBRANCH  19  20
BRANCH  19  24
HETATM   24  O2  UNL     1      -9.618 -13.430  12.613  1.00  0.00    -0.368 OA
ATOM     25  H2  UNL     1      -8.685 -13.264  12.681  1.00  0.00     0.212 HD
ENDBRANCH  19  24
ENDBRANCH  12  19
ENDBRANCH   9  10
ENDBRANCH   5   9
BRANCH   4  26
HETATM   26  N3  UNL     1     -11.863 -18.080  14.407  1.00  0.00    -0.212 N 
HETATM   27  C4  UNL     1     -10.873 -17.174  14.973  1.00  0.00     0.167 C 
HETATM   28  C5  UNL     1     -11.283 -16.593  16.283  1.00  0.00     0.188 C 
HETATM   29  O1  UNL     1     -12.529 -16.034  16.212  1.00  0.00    -0.388 OA
HETATM   30  C6  UNL     1     -13.199 -16.238  15.027  1.00  0.00     0.188 C 
HETATM   31  C7  UNL     1     -13.232 -17.748  14.716  1.00  0.00     0.167 C 
ENDBRANCH   4  26
BRANCH   6  32
HETATM   32  O3  UNL     1     -11.141 -20.460  10.259  1.00  0.00    -0.264 OA
ATOM     33  H3  UNL     1     -10.406 -20.271   9.688  1.00  0.00     0.247 HD
ENDBRANCH   6  32
BRANCH   1  34
HETATM   34  C1  UNL     1      -9.899 -22.365  14.501  1.00  0.00     0.116 C 
HETATM   35  N1  UNL     1     -10.467 -23.043  15.414  1.00  0.00    -0.406 N 
ATOM     36  H12 UNL     1     -11.444 -22.796  15.574  1.00  0.00     0.155 HD
ATOM     37  H11 UNL     1     -10.083 -23.788  15.996  1.00  0.00     0.155 HD
ENDBRANCH   1  34
TORSDOF 8
ENDMDL
MODEL 3
REMARK VINA RESULT: -6.329744403      2.211      5.701
REMARK  8 active torsions:
REMARK  status: ('A' for Active; 'I' for Inactive)
REMARK    1  A    between atoms: C1_4  and  C2_5 
REMARK    2  A    between atoms: C3_8  and  N3_9 
REMARK    3  A    between atoms: N4_15  and  C8_16 
REMARK    4  A    between atoms: C8_16  and  C9_17 
REMARK    5  A    between atoms: C10_20  and  C11_21 
REMARK    6  A    between atoms: C11_21  and  N6_22 
REMARK    7  A    between atoms: C11_21  and  O2_26 
REMARK    8  A    between atoms: N9_33  and  O3_34 
ROOT
HETATM    1  C2  UNL     1     -11.080 -18.849  14.827  1.00  0.00     0.135 A 
HETATM    2  N2  UNL     1     -11.127 -18.837  13.476  1.00  0.00    -0.183 N 
ATOM      3  H2  UNL     1     -11.309 -19.713  12.986  1.00  0.00     0.184 HD
HETATM    4  C3  UNL     1     -10.941 -17.701  12.736  1.00  0.00     0.700 A 
HETATM    5  N4  UNL     1     -10.705 -16.560  13.388  1.00  0.00    -0.092 N 
HETATM    6  N9  UNL     1     -10.647 -16.519  14.731  1.00  0.00    -0.104 N 
HETATM    7  C14 UNL     1     -10.833 -17.653  15.426  1.00  0.00     0.316 A 
HETATM    8  O4  UNL     1     -10.773 -17.580  16.694  1.00  0.00    -0.262 OA
ENDROOT
BRANCH   5   9
HETATM    9  C8  UNL     1     -10.553 -15.319  12.712  1.00  0.00     0.203 C 
BRANCH   9  10
HETATM   10  C9  UNL     1     -11.818 -14.507  12.536  1.00  0.00     0.162 C 
HETATM   11  N5  UNL     1     -12.920 -14.859  13.314  1.00  0.00    -0.400 N 
HETATM   12  C10 UNL     1     -14.214 -14.868  12.727  1.00  0.00     0.151 C 
ATOM     13  H5  UNL     1     -12.798 -15.108  14.295  1.00  0.00     0.154 HD
HETATM   14  C12 UNL     1     -14.200 -15.565  11.379  1.00  0.00     0.149 C 
HETATM   15  N7  UNL     1     -13.161 -14.977  10.598  1.00  0.00    -0.378 N 
HETATM   16  C13 UNL     1     -12.094 -14.499  11.083  1.00  0.00     0.113 C 
ATOM     17  H7  UNL     1     -13.287 -14.940   9.586  1.00  0.00     0.160 HD
HETATM   18  N8  UNL     1     -11.093 -13.914  10.184  1.00  0.00    -0.086 NA
BRANCH  12  19
HETATM   19  C11 UNL     1     -14.781 -13.484  12.511  1.00  0.00     0.340 C 
BRANCH  19  20
HETATM   20  N6  UNL     1     -16.120 -13.485  11.969  1.00  0.00    -0.051 N 
ATOM     21  H63 UNL     1     -16.782 -13.864  12.646  1.00  0.00     0.277 HD
ATOM     22  H62 UNL     1     -16.479 -12.533  11.895  1.00  0.00     0.277 HD
ATOM     23  H61 UNL     1     -16.200 -13.971  11.076  1.00  0.00     0.277 HD
ENDBRANCH  19  20
BRANCH  19  24
HETATM   24  O2  UNL     1     -14.847 -12.802  13.753  1.00  0.00    -0.368 OA
ATOM     25  H2  UNL     1     -15.297 -11.973  13.636  1.00  0.00     0.212 HD
ENDBRANCH  19  24
ENDBRANCH  12  19
ENDBRANCH   9  10
ENDBRANCH   5   9
BRANCH   4  26
HETATM   26  N3  UNL     1     -10.959 -17.901  11.344  1.00  0.00    -0.212 N 
HETATM   27  C4  UNL     1     -12.178 -18.433  10.748  1.00  0.00     0.167 C 
HETATM   28  C5  UNL     1     -11.931 -19.249   9.525  1.00  0.00     0.188 C 
HETATM   29  O1  UNL     1     -11.155 -18.574   8.624  1.00  0.00    -0.388 OA
HETATM   30  C6  UNL     1     -10.649 -17.373   9.066  1.00  0.00     0.188 C 
HETATM   31  C7  UNL     1      -9.910 -17.594  10.401  1.00  0.00     0.167 C 
ENDBRANCH   4  26
BRANCH   6  32
HETATM   32  O3  UNL     1     -10.406 -15.362  15.422  1.00  0.00    -0.264 OA
ATOM     33  H3  UNL     1     -11.077 -14.919  15.927  1.00  0.00     0.247 HD
ENDBRANCH   6  32
BRANCH   1  34
HETATM   34  C1  UNL     1     -11.291 -20.093  15.504  1.00  0.00     0.116 C 
HETATM   35  N1  UNL     1     -12.226 -20.425  16.300  1.00  0.00    -0.406 N 
ATOM     36  H12 UNL     1     -12.913 -19.690  16.469  1.00  0.00     0.155 HD
ATOM     37  H11 UNL     1     -12.377 -21.312  16.781  1.00  0.00     0.155 HD
ENDBRANCH   1  34
TORSDOF 8
ENDMDL
MODEL 4
REMARK VINA RESULT: -6.326130744      2.859      4.235
REMARK  8 active torsions:
REMARK  status: ('A' for Active; 'I' for Inactive)
REMARK    1  A    between atoms: C1_4  and  C2_5 
REMARK    2  A    between atoms: C3_8  and  N3_9 
REMARK    3  A    between atoms: N4_15  and  C8_16 
REMARK    4  A    between atoms: C8_16  and  C9_17 
REMARK    5  A    between atoms: C10_20  and  C11_21 
REMARK    6  A    between atoms: C11_21  and  N6_22 
REMARK    7  A    between atoms: C11_21  and  O2_26 
REMARK    8  A    between atoms: N9_33  and  O3_34 
ROOT
HETATM    1  C2  UNL     1     -16.016 -13.615  11.773  1.00  0.00     0.135 A 
HETATM    2  N2  UNL     1     -14.679 -13.790  11.871  1.00  0.00    -0.183 N 
ATOM      3  H2  UNL     1     -14.129 -13.081  12.358  1.00  0.00     0.184 HD
HETATM    4  C3  UNL     1     -14.030 -14.874  11.347  1.00  0.00     0.700 A 
HETATM    5  N4  UNL     1     -14.760 -15.795  10.713  1.00  0.00    -0.092 N 
HETATM    6  N9  UNL     1     -16.093 -15.668  10.587  1.00  0.00    -0.104 N 
HETATM    7  C14 UNL     1     -16.698 -14.590  11.114  1.00  0.00     0.316 A 
HETATM    8  O4  UNL     1     -17.958 -14.501  10.978  1.00  0.00    -0.262 OA
ENDROOT
BRANCH   5   9
HETATM    9  C8  UNL     1     -14.187 -16.982  10.182  1.00  0.00     0.203 C 
BRANCH   9  10
HETATM   10  C9  UNL     1     -13.944 -18.097  11.177  1.00  0.00     0.162 C 
HETATM   11  N5  UNL     1     -14.052 -17.783  12.531  1.00  0.00    -0.400 N 
HETATM   12  C10 UNL     1     -13.105 -18.314  13.448  1.00  0.00     0.151 C 
ATOM     13  H5  UNL     1     -14.805 -17.179  12.860  1.00  0.00     0.154 HD
HETATM   14  C12 UNL     1     -11.689 -18.164  12.922  1.00  0.00     0.149 C 
HETATM   15  N7  UNL     1     -11.657 -18.707  11.603  1.00  0.00    -0.378 N 
HETATM   16  C13 UNL     1     -12.641 -18.692  10.806  1.00  0.00     0.113 C 
ATOM     17  H7  UNL     1     -10.787 -19.133  11.282  1.00  0.00     0.160 HD
HETATM   18  N8  UNL     1     -12.497 -19.284   9.472  1.00  0.00    -0.086 NA
BRANCH  12  19
HETATM   19  C11 UNL     1     -13.320 -19.779  13.747  1.00  0.00     0.340 C 
BRANCH  19  20
HETATM   20  N6  UNL     1     -12.218 -20.395  14.450  1.00  0.00    -0.051 N 
ATOM     21  H63 UNL     1     -11.564 -19.687  14.784  1.00  0.00     0.277 HD
ATOM     22  H62 UNL     1     -12.529 -20.775  15.344  1.00  0.00     0.277 HD
ATOM     23  H61 UNL     1     -11.732 -21.106  13.905  1.00  0.00     0.277 HD
ENDBRANCH  19  20
BRANCH  19  24
HETATM   24  O2  UNL     1     -14.463 -19.929  14.574  1.00  0.00    -0.368 OA
ATOM     25  H2  UNL     1     -14.722 -20.843  14.594  1.00  0.00     0.212 HD
ENDBRANCH  19  24
ENDBRANCH  12  19
ENDBRANCH   9  10
ENDBRANCH   5   9
BRANCH   4  26
HETATM   26  N3  UNL     1     -12.631 -14.844  11.491  1.00  0.00    -0.212 N 
HETATM   27  C4  UNL     1     -11.824 -14.721  10.284  1.00  0.00     0.167 C 
HETATM   28  C5  UNL     1     -10.491 -15.379  10.395  1.00  0.00     0.188 C 
HETATM   29  O1  UNL     1      -9.825 -14.971  11.517  1.00  0.00    -0.388 OA
HETATM   30  C6  UNL     1     -10.549 -14.172  12.373  1.00  0.00     0.188 C 
HETATM   31  C7  UNL     1     -11.877 -14.874  12.721  1.00  0.00     0.167 C 
ENDBRANCH   4  26
BRANCH   6  32
HETATM   32  O3  UNL     1     -16.863 -16.598   9.942  1.00  0.00    -0.264 OA
ATOM     33  H3  UNL     1     -17.480 -17.156  10.399  1.00  0.00     0.247 HD
ENDBRANCH   6  32
BRANCH   1  34
HETATM   34  C1  UNL     1     -16.595 -12.445  12.361  1.00  0.00     0.116 C 
HETATM   35  N1  UNL     1     -16.054 -11.572  13.110  1.00  0.00    -0.406 N 
ATOM     36  H12 UNL     1     -15.069 -11.745  13.310  1.00  0.00     0.155 HD
ATOM     37  H11 UNL     1     -16.466 -10.737  13.528  1.00  0.00     0.155 HD
ENDBRANCH   1  34
TORSDOF 8
ENDMDL
MODEL 5
REMARK VINA RESULT: -6.234196605      2.037      5.763
REMARK  8 active torsions:
REMARK  status: ('A' for Active; 'I' for Inactive)
REMARK    1  A    between atoms: C1_4  and  C2_5 
REMARK    2  A    between atoms: C3_8  and  N3_9 
REMARK    3  A    between atoms: N4_15  and  C8_16 
REMARK    4  A    between atoms: C8_16  and  C9_17 
REMARK    5  A    between atoms: C10_20  and  C11_21 
REMARK    6  A    between atoms: C11_21  and  N6_22 
REMARK    7  A    between atoms: C11_21  and  O2_26 
REMARK    8  A    between atoms: N9_33  and  O3_34 
ROOT
HETATM    1  C2  UNL     1     -12.874 -19.495  14.248  1.00  0.00     0.135 A 
HETATM    2  N2  UNL     1     -12.354 -19.200  13.034  1.00  0.00    -0.183 N 
ATOM      3  H2  UNL     1     -12.369 -19.918  12.310  1.00  0.00     0.184 HD
HETATM    4  C3  UNL     1     -11.808 -17.982  12.736  1.00  0.00     0.700 A 
HETATM    5  N4  UNL     1     -11.795 -17.050  13.692  1.00  0.00    -0.092 N 
HETATM    6  N9  UNL     1     -12.299 -17.292  14.915  1.00  0.00    -0.104 N 
HETATM    7  C14 UNL     1     -12.826 -18.500  15.174  1.00  0.00     0.316 A 
HETATM    8  O4  UNL     1     -13.294 -18.697  16.340  1.00  0.00    -0.262 OA
ENDROOT
BRANCH   5   9
HETATM    9  C8  UNL     1     -11.300 -15.737  13.463  1.00  0.00     0.203 C 
BRANCH   9  10
HETATM   10  C9  UNL     1     -12.345 -14.683  13.165  1.00  0.00     0.162 C 
HETATM   11  N5  UNL     1     -13.657 -14.954  13.548  1.00  0.00    -0.400 N 
HETATM   12  C10 UNL     1     -14.725 -14.615  12.673  1.00  0.00     0.151 C 
ATOM     13  H5  UNL     1     -13.850 -15.391  14.449  1.00  0.00     0.154 HD
HETATM   14  C12 UNL     1     -14.427 -15.052  11.251  1.00  0.00     0.149 C 
HETATM   15  N7  UNL     1     -13.142 -14.541  10.900  1.00  0.00    -0.378 N 
HETATM   16  C13 UNL     1     -12.199 -14.366  11.727  1.00  0.00     0.113 C 
ATOM     17  H7  UNL     1     -12.973 -14.302   9.923  1.00  0.00     0.160 HD
HETATM   18  N8  UNL     1     -10.918 -13.830  11.255  1.00  0.00    -0.086 NA
BRANCH  12  19
HETATM   19  C11 UNL     1     -15.018 -13.133  12.635  1.00  0.00     0.340 C 
BRANCH  19  20
HETATM   20  N6  UNL     1     -16.337 -12.816  12.140  1.00  0.00    -0.051 N 
ATOM     21  H63 UNL     1     -16.824 -13.662  11.844  1.00  0.00     0.277 HD
ATOM     22  H62 UNL     1     -16.949 -12.526  12.903  1.00  0.00     0.277 HD
ATOM     23  H61 UNL     1     -16.338 -12.122  11.393  1.00  0.00     0.277 HD
ENDBRANCH  19  20
BRANCH  19  24
HETATM   24  O2  UNL     1     -14.940 -12.603  13.949  1.00  0.00    -0.368 OA
ATOM     25  H2  UNL     1     -14.567 -13.255  14.532  1.00  0.00     0.212 HD
ENDBRANCH  19  24
ENDBRANCH  12  19
ENDBRANCH   9  10
ENDBRANCH   5   9
BRANCH   4  26
HETATM   26  N3  UNL     1     -11.258 -17.889  11.444  1.00  0.00    -0.212 N 
HETATM   27  C4  UNL     1     -12.174 -17.895  10.312  1.00  0.00     0.167 C 
HETATM   28  C5  UNL     1     -11.585 -18.491   9.078  1.00  0.00     0.188 C 
HETATM   29  O1  UNL     1     -10.379 -17.921   8.777  1.00  0.00    -0.388 OA
HETATM   30  C6  UNL     1      -9.891 -17.043   9.718  1.00  0.00     0.188 C 
HETATM   31  C7  UNL     1      -9.866 -17.737  11.095  1.00  0.00     0.167 C 
ENDBRANCH   4  26
BRANCH   6  32
HETATM   32  O3  UNL     1     -12.297 -16.354  15.912  1.00  0.00    -0.264 OA
ATOM     33  H3  UNL     1     -11.824 -16.475  16.726  1.00  0.00     0.247 HD
ENDBRANCH   6  32
BRANCH   1  34
HETATM   34  C1  UNL     1     -13.424 -20.801  14.454  1.00  0.00     0.116 C 
HETATM   35  N1  UNL     1     -14.231 -21.200  15.351  1.00  0.00    -0.406 N 
ATOM     36  H12 UNL     1     -14.517 -20.475  16.009  1.00  0.00     0.155 HD
ATOM     37  H11 UNL     1     -14.623 -22.130  15.497  1.00  0.00     0.155 HD
ENDBRANCH   1  34
TORSDOF 8
ENDMDL
