MODEL 1
REMARK VINA RESULT: -6.708115847      0.000      0.000
REMARK  10 active torsions:
REMARK  status: ('A' for Active; 'I' for Inactive)
REMARK    1  A    between atoms: C2_2  and  C3_3 
REMARK    2  A    between atoms: C3_3  and  C4_4 
REMARK    3  A    between atoms: C4_4  and  C5_5 
REMARK    4  A    between atoms: C5_5  and  C6_6 
REMARK    5  A    between atoms: C6_6  and  C7_7 
REMARK    6  A    between atoms: C8_9  and  C9_10 
REMARK    7  A    between atoms: C11_12  and  O2_13 
REMARK    8  A    between atoms: C13_19  and  C14_20 
REMARK    9  A    between atoms: C14_20  and  O3_21 
REMARK   10  A    between atoms: C15_24  and  O5_25 
ROOT
HETATM    1  C7  UNL     1      27.084 -41.571 -55.158  1.00  0.00     0.177 C 
HETATM    2  O1  UNL     1      26.713 -40.636 -56.133  1.00  0.00    -0.371 OA
HETATM    3  C8  UNL     1      25.864 -39.740 -55.547  1.00  0.00     0.183 C 
HETATM    4  C13 UNL     1      24.815 -40.296 -54.673  1.00  0.00     0.179 C 
HETATM    5  O4  UNL     1      24.969 -41.566 -54.218  1.00  0.00    -0.349 OA
HETATM    6  C15 UNL     1      25.844 -42.371 -54.923  1.00  0.00     0.286 C 
ENDROOT
BRANCH   3   7
HETATM    7  C9  UNL     1      26.707 -38.685 -54.862  1.00  0.00     0.219 C 
HETATM    8  C10 UNL     1      26.251 -38.441 -53.417  1.00  0.00     0.069 C 
HETATM    9  C11 UNL     1      27.028 -37.145 -53.140  1.00  0.00     0.145 C 
HETATM   10  C12 UNL     1      26.794 -36.402 -54.438  1.00  0.00     0.264 C 
HETATM   11  N1  UNL     1      26.416 -37.370 -55.427  1.00  0.00    -0.066 N 
ATOM     12  H12 UNL     1      26.860 -37.214 -56.332  1.00  0.00     0.277 HD
ATOM     13  H11 UNL     1      25.450 -37.270 -55.738  1.00  0.00     0.277 HD
BRANCH   9  14
HETATM   14  O2  UNL     1      26.546 -36.485 -52.037  1.00  0.00    -0.394 OA
ATOM     15  H2  UNL     1      25.656 -36.180 -52.168  1.00  0.00     0.210 HD
ENDBRANCH   9  14
ENDBRANCH   3   7
BRANCH   4  16
HETATM   16  C14 UNL     1      23.452 -40.253 -55.381  1.00  0.00     0.198 C 
BRANCH  16  17
HETATM   17  O3  UNL     1      23.651 -40.236 -56.746  1.00  0.00    -0.398 OA
ATOM     18  H3  UNL     1      23.821 -41.120 -57.048  1.00  0.00     0.209 HD
ENDBRANCH  16  17
ENDBRANCH   4  16
BRANCH   1  19
HETATM   19  C6  UNL     1      28.299 -42.337 -55.545  1.00  0.00     0.037 C 
BRANCH  19  20
HETATM   20  C5  UNL     1      28.744 -41.937 -56.926  1.00  0.00     0.003 C 
BRANCH  20  21
HETATM   21  C4  UNL     1      28.144 -42.829 -57.997  1.00  0.00     0.000 C 
BRANCH  21  22
HETATM   22  C3  UNL     1      27.262 -42.103 -58.964  1.00  0.00    -0.000 C 
BRANCH  22  23
HETATM   23  C2  UNL     1      26.302 -43.146 -59.552  1.00  0.00    -0.005 C 
HETATM   24  C1  UNL     1      24.987 -42.533 -59.910  1.00  0.00     0.005 C 
ENDBRANCH  22  23
ENDBRANCH  21  22
ENDBRANCH  20  21
ENDBRANCH  19  20
ENDBRANCH   1  19
BRANCH   6  25
HETATM   25  O5  UNL     1      25.213 -42.650 -56.159  1.00  0.00    -0.369 OA
ATOM     26  H5  UNL     1      24.676 -43.430 -56.077  1.00  0.00     0.212 HD
ENDBRANCH   6  25
TORSDOF 10
ENDMDL
MODEL 2
REMARK VINA RESULT: -6.660644049      2.180      6.062
REMARK  10 active torsions:
REMARK  status: ('A' for Active; 'I' for Inactive)
REMARK    1  A    between atoms: C2_2  and  C3_3 
REMARK    2  A    between atoms: C3_3  and  C4_4 
REMARK    3  A    between atoms: C4_4  and  C5_5 
REMARK    4  A    between atoms: C5_5  and  C6_6 
REMARK    5  A    between atoms: C6_6  and  C7_7 
REMARK    6  A    between atoms: C8_9  and  C9_10 
REMARK    7  A    between atoms: C11_12  and  O2_13 
REMARK    8  A    between atoms: C13_19  and  C14_20 
REMARK    9  A    between atoms: C14_20  and  O3_21 
REMARK   10  A    between atoms: C15_24  and  O5_25 
ROOT
HETATM    1  C7  UNL     1      26.122 -41.148 -55.087  1.00  0.00     0.177 C 
HETATM    2  O1  UNL     1      26.602 -40.588 -56.279  1.00  0.00    -0.371 OA
HETATM    3  C8  UNL     1      26.615 -41.575 -57.225  1.00  0.00     0.183 C 
HETATM    4  C13 UNL     1      27.138 -42.888 -56.805  1.00  0.00     0.179 C 
HETATM    5  O4  UNL     1      27.223 -43.146 -55.475  1.00  0.00    -0.349 OA
HETATM    6  C15 UNL     1      27.223 -42.050 -54.633  1.00  0.00     0.286 C 
ENDROOT
BRANCH   3   7
HETATM    7  C9  UNL     1      25.227 -41.656 -57.827  1.00  0.00     0.219 C 
HETATM    8  C10 UNL     1      25.276 -41.882 -59.344  1.00  0.00     0.069 C 
HETATM    9  C11 UNL     1      23.808 -41.575 -59.675  1.00  0.00     0.145 C 
HETATM   10  C12 UNL     1      23.583 -40.347 -58.819  1.00  0.00     0.264 C 
HETATM   11  N1  UNL     1      24.596 -40.339 -57.804  1.00  0.00    -0.066 N 
ATOM     12  H12 UNL     1      24.241 -40.078 -56.884  1.00  0.00     0.277 HD
ATOM     13  H11 UNL     1      25.261 -39.572 -57.906  1.00  0.00     0.277 HD
BRANCH   9  14
HETATM   14  O2  UNL     1      23.623 -41.349 -61.016  1.00  0.00    -0.394 OA
ATOM     15  H2  UNL     1      23.258 -40.488 -61.183  1.00  0.00     0.210 HD
ENDBRANCH   9  14
ENDBRANCH   3   7
BRANCH   4  16
HETATM   16  C14 UNL     1      28.545 -43.110 -57.380  1.00  0.00     0.198 C 
BRANCH  16  17
HETATM   17  O3  UNL     1      29.129 -41.886 -57.633  1.00  0.00    -0.398 OA
ATOM     18  H3  UNL     1      29.254 -41.424 -56.813  1.00  0.00     0.209 HD
ENDBRANCH  16  17
ENDBRANCH   4  16
BRANCH   1  19
HETATM   19  C6  UNL     1      25.677 -40.112 -54.118  1.00  0.00     0.037 C 
BRANCH  19  20
HETATM   20  C5  UNL     1      26.074 -38.744 -54.604  1.00  0.00     0.003 C 
BRANCH  20  21
HETATM   21  C4  UNL     1      26.797 -37.949 -53.533  1.00  0.00     0.000 C 
BRANCH  21  22
HETATM   22  C3  UNL     1      26.969 -36.500 -53.868  1.00  0.00    -0.000 C 
BRANCH  22  23
HETATM   23  C2  UNL     1      26.058 -35.717 -52.912  1.00  0.00    -0.005 C 
HETATM   24  C1  UNL     1      24.947 -35.043 -53.649  1.00  0.00     0.005 C 
ENDBRANCH  22  23
ENDBRANCH  21  22
ENDBRANCH  20  21
ENDBRANCH  19  20
ENDBRANCH   1  19
BRANCH   6  25
HETATM   25  O5  UNL     1      28.472 -41.411 -54.819  1.00  0.00    -0.369 OA
ATOM     26  H5  UNL     1      28.412 -40.792 -55.538  1.00  0.00     0.212 HD
ENDBRANCH   6  25
TORSDOF 10
ENDMDL
MODEL 3
REMARK VINA RESULT: -6.591793452      1.688      3.172
REMARK  10 active torsions:
REMARK  status: ('A' for Active; 'I' for Inactive)
REMARK    1  A    between atoms: C2_2  and  C3_3 
REMARK    2  A    between atoms: C3_3  and  C4_4 
REMARK    3  A    between atoms: C4_4  and  C5_5 
REMARK    4  A    between atoms: C5_5  and  C6_6 
REMARK    5  A    between atoms: C6_6  and  C7_7 
REMARK    6  A    between atoms: C8_9  and  C9_10 
REMARK    7  A    between atoms: C11_12  and  O2_13 
REMARK    8  A    between atoms: C13_19  and  C14_20 
REMARK    9  A    between atoms: C14_20  and  O3_21 
REMARK   10  A    between atoms: C15_24  and  O5_25 
ROOT
HETATM    1  C7  UNL     1      24.847 -40.900 -56.205  1.00  0.00     0.177 C 
HETATM    2  O1  UNL     1      24.904 -40.879 -54.806  1.00  0.00    -0.371 OA
HETATM    3  C8  UNL     1      26.159 -40.469 -54.449  1.00  0.00     0.183 C 
HETATM    4  C13 UNL     1      27.286 -41.064 -55.189  1.00  0.00     0.179 C 
HETATM    5  O4  UNL     1      27.022 -41.669 -56.375  1.00  0.00    -0.349 OA
HETATM    6  C15 UNL     1      25.713 -42.054 -56.594  1.00  0.00     0.286 C 
ENDROOT
BRANCH   3   7
HETATM    7  C9  UNL     1      26.172 -38.954 -54.467  1.00  0.00     0.219 C 
HETATM    8  C10 UNL     1      27.053 -38.407 -55.599  1.00  0.00     0.069 C 
HETATM    9  C11 UNL     1      27.133 -36.941 -55.146  1.00  0.00     0.145 C 
HETATM   10  C12 UNL     1      27.353 -37.124 -53.659  1.00  0.00     0.264 C 
HETATM   11  N1  UNL     1      26.919 -38.448 -53.319  1.00  0.00    -0.066 N 
ATOM     12  H12 UNL     1      26.391 -38.487 -52.447  1.00  0.00     0.277 HD
ATOM     13  H11 UNL     1      27.683 -39.060 -53.034  1.00  0.00     0.277 HD
BRANCH   9  14
HETATM   14  O2  UNL     1      28.152 -36.267 -55.771  1.00  0.00    -0.394 OA
ATOM     15  H2  UNL     1      27.889 -35.394 -56.037  1.00  0.00     0.210 HD
ENDBRANCH   9  14
ENDBRANCH   3   7
BRANCH   4  16
HETATM   16  C14 UNL     1      28.003 -42.109 -54.321  1.00  0.00     0.198 C 
BRANCH  16  17
HETATM   17  O3  UNL     1      27.081 -42.723 -53.497  1.00  0.00    -0.398 OA
ATOM     18  H3  UNL     1      26.220 -42.361 -53.668  1.00  0.00     0.209 HD
ENDBRANCH  16  17
ENDBRANCH   4  16
BRANCH   1  19
HETATM   19  C6  UNL     1      23.449 -40.926 -56.711  1.00  0.00     0.037 C 
BRANCH  19  20
HETATM   20  C5  UNL     1      23.414 -40.502 -58.156  1.00  0.00     0.003 C 
BRANCH  20  21
HETATM   21  C4  UNL     1      24.583 -41.066 -58.941  1.00  0.00     0.000 C 
BRANCH  21  22
HETATM   22  C3  UNL     1      24.181 -41.800 -60.181  1.00  0.00    -0.000 C 
BRANCH  22  23
HETATM   23  C2  UNL     1      24.921 -43.145 -60.155  1.00  0.00    -0.005 C 
HETATM   24  C1  UNL     1      26.361 -42.967 -59.798  1.00  0.00     0.005 C 
ENDBRANCH  22  23
ENDBRANCH  21  22
ENDBRANCH  20  21
ENDBRANCH  19  20
ENDBRANCH   1  19
BRANCH   6  25
HETATM   25  O5  UNL     1      25.473 -43.145 -55.726  1.00  0.00    -0.369 OA
ATOM     26  H5  UNL     1      26.299 -43.492 -55.410  1.00  0.00     0.212 HD
ENDBRANCH   6  25
TORSDOF 10
ENDMDL
MODEL 4
REMARK VINA RESULT: -6.482599385      2.270      5.831
REMARK  10 active torsions:
REMARK  status: ('A' for Active; 'I' for Inactive)
REMARK    1  A    between atoms: C2_2  and  C3_3 
REMARK    2  A    between atoms: C3_3  and  C4_4 
REMARK    3  A    between atoms: C4_4  and  C5_5 
REMARK    4  A    between atoms: C5_5  and  C6_6 
REMARK    5  A    between atoms: C6_6  and  C7_7 
REMARK    6  A    between atoms: C8_9  and  C9_10 
REMARK    7  A    between atoms: C11_12  and  O2_13 
REMARK    8  A    between atoms: C13_19  and  C14_20 
REMARK    9  A    between atoms: C14_20  and  O3_21 
REMARK   10  A    between atoms: C15_24  and  O5_25 
ROOT
HETATM    1  C7  UNL     1      26.424 -40.610 -55.127  1.00  0.00     0.177 C 
HETATM    2  O1  UNL     1      27.308 -40.094 -56.083  1.00  0.00    -0.371 OA
HETATM    3  C8  UNL     1      27.260 -40.912 -57.177  1.00  0.00     0.183 C 
HETATM    4  C13 UNL     1      27.273 -42.363 -56.920  1.00  0.00     0.179 C 
HETATM    5  O4  UNL     1      26.968 -42.793 -55.669  1.00  0.00    -0.349 OA
HETATM    6  C15 UNL     1      27.084 -41.865 -54.652  1.00  0.00     0.286 C 
ENDROOT
BRANCH   3   7
HETATM    7  C9  UNL     1      26.088 -40.472 -58.030  1.00  0.00     0.219 C 
HETATM    8  C10 UNL     1      24.758 -40.581 -57.271  1.00  0.00     0.069 C 
HETATM    9  C11 UNL     1      23.796 -40.415 -58.457  1.00  0.00     0.145 C 
HETATM   10  C12 UNL     1      24.473 -41.293 -59.487  1.00  0.00     0.264 C 
HETATM   11  N1  UNL     1      25.840 -41.455 -59.083  1.00  0.00    -0.066 N 
ATOM     12  H12 UNL     1      26.500 -41.388 -59.858  1.00  0.00     0.277 HD
ATOM     13  H11 UNL     1      26.066 -42.409 -58.803  1.00  0.00     0.277 HD
BRANCH   9  14
HETATM   14  O2  UNL     1      22.523 -40.821 -58.143  1.00  0.00    -0.394 OA
ATOM     15  H2  UNL     1      21.902 -40.602 -58.828  1.00  0.00     0.210 HD
ENDBRANCH   9  14
ENDBRANCH   3   7
BRANCH   4  16
HETATM   16  C14 UNL     1      28.652 -42.952 -57.255  1.00  0.00     0.198 C 
BRANCH  16  17
HETATM   17  O3  UNL     1      29.579 -41.932 -57.309  1.00  0.00    -0.398 OA
ATOM     18  H3  UNL     1      30.059 -41.990 -58.126  1.00  0.00     0.209 HD
ENDBRANCH  16  17
ENDBRANCH   4  16
BRANCH   1  19
HETATM   19  C6  UNL     1      26.079 -39.611 -54.081  1.00  0.00     0.037 C 
BRANCH  19  20
HETATM   20  C5  UNL     1      26.422 -38.225 -54.558  1.00  0.00     0.003 C 
BRANCH  20  21
HETATM   21  C4  UNL     1      27.202 -37.443 -53.517  1.00  0.00     0.000 C 
BRANCH  21  22
HETATM   22  C3  UNL     1      26.434 -36.310 -52.911  1.00  0.00    -0.000 C 
BRANCH  22  23
HETATM   23  C2  UNL     1      25.696 -35.614 -54.063  1.00  0.00    -0.005 C 
HETATM   24  C1  UNL     1      24.592 -34.745 -53.555  1.00  0.00     0.005 C 
ENDBRANCH  22  23
ENDBRANCH  21  22
ENDBRANCH  20  21
ENDBRANCH  19  20
ENDBRANCH   1  19
BRANCH   6  25
HETATM   25  O5  UNL     1      28.470 -41.640 -54.481  1.00  0.00    -0.369 OA
ATOM     26  H5  UNL     1      28.947 -42.449 -54.627  1.00  0.00     0.212 HD
ENDBRANCH   6  25
TORSDOF 10
ENDMDL
MODEL 5
REMARK VINA RESULT: -6.407353309      1.791      4.118
REMARK  10 active torsions:
REMARK  status: ('A' for Active; 'I' for Inactive)
REMARK    1  A    between atoms: C2_2  and  C3_3 
REMARK    2  A    between atoms: C3_3  and  C4_4 
REMARK    3  A    between atoms: C4_4  and  C5_5 
REMARK    4  A    between atoms: C5_5  and  C6_6 
REMARK    5  A    between atoms: C6_6  and  C7_7 
REMARK    6  A    between atoms: C8_9  and  C9_10 
REMARK    7  A    between atoms: C11_12  and  O2_13 
REMARK    8  A    between atoms: C13_19  and  C14_20 
REMARK    9  A    between atoms: C14_20  and  O3_21 
REMARK   10  A    between atoms: C15_24  and  O5_25 
ROOT
HETATM    1  C7  UNL     1      27.248 -38.879 -56.210  1.00  0.00     0.177 C 
HETATM    2  O1  UNL     1      27.532 -39.365 -54.928  1.00  0.00    -0.371 OA
HETATM    3  C8  UNL     1      26.531 -38.948 -54.095  1.00  0.00     0.183 C 
HETATM    4  C13 UNL     1      26.095 -37.546 -54.234  1.00  0.00     0.179 C 
HETATM    5  O4  UNL     1      26.425 -36.885 -55.373  1.00  0.00    -0.349 OA
HETATM    6  C15 UNL     1      27.474 -37.406 -56.107  1.00  0.00     0.286 C 
ENDROOT
BRANCH   3   7
HETATM    7  C9  UNL     1      25.391 -39.937 -54.212  1.00  0.00     0.219 C 
HETATM    8  C10 UNL     1      25.891 -41.342 -54.574  1.00  0.00     0.069 C 
HETATM    9  C11 UNL     1      24.545 -41.983 -54.945  1.00  0.00     0.145 C 
HETATM   10  C12 UNL     1      23.923 -40.866 -55.755  1.00  0.00     0.264 C 
HETATM   11  N1  UNL     1      24.602 -39.651 -55.407  1.00  0.00    -0.066 N 
ATOM     12  H12 UNL     1      23.973 -38.857 -55.293  1.00  0.00     0.277 HD
ATOM     13  H11 UNL     1      25.156 -39.267 -56.172  1.00  0.00     0.277 HD
BRANCH   9  14
HETATM   14  O2  UNL     1      24.711 -43.146 -55.655  1.00  0.00    -0.394 OA
ATOM     15  H2  UNL     1      25.220 -43.010 -56.445  1.00  0.00     0.210 HD
ENDBRANCH   9  14
ENDBRANCH   3   7
BRANCH   4  16
HETATM   16  C14 UNL     1      26.635 -36.701 -53.071  1.00  0.00     0.198 C 
BRANCH  16  17
HETATM   17  O3  UNL     1      26.794 -37.506 -51.962  1.00  0.00    -0.398 OA
ATOM     18  H3  UNL     1      27.721 -37.606 -51.780  1.00  0.00     0.209 HD
ENDBRANCH  16  17
ENDBRANCH   4  16
BRANCH   1  19
HETATM   19  C6  UNL     1      28.016 -39.592 -57.265  1.00  0.00     0.037 C 
BRANCH  19  20
HETATM   20  C5  UNL     1      27.121 -40.561 -57.991  1.00  0.00     0.003 C 
BRANCH  20  21
HETATM   21  C4  UNL     1      27.561 -41.999 -57.790  1.00  0.00     0.000 C 
BRANCH  21  22
HETATM   22  C3  UNL     1      26.716 -42.997 -58.518  1.00  0.00    -0.000 C 
BRANCH  22  23
HETATM   23  C2  UNL     1      25.416 -42.276 -58.900  1.00  0.00    -0.005 C 
HETATM   24  C1  UNL     1      24.865 -42.793 -60.189  1.00  0.00     0.005 C 
ENDBRANCH  22  23
ENDBRANCH  21  22
ENDBRANCH  20  21
ENDBRANCH  19  20
ENDBRANCH   1  19
BRANCH   6  25
HETATM   25  O5  UNL     1      28.645 -37.154 -55.353  1.00  0.00    -0.369 OA
ATOM     26  H5  UNL     1      28.852 -36.227 -55.382  1.00  0.00     0.212 HD
ENDBRANCH   6  25
TORSDOF 10
ENDMDL
