MODEL 1
REMARK VINA RESULT: -5.832863351      0.000      0.000
REMARK  14 active torsions:
REMARK  status: ('A' for Active; 'I' for Inactive)
REMARK    1  A    between atoms: C2_2  and  C3_3 
REMARK    2  A    between atoms: C3_3  and  C4_4 
REMARK    3  A    between atoms: C4_4  and  C5_5 
REMARK    4  A    between atoms: C5_5  and  C6_6 
REMARK    5  A    between atoms: C6_6  and  O1_7 
REMARK    6  A    between atoms: C6_6  and  C7_9 
REMARK    7  A    between atoms: C7_9  and  O2_10 
REMARK    8  A    between atoms: C7_9  and  N1_12 
REMARK    9  A    between atoms: C12_18  and  S1_19 
REMARK   10  A    between atoms: C14_21  and  C15_22 
REMARK       I    between atoms: C15_22  and  N2_24 
REMARK   11  A    between atoms: N2_24  and  C16_25 
REMARK   12  A    between atoms: N2_24  and  O5_27 
REMARK   13  A    between atoms: O5_27  and  C18_28 
REMARK   14  A    between atoms: C20_30  and  C21_31 
ROOT
HETATM    1  N1  UNL     1       9.391   2.471  24.759  1.00  0.00    -0.316 N 
HETATM    2  C8  UNL     1       8.140   3.248  24.708  1.00  0.00     0.266 C 
HETATM    3  O3  UNL     1       7.077   2.332  24.561  1.00  0.00    -0.355 OA
HETATM    4  C9  UNL     1       7.371   1.395  23.612  1.00  0.00     0.143 C 
HETATM    5  C10 UNL     1       7.854   1.990  22.338  1.00  0.00     0.061 C 
HETATM    6  C11 UNL     1       7.895   3.468  22.351  1.00  0.00    -0.006 C 
HETATM    7  C12 UNL     1       8.035   4.141  23.512  1.00  0.00     0.022 C 
HETATM    8  C14 UNL     1       8.410   0.395  24.104  1.00  0.00     0.143 C 
HETATM    9  C20 UNL     1       9.169   1.089  25.191  1.00  0.00     0.205 C 
ENDROOT
BRANCH   1  10
HETATM   10  C7  UNL     1      10.599   3.066  24.428  1.00  0.00     0.146 C 
BRANCH  10  11
HETATM   11  C6  UNL     1      11.592   3.762  25.206  1.00  0.00     0.192 C 
BRANCH  11  12
HETATM   12  C5  UNL     1      11.366   5.275  25.258  1.00  0.00     0.040 C 
BRANCH  12  13
HETATM   13  C4  UNL     1      10.507   5.753  26.359  1.00  0.00     0.003 C 
BRANCH  13  14
HETATM   14  C3  UNL     1      10.954   7.178  26.724  1.00  0.00    -0.000 C 
BRANCH  14  15
HETATM   15  C2  UNL     1       9.813   8.070  27.096  1.00  0.00    -0.005 C 
HETATM   16  C1  UNL     1       9.492   8.022  28.578  1.00  0.00     0.005 C 
ENDBRANCH  14  15
ENDBRANCH  13  14
ENDBRANCH  12  13
ENDBRANCH  11  12
BRANCH  11  17
HETATM   17  O1  UNL     1      12.869   3.624  24.697  1.00  0.00    -0.387 OA
ATOM     18  H1  UNL     1      12.882   2.750  24.328  1.00  0.00     0.210 HD
ENDBRANCH  11  17
ENDBRANCH  10  11
BRANCH  10  19
HETATM   19  O2  UNL     1      10.908   2.983  23.162  1.00  0.00    -0.347 OA
ATOM     20  H2  UNL     1      11.311   2.154  22.931  1.00  0.00     0.219 HD
ENDBRANCH  10  19
ENDBRANCH   1  10
BRANCH   9  21
HETATM   21  C21 UNL     1       8.499   1.121  26.505  1.00  0.00     0.198 C 
HETATM   22  O6  UNL     1       7.753   0.184  26.916  1.00  0.00    -0.646 OA
HETATM   23  O7  UNL     1       8.660   2.181  27.356  1.00  0.00    -0.646 OA
ENDBRANCH   9  21
BRANCH   7  24
HETATM   24  S1  UNL     1       7.992   5.914  23.551  1.00  0.00    -0.135 SA
HETATM   25  C13 UNL     1       9.265   6.686  22.540  1.00  0.00     0.095 C 
ENDBRANCH   7  24
BRANCH   8  26
HETATM   26  C15 UNL     1       7.741  -0.847  24.435  1.00  0.00     0.252 C 
HETATM   27  O4  UNL     1       6.454  -0.800  24.480  1.00  0.00    -0.271 OA
HETATM   28  N2  UNL     1       8.288  -2.113  24.717  1.00  0.00    -0.226 N 
BRANCH  28  29
HETATM   29  C16 UNL     1       9.691  -2.355  24.719  1.00  0.00     0.155 C 
HETATM   30  C17 UNL     1      10.328  -2.560  26.048  1.00  0.00     0.029 C 
ENDBRANCH  28  29
BRANCH  28  31
HETATM   31  O5  UNL     1       7.489  -3.190  25.001  1.00  0.00    -0.276 OA
BRANCH  31  32
HETATM   32  C18 UNL     1       7.527  -4.145  24.020  1.00  0.00     0.197 C 
HETATM   33  C19 UNL     1       6.368  -4.093  23.075  1.00  0.00     0.036 C 
ENDBRANCH  31  32
ENDBRANCH  28  31
ENDBRANCH   8  26
TORSDOF 14
ENDMDL
MODEL 2
REMARK VINA RESULT: -5.689390397      1.408      1.663
REMARK  14 active torsions:
REMARK  status: ('A' for Active; 'I' for Inactive)
REMARK    1  A    between atoms: C2_2  and  C3_3 
REMARK    2  A    between atoms: C3_3  and  C4_4 
REMARK    3  A    between atoms: C4_4  and  C5_5 
REMARK    4  A    between atoms: C5_5  and  C6_6 
REMARK    5  A    between atoms: C6_6  and  O1_7 
REMARK    6  A    between atoms: C6_6  and  C7_9 
REMARK    7  A    between atoms: C7_9  and  O2_10 
REMARK    8  A    between atoms: C7_9  and  N1_12 
REMARK    9  A    between atoms: C12_18  and  S1_19 
REMARK   10  A    between atoms: C14_21  and  C15_22 
REMARK       I    between atoms: C15_22  and  N2_24 
REMARK   11  A    between atoms: N2_24  and  C16_25 
REMARK   12  A    between atoms: N2_24  and  O5_27 
REMARK   13  A    between atoms: O5_27  and  C18_28 
REMARK   14  A    between atoms: C20_30  and  C21_31 
ROOT
HETATM    1  N1  UNL     1       9.769   3.256  24.727  1.00  0.00    -0.316 N 
HETATM    2  C8  UNL     1       8.497   3.841  24.267  1.00  0.00     0.266 C 
HETATM    3  O3  UNL     1       7.608   2.776  24.009  1.00  0.00    -0.355 OA
HETATM    4  C9  UNL     1       8.230   1.784  23.305  1.00  0.00     0.143 C 
HETATM    5  C10 UNL     1       8.955   2.287  22.108  1.00  0.00     0.061 C 
HETATM    6  C11 UNL     1       8.836   3.748  21.914  1.00  0.00    -0.006 C 
HETATM    7  C12 UNL     1       8.605   4.565  22.962  1.00  0.00     0.022 C 
HETATM    8  C14 UNL     1       9.209   1.002  24.171  1.00  0.00     0.143 C 
HETATM    9  C20 UNL     1       9.591   1.916  25.293  1.00  0.00     0.205 C 
ENDROOT
BRANCH   1  10
HETATM   10  C7  UNL     1      10.953   3.969  24.607  1.00  0.00     0.146 C 
BRANCH  10  11
HETATM   11  C6  UNL     1      11.399   5.222  25.161  1.00  0.00     0.192 C 
BRANCH  11  12
HETATM   12  C5  UNL     1      10.584   5.667  26.378  1.00  0.00     0.040 C 
BRANCH  12  13
HETATM   13  C4  UNL     1      10.744   7.081  26.769  1.00  0.00     0.003 C 
BRANCH  13  14
HETATM   14  C3  UNL     1       9.470   7.515  27.512  1.00  0.00    -0.000 C 
BRANCH  14  15
HETATM   15  C2  UNL     1       9.756   8.279  28.764  1.00  0.00    -0.005 C 
HETATM   16  C1  UNL     1       8.784   7.955  29.883  1.00  0.00     0.005 C 
ENDBRANCH  14  15
ENDBRANCH  13  14
ENDBRANCH  12  13
ENDBRANCH  11  12
BRANCH  11  17
HETATM   17  O1  UNL     1      11.289   6.274  24.272  1.00  0.00    -0.387 OA
ATOM     18  H1  UNL     1      12.126   6.717  24.329  1.00  0.00     0.210 HD
ENDBRANCH  11  17
ENDBRANCH  10  11
BRANCH  10  19
HETATM   19  O2  UNL     1      11.846   3.400  23.845  1.00  0.00    -0.347 OA
ATOM     20  H2  UNL     1      12.290   2.675  24.270  1.00  0.00     0.219 HD
ENDBRANCH  10  19
ENDBRANCH   1  10
BRANCH   9  21
HETATM   21  C21 UNL     1       8.611   2.008  26.391  1.00  0.00     0.198 C 
HETATM   22  O6  UNL     1       7.725   1.126  26.594  1.00  0.00    -0.646 OA
HETATM   23  O7  UNL     1       8.618   3.068  27.258  1.00  0.00    -0.646 OA
ENDBRANCH   9  21
BRANCH   7  24
HETATM   24  S1  UNL     1       8.368   6.307  22.728  1.00  0.00    -0.135 SA
HETATM   25  C13 UNL     1       7.834   7.166  24.216  1.00  0.00     0.095 C 
ENDBRANCH   7  24
BRANCH   8  26
HETATM   26  C15 UNL     1       8.613  -0.274  24.513  1.00  0.00     0.252 C 
HETATM   27  O4  UNL     1       7.406  -0.461  24.102  1.00  0.00    -0.271 OA
HETATM   28  N2  UNL     1       9.156  -1.354  25.234  1.00  0.00    -0.226 N 
BRANCH  28  29
HETATM   29  C16 UNL     1      10.475  -1.328  25.770  1.00  0.00     0.155 C 
HETATM   30  C17 UNL     1      11.488  -2.172  25.082  1.00  0.00     0.029 C 
ENDBRANCH  28  29
BRANCH  28  31
HETATM   31  O5  UNL     1       8.439  -2.501  25.453  1.00  0.00    -0.276 OA
BRANCH  31  32
HETATM   32  C18 UNL     1       8.231  -2.745  26.784  1.00  0.00     0.197 C 
HETATM   33  C19 UNL     1       6.919  -2.239  27.298  1.00  0.00     0.036 C 
ENDBRANCH  31  32
ENDBRANCH  28  31
ENDBRANCH   8  26
TORSDOF 14
ENDMDL
MODEL 3
REMARK VINA RESULT: -5.664114976      1.098      1.155
REMARK  14 active torsions:
REMARK  status: ('A' for Active; 'I' for Inactive)
REMARK    1  A    between atoms: C2_2  and  C3_3 
REMARK    2  A    between atoms: C3_3  and  C4_4 
REMARK    3  A    between atoms: C4_4  and  C5_5 
REMARK    4  A    between atoms: C5_5  and  C6_6 
REMARK    5  A    between atoms: C6_6  and  O1_7 
REMARK    6  A    between atoms: C6_6  and  C7_9 
REMARK    7  A    between atoms: C7_9  and  O2_10 
REMARK    8  A    between atoms: C7_9  and  N1_12 
REMARK    9  A    between atoms: C12_18  and  S1_19 
REMARK   10  A    between atoms: C14_21  and  C15_22 
REMARK       I    between atoms: C15_22  and  N2_24 
REMARK   11  A    between atoms: N2_24  and  C16_25 
REMARK   12  A    between atoms: N2_24  and  O5_27 
REMARK   13  A    between atoms: O5_27  and  C18_28 
REMARK   14  A    between atoms: C20_30  and  C21_31 
ROOT
HETATM    1  N1  UNL     1       9.321   2.914  23.946  1.00  0.00    -0.316 N 
HETATM    2  C8  UNL     1       8.070   3.641  24.224  1.00  0.00     0.266 C 
HETATM    3  O3  UNL     1       7.077   2.681  24.513  1.00  0.00    -0.355 OA
HETATM    4  C9  UNL     1       7.118   1.654  23.613  1.00  0.00     0.143 C 
HETATM    5  C10 UNL     1       7.136   2.118  22.200  1.00  0.00     0.061 C 
HETATM    6  C11 UNL     1       7.083   3.589  22.059  1.00  0.00    -0.006 C 
HETATM    7  C12 UNL     1       7.536   4.391  23.044  1.00  0.00     0.022 C 
HETATM    8  C14 UNL     1       8.322   0.748  23.841  1.00  0.00     0.143 C 
HETATM    9  C20 UNL     1       9.337   1.582  24.557  1.00  0.00     0.205 C 
ENDROOT
BRANCH   1  10
HETATM   10  C7  UNL     1      10.323   3.506  23.191  1.00  0.00     0.146 C 
BRANCH  10  11
HETATM   11  C6  UNL     1      11.389   4.416  23.523  1.00  0.00     0.192 C 
BRANCH  11  12
HETATM   12  C5  UNL     1      10.918   5.627  24.331  1.00  0.00     0.040 C 
BRANCH  12  13
HETATM   13  C4  UNL     1      11.315   5.639  25.752  1.00  0.00     0.003 C 
BRANCH  13  14
HETATM   14  C3  UNL     1      10.198   6.330  26.551  1.00  0.00    -0.000 C 
BRANCH  14  15
HETATM   15  C2  UNL     1      10.614   7.652  27.113  1.00  0.00    -0.005 C 
HETATM   16  C1  UNL     1       9.753   8.088  28.283  1.00  0.00     0.005 C 
ENDBRANCH  14  15
ENDBRANCH  13  14
ENDBRANCH  12  13
ENDBRANCH  11  12
BRANCH  11  17
HETATM   17  O1  UNL     1      11.998   4.962  22.410  1.00  0.00    -0.387 OA
ATOM     18  H1  UNL     1      12.131   4.224  21.829  1.00  0.00     0.210 HD
ENDBRANCH  11  17
ENDBRANCH  10  11
BRANCH  10  19
HETATM   19  O2  UNL     1      10.305   3.179  21.927  1.00  0.00    -0.347 OA
ATOM     20  H2  UNL     1       9.645   3.648  21.430  1.00  0.00     0.219 HD
ENDBRANCH  10  19
ENDBRANCH   1  10
BRANCH   9  21
HETATM   21  C21 UNL     1       9.113   1.739  26.006  1.00  0.00     0.198 C 
HETATM   22  O6  UNL     1       8.830   0.766  26.765  1.00  0.00    -0.646 OA
HETATM   23  O7  UNL     1       9.209   2.965  26.608  1.00  0.00    -0.646 OA
ENDBRANCH   9  21
BRANCH   7  24
HETATM   24  S1  UNL     1       7.393   6.155  22.925  1.00  0.00    -0.135 SA
HETATM   25  C13 UNL     1       6.969   6.949  24.484  1.00  0.00     0.095 C 
ENDBRANCH   7  24
BRANCH   8  26
HETATM   26  C15 UNL     1       7.873  -0.470  24.485  1.00  0.00     0.252 C 
HETATM   27  O4  UNL     1       6.651  -0.475  24.894  1.00  0.00    -0.271 OA
HETATM   28  N2  UNL     1       8.575  -1.664  24.735  1.00  0.00    -0.226 N 
BRANCH  28  29
HETATM   29  C16 UNL     1       9.937  -1.842  24.358  1.00  0.00     0.155 C 
HETATM   30  C17 UNL     1      10.926  -1.935  25.467  1.00  0.00     0.029 C 
ENDBRANCH  28  29
BRANCH  28  31
HETATM   31  O5  UNL     1       7.976  -2.730  25.354  1.00  0.00    -0.276 OA
BRANCH  31  32
HETATM   32  C18 UNL     1       7.835  -3.808  24.522  1.00  0.00     0.197 C 
HETATM   33  C19 UNL     1       6.568  -3.801  23.725  1.00  0.00     0.036 C 
ENDBRANCH  31  32
ENDBRANCH  28  31
ENDBRANCH   8  26
TORSDOF 14
ENDMDL
MODEL 4
REMARK VINA RESULT: -5.376948247      1.655      1.836
REMARK  14 active torsions:
REMARK  status: ('A' for Active; 'I' for Inactive)
REMARK    1  A    between atoms: C2_2  and  C3_3 
REMARK    2  A    between atoms: C3_3  and  C4_4 
REMARK    3  A    between atoms: C4_4  and  C5_5 
REMARK    4  A    between atoms: C5_5  and  C6_6 
REMARK    5  A    between atoms: C6_6  and  O1_7 
REMARK    6  A    between atoms: C6_6  and  C7_9 
REMARK    7  A    between atoms: C7_9  and  O2_10 
REMARK    8  A    between atoms: C7_9  and  N1_12 
REMARK    9  A    between atoms: C12_18  and  S1_19 
REMARK   10  A    between atoms: C14_21  and  C15_22 
REMARK       I    between atoms: C15_22  and  N2_24 
REMARK   11  A    between atoms: N2_24  and  C16_25 
REMARK   12  A    between atoms: N2_24  and  O5_27 
REMARK   13  A    between atoms: O5_27  and  C18_28 
REMARK   14  A    between atoms: C20_30  and  C21_31 
ROOT
HETATM    1  N1  UNL     1       9.142   3.463  24.158  1.00  0.00    -0.316 N 
HETATM    2  C8  UNL     1       7.755   3.957  24.113  1.00  0.00     0.266 C 
HETATM    3  O3  UNL     1       6.902   2.840  24.234  1.00  0.00    -0.355 OA
HETATM    4  C9  UNL     1       7.320   1.821  23.426  1.00  0.00     0.143 C 
HETATM    5  C10 UNL     1       7.576   2.255  22.027  1.00  0.00     0.061 C 
HETATM    6  C11 UNL     1       7.304   3.690  21.793  1.00  0.00    -0.006 C 
HETATM    7  C12 UNL     1       7.380   4.578  22.804  1.00  0.00     0.022 C 
HETATM    8  C14 UNL     1       8.579   1.151  23.962  1.00  0.00     0.143 C 
HETATM    9  C20 UNL     1       9.249   2.167  24.833  1.00  0.00     0.205 C 
ENDROOT
BRANCH   1  10
HETATM   10  C7  UNL     1      10.172   4.212  23.606  1.00  0.00     0.146 C 
BRANCH  10  11
HETATM   11  C6  UNL     1      10.747   5.486  23.952  1.00  0.00     0.192 C 
BRANCH  11  12
HETATM   12  C5  UNL     1      10.191   6.064  25.255  1.00  0.00     0.040 C 
BRANCH  12  13
HETATM   13  C4  UNL     1      11.188   6.333  26.310  1.00  0.00     0.003 C 
BRANCH  13  14
HETATM   14  C3  UNL     1      10.743   7.589  27.075  1.00  0.00    -0.000 C 
BRANCH  14  15
HETATM   15  C2  UNL     1       9.283   7.590  27.397  1.00  0.00    -0.005 C 
HETATM   16  C1  UNL     1       9.005   7.912  28.853  1.00  0.00     0.005 C 
ENDBRANCH  14  15
ENDBRANCH  13  14
ENDBRANCH  12  13
ENDBRANCH  11  12
BRANCH  11  17
HETATM   17  O1  UNL     1      10.497   6.465  23.009  1.00  0.00    -0.387 OA
ATOM     18  H1  UNL     1      11.178   7.110  23.154  1.00  0.00     0.210 HD
ENDBRANCH  11  17
ENDBRANCH  10  11
BRANCH  10  19
HETATM   19  O2  UNL     1      10.738   3.660  22.567  1.00  0.00    -0.347 OA
ATOM     20  H2  UNL     1      11.686   3.642  22.626  1.00  0.00     0.219 HD
ENDBRANCH  10  19
ENDBRANCH   1  10
BRANCH   9  21
HETATM   21  C21 UNL     1       8.682   2.307  26.187  1.00  0.00     0.198 C 
HETATM   22  O6  UNL     1       7.992   1.400  26.738  1.00  0.00    -0.646 OA
HETATM   23  O7  UNL     1       8.883   3.443  26.924  1.00  0.00    -0.646 OA
ENDBRANCH   9  21
BRANCH   7  24
HETATM   24  S1  UNL     1       6.966   6.285  22.556  1.00  0.00    -0.135 SA
HETATM   25  C13 UNL     1       6.895   7.238  24.080  1.00  0.00     0.095 C 
ENDBRANCH   7  24
BRANCH   8  26
HETATM   26  C15 UNL     1       8.213  -0.116  24.562  1.00  0.00     0.252 C 
HETATM   27  O4  UNL     1       6.961  -0.419  24.521  1.00  0.00    -0.271 OA
HETATM   28  N2  UNL     1       9.024  -1.079  25.191  1.00  0.00    -0.226 N 
BRANCH  28  29
HETATM   29  C16 UNL     1      10.431  -0.915  25.335  1.00  0.00     0.155 C 
HETATM   30  C17 UNL     1      11.271  -2.109  25.048  1.00  0.00     0.029 C 
ENDBRANCH  28  29
BRANCH  28  31
HETATM   31  O5  UNL     1       8.497  -2.239  25.696  1.00  0.00    -0.276 OA
BRANCH  31  32
HETATM   32  C18 UNL     1       8.373  -2.209  27.059  1.00  0.00     0.197 C 
HETATM   33  C19 UNL     1       8.952  -3.405  27.749  1.00  0.00     0.036 C 
ENDBRANCH  31  32
ENDBRANCH  28  31
ENDBRANCH   8  26
TORSDOF 14
ENDMDL
MODEL 5
REMARK VINA RESULT: -5.311850383      2.982      6.723
REMARK  14 active torsions:
REMARK  status: ('A' for Active; 'I' for Inactive)
REMARK    1  A    between atoms: C2_2  and  C3_3 
REMARK    2  A    between atoms: C3_3  and  C4_4 
REMARK    3  A    between atoms: C4_4  and  C5_5 
REMARK    4  A    between atoms: C5_5  and  C6_6 
REMARK    5  A    between atoms: C6_6  and  O1_7 
REMARK    6  A    between atoms: C6_6  and  C7_9 
REMARK    7  A    between atoms: C7_9  and  O2_10 
REMARK    8  A    between atoms: C7_9  and  N1_12 
REMARK    9  A    between atoms: C12_18  and  S1_19 
REMARK   10  A    between atoms: C14_21  and  C15_22 
REMARK       I    between atoms: C15_22  and  N2_24 
REMARK   11  A    between atoms: N2_24  and  C16_25 
REMARK   12  A    between atoms: N2_24  and  O5_27 
REMARK   13  A    between atoms: O5_27  and  C18_28 
REMARK   14  A    between atoms: C20_30  and  C21_31 
ROOT
HETATM    1  N1  UNL     1       8.726   3.885  23.939  1.00  0.00    -0.316 N 
HETATM    2  C8  UNL     1       7.784   2.908  24.513  1.00  0.00     0.266 C 
HETATM    3  O3  UNL     1       6.646   3.620  24.946  1.00  0.00    -0.355 OA
HETATM    4  C9  UNL     1       7.009   4.746  25.631  1.00  0.00     0.143 C 
HETATM    5  C10 UNL     1       8.014   4.480  26.694  1.00  0.00     0.061 C 
HETATM    6  C11 UNL     1       8.395   3.056  26.807  1.00  0.00    -0.006 C 
HETATM    7  C12 UNL     1       8.296   2.231  25.745  1.00  0.00     0.022 C 
HETATM    8  C14 UNL     1       7.558   5.822  24.703  1.00  0.00     0.143 C 
HETATM    9  C20 UNL     1       8.054   5.106  23.486  1.00  0.00     0.205 C 
ENDROOT
BRANCH   1  10
HETATM   10  C7  UNL     1      10.081   3.593  23.865  1.00  0.00     0.146 C 
BRANCH  10  11
HETATM   11  C6  UNL     1      11.214   4.007  24.651  1.00  0.00     0.192 C 
BRANCH  11  12
HETATM   12  C5  UNL     1      11.291   5.524  24.844  1.00  0.00     0.040 C 
BRANCH  12  13
HETATM   13  C4  UNL     1      11.231   5.992  26.242  1.00  0.00     0.003 C 
BRANCH  13  14
HETATM   14  C3  UNL     1      10.439   7.310  26.268  1.00  0.00    -0.000 C 
BRANCH  14  15
HETATM   15  C2  UNL     1      10.303   7.882  27.642  1.00  0.00    -0.005 C 
HETATM   16  C1  UNL     1       8.883   7.807  28.169  1.00  0.00     0.005 C 
ENDBRANCH  14  15
ENDBRANCH  13  14
ENDBRANCH  12  13
ENDBRANCH  11  12
BRANCH  11  17
HETATM   17  O1  UNL     1      12.423   3.674  24.072  1.00  0.00    -0.387 OA
ATOM     18  H1  UNL     1      12.798   3.033  24.664  1.00  0.00     0.210 HD
ENDBRANCH  11  17
ENDBRANCH  10  11
BRANCH  10  19
HETATM   19  O2  UNL     1      10.401   2.779  22.895  1.00  0.00    -0.347 OA
ATOM     20  H2  UNL     1      10.127   1.884  23.055  1.00  0.00     0.219 HD
ENDBRANCH  10  19
ENDBRANCH   1  10
BRANCH   9  21
HETATM   21  C21 UNL     1       7.013   4.724  22.514  1.00  0.00     0.198 C 
HETATM   22  O6  UNL     1       5.937   5.374  22.372  1.00  0.00    -0.646 OA
HETATM   23  O7  UNL     1       7.170   3.632  21.703  1.00  0.00    -0.646 OA
ENDBRANCH   9  21
BRANCH   7  24
HETATM   24  S1  UNL     1       8.662   0.502  25.893  1.00  0.00    -0.135 SA
HETATM   25  C13 UNL     1       9.270  -0.237  24.369  1.00  0.00     0.095 C 
ENDBRANCH   7  24
BRANCH   8  26
HETATM   26  C15 UNL     1       6.545   6.842  24.521  1.00  0.00     0.252 C 
HETATM   27  O4  UNL     1       5.380   6.571  25.000  1.00  0.00    -0.271 OA
HETATM   28  N2  UNL     1       6.638   8.098  23.893  1.00  0.00    -0.226 N 
BRANCH  28  29
HETATM   29  C16 UNL     1       7.846   8.567  23.301  1.00  0.00     0.155 C 
HETATM   30  C17 UNL     1       7.945   8.459  21.820  1.00  0.00     0.029 C 
ENDBRANCH  28  29
BRANCH  28  31
HETATM   31  O5  UNL     1       5.564   8.945  23.824  1.00  0.00    -0.276 OA
BRANCH  31  32
HETATM   32  C18 UNL     1       5.814  10.158  24.409  1.00  0.00     0.197 C 
HETATM   33  C19 UNL     1       5.620  10.170  25.893  1.00  0.00     0.036 C 
ENDBRANCH  31  32
ENDBRANCH  28  31
ENDBRANCH   8  26
TORSDOF 14
ENDMDL
