MODEL 1
REMARK VINA RESULT: -7.188937824      0.000      0.000
REMARK  5 active torsions:
REMARK  status: ('A' for Active; 'I' for Inactive)
REMARK    1  A    between atoms: N2_5  and  C3_6 
REMARK    2  A    between atoms: C4_8  and  C5_9 
REMARK    3  A    between atoms: C5_9  and  O2_10 
REMARK    4  A    between atoms: C9_16  and  C10_17 
REMARK    5  A    between atoms: C10_17  and  C11_18 
ROOT
HETATM    1  C1  UNL     1     -15.297 -11.258  23.860  1.00  0.00     0.070 C 
HETATM    2  C2  UNL     1     -15.287  -9.775  23.782  1.00  0.00     0.034 A 
HETATM    3  N1  UNL     1     -16.360  -9.075  23.366  1.00  0.00    -0.300 N 
ATOM      4  H1  UNL     1     -17.238  -9.495  23.062  1.00  0.00     0.187 HD
HETATM    5  N2  UNL     1     -16.128  -7.779  23.404  1.00  0.00    -0.270 N 
HETATM    6  C8  UNL     1     -14.875  -7.629  23.857  1.00  0.00     0.126 A 
HETATM    7  C9  UNL     1     -14.321  -8.885  24.103  1.00  0.00     0.006 A 
ENDROOT
BRANCH   5   8
HETATM    8  C3  UNL     1     -17.069  -6.719  23.017  1.00  0.00     0.275 C 
HETATM    9  O1  UNL     1     -16.983  -6.561  21.625  1.00  0.00    -0.330 OA
HETATM   10  C4  UNL     1     -18.258  -6.667  21.125  1.00  0.00     0.286 C 
HETATM   11  O3  UNL     1     -19.007  -7.394  22.037  1.00  0.00    -0.350 OA
HETATM   12  C6  UNL     1     -18.475  -7.133  23.302  1.00  0.00     0.171 C 
HETATM   13  C7  UNL     1     -19.288  -6.046  23.952  1.00  0.00     0.044 C 
BRANCH  10  14
HETATM   14  C5  UNL     1     -18.288  -7.304  19.746  1.00  0.00     0.224 C 
BRANCH  14  15
HETATM   15  O2  UNL     1     -17.190  -6.992  18.978  1.00  0.00    -0.396 OA
ATOM     16  H2  UNL     1     -16.613  -7.731  18.829  1.00  0.00     0.209 HD
ENDBRANCH  14  15
ENDBRANCH  10  14
ENDBRANCH   5   8
BRANCH   7  17
HETATM   17  C10 UNL     1     -12.977  -9.125  24.564  1.00  0.00     0.039 C 
BRANCH  17  18
HETATM   18  C11 UNL     1     -11.895  -8.467  24.245  1.00  0.00     0.005 C 
HETATM   19  C12 UNL     1     -11.583  -8.266  22.790  1.00  0.00     0.057 C 
HETATM   20  C13 UNL     1     -11.226  -6.788  22.669  1.00  0.00     0.007 C 
HETATM   21  C14 UNL     1     -10.009  -6.507  23.485  1.00  0.00     0.020 C 
HETATM   22  C15 UNL     1     -10.176  -6.769  24.958  1.00  0.00     0.119 C 
HETATM   23  N3  UNL     1     -10.966  -7.950  25.209  1.00  0.00    -0.393 N 
ATOM     24  H3  UNL     1     -10.860  -8.434  26.101  1.00  0.00     0.159 HD
ENDBRANCH  17  18
ENDBRANCH   7  17
TORSDOF 5
ENDMDL
MODEL 2
REMARK VINA RESULT: -6.979731788      1.638      2.301
REMARK  5 active torsions:
REMARK  status: ('A' for Active; 'I' for Inactive)
REMARK    1  A    between atoms: N2_5  and  C3_6 
REMARK    2  A    between atoms: C4_8  and  C5_9 
REMARK    3  A    between atoms: C5_9  and  O2_10 
REMARK    4  A    between atoms: C9_16  and  C10_17 
REMARK    5  A    between atoms: C10_17  and  C11_18 
ROOT
HETATM    1  C1  UNL     1     -15.909 -11.259  23.703  1.00  0.00     0.070 C 
HETATM    2  C2  UNL     1     -15.828  -9.790  23.500  1.00  0.00     0.034 A 
HETATM    3  N1  UNL     1     -16.893  -9.063  23.112  1.00  0.00    -0.300 N 
ATOM      4  H1  UNL     1     -17.814  -9.452  22.912  1.00  0.00     0.187 HD
HETATM    5  N2  UNL     1     -16.592  -7.784  23.023  1.00  0.00    -0.270 N 
HETATM    6  C8  UNL     1     -15.299  -7.672  23.364  1.00  0.00     0.126 A 
HETATM    7  C9  UNL     1     -14.793  -8.935  23.670  1.00  0.00     0.006 A 
ENDROOT
BRANCH   5   8
HETATM    8  C3  UNL     1     -17.503  -6.703  22.622  1.00  0.00     0.275 C 
HETATM    9  O1  UNL     1     -17.520  -6.658  21.220  1.00  0.00    -0.330 OA
HETATM   10  C4  UNL     1     -18.834  -6.729  20.826  1.00  0.00     0.286 C 
HETATM   11  O3  UNL     1     -19.545  -7.339  21.848  1.00  0.00    -0.350 OA
HETATM   12  C6  UNL     1     -18.902  -7.013  23.044  1.00  0.00     0.171 C 
HETATM   13  C7  UNL     1     -19.604  -5.834  23.663  1.00  0.00     0.044 C 
BRANCH  10  14
HETATM   14  C5  UNL     1     -19.005  -7.466  19.509  1.00  0.00     0.224 C 
BRANCH  14  15
HETATM   15  O2  UNL     1     -18.046  -7.146  18.577  1.00  0.00    -0.396 OA
ATOM     16  H2  UNL     1     -18.408  -6.896  17.736  1.00  0.00     0.209 HD
ENDBRANCH  14  15
ENDBRANCH  10  14
ENDBRANCH   5   8
BRANCH   7  17
HETATM   17  C10 UNL     1     -13.431  -9.217  24.044  1.00  0.00     0.039 C 
BRANCH  17  18
HETATM   18  C11 UNL     1     -12.943  -9.336  25.249  1.00  0.00     0.005 C 
HETATM   19  C12 UNL     1     -11.806  -8.442  25.652  1.00  0.00     0.057 C 
HETATM   20  C13 UNL     1     -12.201  -7.904  27.024  1.00  0.00     0.007 C 
HETATM   21  C14 UNL     1     -12.308  -9.041  27.986  1.00  0.00     0.020 C 
HETATM   22  C15 UNL     1     -13.358 -10.059  27.628  1.00  0.00     0.119 C 
HETATM   23  N3  UNL     1     -13.412 -10.299  26.205  1.00  0.00    -0.393 N 
ATOM     24  H3  UNL     1     -13.796 -11.182  25.868  1.00  0.00     0.159 HD
ENDBRANCH  17  18
ENDBRANCH   7  17
TORSDOF 5
ENDMDL
MODEL 3
REMARK VINA RESULT: -6.720427338      1.517      2.810
REMARK  5 active torsions:
REMARK  status: ('A' for Active; 'I' for Inactive)
REMARK    1  A    between atoms: N2_5  and  C3_6 
REMARK    2  A    between atoms: C4_8  and  C5_9 
REMARK    3  A    between atoms: C5_9  and  O2_10 
REMARK    4  A    between atoms: C9_16  and  C10_17 
REMARK    5  A    between atoms: C10_17  and  C11_18 
ROOT
HETATM    1  C1  UNL     1     -15.915 -12.540  23.396  1.00  0.00     0.070 C 
HETATM    2  C2  UNL     1     -16.187 -11.100  23.152  1.00  0.00     0.034 A 
HETATM    3  N1  UNL     1     -17.183 -10.689  22.343  1.00  0.00    -0.300 N 
ATOM      4  H1  UNL     1     -17.804 -11.315  21.831  1.00  0.00     0.187 HD
HETATM    5  N2  UNL     1     -17.251  -9.374  22.300  1.00  0.00    -0.270 N 
HETATM    6  C8  UNL     1     -16.277  -8.916  23.101  1.00  0.00     0.126 A 
HETATM    7  C9  UNL     1     -15.588  -9.995  23.652  1.00  0.00     0.006 A 
ENDROOT
BRANCH   5   8
HETATM    8  C3  UNL     1     -18.208  -8.581  21.517  1.00  0.00     0.275 C 
HETATM    9  O1  UNL     1     -19.116  -8.000  22.416  1.00  0.00    -0.330 OA
HETATM   10  C4  UNL     1     -19.128  -6.649  22.165  1.00  0.00     0.286 C 
HETATM   11  O3  UNL     1     -17.924  -6.325  21.559  1.00  0.00    -0.350 OA
HETATM   12  C6  UNL     1     -17.516  -7.447  20.835  1.00  0.00     0.171 C 
HETATM   13  C7  UNL     1     -17.942  -7.276  19.401  1.00  0.00     0.044 C 
BRANCH  10  14
HETATM   14  C5  UNL     1     -19.359  -5.828  23.422  1.00  0.00     0.224 C 
BRANCH  14  15
HETATM   15  O2  UNL     1     -18.257  -5.773  24.245  1.00  0.00    -0.396 OA
ATOM     16  H2  UNL     1     -18.200  -4.966  24.743  1.00  0.00     0.209 HD
ENDBRANCH  14  15
ENDBRANCH  10  14
ENDBRANCH   5   8
BRANCH   7  17
HETATM   17  C10 UNL     1     -14.453  -9.894  24.533  1.00  0.00     0.039 C 
BRANCH  17  18
HETATM   18  C11 UNL     1     -13.492  -9.012  24.498  1.00  0.00     0.005 C 
HETATM   19  C12 UNL     1     -13.097  -8.333  25.778  1.00  0.00     0.057 C 
HETATM   20  C13 UNL     1     -11.574  -8.409  25.806  1.00  0.00     0.007 C 
HETATM   21  C14 UNL     1     -11.021  -7.649  24.646  1.00  0.00     0.020 C 
HETATM   22  C15 UNL     1     -11.434  -8.185  23.301  1.00  0.00     0.119 C 
HETATM   23  N3  UNL     1     -12.808  -8.628  23.296  1.00  0.00    -0.393 N 
ATOM     24  H3  UNL     1     -13.310  -8.669  22.408  1.00  0.00     0.159 HD
ENDBRANCH  17  18
ENDBRANCH   7  17
TORSDOF 5
ENDMDL
MODEL 4
REMARK VINA RESULT: -6.711653159      1.383      1.874
REMARK  5 active torsions:
REMARK  status: ('A' for Active; 'I' for Inactive)
REMARK    1  A    between atoms: N2_5  and  C3_6 
REMARK    2  A    between atoms: C4_8  and  C5_9 
REMARK    3  A    between atoms: C5_9  and  O2_10 
REMARK    4  A    between atoms: C9_16  and  C10_17 
REMARK    5  A    between atoms: C10_17  and  C11_18 
ROOT
HETATM    1  C1  UNL     1     -16.026 -12.184  24.273  1.00  0.00     0.070 C 
HETATM    2  C2  UNL     1     -16.154 -10.766  23.853  1.00  0.00     0.034 A 
HETATM    3  N1  UNL     1     -17.344 -10.221  23.533  1.00  0.00    -0.300 N 
ATOM      4  H1  UNL     1     -18.229 -10.729  23.534  1.00  0.00     0.187 HD
HETATM    5  N2  UNL     1     -17.217  -8.948  23.218  1.00  0.00    -0.270 N 
HETATM    6  C8  UNL     1     -15.914  -8.655  23.337  1.00  0.00     0.126 A 
HETATM    7  C9  UNL     1     -15.220  -9.795  23.739  1.00  0.00     0.006 A 
ENDROOT
BRANCH   5   8
HETATM    8  C3  UNL     1     -18.301  -8.043  22.811  1.00  0.00     0.275 C 
HETATM    9  O1  UNL     1     -17.798  -7.200  21.809  1.00  0.00    -0.330 OA
HETATM   10  C4  UNL     1     -18.652  -7.290  20.736  1.00  0.00     0.286 C 
HETATM   11  O3  UNL     1     -19.313  -8.505  20.827  1.00  0.00    -0.350 OA
HETATM   12  C6  UNL     1     -19.419  -8.811  22.186  1.00  0.00     0.171 C 
HETATM   13  C7  UNL     1     -20.776  -8.376  22.673  1.00  0.00     0.044 C 
BRANCH  10  14
HETATM   14  C5  UNL     1     -17.930  -7.147  19.407  1.00  0.00     0.224 C 
BRANCH  14  15
HETATM   15  O2  UNL     1     -16.610  -6.781  19.542  1.00  0.00    -0.396 OA
ATOM     16  H2  UNL     1     -16.455  -5.861  19.364  1.00  0.00     0.209 HD
ENDBRANCH  14  15
ENDBRANCH  10  14
ENDBRANCH   5   8
BRANCH   7  17
HETATM   17  C10 UNL     1     -13.795  -9.875  23.937  1.00  0.00     0.039 C 
BRANCH  17  18
HETATM   18  C11 UNL     1     -12.973  -8.900  24.219  1.00  0.00     0.005 C 
HETATM   19  C12 UNL     1     -12.945  -8.373  25.625  1.00  0.00     0.057 C 
HETATM   20  C13 UNL     1     -11.464  -8.292  25.981  1.00  0.00     0.007 C 
HETATM   21  C14 UNL     1     -10.791  -7.320  25.069  1.00  0.00     0.020 C 
HETATM   22  C15 UNL     1     -10.842  -7.699  23.613  1.00  0.00     0.119 C 
HETATM   23  N3  UNL     1     -12.114  -8.278  23.251  1.00  0.00    -0.393 N 
ATOM     24  H3  UNL     1     -12.412  -8.245  22.276  1.00  0.00     0.159 HD
ENDBRANCH  17  18
ENDBRANCH   7  17
TORSDOF 5
ENDMDL
MODEL 5
REMARK VINA RESULT: -6.687006351      1.342      1.805
REMARK  5 active torsions:
REMARK  status: ('A' for Active; 'I' for Inactive)
REMARK    1  A    between atoms: N2_5  and  C3_6 
REMARK    2  A    between atoms: C4_8  and  C5_9 
REMARK    3  A    between atoms: C5_9  and  O2_10 
REMARK    4  A    between atoms: C9_16  and  C10_17 
REMARK    5  A    between atoms: C10_17  and  C11_18 
ROOT
HETATM    1  C1  UNL     1     -16.451 -11.604  23.240  1.00  0.00     0.070 C 
HETATM    2  C2  UNL     1     -16.346 -10.127  23.125  1.00  0.00     0.034 A 
HETATM    3  N1  UNL     1     -17.333  -9.382  22.589  1.00  0.00    -0.300 N 
ATOM      4  H1  UNL     1     -18.201  -9.761  22.211  1.00  0.00     0.187 HD
HETATM    5  N2  UNL     1     -17.030  -8.100  22.615  1.00  0.00    -0.270 N 
HETATM    6  C8  UNL     1     -15.818  -8.006  23.184  1.00  0.00     0.126 A 
HETATM    7  C9  UNL     1     -15.365  -9.282  23.514  1.00  0.00     0.006 A 
ENDROOT
BRANCH   5   8
HETATM    8  C3  UNL     1     -17.865  -7.001  22.111  1.00  0.00     0.275 C 
HETATM    9  O1  UNL     1     -17.932  -7.123  20.715  1.00  0.00    -0.330 OA
HETATM   10  C4  UNL     1     -19.262  -7.127  20.371  1.00  0.00     0.286 C 
HETATM   11  O3  UNL     1     -19.980  -7.547  21.479  1.00  0.00    -0.350 OA
HETATM   12  C6  UNL     1     -19.267  -7.137  22.607  1.00  0.00     0.171 C 
HETATM   13  C7  UNL     1     -19.846  -5.836  23.097  1.00  0.00     0.044 C 
BRANCH  10  14
HETATM   14  C5  UNL     1     -19.544  -8.000  19.160  1.00  0.00     0.224 C 
BRANCH  14  15
HETATM   15  O2  UNL     1     -18.949  -7.541  18.007  1.00  0.00    -0.396 OA
ATOM     16  H2  UNL     1     -18.825  -8.218  17.353  1.00  0.00     0.209 HD
ENDBRANCH  14  15
ENDBRANCH  10  14
ENDBRANCH   5   8
BRANCH   7  17
HETATM   17  C10 UNL     1     -14.088  -9.582  24.109  1.00  0.00     0.039 C 
BRANCH  17  18
HETATM   18  C11 UNL     1     -13.145  -8.742  24.441  1.00  0.00     0.005 C 
HETATM   19  C12 UNL     1     -13.090  -8.253  25.860  1.00  0.00     0.057 C 
HETATM   20  C13 UNL     1     -11.625  -8.393  26.264  1.00  0.00     0.007 C 
HETATM   21  C14 UNL     1     -10.790  -7.510  25.398  1.00  0.00     0.020 C 
HETATM   22  C15 UNL     1     -10.845  -7.847  23.932  1.00  0.00     0.119 C 
HETATM   23  N3  UNL     1     -12.173  -8.230  23.517  1.00  0.00    -0.393 N 
ATOM     24  H3  UNL     1     -12.430  -8.135  22.534  1.00  0.00     0.159 HD
ENDBRANCH  17  18
ENDBRANCH   7  17
TORSDOF 5
ENDMDL
