MODEL 1
REMARK VINA RESULT: -7.500291053      0.000      0.000
REMARK  12 active torsions:
REMARK  status: ('A' for Active; 'I' for Inactive)
REMARK    1  A    between atoms: C2_2  and  O1_3 
REMARK    2  A    between atoms: O1_3  and  C3_4 
REMARK    3  A    between atoms: C3_4  and  C4_6 
REMARK    4  A    between atoms: C4_6  and  C5_7 
REMARK    5  A    between atoms: C4_6  and  C20_29 
REMARK    6  A    between atoms: C5_7  and  C6_8 
REMARK    7  A    between atoms: C7_10  and  C8_11 
REMARK    8  A    between atoms: C15_18  and  C16_19 
REMARK    9  A    between atoms: C18_23  and  O6_24 
REMARK   10  A    between atoms: C18_23  and  C19_26 
REMARK   11  A    between atoms: C20_29  and  O9_30 
REMARK   12  A    between atoms: C20_29  and  C21_32 
ROOT
HETATM    1  C6  UNL     1      10.766  -4.829  31.264  1.00  0.00     0.127 C 
HETATM    2  O3  UNL     1      10.724  -3.532  30.847  1.00  0.00    -0.379 OA
HETATM    3  C7  UNL     1      11.146  -2.838  32.031  1.00  0.00     0.137 C 
HETATM    4  C12 UNL     1      10.546  -3.575  33.183  1.00  0.00     0.067 C 
HETATM    5  C13 UNL     1       9.853  -4.722  32.473  1.00  0.00     0.025 C 
HETATM    6  C14 UNL     1       9.702  -5.965  33.232  1.00  0.00     0.023 C 
HETATM    7  C15 UNL     1      11.041  -6.366  33.856  1.00  0.00     0.090 C 
HETATM    8  C17 UNL     1      11.287  -5.299  34.893  1.00  0.00     0.065 C 
HETATM    9  C18 UNL     1      11.562  -3.993  34.172  1.00  0.00     0.152 C 
ENDROOT
BRANCH   1  10
HETATM   10  C5  UNL     1      10.488  -5.931  30.370  1.00  0.00     0.049 C 
BRANCH  10  11
HETATM   11  C4  UNL     1      11.509  -6.863  29.879  1.00  0.00     0.116 C 
BRANCH  11  12
HETATM   12  C3  UNL     1      11.861  -6.465  28.441  1.00  0.00     0.265 C 
HETATM   13  O2  UNL     1      12.524  -7.285  27.781  1.00  0.00    -0.265 OA
BRANCH  12  14
HETATM   14  O1  UNL     1      11.464  -5.269  27.907  1.00  0.00    -0.321 OA
BRANCH  14  15
HETATM   15  C2  UNL     1      12.168  -4.614  26.861  1.00  0.00     0.174 C 
HETATM   16  C1  UNL     1      11.959  -3.122  27.061  1.00  0.00     0.034 C 
ENDBRANCH  14  15
ENDBRANCH  12  14
ENDBRANCH  11  12
BRANCH  11  17
HETATM   17  C20 UNL     1      11.193  -8.310  29.791  1.00  0.00     0.131 C 
BRANCH  17  18
HETATM   18  O9  UNL     1      12.285  -9.115  29.729  1.00  0.00    -0.395 OA
ATOM     19  H9  UNL     1      12.259  -9.751  29.023  1.00  0.00     0.210 HD
ENDBRANCH  17  18
BRANCH  17  20
HETATM   20  C21 UNL     1      10.230  -8.767  30.876  1.00  0.00     0.028 C 
HETATM   21  C22 UNL     1      10.960  -9.774  31.753  1.00  0.00     0.007 C 
ENDBRANCH  17  20
ENDBRANCH  11  17
ENDBRANCH  10  11
ENDBRANCH   1  10
BRANCH   3  22
HETATM   22  C8  UNL     1      10.774  -1.413  31.852  1.00  0.00    -0.025 C 
HETATM   23  C9  UNL     1       9.597  -0.978  32.684  1.00  0.00     0.017 C 
HETATM   24  C10 UNL     1      10.515  -1.008  30.424  1.00  0.00     0.017 C 
HETATM   25  C11 UNL     1      11.958  -0.568  32.328  1.00  0.00     0.017 C 
ENDBRANCH   3  22
BRANCH   9  26
HETATM   26  O6  UNL     1      12.868  -4.095  33.680  1.00  0.00    -0.378 OA
ATOM     27  H6  UNL     1      13.264  -4.956  33.754  1.00  0.00     0.211 HD
ENDBRANCH   9  26
BRANCH   9  28
HETATM   28  C19 UNL     1      11.652  -3.004  35.316  1.00  0.00     0.209 C 
HETATM   29  O7  UNL     1      12.623  -2.220  35.444  1.00  0.00    -0.646 OA
HETATM   30  O8  UNL     1      10.643  -2.943  36.264  1.00  0.00    -0.646 OA
ENDBRANCH   9  28
BRANCH   7  31
HETATM   31  C16 UNL     1      10.922  -7.675  34.521  1.00  0.00     0.177 C 
HETATM   32  O4  UNL     1       9.787  -8.152  34.732  1.00  0.00    -0.648 OA
HETATM   33  O5  UNL     1      12.038  -8.378  34.910  1.00  0.00    -0.648 OA
ENDBRANCH   7  31
TORSDOF 12
ENDMDL
MODEL 2
REMARK VINA RESULT: -7.269950896      1.306      1.773
REMARK  12 active torsions:
REMARK  status: ('A' for Active; 'I' for Inactive)
REMARK    1  A    between atoms: C2_2  and  O1_3 
REMARK    2  A    between atoms: O1_3  and  C3_4 
REMARK    3  A    between atoms: C3_4  and  C4_6 
REMARK    4  A    between atoms: C4_6  and  C5_7 
REMARK    5  A    between atoms: C4_6  and  C20_29 
REMARK    6  A    between atoms: C5_7  and  C6_8 
REMARK    7  A    between atoms: C7_10  and  C8_11 
REMARK    8  A    between atoms: C15_18  and  C16_19 
REMARK    9  A    between atoms: C18_23  and  O6_24 
REMARK   10  A    between atoms: C18_23  and  C19_26 
REMARK   11  A    between atoms: C20_29  and  O9_30 
REMARK   12  A    between atoms: C20_29  and  C21_32 
ROOT
HETATM    1  C6  UNL     1      10.534  -3.948  31.373  1.00  0.00     0.127 C 
HETATM    2  O3  UNL     1      10.329  -2.601  31.379  1.00  0.00    -0.379 OA
HETATM    3  C7  UNL     1      10.722  -2.259  32.717  1.00  0.00     0.137 C 
HETATM    4  C12 UNL     1      10.260  -3.380  33.588  1.00  0.00     0.067 C 
HETATM    5  C13 UNL     1       9.668  -4.329  32.563  1.00  0.00     0.025 C 
HETATM    6  C14 UNL     1       9.692  -5.754  32.900  1.00  0.00     0.023 C 
HETATM    7  C15 UNL     1      11.093  -6.163  33.358  1.00  0.00     0.090 C 
HETATM    8  C17 UNL     1      11.263  -5.445  34.673  1.00  0.00     0.065 C 
HETATM    9  C18 UNL     1      11.359  -3.957  34.391  1.00  0.00     0.152 C 
ENDROOT
BRANCH   1  10
HETATM   10  C5  UNL     1      10.342  -4.748  30.183  1.00  0.00     0.049 C 
BRANCH  10  11
HETATM   11  C4  UNL     1      11.372  -4.951  29.159  1.00  0.00     0.116 C 
BRANCH  11  12
HETATM   12  C3  UNL     1      10.993  -4.113  27.933  1.00  0.00     0.265 C 
HETATM   13  O2  UNL     1      11.632  -4.330  26.889  1.00  0.00    -0.265 OA
BRANCH  12  14
HETATM   14  O1  UNL     1       9.999  -3.172  27.984  1.00  0.00    -0.321 OA
BRANCH  14  15
HETATM   15  C2  UNL     1      10.163  -1.843  27.507  1.00  0.00     0.174 C 
HETATM   16  C1  UNL     1      11.200  -1.184  28.401  1.00  0.00     0.034 C 
ENDBRANCH  14  15
ENDBRANCH  12  14
ENDBRANCH  11  12
BRANCH  11  17
HETATM   17  C20 UNL     1      11.601  -6.312  28.614  1.00  0.00     0.131 C 
BRANCH  17  18
HETATM   18  O9  UNL     1      12.814  -6.480  28.028  1.00  0.00    -0.395 OA
ATOM     19  H9  UNL     1      12.999  -7.375  27.767  1.00  0.00     0.210 HD
ENDBRANCH  17  18
BRANCH  17  20
HETATM   20  C21 UNL     1      11.322  -7.406  29.634  1.00  0.00     0.028 C 
HETATM   21  C22 UNL     1      12.037  -8.667  29.170  1.00  0.00     0.007 C 
ENDBRANCH  17  20
ENDBRANCH  11  17
ENDBRANCH  10  11
ENDBRANCH   1  10
BRANCH   3  22
HETATM   22  C8  UNL     1      10.185  -0.904  32.992  1.00  0.00    -0.025 C 
HETATM   23  C9  UNL     1       8.923  -0.899  33.811  1.00  0.00     0.017 C 
HETATM   24  C10 UNL     1       9.952  -0.062  31.764  1.00  0.00     0.017 C 
HETATM   25  C11 UNL     1      11.230  -0.159  33.828  1.00  0.00     0.017 C 
ENDBRANCH   3  22
BRANCH   9  26
HETATM   26  O6  UNL     1      12.645  -3.746  33.882  1.00  0.00    -0.378 OA
ATOM     27  H6  UNL     1      13.356  -3.958  34.476  1.00  0.00     0.211 HD
ENDBRANCH   9  26
BRANCH   9  28
HETATM   28  C19 UNL     1      11.388  -3.364  35.784  1.00  0.00     0.209 C 
HETATM   29  O7  UNL     1      12.435  -2.885  36.283  1.00  0.00    -0.646 OA
HETATM   30  O8  UNL     1      10.235  -3.338  36.554  1.00  0.00    -0.646 OA
ENDBRANCH   9  28
BRANCH   7  31
HETATM   31  C16 UNL     1      11.151  -7.617  33.585  1.00  0.00     0.177 C 
HETATM   32  O4  UNL     1      10.397  -8.368  32.930  1.00  0.00    -0.648 OA
HETATM   33  O5  UNL     1      12.020  -8.159  34.503  1.00  0.00    -0.648 OA
ENDBRANCH   7  31
TORSDOF 12
ENDMDL
MODEL 3
REMARK VINA RESULT: -7.108332653      1.192      1.927
REMARK  12 active torsions:
REMARK  status: ('A' for Active; 'I' for Inactive)
REMARK    1  A    between atoms: C2_2  and  O1_3 
REMARK    2  A    between atoms: O1_3  and  C3_4 
REMARK    3  A    between atoms: C3_4  and  C4_6 
REMARK    4  A    between atoms: C4_6  and  C5_7 
REMARK    5  A    between atoms: C4_6  and  C20_29 
REMARK    6  A    between atoms: C5_7  and  C6_8 
REMARK    7  A    between atoms: C7_10  and  C8_11 
REMARK    8  A    between atoms: C15_18  and  C16_19 
REMARK    9  A    between atoms: C18_23  and  O6_24 
REMARK   10  A    between atoms: C18_23  and  C19_26 
REMARK   11  A    between atoms: C20_29  and  O9_30 
REMARK   12  A    between atoms: C20_29  and  C21_32 
ROOT
HETATM    1  C6  UNL     1      10.568  -3.577  31.802  1.00  0.00     0.127 C 
HETATM    2  O3  UNL     1      10.483  -2.217  31.764  1.00  0.00    -0.379 OA
HETATM    3  C7  UNL     1      11.054  -1.860  33.033  1.00  0.00     0.137 C 
HETATM    4  C12 UNL     1      10.598  -2.899  34.003  1.00  0.00     0.067 C 
HETATM    5  C13 UNL     1       9.813  -3.829  33.097  1.00  0.00     0.025 C 
HETATM    6  C14 UNL     1       9.751  -5.236  33.499  1.00  0.00     0.023 C 
HETATM    7  C15 UNL     1      11.154  -5.754  33.822  1.00  0.00     0.090 C 
HETATM    8  C17 UNL     1      11.534  -5.003  35.073  1.00  0.00     0.065 C 
HETATM    9  C18 UNL     1      11.726  -3.543  34.708  1.00  0.00     0.152 C 
ENDROOT
BRANCH   1  10
HETATM   10  C5  UNL     1      10.173  -4.402  30.682  1.00  0.00     0.049 C 
BRANCH  10  11
HETATM   11  C4  UNL     1      11.093  -4.844  29.628  1.00  0.00     0.116 C 
BRANCH  11  12
HETATM   12  C3  UNL     1      10.695  -4.141  28.326  1.00  0.00     0.265 C 
HETATM   13  O2  UNL     1       9.908  -3.183  28.427  1.00  0.00    -0.265 OA
BRANCH  12  14
HETATM   14  O1  UNL     1      11.180  -4.546  27.111  1.00  0.00    -0.321 OA
BRANCH  14  15
HETATM   15  C2  UNL     1      12.490  -4.236  26.657  1.00  0.00     0.174 C 
HETATM   16  C1  UNL     1      12.521  -2.738  26.404  1.00  0.00     0.034 C 
ENDBRANCH  14  15
ENDBRANCH  12  14
ENDBRANCH  11  12
BRANCH  11  17
HETATM   17  C20 UNL     1      11.148  -6.282  29.265  1.00  0.00     0.131 C 
BRANCH  17  18
HETATM   18  O9  UNL     1      12.372  -6.707  28.858  1.00  0.00    -0.395 OA
ATOM     19  H9  UNL     1      12.809  -7.281  29.475  1.00  0.00     0.210 HD
ENDBRANCH  17  18
BRANCH  17  20
HETATM   20  C21 UNL     1      10.583  -7.184  30.352  1.00  0.00     0.028 C 
HETATM   21  C22 UNL     1      11.230  -8.553  30.204  1.00  0.00     0.007 C 
ENDBRANCH  17  20
ENDBRANCH  11  17
ENDBRANCH  10  11
ENDBRANCH   1  10
BRANCH   3  22
HETATM   22  C8  UNL     1      10.672  -0.452  33.297  1.00  0.00    -0.025 C 
HETATM   23  C9  UNL     1      11.842   0.480  33.459  1.00  0.00     0.017 C 
HETATM   24  C10 UNL     1       9.754  -0.263  34.477  1.00  0.00     0.017 C 
HETATM   25  C11 UNL     1       9.903   0.051  32.072  1.00  0.00     0.017 C 
ENDBRANCH   3  22
BRANCH   9  26
HETATM   26  O6  UNL     1      12.960  -3.471  34.052  1.00  0.00    -0.378 OA
ATOM     27  H6  UNL     1      13.683  -3.894  34.501  1.00  0.00     0.211 HD
ENDBRANCH   9  26
BRANCH   9  28
HETATM   28  C19 UNL     1      11.965  -2.900  36.059  1.00  0.00     0.209 C 
HETATM   29  O7  UNL     1      11.661  -3.473  37.133  1.00  0.00    -0.646 OA
HETATM   30  O8  UNL     1      12.535  -1.639  36.139  1.00  0.00    -0.646 OA
ENDBRANCH   9  28
BRANCH   7  31
HETATM   31  C16 UNL     1      11.110  -7.197  34.113  1.00  0.00     0.177 C 
HETATM   32  O4  UNL     1      10.083  -7.847  33.824  1.00  0.00    -0.648 OA
HETATM   33  O5  UNL     1      12.180  -7.837  34.694  1.00  0.00    -0.648 OA
ENDBRANCH   7  31
TORSDOF 12
ENDMDL
MODEL 4
REMARK VINA RESULT: -7.090802249      1.218      3.014
REMARK  12 active torsions:
REMARK  status: ('A' for Active; 'I' for Inactive)
REMARK    1  A    between atoms: C2_2  and  O1_3 
REMARK    2  A    between atoms: O1_3  and  C3_4 
REMARK    3  A    between atoms: C3_4  and  C4_6 
REMARK    4  A    between atoms: C4_6  and  C5_7 
REMARK    5  A    between atoms: C4_6  and  C20_29 
REMARK    6  A    between atoms: C5_7  and  C6_8 
REMARK    7  A    between atoms: C7_10  and  C8_11 
REMARK    8  A    between atoms: C15_18  and  C16_19 
REMARK    9  A    between atoms: C18_23  and  O6_24 
REMARK   10  A    between atoms: C18_23  and  C19_26 
REMARK   11  A    between atoms: C20_29  and  O9_30 
REMARK   12  A    between atoms: C20_29  and  C21_32 
ROOT
HETATM    1  C6  UNL     1      10.832  -4.295  31.020  1.00  0.00     0.127 C 
HETATM    2  O3  UNL     1      10.659  -2.951  30.873  1.00  0.00    -0.379 OA
HETATM    3  C7  UNL     1      10.898  -2.486  32.211  1.00  0.00     0.137 C 
HETATM    4  C12 UNL     1      10.311  -3.512  33.122  1.00  0.00     0.067 C 
HETATM    5  C13 UNL     1       9.823  -4.549  32.128  1.00  0.00     0.025 C 
HETATM    6  C14 UNL     1       9.773  -5.934  32.599  1.00  0.00     0.023 C 
HETATM    7  C15 UNL     1      11.100  -6.313  33.260  1.00  0.00     0.090 C 
HETATM    8  C17 UNL     1      11.130  -5.473  34.511  1.00  0.00     0.065 C 
HETATM    9  C18 UNL     1      11.293  -4.021  34.102  1.00  0.00     0.152 C 
ENDROOT
BRANCH   1  10
HETATM   10  C5  UNL     1      10.764  -5.204  29.897  1.00  0.00     0.049 C 
BRANCH  10  11
HETATM   11  C4  UNL     1      10.802  -4.775  28.495  1.00  0.00     0.116 C 
BRANCH  11  12
HETATM   12  C3  UNL     1      11.615  -5.808  27.706  1.00  0.00     0.265 C 
HETATM   13  O2  UNL     1      11.334  -5.937  26.501  1.00  0.00    -0.265 OA
BRANCH  12  14
HETATM   14  O1  UNL     1      12.600  -6.552  28.297  1.00  0.00    -0.321 OA
BRANCH  14  15
HETATM   15  C2  UNL     1      12.730  -7.955  28.112  1.00  0.00     0.174 C 
HETATM   16  C1  UNL     1      11.930  -8.617  29.222  1.00  0.00     0.034 C 
ENDBRANCH  14  15
ENDBRANCH  12  14
ENDBRANCH  11  12
BRANCH  11  17
HETATM   17  C20 UNL     1      11.428  -3.475  28.147  1.00  0.00     0.131 C 
BRANCH  17  18
HETATM   18  O9  UNL     1      12.427  -3.566  27.232  1.00  0.00    -0.395 OA
ATOM     19  H9  UNL     1      12.820  -2.732  27.001  1.00  0.00     0.210 HD
ENDBRANCH  17  18
BRANCH  17  20
HETATM   20  C21 UNL     1      10.407  -2.421  27.748  1.00  0.00     0.028 C 
HETATM   21  C22 UNL     1      11.162  -1.139  27.429  1.00  0.00     0.007 C 
ENDBRANCH  17  20
ENDBRANCH  11  17
ENDBRANCH  10  11
ENDBRANCH   1  10
BRANCH   3  22
HETATM   22  C8  UNL     1      10.364  -1.104  32.289  1.00  0.00    -0.025 C 
HETATM   23  C9  UNL     1       9.126  -0.973  33.134  1.00  0.00     0.017 C 
HETATM   24  C10 UNL     1      10.092  -0.462  30.953  1.00  0.00     0.017 C 
HETATM   25  C11 UNL     1      11.429  -0.240  32.970  1.00  0.00     0.017 C 
ENDBRANCH   3  22
BRANCH   9  26
HETATM   26  O6  UNL     1      12.635  -3.875  33.735  1.00  0.00    -0.378 OA
ATOM     27  H6  UNL     1      12.803  -3.887  32.800  1.00  0.00     0.211 HD
ENDBRANCH   9  26
BRANCH   9  28
HETATM   28  C19 UNL     1      11.170  -3.296  35.427  1.00  0.00     0.209 C 
HETATM   29  O7  UNL     1      12.173  -2.871  36.049  1.00  0.00    -0.646 OA
HETATM   30  O8  UNL     1       9.922  -3.083  35.990  1.00  0.00    -0.646 OA
ENDBRANCH   9  28
BRANCH   7  31
HETATM   31  C16 UNL     1      11.098  -7.739  33.629  1.00  0.00     0.177 C 
HETATM   32  O4  UNL     1      10.235  -8.496  33.134  1.00  0.00    -0.648 OA
HETATM   33  O5  UNL     1      12.027  -8.248  34.506  1.00  0.00    -0.648 OA
ENDBRANCH   7  31
TORSDOF 12
ENDMDL
MODEL 5
REMARK VINA RESULT: -7.088945475      1.828      4.172
REMARK  12 active torsions:
REMARK  status: ('A' for Active; 'I' for Inactive)
REMARK    1  A    between atoms: C2_2  and  O1_3 
REMARK    2  A    between atoms: O1_3  and  C3_4 
REMARK    3  A    between atoms: C3_4  and  C4_6 
REMARK    4  A    between atoms: C4_6  and  C5_7 
REMARK    5  A    between atoms: C4_6  and  C20_29 
REMARK    6  A    between atoms: C5_7  and  C6_8 
REMARK    7  A    between atoms: C7_10  and  C8_11 
REMARK    8  A    between atoms: C15_18  and  C16_19 
REMARK    9  A    between atoms: C18_23  and  O6_24 
REMARK   10  A    between atoms: C18_23  and  C19_26 
REMARK   11  A    between atoms: C20_29  and  O9_30 
REMARK   12  A    between atoms: C20_29  and  C21_32 
ROOT
HETATM    1  C6  UNL     1      10.830  -5.149  30.935  1.00  0.00     0.127 C 
HETATM    2  O3  UNL     1      10.937  -4.748  29.636  1.00  0.00    -0.379 OA
HETATM    3  C7  UNL     1      11.024  -3.323  29.784  1.00  0.00     0.137 C 
HETATM    4  C12 UNL     1      10.107  -2.963  30.906  1.00  0.00     0.067 C 
HETATM    5  C13 UNL     1       9.615  -4.331  31.339  1.00  0.00     0.025 C 
HETATM    6  C14 UNL     1       9.228  -4.473  32.744  1.00  0.00     0.023 C 
HETATM    7  C15 UNL     1      10.326  -3.914  33.651  1.00  0.00     0.090 C 
HETATM    8  C17 UNL     1      10.294  -2.431  33.381  1.00  0.00     0.065 C 
HETATM    9  C18 UNL     1      10.792  -2.196  31.968  1.00  0.00     0.152 C 
ENDROOT
BRANCH   1  10
HETATM   10  C5  UNL     1      10.790  -6.546  31.305  1.00  0.00     0.049 C 
BRANCH  10  11
HETATM   11  C4  UNL     1      10.698  -7.646  30.338  1.00  0.00     0.116 C 
BRANCH  11  12
HETATM   12  C3  UNL     1      10.406  -8.935  31.114  1.00  0.00     0.265 C 
HETATM   13  O2  UNL     1       9.713  -9.790  30.536  1.00  0.00    -0.265 OA
BRANCH  12  14
HETATM   14  O1  UNL     1      10.886  -9.137  32.381  1.00  0.00    -0.321 OA
BRANCH  14  15
HETATM   15  C2  UNL     1      10.090  -9.654  33.439  1.00  0.00     0.174 C 
HETATM   16  C1  UNL     1       9.522  -8.457  34.182  1.00  0.00     0.034 C 
ENDBRANCH  14  15
ENDBRANCH  12  14
ENDBRANCH  11  12
BRANCH  11  17
HETATM   17  C20 UNL     1      11.877  -7.982  29.502  1.00  0.00     0.131 C 
BRANCH  17  18
HETATM   18  O9  UNL     1      12.291  -9.270  29.616  1.00  0.00    -0.395 OA
ATOM     19  H9  UNL     1      12.770  -9.593  28.862  1.00  0.00     0.210 HD
ENDBRANCH  17  18
BRANCH  17  20
HETATM   20  C21 UNL     1      11.693  -7.587  28.044  1.00  0.00     0.028 C 
HETATM   21  C22 UNL     1      12.929  -6.811  27.613  1.00  0.00     0.007 C 
ENDBRANCH  17  20
ENDBRANCH  11  17
ENDBRANCH  10  11
ENDBRANCH   1  10
BRANCH   3  22
HETATM   22  C8  UNL     1      10.750  -2.733  28.451  1.00  0.00    -0.025 C 
HETATM   23  C9  UNL     1      11.514  -1.466  28.174  1.00  0.00     0.017 C 
HETATM   24  C10 UNL     1       9.293  -2.475  28.167  1.00  0.00     0.017 C 
HETATM   25  C11 UNL     1      11.218  -3.743  27.400  1.00  0.00     0.017 C 
ENDBRANCH   3  22
BRANCH   9  26
HETATM   26  O6  UNL     1      12.181  -2.357  32.020  1.00  0.00    -0.378 OA
ATOM     27  H6  UNL     1      12.580  -2.696  31.227  1.00  0.00     0.211 HD
ENDBRANCH   9  26
BRANCH   9  28
HETATM   28  C19 UNL     1      10.578  -0.707  31.792  1.00  0.00     0.209 C 
HETATM   29  O7  UNL     1       9.893  -0.238  30.851  1.00  0.00    -0.646 OA
HETATM   30  O8  UNL     1      11.147   0.188  32.685  1.00  0.00    -0.646 OA
ENDBRANCH   9  28
BRANCH   7  31
HETATM   31  C16 UNL     1       9.995  -4.161  35.065  1.00  0.00     0.177 C 
HETATM   32  O4  UNL     1      10.250  -5.276  35.566  1.00  0.00    -0.648 OA
HETATM   33  O5  UNL     1       9.412  -3.184  35.839  1.00  0.00    -0.648 OA
ENDBRANCH   7  31
TORSDOF 12
ENDMDL
