MODEL 1
REMARK VINA RESULT: -8.413760437      0.000      0.000
REMARK  11 active torsions:
REMARK  status: ('A' for Active; 'I' for Inactive)
REMARK    1  A    between atoms: C2_2  and  C3_3 
REMARK    2  A    between atoms: C2_2  and  N1_6 
REMARK    3  A    between atoms: C3_3  and  O1_4 
REMARK       I    between atoms: N1_6  and  C4_8 
REMARK    4  A    between atoms: C4_8  and  C5_10 
REMARK    5  A    between atoms: C5_10  and  C6_11 
REMARK    6  A    between atoms: C5_10  and  N4_27 
REMARK    7  A    between atoms: C6_11  and  N2_12 
REMARK    8  A    between atoms: C7_13  and  O3_14 
REMARK    9  A    between atoms: N4_27  and  C17_29 
REMARK   10  A    between atoms: C17_29  and  C18_30 
REMARK   11  A    between atoms: C18_30  and  N5_31 
ROOT
HETATM    1  C5  UNL     1      10.877  -8.563  32.666  1.00  0.00     0.188 C 
ENDROOT
BRANCH   1   2
HETATM    2  C4  UNL     1      10.512  -9.892  33.271  1.00  0.00     0.242 C 
HETATM    3  N1  UNL     1       9.508 -10.678  32.654  1.00  0.00    -0.353 N 
ATOM      4  H1  UNL     1       9.035 -10.356  31.809  1.00  0.00     0.163 HD
HETATM    5  O2  UNL     1      11.079 -10.284  34.282  1.00  0.00    -0.271 OA
BRANCH   3   6
HETATM    6  C2  UNL     1       9.166 -11.976  33.267  1.00  0.00     0.104 C 
HETATM    7  C1  UNL     1       7.771 -12.346  32.853  1.00  0.00     0.034 C 
BRANCH   6   8
HETATM    8  C3  UNL     1      10.151 -13.000  32.735  1.00  0.00     0.189 C 
BRANCH   8   9
HETATM    9  O1  UNL     1      11.048 -13.353  33.721  1.00  0.00    -0.399 OA
ATOM     10  H1  UNL     1      11.921 -13.431  33.356  1.00  0.00     0.209 HD
ENDBRANCH   8   9
ENDBRANCH   6   8
ENDBRANCH   3   6
ENDBRANCH   1   2
BRANCH   1  11
HETATM   11  C6  UNL     1      10.368  -8.545  31.283  1.00  0.00     0.170 C 
BRANCH  11  12
HETATM   12  N2  UNL     1      10.608  -7.272  30.627  1.00  0.00    -0.276 N 
HETATM   13  C7  UNL     1      11.454  -7.108  29.553  1.00  0.00     0.169 A 
HETATM   14  C8  UNL     1      11.416  -5.801  29.104  1.00  0.00     0.067 A 
HETATM   15  N3  UNL     1      10.574  -5.160  29.868  1.00  0.00    -0.299 N 
HETATM   16  C16 UNL     1      12.215  -5.295  27.956  1.00  0.00     0.062 C 
HETATM   17  C9  UNL     1      10.093  -6.059  30.783  1.00  0.00     0.331 A 
HETATM   18  C10 UNL     1      10.194  -3.760  29.791  1.00  0.00     0.134 C 
HETATM   19  O4  UNL     1       9.237  -5.789  31.695  1.00  0.00    -0.246 OA
HETATM   20  C11 UNL     1      11.319  -2.789  29.917  1.00  0.00     0.020 C 
HETATM   21  C12 UNL     1      11.192  -1.659  28.914  1.00  0.00     0.002 C 
HETATM   22  C13 UNL     1      10.942  -2.095  27.508  1.00  0.00     0.000 C 
HETATM   23  C14 UNL     1      11.956  -3.072  26.995  1.00  0.00     0.000 C 
HETATM   24  C15 UNL     1      11.456  -4.503  26.947  1.00  0.00     0.006 C 
BRANCH  13  25
HETATM   25  O3  UNL     1      12.208  -8.194  29.061  1.00  0.00    -0.344 OA
ATOM     26  H3  UNL     1      12.666  -8.128  28.232  1.00  0.00     0.219 HD
ENDBRANCH  13  25
ENDBRANCH  11  12
ENDBRANCH   1  11
BRANCH   1  27
HETATM   27  N4  UNL     1      10.658  -7.492  33.524  1.00  0.00    -0.406 N 
ATOM     28  H4  UNL     1       9.757  -7.018  33.467  1.00  0.00     0.154 HD
BRANCH  27  29
HETATM   29  C17 UNL     1      11.581  -7.018  34.456  1.00  0.00     0.134 C 
BRANCH  29  30
HETATM   30  C18 UNL     1      11.199  -5.589  34.908  1.00  0.00     0.136 C 
BRANCH  30  31
HETATM   31  N5  UNL     1      12.196  -4.678  34.508  1.00  0.00    -0.411 N 
HETATM   32  C19 UNL     1      11.960  -3.899  33.342  1.00  0.00     0.117 C 
HETATM   33  C20 UNL     1      12.327  -2.433  33.542  1.00  0.00     0.019 C 
HETATM   34  C21 UNL     1      11.586  -1.950  34.766  1.00  0.00     0.003 C 
HETATM   35  C22 UNL     1      12.054  -2.720  35.976  1.00  0.00     0.019 C 
HETATM   36  C23 UNL     1      12.821  -3.961  35.600  1.00  0.00     0.117 C 
ENDBRANCH  30  31
ENDBRANCH  29  30
ENDBRANCH  27  29
ENDBRANCH   1  27
TORSDOF 11
ENDMDL
MODEL 2
REMARK VINA RESULT: -8.227221522      1.645      2.261
REMARK  11 active torsions:
REMARK  status: ('A' for Active; 'I' for Inactive)
REMARK    1  A    between atoms: C2_2  and  C3_3 
REMARK    2  A    between atoms: C2_2  and  N1_6 
REMARK    3  A    between atoms: C3_3  and  O1_4 
REMARK       I    between atoms: N1_6  and  C4_8 
REMARK    4  A    between atoms: C4_8  and  C5_10 
REMARK    5  A    between atoms: C5_10  and  C6_11 
REMARK    6  A    between atoms: C5_10  and  N4_27 
REMARK    7  A    between atoms: C6_11  and  N2_12 
REMARK    8  A    between atoms: C7_13  and  O3_14 
REMARK    9  A    between atoms: N4_27  and  C17_29 
REMARK   10  A    between atoms: C17_29  and  C18_30 
REMARK   11  A    between atoms: C18_30  and  N5_31 
ROOT
HETATM    1  C5  UNL     1      10.998  -8.676  32.582  1.00  0.00     0.188 C 
ENDROOT
BRANCH   1   2
HETATM    2  C4  UNL     1      10.595  -9.982  33.215  1.00  0.00     0.242 C 
HETATM    3  N1  UNL     1       9.558 -10.744  32.622  1.00  0.00    -0.353 N 
ATOM      4  H1  UNL     1       9.087 -10.420  31.777  1.00  0.00     0.163 HD
HETATM    5  O2  UNL     1      11.161 -10.376  34.226  1.00  0.00    -0.271 OA
BRANCH   3   6
HETATM    6  C2  UNL     1       9.180 -12.019  33.262  1.00  0.00     0.104 C 
HETATM    7  C1  UNL     1       7.775 -12.359  32.853  1.00  0.00     0.034 C 
BRANCH   6   8
HETATM    8  C3  UNL     1      10.137 -13.081  32.752  1.00  0.00     0.189 C 
BRANCH   8   9
HETATM    9  O1  UNL     1      11.058 -13.396  33.728  1.00  0.00    -0.399 OA
ATOM     10  H1  UNL     1      10.743 -14.124  34.251  1.00  0.00     0.209 HD
ENDBRANCH   8   9
ENDBRANCH   6   8
ENDBRANCH   3   6
ENDBRANCH   1   2
BRANCH   1  11
HETATM   11  C6  UNL     1      10.327  -8.586  31.273  1.00  0.00     0.170 C 
BRANCH  11  12
HETATM   12  N2  UNL     1      10.581  -7.318  30.613  1.00  0.00    -0.276 N 
HETATM   13  C7  UNL     1      11.436  -7.164  29.545  1.00  0.00     0.169 A 
HETATM   14  C8  UNL     1      11.410  -5.859  29.090  1.00  0.00     0.067 A 
HETATM   15  N3  UNL     1      10.566  -5.210  29.845  1.00  0.00    -0.299 N 
HETATM   16  C16 UNL     1      12.220  -5.363  27.945  1.00  0.00     0.062 C 
HETATM   17  C9  UNL     1      10.072  -6.101  30.760  1.00  0.00     0.331 A 
HETATM   18  C10 UNL     1      10.195  -3.807  29.758  1.00  0.00     0.134 C 
HETATM   19  O4  UNL     1       9.211  -5.822  31.664  1.00  0.00    -0.246 OA
HETATM   20  C11 UNL     1      11.325  -2.842  29.888  1.00  0.00     0.020 C 
HETATM   21  C12 UNL     1      11.213  -1.717  28.880  1.00  0.00     0.002 C 
HETATM   22  C13 UNL     1      10.971  -2.157  27.473  1.00  0.00     0.000 C 
HETATM   23  C14 UNL     1      11.982  -3.142  26.973  1.00  0.00     0.000 C 
HETATM   24  C15 UNL     1      11.474  -4.571  26.928  1.00  0.00     0.006 C 
BRANCH  13  25
HETATM   25  O3  UNL     1      12.187  -8.257  29.064  1.00  0.00    -0.344 OA
ATOM     26  H3  UNL     1      13.102  -8.355  29.299  1.00  0.00     0.219 HD
ENDBRANCH  13  25
ENDBRANCH  11  12
ENDBRANCH   1  11
BRANCH   1  27
HETATM   27  N4  UNL     1      10.979  -7.608  33.471  1.00  0.00    -0.406 N 
ATOM     28  H4  UNL     1      11.709  -6.901  33.376  1.00  0.00     0.154 HD
BRANCH  27  29
HETATM   29  C17 UNL     1      10.035  -7.432  34.482  1.00  0.00     0.134 C 
BRANCH  29  30
HETATM   30  C18 UNL     1      10.647  -6.624  35.651  1.00  0.00     0.136 C 
BRANCH  30  31
HETATM   31  N5  UNL     1      11.832  -7.242  36.092  1.00  0.00    -0.411 N 
HETATM   32  C19 UNL     1      12.954  -6.415  36.372  1.00  0.00     0.117 C 
HETATM   33  C20 UNL     1      13.638  -6.790  37.681  1.00  0.00     0.019 C 
HETATM   34  C21 UNL     1      12.580  -6.777  38.757  1.00  0.00     0.003 C 
HETATM   35  C22 UNL     1      11.539  -7.826  38.454  1.00  0.00     0.019 C 
HETATM   36  C23 UNL     1      11.626  -8.323  37.034  1.00  0.00     0.117 C 
ENDBRANCH  30  31
ENDBRANCH  29  30
ENDBRANCH  27  29
ENDBRANCH   1  27
TORSDOF 11
ENDMDL
MODEL 3
REMARK VINA RESULT: -8.142704595      5.485      9.076
REMARK  11 active torsions:
REMARK  status: ('A' for Active; 'I' for Inactive)
REMARK    1  A    between atoms: C2_2  and  C3_3 
REMARK    2  A    between atoms: C2_2  and  N1_6 
REMARK    3  A    between atoms: C3_3  and  O1_4 
REMARK       I    between atoms: N1_6  and  C4_8 
REMARK    4  A    between atoms: C4_8  and  C5_10 
REMARK    5  A    between atoms: C5_10  and  C6_11 
REMARK    6  A    between atoms: C5_10  and  N4_27 
REMARK    7  A    between atoms: C6_11  and  N2_12 
REMARK    8  A    between atoms: C7_13  and  O3_14 
REMARK    9  A    between atoms: N4_27  and  C17_29 
REMARK   10  A    between atoms: C17_29  and  C18_30 
REMARK   11  A    between atoms: C18_30  and  N5_31 
ROOT
HETATM    1  C5  UNL     1      10.325  -0.605  32.972  1.00  0.00     0.188 C 
ENDROOT
BRANCH   1   2
HETATM    2  C4  UNL     1      11.421  -1.100  33.878  1.00  0.00     0.242 C 
HETATM    3  N1  UNL     1      11.230  -2.306  34.596  1.00  0.00    -0.353 N 
ATOM      4  H1  UNL     1      10.364  -2.839  34.505  1.00  0.00     0.163 HD
HETATM    5  O2  UNL     1      12.462  -0.466  33.987  1.00  0.00    -0.271 OA
BRANCH   3   6
HETATM    6  C2  UNL     1      12.317  -2.770  35.478  1.00  0.00     0.104 C 
HETATM    7  C1  UNL     1      11.911  -2.526  36.904  1.00  0.00     0.034 C 
BRANCH   6   8
HETATM    8  C3  UNL     1      12.490  -4.258  35.239  1.00  0.00     0.189 C 
BRANCH   8   9
HETATM    9  O1  UNL     1      13.750  -4.657  35.632  1.00  0.00    -0.399 OA
ATOM     10  H1  UNL     1      13.754  -5.590  35.815  1.00  0.00     0.209 HD
ENDBRANCH   8   9
ENDBRANCH   6   8
ENDBRANCH   3   6
ENDBRANCH   1   2
BRANCH   1  11
HETATM   11  C6  UNL     1       9.637   0.500  33.663  1.00  0.00     0.170 C 
BRANCH  11  12
HETATM   12  N2  UNL     1      10.033   1.800  33.150  1.00  0.00    -0.276 N 
HETATM   13  C7  UNL     1      10.942   2.627  33.771  1.00  0.00     0.169 A 
HETATM   14  C8  UNL     1      11.167   3.756  33.006  1.00  0.00     0.067 A 
HETATM   15  N3  UNL     1      10.424   3.646  31.938  1.00  0.00    -0.299 N 
HETATM   16  C16 UNL     1      12.098   4.849  33.394  1.00  0.00     0.062 C 
HETATM   17  C9  UNL     1       9.745   2.461  32.037  1.00  0.00     0.331 A 
HETATM   18  C10 UNL     1      10.316   4.584  30.832  1.00  0.00     0.134 C 
HETATM   19  O4  UNL     1       8.922   2.013  31.165  1.00  0.00    -0.246 OA
HETATM   20  C11 UNL     1       9.881   5.960  31.207  1.00  0.00     0.020 C 
HETATM   21  C12 UNL     1      10.689   7.015  30.479  1.00  0.00     0.002 C 
HETATM   22  C13 UNL     1      12.169   6.825  30.540  1.00  0.00     0.000 C 
HETATM   23  C14 UNL     1      12.699   6.705  31.936  1.00  0.00     0.000 C 
HETATM   24  C15 UNL     1      13.051   5.285  32.336  1.00  0.00     0.006 C 
BRANCH  13  25
HETATM   25  O3  UNL     1      11.504   2.270  35.014  1.00  0.00    -0.344 OA
ATOM     26  H3  UNL     1      12.359   2.597  35.269  1.00  0.00     0.219 HD
ENDBRANCH  13  25
ENDBRANCH  11  12
ENDBRANCH   1  11
BRANCH   1  27
HETATM   27  N4  UNL     1      10.724  -0.481  31.647  1.00  0.00    -0.406 N 
ATOM     28  H4  UNL     1      10.493   0.386  31.162  1.00  0.00     0.154 HD
BRANCH  27  29
HETATM   29  C17 UNL     1      11.418  -1.456  30.931  1.00  0.00     0.134 C 
BRANCH  29  30
HETATM   30  C18 UNL     1      10.427  -2.389  30.196  1.00  0.00     0.136 C 
BRANCH  30  31
HETATM   31  N5  UNL     1      10.281  -1.974  28.859  1.00  0.00    -0.411 N 
HETATM   32  C19 UNL     1      11.256  -1.089  28.322  1.00  0.00     0.117 C 
HETATM   33  C20 UNL     1      11.714  -1.508  26.930  1.00  0.00     0.019 C 
HETATM   34  C21 UNL     1      12.171  -2.945  27.024  1.00  0.00     0.003 C 
HETATM   35  C22 UNL     1      11.007  -3.819  27.417  1.00  0.00     0.019 C 
HETATM   36  C23 UNL     1       9.848  -3.019  27.954  1.00  0.00     0.117 C 
ENDBRANCH  30  31
ENDBRANCH  29  30
ENDBRANCH  27  29
ENDBRANCH   1  27
TORSDOF 11
ENDMDL
MODEL 4
REMARK VINA RESULT: -8.071928813      5.644      9.359
REMARK  11 active torsions:
REMARK  status: ('A' for Active; 'I' for Inactive)
REMARK    1  A    between atoms: C2_2  and  C3_3 
REMARK    2  A    between atoms: C2_2  and  N1_6 
REMARK    3  A    between atoms: C3_3  and  O1_4 
REMARK       I    between atoms: N1_6  and  C4_8 
REMARK    4  A    between atoms: C4_8  and  C5_10 
REMARK    5  A    between atoms: C5_10  and  C6_11 
REMARK    6  A    between atoms: C5_10  and  N4_27 
REMARK    7  A    between atoms: C6_11  and  N2_12 
REMARK    8  A    between atoms: C7_13  and  O3_14 
REMARK    9  A    between atoms: N4_27  and  C17_29 
REMARK   10  A    between atoms: C17_29  and  C18_30 
REMARK   11  A    between atoms: C18_30  and  N5_31 
ROOT
HETATM    1  C5  UNL     1      10.447  -0.510  32.799  1.00  0.00     0.188 C 
ENDROOT
BRANCH   1   2
HETATM    2  C4  UNL     1      11.513  -0.839  33.811  1.00  0.00     0.242 C 
HETATM    3  N1  UNL     1      11.220  -1.762  34.845  1.00  0.00    -0.353 N 
ATOM      4  H1  UNL     1      10.303  -2.204  34.910  1.00  0.00     0.163 HD
HETATM    5  O2  UNL     1      12.616  -0.316  33.734  1.00  0.00    -0.271 OA
BRANCH   3   6
HETATM    6  C2  UNL     1      12.280  -2.067  35.824  1.00  0.00     0.104 C 
HETATM    7  C1  UNL     1      11.931  -1.404  37.126  1.00  0.00     0.034 C 
BRANCH   6   8
HETATM    8  C3  UNL     1      12.310  -3.574  36.004  1.00  0.00     0.189 C 
BRANCH   8   9
HETATM    9  O1  UNL     1      13.387  -4.110  35.331  1.00  0.00    -0.399 OA
ATOM     10  H1  UNL     1      13.162  -4.255  34.419  1.00  0.00     0.209 HD
ENDBRANCH   8   9
ENDBRANCH   6   8
ENDBRANCH   3   6
ENDBRANCH   1   2
BRANCH   1  11
HETATM   11  C6  UNL     1       9.592   0.543  33.375  1.00  0.00     0.170 C 
BRANCH  11  12
HETATM   12  N2  UNL     1      10.113   1.874  33.118  1.00  0.00    -0.276 N 
HETATM   13  C7  UNL     1       9.875   2.583  31.962  1.00  0.00     0.169 A 
HETATM   14  C8  UNL     1      10.439   3.842  32.043  1.00  0.00     0.067 A 
HETATM   15  N3  UNL     1      11.015   3.927  33.211  1.00  0.00    -0.299 N 
HETATM   16  C16 UNL     1      10.361   4.858  30.959  1.00  0.00     0.062 C 
HETATM   17  C9  UNL     1      10.810   2.733  33.851  1.00  0.00     0.331 A 
HETATM   18  C10 UNL     1      11.741   5.058  33.763  1.00  0.00     0.134 C 
HETATM   19  O4  UNL     1      11.229   2.450  35.027  1.00  0.00    -0.246 OA
HETATM   20  C11 UNL     1      12.911   5.515  32.958  1.00  0.00     0.020 C 
HETATM   21  C12 UNL     1      12.971   7.027  32.873  1.00  0.00     0.002 C 
HETATM   22  C13 UNL     1      11.688   7.683  32.479  1.00  0.00     0.000 C 
HETATM   23  C14 UNL     1      11.119   7.160  31.196  1.00  0.00     0.000 C 
HETATM   24  C15 UNL     1       9.942   6.221  31.387  1.00  0.00     0.006 C 
BRANCH  13  25
HETATM   25  O3  UNL     1       9.143   2.005  30.904  1.00  0.00    -0.344 OA
ATOM     26  H3  UNL     1       8.306   1.587  31.068  1.00  0.00     0.219 HD
ENDBRANCH  13  25
ENDBRANCH  11  12
ENDBRANCH   1  11
BRANCH   1  27
HETATM   27  N4  UNL     1      10.936  -0.406  31.503  1.00  0.00    -0.406 N 
ATOM     28  H4  UNL     1      10.896   0.510  31.055  1.00  0.00     0.154 HD
BRANCH  27  29
HETATM   29  C17 UNL     1      11.478  -1.460  30.769  1.00  0.00     0.134 C 
BRANCH  29  30
HETATM   30  C18 UNL     1      10.353  -2.272  30.086  1.00  0.00     0.136 C 
BRANCH  30  31
HETATM   31  N5  UNL     1      10.272  -1.926  28.724  1.00  0.00    -0.411 N 
HETATM   32  C19 UNL     1      11.307  -1.120  28.176  1.00  0.00     0.117 C 
HETATM   33  C20 UNL     1      11.790  -1.638  26.826  1.00  0.00     0.019 C 
HETATM   34  C21 UNL     1      12.171  -3.087  27.013  1.00  0.00     0.003 C 
HETATM   35  C22 UNL     1      10.952  -3.881  27.412  1.00  0.00     0.019 C 
HETATM   36  C23 UNL     1       9.817  -2.998  27.862  1.00  0.00     0.117 C 
ENDBRANCH  30  31
ENDBRANCH  29  30
ENDBRANCH  27  29
ENDBRANCH   1  27
TORSDOF 11
ENDMDL
MODEL 5
REMARK VINA RESULT: -8.013742030      6.085      9.798
REMARK  11 active torsions:
REMARK  status: ('A' for Active; 'I' for Inactive)
REMARK    1  A    between atoms: C2_2  and  C3_3 
REMARK    2  A    between atoms: C2_2  and  N1_6 
REMARK    3  A    between atoms: C3_3  and  O1_4 
REMARK       I    between atoms: N1_6  and  C4_8 
REMARK    4  A    between atoms: C4_8  and  C5_10 
REMARK    5  A    between atoms: C5_10  and  C6_11 
REMARK    6  A    between atoms: C5_10  and  N4_27 
REMARK    7  A    between atoms: C6_11  and  N2_12 
REMARK    8  A    between atoms: C7_13  and  O3_14 
REMARK    9  A    between atoms: N4_27  and  C17_29 
REMARK   10  A    between atoms: C17_29  and  C18_30 
REMARK   11  A    between atoms: C18_30  and  N5_31 
ROOT
HETATM    1  C5  UNL     1       9.826  -0.113  32.316  1.00  0.00     0.188 C 
ENDROOT
BRANCH   1   2
HETATM    2  C4  UNL     1       9.818  -0.566  33.751  1.00  0.00     0.242 C 
HETATM    3  N1  UNL     1      11.045  -0.658  34.452  1.00  0.00    -0.353 N 
ATOM      4  H1  UNL     1      11.928  -0.422  33.998  1.00  0.00     0.163 HD
HETATM    5  O2  UNL     1       8.762  -0.847  34.301  1.00  0.00    -0.271 OA
BRANCH   3   6
HETATM    6  C2  UNL     1      11.012  -1.107  35.857  1.00  0.00     0.104 C 
HETATM    7  C1  UNL     1      12.190  -2.007  36.099  1.00  0.00     0.034 C 
BRANCH   6   8
HETATM    8  C3  UNL     1      11.121   0.131  36.729  1.00  0.00     0.189 C 
BRANCH   8   9
HETATM    9  O1  UNL     1       9.896   0.759  36.814  1.00  0.00    -0.399 OA
ATOM     10  H1  UNL     1       9.679   0.929  37.723  1.00  0.00     0.209 HD
ENDBRANCH   8   9
ENDBRANCH   6   8
ENDBRANCH   3   6
ENDBRANCH   1   2
BRANCH   1  11
HETATM   11  C6  UNL     1       9.002   1.107  32.226  1.00  0.00     0.170 C 
BRANCH  11  12
HETATM   12  N2  UNL     1       9.806   2.316  32.261  1.00  0.00    -0.276 N 
HETATM   13  C7  UNL     1      10.006   3.138  31.175  1.00  0.00     0.169 A 
HETATM   14  C8  UNL     1      10.751   4.244  31.539  1.00  0.00     0.067 A 
HETATM   15  N3  UNL     1      11.013   4.125  32.812  1.00  0.00    -0.299 N 
HETATM   16  C16 UNL     1      11.141   5.328  30.597  1.00  0.00     0.062 C 
HETATM   17  C9  UNL     1      10.436   2.957  33.236  1.00  0.00     0.331 A 
HETATM   18  C10 UNL     1      11.768   5.040  33.652  1.00  0.00     0.134 C 
HETATM   19  O4  UNL     1      10.480   2.512  34.435  1.00  0.00    -0.246 OA
HETATM   20  C11 UNL     1      13.168   5.300  33.209  1.00  0.00     0.020 C 
HETATM   21  C12 UNL     1      13.522   6.769  33.323  1.00  0.00     0.002 C 
HETATM   22  C13 UNL     1      12.527   7.703  32.717  1.00  0.00     0.000 C 
HETATM   23  C14 UNL     1      12.220   7.401  31.283  1.00  0.00     0.000 C 
HETATM   24  C15 UNL     1      10.883   6.715  31.074  1.00  0.00     0.006 C 
BRANCH  13  25
HETATM   25  O3  UNL     1       9.478   2.800  29.912  1.00  0.00    -0.344 OA
ATOM     26  H3  UNL     1       8.545   2.866  29.746  1.00  0.00     0.219 HD
ENDBRANCH  13  25
ENDBRANCH  11  12
ENDBRANCH   1  11
BRANCH   1  27
HETATM   27  N4  UNL     1      11.085  -0.170  31.730  1.00  0.00    -0.406 N 
ATOM     28  H4  UNL     1      11.722   0.608  31.901  1.00  0.00     0.154 HD
BRANCH  27  29
HETATM   29  C17 UNL     1      11.541  -1.214  30.925  1.00  0.00     0.134 C 
BRANCH  29  30
HETATM   30  C18 UNL     1      10.348  -1.934  30.254  1.00  0.00     0.136 C 
BRANCH  30  31
HETATM   31  N5  UNL     1      10.328  -1.646  28.876  1.00  0.00    -0.411 N 
HETATM   32  C19 UNL     1      11.507  -1.111  28.288  1.00  0.00     0.117 C 
HETATM   33  C20 UNL     1      11.852  -1.786  26.966  1.00  0.00     0.019 C 
HETATM   34  C21 UNL     1      11.914  -3.272  27.226  1.00  0.00     0.003 C 
HETATM   35  C22 UNL     1      10.557  -3.764  27.664  1.00  0.00     0.019 C 
HETATM   36  C23 UNL     1       9.644  -2.636  28.070  1.00  0.00     0.117 C 
ENDBRANCH  30  31
ENDBRANCH  29  30
ENDBRANCH  27  29
ENDBRANCH   1  27
TORSDOF 11
ENDMDL
