MODEL 1
REMARK VINA RESULT: -7.459887340      0.000      0.000
REMARK  14 active torsions:
REMARK  status: ('A' for Active; 'I' for Inactive)
REMARK    1  A    between atoms: N1_1  and  C1_4 
REMARK    2  A    between atoms: C2_7  and  S1_8 
REMARK    3  A    between atoms: S1_8  and  C3_9 
REMARK    4  A    between atoms: C3_9  and  C4_10 
REMARK    5  A    between atoms: C4_10  and  N3_11 
REMARK    6  A    between atoms: N5_16  and  C6_17 
REMARK    7  A    between atoms: C6_17  and  O1_18 
REMARK    8  A    between atoms: C6_17  and  C7_20 
REMARK    9  A    between atoms: C14_27  and  O2_28 
REMARK   10  A    between atoms: O2_28  and  C15_29 
REMARK   11  A    between atoms: C15_29  and  C16_31 
REMARK   12  A    between atoms: C16_31  and  N6_32 
REMARK   13  A    between atoms: C16_31  and  C17_36 
REMARK   14  A    between atoms: C18_39  and  O6_40 
ROOT
HETATM    1  C6  UNL     1     -16.715   8.482   0.019  1.00  0.00     0.155 C 
ENDROOT
BRANCH   1   2
HETATM    2  N5  UNL     1     -17.347   9.695  -0.266  1.00  0.00    -0.216 N 
HETATM    3  C5  UNL     1     -17.679  10.378  -1.351  1.00  0.00     0.206 A 
HETATM    4  N4  UNL     1     -18.081  11.651  -1.062  1.00  0.00    -0.269 N 
HETATM    5 CL1  UNL     1     -17.810   9.697  -2.988  1.00  0.00    -0.043 Cl
HETATM    6  N3  UNL     1     -18.009  11.771   0.216  1.00  0.00    -0.239 N 
ATOM      7  H4  UNL     1     -18.380  12.364  -1.727  1.00  0.00     0.190 HD
HETATM    8  C21 UNL     1     -17.582  10.645   0.747  1.00  0.00     0.352 A 
HETATM    9  O8  UNL     1     -17.382  10.363   1.954  1.00  0.00    -0.244 OA
BRANCH   6  10
HETATM   10  C4  UNL     1     -18.348  12.972   0.984  1.00  0.00     0.165 C 
BRANCH  10  11
HETATM   11  C3  UNL     1     -17.701  14.132   0.273  1.00  0.00     0.104 C 
BRANCH  11  12
HETATM   12  S1  UNL     1     -16.867  15.173   1.492  1.00  0.00    -0.091 SA
BRANCH  12  13
HETATM   13  C2  UNL     1     -17.500  14.795   3.097  1.00  0.00     0.163 A 
HETATM   14  N2  UNL     1     -16.746  14.172   4.005  1.00  0.00    -0.170 N 
HETATM   15  C1  UNL     1     -17.303  13.919   5.205  1.00  0.00     0.681 A 
ATOM     16  H2  UNL     1     -15.786  13.897   3.798  1.00  0.00     0.186 HD
HETATM   17  N8  UNL     1     -18.566  14.267   5.508  1.00  0.00    -0.141 N 
HETATM   18  C22 UNL     1     -19.312  14.892   4.588  1.00  0.00     0.340 A 
ATOM     19  H8  UNL     1     -18.952  14.057   6.429  1.00  0.00     0.189 HD
HETATM   20  N7  UNL     1     -18.760  15.145   3.391  1.00  0.00    -0.288 N 
HETATM   21  O9  UNL     1     -20.489  15.213   4.878  1.00  0.00    -0.246 OA
ATOM     22  H7  UNL     1     -19.318  15.619   2.682  1.00  0.00     0.172 HD
BRANCH  15  23
HETATM   23  N1  UNL     1     -16.569  13.315   6.080  1.00  0.00    -0.234 N 
ATOM     24  H12 UNL     1     -15.968  12.541   5.798  1.00  0.00     0.174 HD
ATOM     25  H11 UNL     1     -16.622  13.650   7.042  1.00  0.00     0.174 HD
ENDBRANCH  15  23
ENDBRANCH  12  13
ENDBRANCH  11  12
ENDBRANCH  10  11
ENDBRANCH   6  10
ENDBRANCH   1   2
BRANCH   1  26
HETATM   26  O1  UNL     1     -17.556   7.735   0.815  1.00  0.00    -0.345 OA
ATOM     27  H1  UNL     1     -17.177   6.871   0.920  1.00  0.00     0.219 HD
ENDBRANCH   1  26
BRANCH   1  28
HETATM   28  C7  UNL     1     -15.547   7.797  -0.223  1.00  0.00     0.089 C 
HETATM   29  C8  UNL     1     -14.275   7.941  -0.186  1.00  0.00     0.058 C 
HETATM   30  C9  UNL     1     -13.536   9.144   0.232  1.00  0.00     0.065 C 
HETATM   31  O7  UNL     1     -13.521   6.777  -0.610  1.00  0.00    -0.313 OA
HETATM   32  C10 UNL     1     -12.361   8.696   1.091  1.00  0.00     0.011 C 
HETATM   33  C11 UNL     1     -11.093   8.604   0.265  1.00  0.00     0.042 C 
HETATM   34  C12 UNL     1     -11.195   7.539  -0.758  1.00  0.00    -0.020 A 
HETATM   35  C13 UNL     1      -9.985   7.372  -1.392  1.00  0.00     0.050 A 
HETATM   36  C20 UNL     1     -12.240   6.733  -1.150  1.00  0.00     0.106 A 
HETATM   37  C14 UNL     1      -9.784   6.446  -2.385  1.00  0.00     0.114 A 
HETATM   38  C18 UNL     1     -10.860   5.652  -2.753  1.00  0.00     0.124 A 
HETATM   39  C19 UNL     1     -12.088   5.774  -2.158  1.00  0.00     0.104 A 
HETATM   40 CL2  UNL     1     -13.460   4.798  -2.592  1.00  0.00    -0.078 Cl
BRANCH  37  41
HETATM   41  O2  UNL     1      -8.587   6.243  -3.050  1.00  0.00    -0.274 OA
BRANCH  41  42
HETATM   42  C15 UNL     1      -7.473   5.782  -2.368  1.00  0.00     0.305 C 
HETATM   43  O3  UNL     1      -6.713   6.631  -1.847  1.00  0.00    -0.262 OA
BRANCH  42  44
HETATM   44  C16 UNL     1      -7.123   4.357  -2.217  1.00  0.00     0.382 C 
BRANCH  44  45
HETATM   45  N6  UNL     1      -7.898   3.481  -3.036  1.00  0.00    -0.056 N 
ATOM     46  H63 UNL     1      -8.780   3.249  -2.580  1.00  0.00     0.276 HD
ATOM     47  H62 UNL     1      -8.253   3.975  -3.855  1.00  0.00     0.276 HD
ATOM     48  H61 UNL     1      -7.406   2.632  -3.316  1.00  0.00     0.276 HD
ENDBRANCH  44  45
BRANCH  44  49
HETATM   49  C17 UNL     1      -7.176   4.008  -0.776  1.00  0.00     0.214 C 
HETATM   50  O4  UNL     1      -8.232   3.912  -0.127  1.00  0.00    -0.646 OA
HETATM   51  O5  UNL     1      -5.967   3.779  -0.133  1.00  0.00    -0.646 OA
ENDBRANCH  44  49
ENDBRANCH  42  44
ENDBRANCH  41  42
ENDBRANCH  37  41
BRANCH  38  52
HETATM   52  O6  UNL     1     -10.697   4.709  -3.751  1.00  0.00    -0.356 OA
ATOM     53  H6  UNL     1     -11.317   4.679  -4.470  1.00  0.00     0.218 HD
ENDBRANCH  38  52
ENDBRANCH   1  28
TORSDOF 14
ENDMDL
MODEL 2
REMARK VINA RESULT: -7.437300217      1.985      2.294
REMARK  14 active torsions:
REMARK  status: ('A' for Active; 'I' for Inactive)
REMARK    1  A    between atoms: N1_1  and  C1_4 
REMARK    2  A    between atoms: C2_7  and  S1_8 
REMARK    3  A    between atoms: S1_8  and  C3_9 
REMARK    4  A    between atoms: C3_9  and  C4_10 
REMARK    5  A    between atoms: C4_10  and  N3_11 
REMARK    6  A    between atoms: N5_16  and  C6_17 
REMARK    7  A    between atoms: C6_17  and  O1_18 
REMARK    8  A    between atoms: C6_17  and  C7_20 
REMARK    9  A    between atoms: C14_27  and  O2_28 
REMARK   10  A    between atoms: O2_28  and  C15_29 
REMARK   11  A    between atoms: C15_29  and  C16_31 
REMARK   12  A    between atoms: C16_31  and  N6_32 
REMARK   13  A    between atoms: C16_31  and  C17_36 
REMARK   14  A    between atoms: C18_39  and  O6_40 
ROOT
HETATM    1  C6  UNL     1     -17.075   8.143  -2.528  1.00  0.00     0.155 C 
ENDROOT
BRANCH   1   2
HETATM    2  N5  UNL     1     -18.054   8.811  -1.788  1.00  0.00    -0.216 N 
HETATM    3  C5  UNL     1     -19.262   8.538  -1.318  1.00  0.00     0.206 A 
HETATM    4  N4  UNL     1     -19.901   9.649  -0.848  1.00  0.00    -0.269 N 
HETATM    5 CL1  UNL     1     -19.930   6.904  -1.102  1.00  0.00    -0.043 Cl
HETATM    6  N3  UNL     1     -19.089  10.632  -1.017  1.00  0.00    -0.239 N 
ATOM      7  H4  UNL     1     -20.837   9.692  -0.444  1.00  0.00     0.190 HD
HETATM    8  C21 UNL     1     -17.975  10.200  -1.568  1.00  0.00     0.352 A 
HETATM    9  O8  UNL     1     -16.946  10.845  -1.887  1.00  0.00    -0.244 OA
BRANCH   6  10
HETATM   10  C4  UNL     1     -19.347  12.028  -0.655  1.00  0.00     0.165 C 
BRANCH  10  11
HETATM   11  C3  UNL     1     -19.624  12.042   0.827  1.00  0.00     0.104 C 
BRANCH  11  12
HETATM   12  S1  UNL     1     -18.050  11.999   1.715  1.00  0.00    -0.091 SA
BRANCH  12  13
HETATM   13  C2  UNL     1     -18.230  12.870   3.242  1.00  0.00     0.163 A 
HETATM   14  N2  UNL     1     -17.293  12.800   4.189  1.00  0.00    -0.170 N 
HETATM   15  C1  UNL     1     -17.505  13.493   5.324  1.00  0.00     0.681 A 
ATOM     16  H2  UNL     1     -16.449  12.243   4.058  1.00  0.00     0.186 HD
HETATM   17  N8  UNL     1     -18.608  14.235   5.527  1.00  0.00    -0.141 N 
HETATM   18  C22 UNL     1     -19.541  14.297   4.569  1.00  0.00     0.340 A 
ATOM     19  H8  UNL     1     -18.732  14.745   6.402  1.00  0.00     0.189 HD
HETATM   20  N7  UNL     1     -19.333  13.607   3.436  1.00  0.00    -0.288 N 
HETATM   21  O9  UNL     1     -20.567  14.991   4.765  1.00  0.00    -0.246 OA
ATOM     22  H7  UNL     1     -20.037  13.646   2.699  1.00  0.00     0.172 HD
BRANCH  15  23
HETATM   23  N1  UNL     1     -16.595  13.421   6.238  1.00  0.00    -0.234 N 
ATOM     24  H12 UNL     1     -16.329  14.255   6.762  1.00  0.00     0.174 HD
ATOM     25  H11 UNL     1     -16.170  12.508   6.401  1.00  0.00     0.174 HD
ENDBRANCH  15  23
ENDBRANCH  12  13
ENDBRANCH  11  12
ENDBRANCH  10  11
ENDBRANCH   6  10
ENDBRANCH   1   2
BRANCH   1  26
HETATM   26  O1  UNL     1     -17.206   8.515  -3.849  1.00  0.00    -0.345 OA
ATOM     27  H1  UNL     1     -16.509   8.101  -4.344  1.00  0.00     0.219 HD
ENDBRANCH   1  26
BRANCH   1  28
HETATM   28  C7  UNL     1     -16.043   7.246  -2.380  1.00  0.00     0.089 C 
HETATM   29  C8  UNL     1     -14.837   7.168  -1.955  1.00  0.00     0.058 C 
HETATM   30  C9  UNL     1     -14.041   8.254  -1.359  1.00  0.00     0.065 C 
HETATM   31  O7  UNL     1     -14.229   5.859  -2.096  1.00  0.00    -0.313 OA
HETATM   32  C10 UNL     1     -13.285   7.680  -0.168  1.00  0.00     0.011 C 
HETATM   33  C11 UNL     1     -11.870   7.299  -0.559  1.00  0.00     0.042 C 
HETATM   34  C12 UNL     1     -11.864   6.187  -1.537  1.00  0.00    -0.020 A 
HETATM   35  C13 UNL     1     -10.576   5.759  -1.761  1.00  0.00     0.050 A 
HETATM   36  C20 UNL     1     -12.879   5.547  -2.212  1.00  0.00     0.106 A 
HETATM   37  C14 UNL     1     -10.269   4.733  -2.620  1.00  0.00     0.114 A 
HETATM   38  C18 UNL     1     -11.318   4.112  -3.283  1.00  0.00     0.124 A 
HETATM   39  C19 UNL     1     -12.620   4.496  -3.100  1.00  0.00     0.104 A 
HETATM   40 CL2  UNL     1     -13.960   3.742  -3.912  1.00  0.00    -0.078 Cl
BRANCH  37  41
HETATM   41  O2  UNL     1      -8.991   4.269  -2.878  1.00  0.00    -0.274 OA
BRANCH  41  42
HETATM   42  C15 UNL     1      -8.185   3.820  -1.845  1.00  0.00     0.305 C 
HETATM   43  O3  UNL     1      -8.425   2.688  -1.365  1.00  0.00    -0.262 OA
BRANCH  42  44
HETATM   44  C16 UNL     1      -7.062   4.588  -1.272  1.00  0.00     0.382 C 
BRANCH  44  45
HETATM   45  N6  UNL     1      -6.889   5.880  -1.856  1.00  0.00    -0.056 N 
ATOM     46  H63 UNL     1      -7.648   6.086  -2.505  1.00  0.00     0.276 HD
ATOM     47  H62 UNL     1      -7.052   6.612  -1.164  1.00  0.00     0.276 HD
ATOM     48  H61 UNL     1      -5.985   6.011  -2.309  1.00  0.00     0.276 HD
ENDBRANCH  44  45
BRANCH  44  49
HETATM   49  C17 UNL     1      -5.838   3.752  -1.332  1.00  0.00     0.214 C 
HETATM   50  O4  UNL     1      -5.362   3.300  -2.388  1.00  0.00    -0.646 OA
HETATM   51  O5  UNL     1      -5.203   3.469  -0.130  1.00  0.00    -0.646 OA
ENDBRANCH  44  49
ENDBRANCH  42  44
ENDBRANCH  41  42
ENDBRANCH  37  41
BRANCH  38  52
HETATM   52  O6  UNL     1     -11.048   3.075  -4.157  1.00  0.00    -0.356 OA
ATOM     53  H6  UNL     1     -11.104   3.228  -5.093  1.00  0.00     0.218 HD
ENDBRANCH  38  52
ENDBRANCH   1  28
TORSDOF 14
ENDMDL
MODEL 3
REMARK VINA RESULT: -7.269915216      1.581      2.271
REMARK  14 active torsions:
REMARK  status: ('A' for Active; 'I' for Inactive)
REMARK    1  A    between atoms: N1_1  and  C1_4 
REMARK    2  A    between atoms: C2_7  and  S1_8 
REMARK    3  A    between atoms: S1_8  and  C3_9 
REMARK    4  A    between atoms: C3_9  and  C4_10 
REMARK    5  A    between atoms: C4_10  and  N3_11 
REMARK    6  A    between atoms: N5_16  and  C6_17 
REMARK    7  A    between atoms: C6_17  and  O1_18 
REMARK    8  A    between atoms: C6_17  and  C7_20 
REMARK    9  A    between atoms: C14_27  and  O2_28 
REMARK   10  A    between atoms: O2_28  and  C15_29 
REMARK   11  A    between atoms: C15_29  and  C16_31 
REMARK   12  A    between atoms: C16_31  and  N6_32 
REMARK   13  A    between atoms: C16_31  and  C17_36 
REMARK   14  A    between atoms: C18_39  and  O6_40 
ROOT
HETATM    1  C6  UNL     1     -16.219   8.822   0.104  1.00  0.00     0.155 C 
ENDROOT
BRANCH   1   2
HETATM    2  N5  UNL     1     -17.418   9.528  -0.032  1.00  0.00    -0.216 N 
HETATM    3  C5  UNL     1     -18.407   9.588  -0.910  1.00  0.00     0.206 A 
HETATM    4  N4  UNL     1     -19.245  10.641  -0.677  1.00  0.00    -0.269 N 
HETATM    5 CL1  UNL     1     -18.769   8.347  -2.130  1.00  0.00    -0.043 Cl
HETATM    6  N3  UNL     1     -18.786  11.247   0.359  1.00  0.00    -0.239 N 
ATOM      7  H4  UNL     1     -20.072  10.896  -1.218  1.00  0.00     0.190 HD
HETATM    8  C21 UNL     1     -17.704  10.634   0.791  1.00  0.00     0.352 A 
HETATM    9  O8  UNL     1     -16.972  10.916   1.771  1.00  0.00    -0.244 OA
BRANCH   6  10
HETATM   10  C4  UNL     1     -19.366  12.440   0.982  1.00  0.00     0.165 C 
BRANCH  10  11
HETATM   11  C3  UNL     1     -18.907  13.617   0.161  1.00  0.00     0.104 C 
BRANCH  11  12
HETATM   12  S1  UNL     1     -17.589  14.473   1.054  1.00  0.00    -0.091 SA
BRANCH  12  13
HETATM   13  C2  UNL     1     -17.910  14.370   2.787  1.00  0.00     0.163 A 
HETATM   14  N2  UNL     1     -17.031  13.804   3.618  1.00  0.00    -0.170 N 
HETATM   15  C1  UNL     1     -17.351  13.764   4.926  1.00  0.00     0.681 A 
ATOM     16  H2  UNL     1     -16.152  13.417   3.275  1.00  0.00     0.186 HD
HETATM   17  N8  UNL     1     -18.502  14.264   5.408  1.00  0.00    -0.141 N 
HETATM   18  C22 UNL     1     -19.376  14.829   4.564  1.00  0.00     0.340 A 
ATOM     19  H8  UNL     1     -18.708  14.214   6.406  1.00  0.00     0.189 HD
HETATM   20  N7  UNL     1     -19.060  14.870   3.260  1.00  0.00    -0.288 N 
HETATM   21  O9  UNL     1     -20.447  15.293   5.021  1.00  0.00    -0.246 OA
ATOM     22  H7  UNL     1     -19.718  15.297   2.607  1.00  0.00     0.172 HD
BRANCH  15  23
HETATM   23  N1  UNL     1     -16.497  13.216   5.725  1.00  0.00    -0.234 N 
ATOM     24  H12 UNL     1     -15.526  13.100   5.435  1.00  0.00     0.174 HD
ATOM     25  H11 UNL     1     -16.840  12.915   6.637  1.00  0.00     0.174 HD
ENDBRANCH  15  23
ENDBRANCH  12  13
ENDBRANCH  11  12
ENDBRANCH  10  11
ENDBRANCH   6  10
ENDBRANCH   1   2
BRANCH   1  26
HETATM   26  O1  UNL     1     -16.311   8.030   1.227  1.00  0.00    -0.345 OA
ATOM     27  H1  UNL     1     -15.858   7.213   1.053  1.00  0.00     0.219 HD
ENDBRANCH   1  26
BRANCH   1  28
HETATM   28  C7  UNL     1     -14.994   8.661  -0.500  1.00  0.00     0.089 C 
HETATM   29  C8  UNL     1     -14.393   7.940  -1.371  1.00  0.00     0.058 C 
HETATM   30  C9  UNL     1     -14.977   6.840  -2.159  1.00  0.00     0.065 C 
HETATM   31  O7  UNL     1     -12.996   8.269  -1.571  1.00  0.00    -0.313 OA
HETATM   32  C10 UNL     1     -14.463   6.965  -3.587  1.00  0.00     0.011 C 
HETATM   33  C11 UNL     1     -13.271   6.056  -3.813  1.00  0.00     0.042 C 
HETATM   34  C12 UNL     1     -12.111   6.479  -2.995  1.00  0.00    -0.020 A 
HETATM   35  C13 UNL     1     -11.000   5.737  -3.327  1.00  0.00     0.050 A 
HETATM   36  C20 UNL     1     -11.972   7.439  -2.018  1.00  0.00     0.106 A 
HETATM   37  C14 UNL     1      -9.778   5.918  -2.730  1.00  0.00     0.114 A 
HETATM   38  C18 UNL     1      -9.676   6.895  -1.751  1.00  0.00     0.124 A 
HETATM   39  C19 UNL     1     -10.747   7.663  -1.378  1.00  0.00     0.104 A 
HETATM   40 CL2  UNL     1     -10.659   8.896  -0.156  1.00  0.00    -0.078 Cl
BRANCH  37  41
HETATM   41  O2  UNL     1      -8.634   5.197  -3.030  1.00  0.00    -0.274 OA
BRANCH  41  42
HETATM   42  C15 UNL     1      -8.522   3.869  -2.655  1.00  0.00     0.305 C 
HETATM   43  O3  UNL     1      -8.921   2.997  -3.460  1.00  0.00    -0.262 OA
BRANCH  42  44
HETATM   44  C16 UNL     1      -7.963   3.414  -1.367  1.00  0.00     0.382 C 
BRANCH  44  45
HETATM   45  N6  UNL     1      -8.631   3.952  -0.225  1.00  0.00    -0.056 N 
ATOM     46  H63 UNL     1      -9.019   4.871  -0.435  1.00  0.00     0.276 HD
ATOM     47  H62 UNL     1      -9.493   3.440  -0.039  1.00  0.00     0.276 HD
ATOM     48  H61 UNL     1      -8.050   3.991   0.613  1.00  0.00     0.276 HD
ENDBRANCH  44  45
BRANCH  44  49
HETATM   49  C17 UNL     1      -6.502   3.677  -1.367  1.00  0.00     0.214 C 
HETATM   50  O4  UNL     1      -5.826   3.818  -2.401  1.00  0.00    -0.646 OA
HETATM   51  O5  UNL     1      -5.873   3.767  -0.133  1.00  0.00    -0.646 OA
ENDBRANCH  44  49
ENDBRANCH  42  44
ENDBRANCH  41  42
ENDBRANCH  37  41
BRANCH  38  52
HETATM   52  O6  UNL     1      -8.460   7.105  -1.126  1.00  0.00    -0.356 OA
ATOM     53  H6  UNL     1      -8.323   6.769  -0.248  1.00  0.00     0.218 HD
ENDBRANCH  38  52
ENDBRANCH   1  28
TORSDOF 14
ENDMDL
MODEL 4
REMARK VINA RESULT: -7.264526463      0.780      1.220
REMARK  14 active torsions:
REMARK  status: ('A' for Active; 'I' for Inactive)
REMARK    1  A    between atoms: N1_1  and  C1_4 
REMARK    2  A    between atoms: C2_7  and  S1_8 
REMARK    3  A    between atoms: S1_8  and  C3_9 
REMARK    4  A    between atoms: C3_9  and  C4_10 
REMARK    5  A    between atoms: C4_10  and  N3_11 
REMARK    6  A    between atoms: N5_16  and  C6_17 
REMARK    7  A    between atoms: C6_17  and  O1_18 
REMARK    8  A    between atoms: C6_17  and  C7_20 
REMARK    9  A    between atoms: C14_27  and  O2_28 
REMARK   10  A    between atoms: O2_28  and  C15_29 
REMARK   11  A    between atoms: C15_29  and  C16_31 
REMARK   12  A    between atoms: C16_31  and  N6_32 
REMARK   13  A    between atoms: C16_31  and  C17_36 
REMARK   14  A    between atoms: C18_39  and  O6_40 
ROOT
HETATM    1  C6  UNL     1     -16.789   8.486   0.034  1.00  0.00     0.155 C 
ENDROOT
BRANCH   1   2
HETATM    2  N5  UNL     1     -17.422   9.698  -0.255  1.00  0.00    -0.216 N 
HETATM    3  C5  UNL     1     -17.801  10.353  -1.341  1.00  0.00     0.206 A 
HETATM    4  N4  UNL     1     -18.176  11.637  -1.070  1.00  0.00    -0.269 N 
HETATM    5 CL1  UNL     1     -18.018   9.627  -2.950  1.00  0.00    -0.043 Cl
HETATM    6  N3  UNL     1     -18.041  11.793   0.199  1.00  0.00    -0.239 N 
ATOM      7  H4  UNL     1     -18.501  12.335  -1.740  1.00  0.00     0.190 HD
HETATM    8  C21 UNL     1     -17.598  10.678   0.741  1.00  0.00     0.352 A 
HETATM    9  O8  UNL     1     -17.343  10.429   1.945  1.00  0.00    -0.244 OA
BRANCH   6  10
HETATM   10  C4  UNL     1     -18.331  13.019   0.948  1.00  0.00     0.165 C 
BRANCH  10  11
HETATM   11  C3  UNL     1     -17.647  14.142   0.212  1.00  0.00     0.104 C 
BRANCH  11  12
HETATM   12  S1  UNL     1     -16.876  15.246   1.418  1.00  0.00    -0.091 SA
BRANCH  12  13
HETATM   13  C2  UNL     1     -17.562  14.921   3.012  1.00  0.00     0.163 A 
HETATM   14  N2  UNL     1     -18.758  15.402   3.358  1.00  0.00    -0.170 N 
HETATM   15  C1  UNL     1     -19.210  15.109   4.593  1.00  0.00     0.681 A 
ATOM     16  H2  UNL     1     -19.308  15.969   2.713  1.00  0.00     0.186 HD
HETATM   17  N8  UNL     1     -18.509  14.366   5.467  1.00  0.00    -0.141 N 
HETATM   18  C22 UNL     1     -17.310  13.890   5.107  1.00  0.00     0.340 A 
ATOM     19  H8  UNL     1     -18.886  14.167   6.393  1.00  0.00     0.189 HD
HETATM   20  N7  UNL     1     -16.856  14.180   3.878  1.00  0.00    -0.288 N 
HETATM   21  O9  UNL     1     -16.662  13.198   5.928  1.00  0.00    -0.246 OA
ATOM     22  H7  UNL     1     -15.944  13.824   3.593  1.00  0.00     0.172 HD
BRANCH  15  23
HETATM   23  N1  UNL     1     -20.369  15.577   4.922  1.00  0.00    -0.234 N 
ATOM     24  H12 UNL     1     -21.154  15.502   4.276  1.00  0.00     0.174 HD
ATOM     25  H11 UNL     1     -20.450  16.013   5.841  1.00  0.00     0.174 HD
ENDBRANCH  15  23
ENDBRANCH  12  13
ENDBRANCH  11  12
ENDBRANCH  10  11
ENDBRANCH   6  10
ENDBRANCH   1   2
BRANCH   1  26
HETATM   26  O1  UNL     1     -17.638   7.732   0.815  1.00  0.00    -0.345 OA
ATOM     27  H1  UNL     1     -17.442   6.814   0.665  1.00  0.00     0.219 HD
ENDBRANCH   1  26
BRANCH   1  28
HETATM   28  C7  UNL     1     -15.614   7.808  -0.194  1.00  0.00     0.089 C 
HETATM   29  C8  UNL     1     -14.343   7.963  -0.153  1.00  0.00     0.058 C 
HETATM   30  C9  UNL     1     -13.617   9.178   0.254  1.00  0.00     0.065 C 
HETATM   31  O7  UNL     1     -13.578   6.801  -0.558  1.00  0.00    -0.313 OA
HETATM   32  C10 UNL     1     -12.442   8.750   1.123  1.00  0.00     0.011 C 
HETATM   33  C11 UNL     1     -11.169   8.659   0.304  1.00  0.00     0.042 C 
HETATM   34  C12 UNL     1     -11.257   7.580  -0.706  1.00  0.00    -0.020 A 
HETATM   35  C13 UNL     1     -10.043   7.416  -1.332  1.00  0.00     0.050 A 
HETATM   36  C20 UNL     1     -12.293   6.760  -1.093  1.00  0.00     0.106 A 
HETATM   37  C14 UNL     1      -9.830   6.479  -2.313  1.00  0.00     0.114 A 
HETATM   38  C18 UNL     1     -10.898   5.671  -2.676  1.00  0.00     0.124 A 
HETATM   39  C19 UNL     1     -12.129   5.790  -2.088  1.00  0.00     0.104 A 
HETATM   40 CL2  UNL     1     -13.491   4.797  -2.516  1.00  0.00    -0.078 Cl
BRANCH  37  41
HETATM   41  O2  UNL     1      -8.629   6.278  -2.970  1.00  0.00    -0.274 OA
BRANCH  41  42
HETATM   42  C15 UNL     1      -7.518   5.821  -2.280  1.00  0.00     0.305 C 
HETATM   43  O3  UNL     1      -6.801   6.667  -1.698  1.00  0.00    -0.262 OA
BRANCH  42  44
HETATM   44  C16 UNL     1      -7.123   4.401  -2.187  1.00  0.00     0.382 C 
BRANCH  44  45
HETATM   45  N6  UNL     1      -7.886   3.533  -3.027  1.00  0.00    -0.056 N 
ATOM     46  H63 UNL     1      -8.814   3.922  -3.197  1.00  0.00     0.276 HD
ATOM     47  H62 UNL     1      -7.520   3.542  -3.979  1.00  0.00     0.276 HD
ATOM     48  H61 UNL     1      -7.956   2.577  -2.679  1.00  0.00     0.276 HD
ENDBRANCH  44  45
BRANCH  44  49
HETATM   49  C17 UNL     1      -7.143   3.998  -0.759  1.00  0.00     0.214 C 
HETATM   50  O4  UNL     1      -8.184   3.877  -0.091  1.00  0.00    -0.646 OA
HETATM   51  O5  UNL     1      -5.919   3.746  -0.154  1.00  0.00    -0.646 OA
ENDBRANCH  44  49
ENDBRANCH  42  44
ENDBRANCH  41  42
ENDBRANCH  37  41
BRANCH  38  52
HETATM   52  O6  UNL     1     -10.722   4.717  -3.661  1.00  0.00    -0.356 OA
ATOM     53  H6  UNL     1     -11.480   4.378  -4.122  1.00  0.00     0.218 HD
ENDBRANCH  38  52
ENDBRANCH   1  28
TORSDOF 14
ENDMDL
MODEL 5
REMARK VINA RESULT: -7.230964271      3.688      5.856
REMARK  14 active torsions:
REMARK  status: ('A' for Active; 'I' for Inactive)
REMARK    1  A    between atoms: N1_1  and  C1_4 
REMARK    2  A    between atoms: C2_7  and  S1_8 
REMARK    3  A    between atoms: S1_8  and  C3_9 
REMARK    4  A    between atoms: C3_9  and  C4_10 
REMARK    5  A    between atoms: C4_10  and  N3_11 
REMARK    6  A    between atoms: N5_16  and  C6_17 
REMARK    7  A    between atoms: C6_17  and  O1_18 
REMARK    8  A    between atoms: C6_17  and  C7_20 
REMARK    9  A    between atoms: C14_27  and  O2_28 
REMARK   10  A    between atoms: O2_28  and  C15_29 
REMARK   11  A    between atoms: C15_29  and  C16_31 
REMARK   12  A    between atoms: C16_31  and  N6_32 
REMARK   13  A    between atoms: C16_31  and  C17_36 
REMARK   14  A    between atoms: C18_39  and  O6_40 
ROOT
HETATM    1  C6  UNL     1     -16.750   9.215   0.392  1.00  0.00     0.155 C 
ENDROOT
BRANCH   1   2
HETATM    2  N5  UNL     1     -17.585  10.326   0.534  1.00  0.00    -0.216 N 
HETATM    3  C5  UNL     1     -17.902  11.178   1.498  1.00  0.00     0.206 A 
HETATM    4  N4  UNL     1     -18.974  11.957   1.171  1.00  0.00    -0.269 N 
HETATM    5 CL1  UNL     1     -16.943  11.460   2.968  1.00  0.00    -0.043 Cl
HETATM    6  N3  UNL     1     -19.335  11.601  -0.010  1.00  0.00    -0.239 N 
ATOM      7  H4  UNL     1     -19.404  12.680   1.750  1.00  0.00     0.190 HD
HETATM    8  C21 UNL     1     -18.549  10.638  -0.444  1.00  0.00     0.352 A 
HETATM    9  O8  UNL     1     -18.574  10.029  -1.542  1.00  0.00    -0.244 OA
BRANCH   6  10
HETATM   10  C4  UNL     1     -20.448  12.169  -0.775  1.00  0.00     0.165 C 
BRANCH  10  11
HETATM   11  C3  UNL     1     -21.665  11.350  -0.431  1.00  0.00     0.104 C 
BRANCH  11  12
HETATM   12  S1  UNL     1     -22.185  10.431  -1.898  1.00  0.00    -0.091 SA
BRANCH  12  13
HETATM   13  C2  UNL     1     -21.911   8.708  -1.622  1.00  0.00     0.163 A 
HETATM   14  N2  UNL     1     -20.729   8.258  -1.196  1.00  0.00    -0.170 N 
HETATM   15  C1  UNL     1     -20.602   6.930  -1.009  1.00  0.00     0.681 A 
ATOM     16  H2  UNL     1     -19.953   8.896  -1.019  1.00  0.00     0.186 HD
HETATM   17  N8  UNL     1     -21.605   6.065  -1.235  1.00  0.00    -0.141 N 
HETATM   18  C22 UNL     1     -22.786   6.529  -1.663  1.00  0.00     0.340 A 
ATOM     19  H8  UNL     1     -21.469   5.066  -1.082  1.00  0.00     0.189 HD
HETATM   20  N7  UNL     1     -22.917   7.852  -1.850  1.00  0.00    -0.288 N 
HETATM   21  O9  UNL     1     -23.718   5.716  -1.871  1.00  0.00    -0.246 OA
ATOM     22  H7  UNL     1     -23.811   8.217  -2.176  1.00  0.00     0.172 HD
BRANCH  15  23
HETATM   23  N1  UNL     1     -19.455   6.501  -0.597  1.00  0.00    -0.234 N 
ATOM     24  H12 UNL     1     -18.615   7.061  -0.744  1.00  0.00     0.174 HD
ATOM     25  H11 UNL     1     -19.438   5.595  -0.128  1.00  0.00     0.174 HD
ENDBRANCH  15  23
ENDBRANCH  12  13
ENDBRANCH  11  12
ENDBRANCH  10  11
ENDBRANCH   6  10
ENDBRANCH   1   2
BRANCH   1  26
HETATM   26  O1  UNL     1     -17.279   8.181   1.133  1.00  0.00    -0.345 OA
ATOM     27  H1  UNL     1     -16.608   7.868   1.728  1.00  0.00     0.219 HD
ENDBRANCH   1  26
BRANCH   1  28
HETATM   28  C7  UNL     1     -15.588   8.818  -0.229  1.00  0.00     0.089 C 
HETATM   29  C8  UNL     1     -15.169   8.195  -1.266  1.00  0.00     0.058 C 
HETATM   30  C9  UNL     1     -15.996   7.607  -2.335  1.00  0.00     0.065 C 
HETATM   31  O7  UNL     1     -13.728   8.075  -1.359  1.00  0.00    -0.313 OA
HETATM   32  C10 UNL     1     -15.331   7.926  -3.667  1.00  0.00     0.011 C 
HETATM   33  C11 UNL     1     -14.479   6.764  -4.138  1.00  0.00     0.042 C 
HETATM   34  C12 UNL     1     -13.331   6.538  -3.229  1.00  0.00    -0.020 A 
HETATM   35  C13 UNL     1     -12.491   5.583  -3.754  1.00  0.00     0.050 A 
HETATM   36  C20 UNL     1     -12.987   7.100  -2.020  1.00  0.00     0.106 A 
HETATM   37  C14 UNL     1     -11.341   5.175  -3.126  1.00  0.00     0.114 A 
HETATM   38  C18 UNL     1     -11.027   5.764  -1.910  1.00  0.00     0.124 A 
HETATM   39  C19 UNL     1     -11.825   6.719  -1.339  1.00  0.00     0.104 A 
HETATM   40 CL2  UNL     1     -11.465   7.479   0.183  1.00  0.00    -0.078 Cl
BRANCH  37  41
HETATM   41  O2  UNL     1     -10.467   4.219  -3.614  1.00  0.00    -0.274 OA
BRANCH  41  42
HETATM   42  C15 UNL     1     -10.948   3.048  -4.175  1.00  0.00     0.305 C 
HETATM   43  O3  UNL     1     -11.290   2.125  -3.401  1.00  0.00    -0.262 OA
BRANCH  42  44
HETATM   44  C16 UNL     1     -11.082   2.816  -5.627  1.00  0.00     0.382 C 
BRANCH  44  45
HETATM   45  N6  UNL     1     -12.430   2.861  -6.097  1.00  0.00    -0.056 N 
ATOM     46  H63 UNL     1     -12.662   3.795  -6.433  1.00  0.00     0.276 HD
ATOM     47  H62 UNL     1     -12.524   2.337  -6.968  1.00  0.00     0.276 HD
ATOM     48  H61 UNL     1     -13.117   2.545  -5.413  1.00  0.00     0.276 HD
ENDBRANCH  44  45
BRANCH  44  49
HETATM   49  C17 UNL     1     -10.386   1.551  -5.969  1.00  0.00     0.214 C 
HETATM   50  O4  UNL     1     -10.968   0.532  -6.380  1.00  0.00    -0.646 OA
HETATM   51  O5  UNL     1      -9.006   1.524  -5.815  1.00  0.00    -0.646 OA
ENDBRANCH  44  49
ENDBRANCH  42  44
ENDBRANCH  41  42
ENDBRANCH  37  41
BRANCH  38  52
HETATM   52  O6  UNL     1      -9.876   5.378  -1.247  1.00  0.00    -0.356 OA
ATOM     53  H6  UNL     1      -9.391   6.021  -0.743  1.00  0.00     0.218 HD
ENDBRANCH  38  52
ENDBRANCH   1  28
TORSDOF 14
ENDMDL
