MODEL 1
REMARK VINA RESULT: -8.503036834      0.000      0.000
REMARK  5 active torsions:
REMARK  status: ('A' for Active; 'I' for Inactive)
REMARK    1  A    between atoms: S1_2  and  C1_3 
REMARK    2  A    between atoms: S1_2  and  C13_17 
REMARK    3  A    between atoms: C1_3  and  C2_4 
REMARK    4  A    between atoms: C2_4  and  C3_5 
REMARK    5  A    between atoms: C6_10  and  C7_11 
ROOT
HETATM    1  C3  UNL     1       1.733  -4.686  13.479  1.00  0.00     0.021 A 
HETATM    2  N1  UNL     1       1.325  -5.027  14.758  1.00  0.00    -0.368 N 
ATOM      3  H1  UNL     1       1.287  -5.978  15.126  1.00  0.00     0.165 HD
HETATM    4  C4  UNL     1       0.989  -3.932  15.435  1.00  0.00     0.089 A 
HETATM    5  C5  UNL     1       1.163  -2.833  14.627  1.00  0.00     0.031 A 
HETATM    6  C6  UNL     1       1.638  -3.322  13.383  1.00  0.00    -0.002 A 
ENDROOT
BRANCH   1   7
HETATM    7  C2  UNL     1       2.162  -5.647  12.468  1.00  0.00     0.071 C 
BRANCH   7   8
HETATM    8  C1  UNL     1       3.404  -6.413  12.685  1.00  0.00     0.120 C 
BRANCH   8   9
HETATM    9  S1  UNL     1       4.882  -5.446  12.754  1.00  0.00     0.050 S 
HETATM   10  O1  UNL     1       4.810  -4.377  11.430  1.00  0.00    -0.253 OA
BRANCH   9  11
HETATM   11  C13 UNL     1       4.977  -4.453  14.170  1.00  0.00     0.031 A 
HETATM   12  C14 UNL     1       5.304  -3.127  14.007  1.00  0.00     0.021 A 
HETATM   13  C15 UNL     1       5.403  -2.247  15.069  1.00  0.00     0.001 A 
HETATM   14  C16 UNL     1       5.170  -2.691  16.347  1.00  0.00     0.000 A 
HETATM   15  C17 UNL     1       4.843  -4.013  16.516  1.00  0.00     0.001 A 
HETATM   16  C18 UNL     1       4.744  -4.897  15.461  1.00  0.00     0.021 A 
ENDBRANCH   9  11
ENDBRANCH   8   9
ENDBRANCH   7   8
ENDBRANCH   1   7
BRANCH   6  17
HETATM   17  C7  UNL     1       1.937  -2.385  12.309  1.00  0.00    -0.024 A 
HETATM   18  C8  UNL     1       3.014  -1.565  12.303  1.00  0.00     0.012 A 
HETATM   19  C9  UNL     1       3.217  -0.670  11.249  1.00  0.00     0.001 A 
HETATM   20  C10 UNL     1       2.355  -0.583  10.192  1.00  0.00     0.000 A 
HETATM   21  C11 UNL     1       1.251  -1.417  10.187  1.00  0.00     0.001 A 
HETATM   22  C12 UNL     1       1.058  -2.289  11.221  1.00  0.00     0.012 A 
ENDBRANCH   6  17
TORSDOF 5
ENDMDL
MODEL 2
REMARK VINA RESULT: -8.307670949      2.194      2.990
REMARK  5 active torsions:
REMARK  status: ('A' for Active; 'I' for Inactive)
REMARK    1  A    between atoms: S1_2  and  C1_3 
REMARK    2  A    between atoms: S1_2  and  C13_17 
REMARK    3  A    between atoms: C1_3  and  C2_4 
REMARK    4  A    between atoms: C2_4  and  C3_5 
REMARK    5  A    between atoms: C6_10  and  C7_11 
ROOT
HETATM    1  C3  UNL     1       3.089  -5.400  12.464  1.00  0.00     0.021 A 
HETATM    2  N1  UNL     1       4.130  -6.217  12.870  1.00  0.00    -0.368 N 
ATOM      3  H1  UNL     1       4.058  -6.951  13.575  1.00  0.00     0.165 HD
HETATM    4  C4  UNL     1       5.239  -5.905  12.204  1.00  0.00     0.089 A 
HETATM    5  C5  UNL     1       4.969  -4.871  11.339  1.00  0.00     0.031 A 
HETATM    6  C6  UNL     1       3.596  -4.555  11.511  1.00  0.00    -0.002 A 
ENDROOT
BRANCH   1   7
HETATM    7  C2  UNL     1       1.733  -5.467  12.999  1.00  0.00     0.071 C 
BRANCH   7   8
HETATM    8  C1  UNL     1       1.324  -4.509  14.044  1.00  0.00     0.120 C 
BRANCH   8   9
HETATM    9  S1  UNL     1       2.300  -4.542  15.518  1.00  0.00     0.050 S 
HETATM   10  O1  UNL     1       3.090  -6.051  15.528  1.00  0.00    -0.253 OA
BRANCH   9  11
HETATM   11  C13 UNL     1       3.550  -3.344  15.529  1.00  0.00     0.031 A 
HETATM   12  C14 UNL     1       3.515  -2.365  14.561  1.00  0.00     0.021 A 
HETATM   13  C15 UNL     1       4.460  -1.360  14.482  1.00  0.00     0.001 A 
HETATM   14  C16 UNL     1       5.486  -1.314  15.395  1.00  0.00     0.000 A 
HETATM   15  C17 UNL     1       5.527  -2.286  16.361  1.00  0.00     0.001 A 
HETATM   16  C18 UNL     1       4.587  -3.293  16.446  1.00  0.00     0.021 A 
ENDBRANCH   9  11
ENDBRANCH   8   9
ENDBRANCH   7   8
ENDBRANCH   1   7
BRANCH   6  17
HETATM   17  C7  UNL     1       2.996  -3.498  10.710  1.00  0.00    -0.024 A 
HETATM   18  C8  UNL     1       2.063  -2.635  11.175  1.00  0.00     0.012 A 
HETATM   19  C9  UNL     1       1.511  -1.664  10.335  1.00  0.00     0.001 A 
HETATM   20  C10 UNL     1       1.882  -1.541   9.025  1.00  0.00     0.000 A 
HETATM   21  C11 UNL     1       2.837  -2.416   8.538  1.00  0.00     0.001 A 
HETATM   22  C12 UNL     1       3.371  -3.364   9.365  1.00  0.00     0.012 A 
ENDBRANCH   6  17
TORSDOF 5
ENDMDL
MODEL 3
REMARK VINA RESULT: -8.301869736      2.195      3.105
REMARK  5 active torsions:
REMARK  status: ('A' for Active; 'I' for Inactive)
REMARK    1  A    between atoms: S1_2  and  C1_3 
REMARK    2  A    between atoms: S1_2  and  C13_17 
REMARK    3  A    between atoms: C1_3  and  C2_4 
REMARK    4  A    between atoms: C2_4  and  C3_5 
REMARK    5  A    between atoms: C6_10  and  C7_11 
ROOT
HETATM    1  C3  UNL     1       3.066  -5.428  12.426  1.00  0.00     0.021 A 
HETATM    2  N1  UNL     1       4.107  -6.237  12.848  1.00  0.00    -0.368 N 
ATOM      3  H1  UNL     1       4.026  -6.982  13.540  1.00  0.00     0.165 HD
HETATM    4  C4  UNL     1       5.229  -5.901  12.215  1.00  0.00     0.089 A 
HETATM    5  C5  UNL     1       4.966  -4.859  11.358  1.00  0.00     0.031 A 
HETATM    6  C6  UNL     1       3.586  -4.564  11.498  1.00  0.00    -0.002 A 
ENDROOT
BRANCH   1   7
HETATM    7  C2  UNL     1       1.697  -5.521  12.923  1.00  0.00     0.071 C 
BRANCH   7   8
HETATM    8  C1  UNL     1       1.240  -4.568  13.954  1.00  0.00     0.120 C 
BRANCH   8   9
HETATM    9  S1  UNL     1       2.217  -4.527  15.426  1.00  0.00     0.050 S 
HETATM   10  O1  UNL     1       3.037  -6.019  15.493  1.00  0.00    -0.253 OA
BRANCH   9  11
HETATM   11  C13 UNL     1       3.444  -3.304  15.390  1.00  0.00     0.031 A 
HETATM   12  C14 UNL     1       4.431  -3.353  16.349  1.00  0.00     0.021 A 
HETATM   13  C15 UNL     1       5.458  -2.430  16.408  1.00  0.00     0.001 A 
HETATM   14  C16 UNL     1       5.518  -1.415  15.485  1.00  0.00     0.000 A 
HETATM   15  C17 UNL     1       4.537  -1.361  14.528  1.00  0.00     0.001 A 
HETATM   16  C18 UNL     1       3.508  -2.278  14.463  1.00  0.00     0.021 A 
ENDBRANCH   9  11
ENDBRANCH   8   9
ENDBRANCH   7   8
ENDBRANCH   1   7
BRANCH   6  17
HETATM   17  C7  UNL     1       2.993  -3.503  10.696  1.00  0.00    -0.024 A 
HETATM   18  C8  UNL     1       2.052  -2.645  11.156  1.00  0.00     0.012 A 
HETATM   19  C9  UNL     1       1.508  -1.671  10.314  1.00  0.00     0.001 A 
HETATM   20  C10 UNL     1       1.893  -1.539   9.010  1.00  0.00     0.000 A 
HETATM   21  C11 UNL     1       2.856  -2.409   8.528  1.00  0.00     0.001 A 
HETATM   22  C12 UNL     1       3.383  -3.361   9.356  1.00  0.00     0.012 A 
ENDBRANCH   6  17
TORSDOF 5
ENDMDL
MODEL 4
REMARK VINA RESULT: -8.096897137      2.020      3.263
REMARK  5 active torsions:
REMARK  status: ('A' for Active; 'I' for Inactive)
REMARK    1  A    between atoms: S1_2  and  C1_3 
REMARK    2  A    between atoms: S1_2  and  C13_17 
REMARK    3  A    between atoms: C1_3  and  C2_4 
REMARK    4  A    between atoms: C2_4  and  C3_5 
REMARK    5  A    between atoms: C6_10  and  C7_11 
ROOT
HETATM    1  C3  UNL     1       2.885  -2.513  14.754  1.00  0.00     0.021 A 
HETATM    2  N1  UNL     1       1.945  -3.000  15.646  1.00  0.00    -0.368 N 
ATOM      3  H1  UNL     1       2.061  -3.032  16.659  1.00  0.00     0.165 HD
HETATM    4  C4  UNL     1       0.867  -3.418  14.987  1.00  0.00     0.089 A 
HETATM    5  C5  UNL     1       1.060  -3.223  13.640  1.00  0.00     0.031 A 
HETATM    6  C6  UNL     1       2.348  -2.646  13.500  1.00  0.00    -0.002 A 
ENDROOT
BRANCH   1   7
HETATM    7  C2  UNL     1       4.189  -1.982  15.139  1.00  0.00     0.071 C 
BRANCH   7   8
HETATM    8  C1  UNL     1       4.886  -2.563  16.303  1.00  0.00     0.120 C 
BRANCH   8   9
HETATM    9  S1  UNL     1       5.010  -4.326  16.302  1.00  0.00     0.050 S 
HETATM   10  O1  UNL     1       3.714  -4.892  17.252  1.00  0.00    -0.253 OA
BRANCH   9  11
HETATM   11  C13 UNL     1       4.795  -5.020  14.730  1.00  0.00     0.031 A 
HETATM   12  C14 UNL     1       3.668  -5.778  14.508  1.00  0.00     0.021 A 
HETATM   13  C15 UNL     1       3.397  -6.374  13.291  1.00  0.00     0.001 A 
HETATM   14  C16 UNL     1       4.273  -6.216  12.244  1.00  0.00     0.000 A 
HETATM   15  C17 UNL     1       5.398  -5.461  12.459  1.00  0.00     0.001 A 
HETATM   16  C18 UNL     1       5.675  -4.865  13.672  1.00  0.00     0.021 A 
ENDBRANCH   9  11
ENDBRANCH   8   9
ENDBRANCH   7   8
ENDBRANCH   1   7
BRANCH   6  17
HETATM   17  C7  UNL     1       2.841  -2.301  12.173  1.00  0.00    -0.024 A 
HETATM   18  C8  UNL     1       3.338  -1.085  11.845  1.00  0.00     0.012 A 
HETATM   19  C9  UNL     1       3.764  -0.822  10.540  1.00  0.00     0.001 A 
HETATM   20  C10 UNL     1       3.702  -1.763   9.551  1.00  0.00     0.000 A 
HETATM   21  C11 UNL     1       3.197  -3.010   9.874  1.00  0.00     0.001 A 
HETATM   22  C12 UNL     1       2.781  -3.261  11.152  1.00  0.00     0.012 A 
ENDBRANCH   6  17
TORSDOF 5
ENDMDL
MODEL 5
REMARK VINA RESULT: -8.049287910      1.978      3.322
REMARK  5 active torsions:
REMARK  status: ('A' for Active; 'I' for Inactive)
REMARK    1  A    between atoms: S1_2  and  C1_3 
REMARK    2  A    between atoms: S1_2  and  C13_17 
REMARK    3  A    between atoms: C1_3  and  C2_4 
REMARK    4  A    between atoms: C2_4  and  C3_5 
REMARK    5  A    between atoms: C6_10  and  C7_11 
ROOT
HETATM    1  C3  UNL     1       3.085  -2.656  14.997  1.00  0.00     0.021 A 
HETATM    2  N1  UNL     1       3.916  -2.977  16.057  1.00  0.00    -0.368 N 
ATOM      3  H1  UNL     1       3.629  -3.490  16.890  1.00  0.00     0.165 HD
HETATM    4  C4  UNL     1       5.144  -2.518  15.827  1.00  0.00     0.089 A 
HETATM    5  C5  UNL     1       5.165  -1.878  14.611  1.00  0.00     0.031 A 
HETATM    6  C6  UNL     1       3.849  -1.971  14.088  1.00  0.00    -0.002 A 
ENDROOT
BRANCH   1   7
HETATM    7  C2  UNL     1       1.669  -3.001  14.926  1.00  0.00     0.071 C 
BRANCH   7   8
HETATM    8  C1  UNL     1       1.262  -4.408  15.105  1.00  0.00     0.120 C 
BRANCH   8   9
HETATM    9  S1  UNL     1       1.410  -5.423  13.665  1.00  0.00     0.050 S 
HETATM   10  O1  UNL     1       0.346  -4.762  12.510  1.00  0.00    -0.253 OA
BRANCH   9  11
HETATM   11  C13 UNL     1       2.989  -5.365  12.955  1.00  0.00     0.031 A 
HETATM   12  C14 UNL     1       3.094  -4.940  11.650  1.00  0.00     0.021 A 
HETATM   13  C15 UNL     1       4.305  -4.853  10.989  1.00  0.00     0.001 A 
HETATM   14  C16 UNL     1       5.464  -5.199  11.641  1.00  0.00     0.000 A 
HETATM   15  C17 UNL     1       5.366  -5.623  12.941  1.00  0.00     0.001 A 
HETATM   16  C18 UNL     1       4.160  -5.714  13.606  1.00  0.00     0.021 A 
ENDBRANCH   9  11
ENDBRANCH   8   9
ENDBRANCH   7   8
ENDBRANCH   1   7
BRANCH   6  17
HETATM   17  C7  UNL     1       3.552  -1.394  12.784  1.00  0.00    -0.024 A 
HETATM   18  C8  UNL     1       4.288  -0.417  12.205  1.00  0.00     0.012 A 
HETATM   19  C9  UNL     1       3.921   0.107  10.963  1.00  0.00     0.001 A 
HETATM   20  C10 UNL     1       2.821  -0.335  10.283  1.00  0.00     0.000 A 
HETATM   21  C11 UNL     1       2.061  -1.336  10.864  1.00  0.00     0.001 A 
HETATM   22  C12 UNL     1       2.425  -1.843  12.080  1.00  0.00     0.012 A 
ENDBRANCH   6  17
TORSDOF 5
ENDMDL
