MODEL 1
REMARK VINA RESULT: -8.195376768      0.000      0.000
REMARK  5 active torsions:
REMARK  status: ('A' for Active; 'I' for Inactive)
REMARK    1  A    between atoms: C10_10  and  C12_12 
REMARK    2  A    between atoms: C12_12  and  C13_13 
REMARK    3  A    between atoms: C13_13  and  C14_14 
REMARK    4  A    between atoms: C14_14  and  N1_15 
REMARK    5  A    between atoms: N2_17  and  N3_19 
ROOT
HETATM    1  C1  UNL     1      26.228   3.174  62.033  1.00  0.00     0.028 C 
HETATM    2  C2  UNL     1      26.569   3.047  60.574  1.00  0.00     0.012 C 
HETATM    3  C3  UNL     1      27.479   4.015  60.078  1.00  0.00    -0.173 C 
HETATM    4  C4  UNL     1      28.581   4.855  59.918  1.00  0.00     0.081 C 
HETATM    5  C5  UNL     1      28.139   5.891  58.828  1.00  0.00     0.011 C 
HETATM    6  C6  UNL     1      26.733   6.328  58.896  1.00  0.00     0.001 C 
HETATM    7  C7  UNL     1      25.607   5.476  58.378  1.00  0.00     0.000 C 
HETATM    8  C8  UNL     1      24.920   4.665  59.493  1.00  0.00     0.007 C 
HETATM    9  C9  UNL     1      25.310   3.251  59.674  1.00  0.00     0.013 C 
HETATM   10  C10 UNL     1      24.246   2.259  59.855  1.00  0.00    -0.039 C 
HETATM   11  C11 UNL     1      23.237   2.728  60.880  1.00  0.00     0.015 C 
HETATM   12  C16 UNL     1      24.659   0.857  60.071  1.00  0.00     0.010 C 
HETATM   13  C17 UNL     1      26.017   0.610  60.639  1.00  0.00     0.002 C 
HETATM   14  C18 UNL     1      27.033   1.661  60.293  1.00  0.00     0.022 C 
ENDROOT
BRANCH  10  15
HETATM   15  C12 UNL     1      23.450   2.227  58.533  1.00  0.00     0.014 C 
BRANCH  15  16
HETATM   16  C13 UNL     1      24.337   1.488  57.518  1.00  0.00     0.047 C 
BRANCH  16  17
HETATM   17  C14 UNL     1      24.022   1.953  56.117  1.00  0.00     0.081 C 
BRANCH  17  18
HETATM   18  N1  UNL     1      24.651   3.162  55.787  1.00  0.00    -0.301 N 
HETATM   19  N2  UNL     1      24.303   4.202  55.237  1.00  0.00    -0.241 N 
ATOM     20  H2  UNL     1      25.032   4.910  55.152  1.00  0.00     0.208 HD
ATOM     21  H1  UNL     1      25.630   3.182  56.071  1.00  0.00     0.187 HD
BRANCH  19  22
HETATM   22  N3  UNL     1      23.069   4.565  54.714  1.00  0.00    -0.261 N 
HETATM   23  C15 UNL     1      23.021   5.266  53.624  1.00  0.00     0.216 C 
HETATM   24  N4  UNL     1      21.789   5.667  53.039  1.00  0.00    -0.065 NA
HETATM   25  N5  UNL     1      24.224   5.662  52.967  1.00  0.00    -0.065 NA
ATOM     26  H3  UNL     1      22.208   4.283  55.183  1.00  0.00     0.190 HD
ENDBRANCH  19  22
ENDBRANCH  17  18
ENDBRANCH  16  17
ENDBRANCH  15  16
ENDBRANCH  10  15
TORSDOF 5
ENDMDL
MODEL 2
REMARK VINA RESULT: -8.135750820      2.307      3.701
REMARK  5 active torsions:
REMARK  status: ('A' for Active; 'I' for Inactive)
REMARK    1  A    between atoms: C10_10  and  C12_12 
REMARK    2  A    between atoms: C12_12  and  C13_13 
REMARK    3  A    between atoms: C13_13  and  C14_14 
REMARK    4  A    between atoms: C14_14  and  N1_15 
REMARK    5  A    between atoms: N2_17  and  N3_19 
ROOT
HETATM    1  C1  UNL     1      24.374  -0.095  60.322  1.00  0.00     0.028 C 
HETATM    2  C2  UNL     1      24.913   0.990  59.432  1.00  0.00     0.012 C 
HETATM    3  C3  UNL     1      26.191   1.489  59.791  1.00  0.00    -0.173 C 
HETATM    4  C4  UNL     1      27.533   1.587  60.157  1.00  0.00     0.081 C 
HETATM    5  C5  UNL     1      27.716   3.075  60.613  1.00  0.00     0.011 C 
HETATM    6  C6  UNL     1      26.583   3.660  61.353  1.00  0.00     0.001 C 
HETATM    7  C7  UNL     1      25.342   4.146  60.657  1.00  0.00     0.000 C 
HETATM    8  C8  UNL     1      24.209   3.103  60.673  1.00  0.00     0.007 C 
HETATM    9  C9  UNL     1      24.011   2.263  59.474  1.00  0.00     0.013 C 
HETATM   10  C10 UNL     1      22.643   2.076  58.981  1.00  0.00    -0.039 C 
HETATM   11  C11 UNL     1      21.703   1.719  60.112  1.00  0.00     0.015 C 
HETATM   12  C16 UNL     1      22.465   1.202  57.802  1.00  0.00     0.010 C 
HETATM   13  C17 UNL     1      23.504   0.163  57.541  1.00  0.00     0.002 C 
HETATM   14  C18 UNL     1      24.880   0.531  58.016  1.00  0.00     0.022 C 
ENDROOT
BRANCH  10  15
HETATM   15  C12 UNL     1      22.155   3.462  58.510  1.00  0.00     0.014 C 
BRANCH  15  16
HETATM   16  C13 UNL     1      22.917   3.764  57.210  1.00  0.00     0.047 C 
BRANCH  16  17
HETATM   17  C14 UNL     1      23.759   5.006  57.377  1.00  0.00     0.081 C 
BRANCH  17  18
HETATM   18  N1  UNL     1      25.099   4.813  57.011  1.00  0.00    -0.301 N 
HETATM   19  N2  UNL     1      26.174   5.291  57.359  1.00  0.00    -0.241 N 
ATOM     20  H2  UNL     1      26.989   4.916  56.875  1.00  0.00     0.208 HD
ATOM     21  H1  UNL     1      25.206   4.108  56.282  1.00  0.00     0.187 HD
BRANCH  19  22
HETATM   22  N3  UNL     1      26.451   6.263  58.311  1.00  0.00    -0.261 N 
HETATM   23  C15 UNL     1      26.422   7.514  57.970  1.00  0.00     0.216 C 
HETATM   24  N4  UNL     1      26.695   8.555  58.899  1.00  0.00    -0.065 NA
HETATM   25  N5  UNL     1      26.108   7.890  56.630  1.00  0.00    -0.065 NA
ATOM     26  H3  UNL     1      26.676   5.996  59.269  1.00  0.00     0.190 HD
ENDBRANCH  19  22
ENDBRANCH  17  18
ENDBRANCH  16  17
ENDBRANCH  15  16
ENDBRANCH  10  15
TORSDOF 5
ENDMDL
MODEL 3
REMARK VINA RESULT: -8.131758903      1.657      2.811
REMARK  5 active torsions:
REMARK  status: ('A' for Active; 'I' for Inactive)
REMARK    1  A    between atoms: C10_10  and  C12_12 
REMARK    2  A    between atoms: C12_12  and  C13_13 
REMARK    3  A    between atoms: C13_13  and  C14_14 
REMARK    4  A    between atoms: C14_14  and  N1_15 
REMARK    5  A    between atoms: N2_17  and  N3_19 
ROOT
HETATM    1  C1  UNL     1      24.512  -0.124  60.611  1.00  0.00     0.028 C 
HETATM    2  C2  UNL     1      24.895   0.949  59.631  1.00  0.00     0.012 C 
HETATM    3  C3  UNL     1      26.184   1.509  59.817  1.00  0.00    -0.173 C 
HETATM    4  C4  UNL     1      27.555   1.671  60.016  1.00  0.00     0.081 C 
HETATM    5  C5  UNL     1      27.728   3.180  60.402  1.00  0.00     0.011 C 
HETATM    6  C6  UNL     1      26.668   3.747  61.254  1.00  0.00     0.001 C 
HETATM    7  C7  UNL     1      25.333   4.161  60.698  1.00  0.00     0.000 C 
HETATM    8  C8  UNL     1      24.255   3.077  60.883  1.00  0.00     0.007 C 
HETATM    9  C9  UNL     1      23.952   2.188  59.742  1.00  0.00     0.013 C 
HETATM   10  C10 UNL     1      22.544   1.931  59.423  1.00  0.00    -0.039 C 
HETATM   11  C11 UNL     1      21.761   1.579  60.669  1.00  0.00     0.015 C 
HETATM   12  C16 UNL     1      22.263   1.010  58.302  1.00  0.00     0.010 C 
HETATM   13  C17 UNL     1      23.307   0.002  57.949  1.00  0.00     0.002 C 
HETATM   14  C18 UNL     1      24.713   0.440  58.243  1.00  0.00     0.022 C 
ENDROOT
BRANCH  10  15
HETATM   15  C12 UNL     1      21.945   3.280  58.972  1.00  0.00     0.014 C 
BRANCH  15  16
HETATM   16  C13 UNL     1      22.224   3.389  57.464  1.00  0.00     0.047 C 
BRANCH  16  17
HETATM   17  C14 UNL     1      21.720   4.710  56.937  1.00  0.00     0.081 C 
BRANCH  17  18
HETATM   18  N1  UNL     1      22.656   5.747  57.071  1.00  0.00    -0.301 N 
HETATM   19  N2  UNL     1      23.271   6.470  56.294  1.00  0.00    -0.241 N 
ATOM     20  H2  UNL     1      23.895   7.144  56.736  1.00  0.00     0.208 HD
ATOM     21  H1  UNL     1      22.879   5.946  58.046  1.00  0.00     0.187 HD
BRANCH  19  22
HETATM   22  N3  UNL     1      23.246   6.513  54.907  1.00  0.00    -0.261 N 
HETATM   23  C15 UNL     1      23.897   5.617  54.231  1.00  0.00     0.216 C 
HETATM   24  N4  UNL     1      23.910   5.607  52.810  1.00  0.00    -0.065 NA
HETATM   25  N5  UNL     1      24.631   4.597  54.905  1.00  0.00    -0.065 NA
ATOM     26  H3  UNL     1      22.722   7.242  54.424  1.00  0.00     0.190 HD
ENDBRANCH  19  22
ENDBRANCH  17  18
ENDBRANCH  16  17
ENDBRANCH  15  16
ENDBRANCH  10  15
TORSDOF 5
ENDMDL
MODEL 4
REMARK VINA RESULT: -8.100204065      1.864      3.091
REMARK  5 active torsions:
REMARK  status: ('A' for Active; 'I' for Inactive)
REMARK    1  A    between atoms: C10_10  and  C12_12 
REMARK    2  A    between atoms: C12_12  and  C13_13 
REMARK    3  A    between atoms: C13_13  and  C14_14 
REMARK    4  A    between atoms: C14_14  and  N1_15 
REMARK    5  A    between atoms: N2_17  and  N3_19 
ROOT
HETATM    1  C1  UNL     1      24.491  -0.123  60.546  1.00  0.00     0.028 C 
HETATM    2  C2  UNL     1      24.884   0.946  59.566  1.00  0.00     0.012 C 
HETATM    3  C3  UNL     1      26.164   1.520  59.775  1.00  0.00    -0.173 C 
HETATM    4  C4  UNL     1      27.529   1.696  60.001  1.00  0.00     0.081 C 
HETATM    5  C5  UNL     1      27.681   3.209  60.380  1.00  0.00     0.011 C 
HETATM    6  C6  UNL     1      26.598   3.771  61.206  1.00  0.00     0.001 C 
HETATM    7  C7  UNL     1      25.271   4.169  60.620  1.00  0.00     0.000 C 
HETATM    8  C8  UNL     1      24.199   3.076  60.790  1.00  0.00     0.007 C 
HETATM    9  C9  UNL     1      23.927   2.177  59.649  1.00  0.00     0.013 C 
HETATM   10  C10 UNL     1      22.529   1.905  59.303  1.00  0.00    -0.039 C 
HETATM   11  C11 UNL     1      21.724   1.554  60.535  1.00  0.00     0.015 C 
HETATM   12  C16 UNL     1      22.280   0.974  58.183  1.00  0.00     0.010 C 
HETATM   13  C17 UNL     1      23.340  -0.026  57.858  1.00  0.00     0.002 C 
HETATM   14  C18 UNL     1      24.736   0.426  58.179  1.00  0.00     0.022 C 
ENDROOT
BRANCH  10  15
HETATM   15  C12 UNL     1      21.927   3.245  58.831  1.00  0.00     0.014 C 
BRANCH  15  16
HETATM   16  C13 UNL     1      21.390   2.997  57.412  1.00  0.00     0.047 C 
BRANCH  16  17
HETATM   17  C14 UNL     1      22.011   3.973  56.443  1.00  0.00     0.081 C 
BRANCH  17  18
HETATM   18  N1  UNL     1      23.050   3.409  55.687  1.00  0.00    -0.301 N 
HETATM   19  N2  UNL     1      24.273   3.391  55.766  1.00  0.00    -0.241 N 
ATOM     20  H2  UNL     1      24.746   2.872  55.027  1.00  0.00     0.208 HD
ATOM     21  H1  UNL     1      22.706   2.891  54.878  1.00  0.00     0.187 HD
BRANCH  19  22
HETATM   22  N3  UNL     1      25.114   3.969  56.708  1.00  0.00    -0.261 N 
HETATM   23  C15 UNL     1      25.393   5.233  56.622  1.00  0.00     0.216 C 
HETATM   24  N4  UNL     1      26.246   5.882  57.555  1.00  0.00    -0.065 NA
HETATM   25  N5  UNL     1      24.841   6.024  55.571  1.00  0.00    -0.065 NA
ATOM     26  H3  UNL     1      25.510   3.405  57.460  1.00  0.00     0.190 HD
ENDBRANCH  19  22
ENDBRANCH  17  18
ENDBRANCH  16  17
ENDBRANCH  15  16
ENDBRANCH  10  15
TORSDOF 5
ENDMDL
MODEL 5
REMARK VINA RESULT: -7.931000972      1.571      2.469
REMARK  5 active torsions:
REMARK  status: ('A' for Active; 'I' for Inactive)
REMARK    1  A    between atoms: C10_10  and  C12_12 
REMARK    2  A    between atoms: C12_12  and  C13_13 
REMARK    3  A    between atoms: C13_13  and  C14_14 
REMARK    4  A    between atoms: C14_14  and  N1_15 
REMARK    5  A    between atoms: N2_17  and  N3_19 
ROOT
HETATM    1  C1  UNL     1      24.732  -0.163  60.681  1.00  0.00     0.028 C 
HETATM    2  C2  UNL     1      25.033   0.939  59.705  1.00  0.00     0.012 C 
HETATM    3  C3  UNL     1      26.318   1.525  59.829  1.00  0.00    -0.173 C 
HETATM    4  C4  UNL     1      27.695   1.716  59.952  1.00  0.00     0.081 C 
HETATM    5  C5  UNL     1      27.856   3.220  60.361  1.00  0.00     0.011 C 
HETATM    6  C6  UNL     1      26.835   3.743  61.286  1.00  0.00     0.001 C 
HETATM    7  C7  UNL     1      25.461   4.137  60.817  1.00  0.00     0.000 C 
HETATM    8  C8  UNL     1      24.420   3.024  61.039  1.00  0.00     0.007 C 
HETATM    9  C9  UNL     1      24.070   2.153  59.898  1.00  0.00     0.013 C 
HETATM   10  C10 UNL     1      22.652   1.869  59.655  1.00  0.00    -0.039 C 
HETATM   11  C11 UNL     1      21.952   1.472  60.936  1.00  0.00     0.015 C 
HETATM   12  C16 UNL     1      22.328   0.966  58.532  1.00  0.00     0.010 C 
HETATM   13  C17 UNL     1      23.371  -0.009  58.096  1.00  0.00     0.002 C 
HETATM   14  C18 UNL     1      24.782   0.455  58.319  1.00  0.00     0.022 C 
ENDROOT
BRANCH  10  15
HETATM   15  C12 UNL     1      21.999   3.213  59.270  1.00  0.00     0.014 C 
BRANCH  15  16
HETATM   16  C13 UNL     1      22.187   3.361  57.752  1.00  0.00     0.047 C 
BRANCH  16  17
HETATM   17  C14 UNL     1      23.184   4.455  57.456  1.00  0.00     0.081 C 
BRANCH  17  18
HETATM   18  N1  UNL     1      23.986   4.179  56.339  1.00  0.00    -0.301 N 
HETATM   19  N2  UNL     1      23.818   4.187  55.124  1.00  0.00    -0.241 N 
ATOM     20  H2  UNL     1      24.636   3.925  54.574  1.00  0.00     0.208 HD
ATOM     21  H1  UNL     1      24.934   3.906  56.598  1.00  0.00     0.187 HD
BRANCH  19  22
HETATM   22  N3  UNL     1      22.687   4.498  54.382  1.00  0.00    -0.261 N 
HETATM   23  C15 UNL     1      22.808   5.205  53.301  1.00  0.00     0.216 C 
HETATM   24  N4  UNL     1      21.688   5.556  52.500  1.00  0.00    -0.065 NA
HETATM   25  N5  UNL     1      24.093   5.659  52.877  1.00  0.00    -0.065 NA
ATOM     26  H3  UNL     1      21.768   4.174  54.685  1.00  0.00     0.190 HD
ENDBRANCH  19  22
ENDBRANCH  17  18
ENDBRANCH  16  17
ENDBRANCH  15  16
ENDBRANCH  10  15
TORSDOF 5
ENDMDL
