MODEL 1
REMARK VINA RESULT: -6.582749582      0.000      0.000
REMARK  5 active torsions:
REMARK  status: ('A' for Active; 'I' for Inactive)
REMARK    1  A    between atoms: C2_2  and  C3_3 
REMARK    2  A    between atoms: C3_3  and  N1_4 
REMARK       I    between atoms: N1_4  and  C4_6 
REMARK       I    between atoms: C4_6  and  N3_10 
REMARK    3  A    between atoms: C5_11  and  C6_12 
REMARK    4  A    between atoms: C9_15  and  C10_16 
REMARK       I    between atoms: C10_16  and  N4_18 
REMARK    5  A    between atoms: N4_18  and  C11_20 
ROOT
HETATM    1  N1  UNL     1      25.983   4.644  58.397  1.00  0.00    -0.227 N 
ATOM      2  H1  UNL     1      26.616   3.870  58.604  1.00  0.00     0.177 HD
HETATM    3  C4  UNL     1      24.585   4.436  58.454  1.00  0.00     0.670 C 
HETATM    4  N2  UNL     1      23.850   5.258  57.793  1.00  0.00    -0.235 N 
ATOM      5  H21 UNL     1      22.842   5.108  57.835  1.00  0.00     0.174 HD
ATOM      6  H22 UNL     1      24.316   5.999  57.270  1.00  0.00     0.174 HD
HETATM    7  N3  UNL     1      23.939   3.409  59.179  1.00  0.00    -0.203 N 
HETATM    8  C5  UNL     1      23.885   3.464  60.641  1.00  0.00     0.103 C 
HETATM    9  C8  UNL     1      23.026   2.339  61.092  1.00  0.00     0.042 C 
HETATM   10  C9  UNL     1      22.485   1.669  59.846  1.00  0.00     0.109 C 
HETATM   11  C14 UNL     1      23.272   2.261  58.691  1.00  0.00     0.065 C 
HETATM   12  C15 UNL     1      22.416   2.439  57.453  1.00  0.00     0.033 C 
HETATM   13  C16 UNL     1      23.616   1.901  56.667  1.00  0.00     0.009 C 
HETATM   14  C17 UNL     1      23.996   1.192  57.965  1.00  0.00     0.011 C 
HETATM   15  C18 UNL     1      25.444   0.978  58.187  1.00  0.00     0.012 C 
ENDROOT
BRANCH   8  16
HETATM   16  C6  UNL     1      25.235   3.519  61.283  1.00  0.00     0.021 C 
HETATM   17  C7  UNL     1      25.982   2.207  61.179  1.00  0.00     0.007 C 
ENDBRANCH   8  16
BRANCH   1  18
HETATM   18  C3  UNL     1      26.537   5.956  58.045  1.00  0.00     0.137 C 
BRANCH  18  19
HETATM   19  C2  UNL     1      27.313   6.542  59.177  1.00  0.00     0.016 C 
HETATM   20  C1  UNL     1      28.099   5.531  59.946  1.00  0.00     0.006 C 
ENDBRANCH  18  19
ENDBRANCH   1  18
BRANCH  10  21
HETATM   21  C10 UNL     1      21.066   2.079  59.682  1.00  0.00     0.224 C 
HETATM   22  O1  UNL     1      20.771   3.249  60.040  1.00  0.00    -0.273 OA
HETATM   23  N4  UNL     1      20.124   1.173  59.148  1.00  0.00    -0.356 N 
ATOM     24  H4  UNL     1      20.448   0.243  58.884  1.00  0.00     0.162 HD
BRANCH  23  25
HETATM   25  C11 UNL     1      18.727   1.487  58.954  1.00  0.00     0.084 A 
HETATM   26  C12 UNL     1      18.001   0.725  57.862  1.00  0.00     0.027 A 
HETATM   27  C13 UNL     1      18.245   2.245  57.799  1.00  0.00     0.027 A 
ENDBRANCH  23  25
ENDBRANCH  10  21
TORSDOF 5
ENDMDL
MODEL 2
REMARK VINA RESULT: -6.371934807      1.430      1.615
REMARK  5 active torsions:
REMARK  status: ('A' for Active; 'I' for Inactive)
REMARK    1  A    between atoms: C2_2  and  C3_3 
REMARK    2  A    between atoms: C3_3  and  N1_4 
REMARK       I    between atoms: N1_4  and  C4_6 
REMARK       I    between atoms: C4_6  and  N3_10 
REMARK    3  A    between atoms: C5_11  and  C6_12 
REMARK    4  A    between atoms: C9_15  and  C10_16 
REMARK       I    between atoms: C10_16  and  N4_18 
REMARK    5  A    between atoms: N4_18  and  C11_20 
ROOT
HETATM    1  N1  UNL     1      26.022   4.570  58.493  1.00  0.00    -0.227 N 
ATOM      2  H1  UNL     1      26.593   3.754  58.712  1.00  0.00     0.177 HD
HETATM    3  C4  UNL     1      24.613   4.445  58.447  1.00  0.00     0.670 C 
HETATM    4  N2  UNL     1      23.975   5.333  57.770  1.00  0.00    -0.235 N 
ATOM      5  H21 UNL     1      22.959   5.242  57.737  1.00  0.00     0.174 HD
ATOM      6  H22 UNL     1      24.519   6.063  57.310  1.00  0.00     0.174 HD
HETATM    7  N3  UNL     1      23.860   3.434  59.083  1.00  0.00    -0.203 N 
HETATM    8  C5  UNL     1      23.706   3.439  60.539  1.00  0.00     0.103 C 
HETATM    9  C8  UNL     1      22.754   2.351  60.886  1.00  0.00     0.042 C 
HETATM   10  C9  UNL     1      22.265   1.761  59.579  1.00  0.00     0.109 C 
HETATM   11  C14 UNL     1      23.164   2.346  58.505  1.00  0.00     0.065 C 
HETATM   12  C15 UNL     1      22.410   2.619  57.220  1.00  0.00     0.033 C 
HETATM   13  C16 UNL     1      23.629   2.038  56.498  1.00  0.00     0.009 C 
HETATM   14  C17 UNL     1      23.875   1.262  57.789  1.00  0.00     0.011 C 
HETATM   15  C18 UNL     1      25.290   0.953  58.101  1.00  0.00     0.012 C 
ENDROOT
BRANCH   8  16
HETATM   16  C6  UNL     1      25.008   3.390  61.274  1.00  0.00     0.021 C 
HETATM   17  C7  UNL     1      25.725   2.069  61.097  1.00  0.00     0.007 C 
ENDBRANCH   8  16
BRANCH   1  18
HETATM   18  C3  UNL     1      26.673   5.859  58.233  1.00  0.00     0.137 C 
BRANCH  18  19
HETATM   19  C2  UNL     1      27.664   6.195  59.298  1.00  0.00     0.016 C 
HETATM   20  C1  UNL     1      28.187   4.997  60.021  1.00  0.00     0.006 C 
ENDBRANCH  18  19
ENDBRANCH   1  18
BRANCH  10  21
HETATM   21  C10 UNL     1      20.887   2.260  59.335  1.00  0.00     0.224 C 
HETATM   22  O1  UNL     1      20.041   1.415  58.942  1.00  0.00    -0.273 OA
HETATM   23  N4  UNL     1      20.578   3.622  59.547  1.00  0.00    -0.356 N 
ATOM     24  H4  UNL     1      21.324   4.239  59.866  1.00  0.00     0.162 HD
BRANCH  23  25
HETATM   25  C11 UNL     1      19.267   4.191  59.336  1.00  0.00     0.084 A 
HETATM   26  C12 UNL     1      19.192   5.433  58.471  1.00  0.00     0.027 A 
HETATM   27  C13 UNL     1      18.842   5.439  59.971  1.00  0.00     0.027 A 
ENDBRANCH  23  25
ENDBRANCH  10  21
TORSDOF 5
ENDMDL
MODEL 3
REMARK VINA RESULT: -6.251492248      2.496      5.800
REMARK  5 active torsions:
REMARK  status: ('A' for Active; 'I' for Inactive)
REMARK    1  A    between atoms: C2_2  and  C3_3 
REMARK    2  A    between atoms: C3_3  and  N1_4 
REMARK       I    between atoms: N1_4  and  C4_6 
REMARK       I    between atoms: C4_6  and  N3_10 
REMARK    3  A    between atoms: C5_11  and  C6_12 
REMARK    4  A    between atoms: C9_15  and  C10_16 
REMARK       I    between atoms: C10_16  and  N4_18 
REMARK    5  A    between atoms: N4_18  and  C11_20 
ROOT
HETATM    1  N1  UNL     1      20.990   2.778  55.223  1.00  0.00    -0.227 N 
ATOM      2  H1  UNL     1      20.500   1.888  55.136  1.00  0.00     0.177 HD
HETATM    3  C4  UNL     1      21.502   3.174  56.482  1.00  0.00     0.670 C 
HETATM    4  N2  UNL     1      21.713   4.431  56.653  1.00  0.00    -0.235 N 
ATOM      5  H21 UNL     1      22.081   4.715  57.560  1.00  0.00     0.174 HD
ATOM      6  H22 UNL     1      21.496   5.059  55.879  1.00  0.00     0.174 HD
HETATM    7  N3  UNL     1      21.801   2.303  57.554  1.00  0.00    -0.203 N 
HETATM    8  C5  UNL     1      22.964   1.417  57.477  1.00  0.00     0.103 C 
HETATM    9  C8  UNL     1      23.094   0.745  58.796  1.00  0.00     0.042 C 
HETATM   10  C9  UNL     1      22.029   1.336  59.698  1.00  0.00     0.109 C 
HETATM   11  C14 UNL     1      21.126   2.145  58.787  1.00  0.00     0.065 C 
HETATM   12  C15 UNL     1      20.623   3.406  59.460  1.00  0.00     0.033 C 
HETATM   13  C16 UNL     1      19.263   3.078  58.835  1.00  0.00     0.009 C 
HETATM   14  C17 UNL     1      19.740   1.628  58.851  1.00  0.00     0.011 C 
HETATM   15  C18 UNL     1      19.208   0.759  57.776  1.00  0.00     0.012 C 
ENDROOT
BRANCH   8  16
HETATM   16  C6  UNL     1      22.928   0.491  56.303  1.00  0.00     0.021 C 
HETATM   17  C7  UNL     1      22.359  -0.867  56.651  1.00  0.00     0.007 C 
ENDBRANCH   8  16
BRANCH   1  18
HETATM   18  C3  UNL     1      21.156   3.631  54.041  1.00  0.00     0.137 C 
BRANCH  18  19
HETATM   19  C2  UNL     1      20.642   2.961  52.809  1.00  0.00     0.016 C 
HETATM   20  C1  UNL     1      20.950   3.709  51.554  1.00  0.00     0.006 C 
ENDBRANCH  18  19
ENDBRANCH   1  18
BRANCH  10  21
HETATM   21  C10 UNL     1      22.691   2.281  60.634  1.00  0.00     0.224 C 
HETATM   22  O1  UNL     1      22.098   2.509  61.720  1.00  0.00    -0.273 OA
HETATM   23  N4  UNL     1      23.925   2.874  60.288  1.00  0.00    -0.356 N 
ATOM     24  H4  UNL     1      24.337   2.633  59.387  1.00  0.00     0.162 HD
BRANCH  23  25
HETATM   25  C11 UNL     1      24.638   3.801  61.136  1.00  0.00     0.084 A 
HETATM   26  C12 UNL     1      25.732   4.623  60.483  1.00  0.00     0.027 A 
HETATM   27  C13 UNL     1      26.016   3.569  61.570  1.00  0.00     0.027 A 
ENDBRANCH  23  25
ENDBRANCH  10  21
TORSDOF 5
ENDMDL
MODEL 4
REMARK VINA RESULT: -6.235090581      2.314      3.444
REMARK  5 active torsions:
REMARK  status: ('A' for Active; 'I' for Inactive)
REMARK    1  A    between atoms: C2_2  and  C3_3 
REMARK    2  A    between atoms: C3_3  and  N1_4 
REMARK       I    between atoms: N1_4  and  C4_6 
REMARK       I    between atoms: C4_6  and  N3_10 
REMARK    3  A    between atoms: C5_11  and  C6_12 
REMARK    4  A    between atoms: C9_15  and  C10_16 
REMARK       I    between atoms: C10_16  and  N4_18 
REMARK    5  A    between atoms: N4_18  and  C11_20 
ROOT
HETATM    1  N1  UNL     1      25.274   3.177  60.282  1.00  0.00    -0.227 N 
ATOM      2  H1  UNL     1      25.112   2.364  60.876  1.00  0.00     0.177 HD
HETATM    3  C4  UNL     1      24.689   3.228  58.994  1.00  0.00     0.670 C 
HETATM    4  N2  UNL     1      25.239   4.015  58.139  1.00  0.00    -0.235 N 
ATOM      5  H21 UNL     1      24.816   4.051  57.211  1.00  0.00     0.174 HD
ATOM      6  H22 UNL     1      26.057   4.545  58.437  1.00  0.00     0.174 HD
HETATM    7  N3  UNL     1      23.555   2.494  58.581  1.00  0.00    -0.203 N 
HETATM    8  C5  UNL     1      22.227   2.848  59.084  1.00  0.00     0.103 C 
HETATM    9  C8  UNL     1      21.241   2.000  58.364  1.00  0.00     0.042 C 
HETATM   10  C9  UNL     1      22.017   1.198  57.339  1.00  0.00     0.109 C 
HETATM   11  C14 UNL     1      23.481   1.403  57.683  1.00  0.00     0.065 C 
HETATM   12  C15 UNL     1      24.351   1.474  56.445  1.00  0.00     0.033 C 
HETATM   13  C16 UNL     1      25.341   0.591  57.211  1.00  0.00     0.009 C 
HETATM   14  C17 UNL     1      24.120   0.102  57.987  1.00  0.00     0.011 C 
HETATM   15  C18 UNL     1      24.365  -0.308  59.389  1.00  0.00     0.012 C 
ENDROOT
BRANCH   8  16
HETATM   16  C6  UNL     1      22.124   2.798  60.576  1.00  0.00     0.021 C 
HETATM   17  C7  UNL     1      21.769   1.419  61.088  1.00  0.00     0.007 C 
ENDBRANCH   8  16
BRANCH   1  18
HETATM   18  C3  UNL     1      26.110   4.278  60.774  1.00  0.00     0.137 C 
BRANCH  18  19
HETATM   19  C2  UNL     1      27.556   3.904  60.780  1.00  0.00     0.016 C 
HETATM   20  C1  UNL     1      28.416   4.846  60.003  1.00  0.00     0.006 C 
ENDBRANCH  18  19
ENDBRANCH   1  18
BRANCH  10  21
HETATM   21  C10 UNL     1      21.778   1.804  56.003  1.00  0.00     0.224 C 
HETATM   22  O1  UNL     1      21.820   1.025  55.014  1.00  0.00    -0.273 OA
HETATM   23  N4  UNL     1      21.519   3.187  55.887  1.00  0.00    -0.356 N 
ATOM     24  H4  UNL     1      21.504   3.745  56.741  1.00  0.00     0.162 HD
BRANCH  23  25
HETATM   25  C11 UNL     1      21.275   3.857  54.631  1.00  0.00     0.084 A 
HETATM   26  C12 UNL     1      22.351   4.807  54.143  1.00  0.00     0.027 A 
HETATM   27  C13 UNL     1      20.943   5.280  54.552  1.00  0.00     0.027 A 
ENDBRANCH  23  25
ENDBRANCH  10  21
TORSDOF 5
ENDMDL
MODEL 5
REMARK VINA RESULT: -6.223087184      2.147      3.132
REMARK  5 active torsions:
REMARK  status: ('A' for Active; 'I' for Inactive)
REMARK    1  A    between atoms: C2_2  and  C3_3 
REMARK    2  A    between atoms: C3_3  and  N1_4 
REMARK       I    between atoms: N1_4  and  C4_6 
REMARK       I    between atoms: C4_6  and  N3_10 
REMARK    3  A    between atoms: C5_11  and  C6_12 
REMARK    4  A    between atoms: C9_15  and  C10_16 
REMARK       I    between atoms: C10_16  and  N4_18 
REMARK    5  A    between atoms: N4_18  and  C11_20 
ROOT
HETATM    1  N1  UNL     1      24.359   3.231  59.918  1.00  0.00    -0.227 N 
ATOM      2  H1  UNL     1      25.148   3.156  59.275  1.00  0.00     0.177 HD
HETATM    3  C4  UNL     1      23.065   2.863  59.481  1.00  0.00     0.670 C 
HETATM    4  N2  UNL     1      22.072   3.359  60.130  1.00  0.00    -0.235 N 
ATOM      5  H21 UNL     1      21.139   3.093  59.814  1.00  0.00     0.174 HD
ATOM      6  H22 UNL     1      22.277   3.985  60.909  1.00  0.00     0.174 HD
HETATM    7  N3  UNL     1      22.781   1.996  58.402  1.00  0.00    -0.203 N 
HETATM    8  C5  UNL     1      23.034   0.560  58.528  1.00  0.00     0.103 C 
HETATM    9  C8  UNL     1      22.504  -0.091  57.301  1.00  0.00     0.042 C 
HETATM   10  C9  UNL     1      21.835   0.994  56.482  1.00  0.00     0.109 C 
HETATM   11  C14 UNL     1      22.238   2.305  57.133  1.00  0.00     0.065 C 
HETATM   12  C15 UNL     1      21.119   3.325  57.095  1.00  0.00     0.033 C 
HETATM   13  C16 UNL     1      22.198   4.347  56.724  1.00  0.00     0.009 C 
HETATM   14  C17 UNL     1      22.967   3.153  56.162  1.00  0.00     0.011 C 
HETATM   15  C18 UNL     1      24.443   3.254  56.208  1.00  0.00     0.012 C 
ENDROOT
BRANCH   8  16
HETATM   16  C6  UNL     1      24.459   0.233  58.845  1.00  0.00     0.021 C 
HETATM   17  C7  UNL     1      24.647  -0.220  60.276  1.00  0.00     0.007 C 
ENDBRANCH   8  16
BRANCH   1  18
HETATM   18  C3  UNL     1      24.584   3.720  61.283  1.00  0.00     0.137 C 
BRANCH  18  19
HETATM   19  C2  UNL     1      25.943   3.349  61.778  1.00  0.00     0.016 C 
HETATM   20  C1  UNL     1      26.989   3.367  60.713  1.00  0.00     0.006 C 
ENDBRANCH  18  19
ENDBRANCH   1  18
BRANCH  10  21
HETATM   21  C10 UNL     1      20.364   0.847  56.637  1.00  0.00     0.224 C 
HETATM   22  O1  UNL     1      19.673   0.950  55.590  1.00  0.00    -0.273 OA
HETATM   23  N4  UNL     1      19.806   0.603  57.910  1.00  0.00    -0.356 N 
ATOM     24  H4  UNL     1      20.440   0.534  58.707  1.00  0.00     0.162 HD
BRANCH  23  25
HETATM   25  C11 UNL     1      18.390   0.445  58.152  1.00  0.00     0.084 A 
HETATM   26  C12 UNL     1      17.553   1.709  58.158  1.00  0.00     0.027 A 
HETATM   27  C13 UNL     1      17.760   0.838  59.412  1.00  0.00     0.027 A 
ENDBRANCH  23  25
ENDBRANCH  10  21
TORSDOF 5
ENDMDL
