MODEL 1
REMARK VINA RESULT: -5.262119859      0.000      0.000
REMARK  3 active torsions:
REMARK  status: ('A' for Active; 'I' for Inactive)
REMARK    1  A    between atoms: C2_2  and  O2_4 
REMARK    2  A    between atoms: O2_4  and  C3_5 
REMARK    3  A    between atoms: C20_23  and  O3_24 
ROOT
HETATM    1  C3  UNL     1      -3.229 -23.915  -8.825  1.00  0.00     0.166 C 
HETATM    2  C4  UNL     1      -2.219 -23.892  -7.707  1.00  0.00     0.024 C 
HETATM    3  C5  UNL     1      -1.542 -25.156  -7.378  1.00  0.00     0.017 C 
HETATM    4  C6  UNL     1      -0.262 -24.612  -6.710  1.00  0.00    -0.040 C 
HETATM    5  C7  UNL     1      -0.555 -24.205  -5.286  1.00  0.00     0.015 C 
HETATM    6  C8  UNL     1       0.707 -25.765  -6.674  1.00  0.00     0.015 C 
HETATM    7  C9  UNL     1       0.161 -23.484  -7.572  1.00  0.00    -0.033 C 
HETATM    8  C10 UNL     1       1.265 -23.861  -8.543  1.00  0.00     0.016 C 
HETATM    9  C11 UNL     1       0.579 -22.233  -6.869  1.00  0.00     0.011 C 
HETATM   10  C12 UNL     1      -0.066 -21.078  -7.657  1.00  0.00     0.006 C 
HETATM   11  C13 UNL     1      -1.398 -21.668  -7.976  1.00  0.00    -0.004 C 
HETATM   12  C14 UNL     1      -2.152 -20.937  -9.021  1.00  0.00     0.002 C 
HETATM   13  C15 UNL     1      -1.428 -20.903 -10.372  1.00  0.00     0.007 C 
HETATM   14  C16 UNL     1      -2.558 -20.275 -11.209  1.00  0.00     0.021 C 
HETATM   15  C17 UNL     1      -3.690 -21.242 -10.829  1.00  0.00     0.093 C 
HETATM   16 CL1  UNL     1      -3.525 -22.664 -11.798  1.00  0.00    -0.124 Cl
HETATM   17  C18 UNL     1      -3.499 -21.417  -9.342  1.00  0.00     0.005 C 
HETATM   18  C19 UNL     1      -4.459 -20.343  -8.752  1.00  0.00     0.020 C 
HETATM   19  C20 UNL     1      -3.995 -22.663  -8.767  1.00  0.00     0.158 C 
HETATM   20  C21 UNL     1      -1.057 -23.082  -8.308  1.00  0.00     0.005 C 
ENDROOT
BRANCH   1  21
HETATM   21  O2  UNL     1      -4.148 -25.005  -8.640  1.00  0.00    -0.313 OA
BRANCH  21  22
HETATM   22  C2  UNL     1      -4.735 -25.691  -9.656  1.00  0.00     0.255 C 
HETATM   23  C1  UNL     1      -3.917 -26.183 -10.795  1.00  0.00     0.126 C 
HETATM   24  O1  UNL     1      -5.958 -25.907  -9.632  1.00  0.00    -0.266 OA
ENDBRANCH  21  22
ENDBRANCH   1  21
BRANCH  19  25
HETATM   25  O3  UNL     1      -5.277 -22.910  -9.316  1.00  0.00    -0.392 OA
ATOM     26  H3  UNL     1      -5.924 -22.531  -8.731  1.00  0.00     0.210 HD
ENDBRANCH  19  25
TORSDOF 3
ENDMDL
MODEL 2
REMARK VINA RESULT: -4.912480021      2.291      4.837
REMARK  3 active torsions:
REMARK  status: ('A' for Active; 'I' for Inactive)
REMARK    1  A    between atoms: C2_2  and  O2_4 
REMARK    2  A    between atoms: O2_4  and  C3_5 
REMARK    3  A    between atoms: C20_23  and  O3_24 
ROOT
HETATM    1  C3  UNL     1      -1.861 -23.674  -8.761  1.00  0.00     0.166 C 
HETATM    2  C4  UNL     1      -2.519 -24.480  -9.850  1.00  0.00     0.024 C 
HETATM    3  C5  UNL     1      -3.115 -25.772  -9.473  1.00  0.00     0.017 C 
HETATM    4  C6  UNL     1      -4.142 -25.941 -10.612  1.00  0.00    -0.040 C 
HETATM    5  C7  UNL     1      -3.453 -26.433 -11.862  1.00  0.00     0.015 C 
HETATM    6  C8  UNL     1      -5.095 -27.013 -10.153  1.00  0.00     0.015 C 
HETATM    7  C9  UNL     1      -4.755 -24.600 -10.765  1.00  0.00    -0.033 C 
HETATM    8  C10 UNL     1      -6.096 -24.479 -10.064  1.00  0.00     0.016 C 
HETATM    9  C11 UNL     1      -4.925 -24.104 -12.165  1.00  0.00     0.011 C 
HETATM   10  C12 UNL     1      -4.492 -22.628 -12.138  1.00  0.00     0.006 C 
HETATM   11  C13 UNL     1      -3.319 -22.698 -11.219  1.00  0.00    -0.004 C 
HETATM   12  C14 UNL     1      -2.864 -21.382 -10.712  1.00  0.00     0.002 C 
HETATM   13  C15 UNL     1      -3.934 -20.652  -9.892  1.00  0.00     0.007 C 
HETATM   14  C16 UNL     1      -3.064 -19.486  -9.388  1.00  0.00     0.021 C 
HETATM   15  C17 UNL     1      -1.899 -20.302  -8.807  1.00  0.00     0.093 C 
HETATM   16 CL1  UNL     1      -2.368 -20.859  -7.239  1.00  0.00    -0.124 Cl
HETATM   17  C18 UNL     1      -1.674 -21.362  -9.857  1.00  0.00     0.005 C 
HETATM   18  C19 UNL     1      -0.557 -20.730 -10.738  1.00  0.00     0.020 C 
HETATM   19  C20 UNL     1      -1.073 -22.611  -9.400  1.00  0.00     0.158 C 
HETATM   20  C21 UNL     1      -3.779 -23.658 -10.176  1.00  0.00     0.005 C 
ENDROOT
BRANCH   1  21
HETATM   21  O2  UNL     1      -0.959 -24.503  -8.008  1.00  0.00    -0.313 OA
BRANCH  21  22
HETATM   22  C2  UNL     1      -1.100 -24.780  -6.686  1.00  0.00     0.255 C 
HETATM   23  C1  UNL     1       0.076 -24.714  -5.778  1.00  0.00     0.126 C 
HETATM   24  O1  UNL     1      -2.215 -25.091  -6.233  1.00  0.00    -0.266 OA
ENDBRANCH  21  22
ENDBRANCH   1  21
BRANCH  19  25
HETATM   25  O3  UNL     1      -0.002 -22.282  -8.533  1.00  0.00    -0.392 OA
ATOM     26  H3  UNL     1       0.797 -22.630  -8.912  1.00  0.00     0.210 HD
ENDBRANCH  19  25
TORSDOF 3
ENDMDL
MODEL 3
REMARK VINA RESULT: -4.454314278      1.825      4.601
REMARK  3 active torsions:
REMARK  status: ('A' for Active; 'I' for Inactive)
REMARK    1  A    between atoms: C2_2  and  O2_4 
REMARK    2  A    between atoms: O2_4  and  C3_5 
REMARK    3  A    between atoms: C20_23  and  O3_24 
ROOT
HETATM    1  C3  UNL     1      -3.870 -23.055  -8.711  1.00  0.00     0.166 C 
HETATM    2  C4  UNL     1      -3.384 -21.713  -9.197  1.00  0.00     0.024 C 
HETATM    3  C5  UNL     1      -4.306 -20.573  -9.074  1.00  0.00     0.017 C 
HETATM    4  C6  UNL     1      -3.296 -19.407  -9.070  1.00  0.00    -0.040 C 
HETATM    5  C7  UNL     1      -2.847 -19.107 -10.480  1.00  0.00     0.015 C 
HETATM    6  C8  UNL     1      -4.051 -18.208  -8.557  1.00  0.00     0.015 C 
HETATM    7  C9  UNL     1      -2.199 -19.864  -8.184  1.00  0.00    -0.033 C 
HETATM    8  C10 UNL     1      -2.300 -19.303  -6.778  1.00  0.00     0.016 C 
HETATM    9  C11 UNL     1      -0.807 -19.622  -8.674  1.00  0.00     0.011 C 
HETATM   10  C12 UNL     1      -0.031 -20.917  -8.374  1.00  0.00     0.006 C 
HETATM   11  C13 UNL     1      -1.061 -21.943  -8.705  1.00  0.00    -0.004 C 
HETATM   12  C14 UNL     1      -0.747 -23.302  -8.207  1.00  0.00     0.002 C 
HETATM   13  C15 UNL     1      -0.632 -23.372  -6.680  1.00  0.00     0.007 C 
HETATM   14  C16 UNL     1      -0.515 -24.900  -6.539  1.00  0.00     0.021 C 
HETATM   15  C17 UNL     1      -1.751 -25.303  -7.358  1.00  0.00     0.093 C 
HETATM   16 CL1  UNL     1      -3.140 -25.141  -6.342  1.00  0.00    -0.124 Cl
HETATM   17  C18 UNL     1      -1.679 -24.380  -8.550  1.00  0.00     0.005 C 
HETATM   18  C19 UNL     1      -0.923 -25.246  -9.600  1.00  0.00     0.020 C 
HETATM   19  C20 UNL     1      -2.944 -24.078  -9.214  1.00  0.00     0.158 C 
HETATM   20  C21 UNL     1      -2.311 -21.338  -8.160  1.00  0.00     0.005 C 
ENDROOT
BRANCH   1  21
HETATM   21  O2  UNL     1      -5.174 -23.334  -9.249  1.00  0.00    -0.313 OA
BRANCH  21  22
HETATM   22  C2  UNL     1      -5.404 -23.720 -10.531  1.00  0.00     0.255 C 
HETATM   23  C1  UNL     1      -5.096 -22.798 -11.656  1.00  0.00     0.126 C 
HETATM   24  O1  UNL     1      -5.874 -24.846 -10.764  1.00  0.00    -0.266 OA
ENDBRANCH  21  22
ENDBRANCH   1  21
BRANCH  19  25
HETATM   25  O3  UNL     1      -3.663 -25.292  -9.342  1.00  0.00    -0.392 OA
ATOM     26  H3  UNL     1      -3.415 -25.856  -8.619  1.00  0.00     0.210 HD
ENDBRANCH  19  25
TORSDOF 3
ENDMDL
MODEL 4
REMARK VINA RESULT: -4.312786612      2.588      4.350
REMARK  3 active torsions:
REMARK  status: ('A' for Active; 'I' for Inactive)
REMARK    1  A    between atoms: C2_2  and  O2_4 
REMARK    2  A    between atoms: O2_4  and  C3_5 
REMARK    3  A    between atoms: C20_23  and  O3_24 
ROOT
HETATM    1  C3  UNL     1      -1.789 -20.982  -8.081  1.00  0.00     0.166 C 
HETATM    2  C4  UNL     1      -0.898 -22.186  -7.911  1.00  0.00     0.024 C 
HETATM    3  C5  UNL     1      -0.338 -22.432  -6.573  1.00  0.00     0.017 C 
HETATM    4  C6  UNL     1      -0.061 -23.947  -6.669  1.00  0.00    -0.040 C 
HETATM    5  C7  UNL     1       1.218 -24.191  -7.432  1.00  0.00     0.015 C 
HETATM    6  C8  UNL     1       0.143 -24.420  -5.253  1.00  0.00     0.015 C 
HETATM    7  C9  UNL     1      -1.263 -24.506  -7.333  1.00  0.00    -0.033 C 
HETATM    8  C10 UNL     1      -2.250 -25.117  -6.356  1.00  0.00     0.016 C 
HETATM    9  C11 UNL     1      -1.015 -25.504  -8.418  1.00  0.00     0.011 C 
HETATM   10  C12 UNL     1      -1.983 -25.131  -9.555  1.00  0.00     0.006 C 
HETATM   11  C13 UNL     1      -1.908 -23.642  -9.507  1.00  0.00    -0.004 C 
HETATM   12  C14 UNL     1      -2.983 -22.955 -10.260  1.00  0.00     0.002 C 
HETATM   13  C15 UNL     1      -4.386 -23.273  -9.730  1.00  0.00     0.007 C 
HETATM   14  C16 UNL     1      -5.176 -22.264 -10.585  1.00  0.00     0.021 C 
HETATM   15  C17 UNL     1      -4.365 -21.001 -10.258  1.00  0.00     0.093 C 
HETATM   16 CL1  UNL     1      -4.908 -20.398  -8.731  1.00  0.00    -0.124 Cl
HETATM   17  C18 UNL     1      -2.939 -21.491 -10.317  1.00  0.00     0.005 C 
HETATM   18  C19 UNL     1      -2.530 -21.158 -11.782  1.00  0.00     0.020 C 
HETATM   19  C20 UNL     1      -1.965 -20.751  -9.521  1.00  0.00     0.158 C 
HETATM   20  C21 UNL     1      -1.879 -23.364  -8.042  1.00  0.00     0.005 C 
ENDROOT
BRANCH   1  21
HETATM   21  O2  UNL     1      -1.161 -19.817  -7.518  1.00  0.00    -0.313 OA
BRANCH  21  22
HETATM   22  C2  UNL     1      -1.785 -18.623  -7.344  1.00  0.00     0.255 C 
HETATM   23  C1  UNL     1      -3.127 -18.567  -6.708  1.00  0.00     0.126 C 
HETATM   24  O1  UNL     1      -1.231 -17.575  -7.716  1.00  0.00    -0.266 OA
ENDBRANCH  21  22
ENDBRANCH   1  21
BRANCH  19  25
HETATM   25  O3  UNL     1      -2.212 -19.370  -9.713  1.00  0.00    -0.392 OA
ATOM     26  H3  UNL     1      -2.806 -19.279 -10.449  1.00  0.00     0.210 HD
ENDBRANCH  19  25
TORSDOF 3
ENDMDL
MODEL 5
REMARK VINA RESULT: -4.255613311      2.387      4.962
REMARK  3 active torsions:
REMARK  status: ('A' for Active; 'I' for Inactive)
REMARK    1  A    between atoms: C2_2  and  O2_4 
REMARK    2  A    between atoms: O2_4  and  C3_5 
REMARK    3  A    between atoms: C20_23  and  O3_24 
ROOT
HETATM    1  C3  UNL     1      -1.546 -23.453  -9.252  1.00  0.00     0.166 C 
HETATM    2  C4  UNL     1      -2.220 -24.385 -10.226  1.00  0.00     0.024 C 
HETATM    3  C5  UNL     1      -2.251 -25.816  -9.884  1.00  0.00     0.017 C 
HETATM    4  C6  UNL     1      -3.467 -26.268 -10.718  1.00  0.00    -0.040 C 
HETATM    5  C7  UNL     1      -3.066 -26.450 -12.162  1.00  0.00     0.015 C 
HETATM    6  C8  UNL     1      -3.865 -27.615 -10.172  1.00  0.00     0.015 C 
HETATM    7  C9  UNL     1      -4.478 -25.202 -10.515  1.00  0.00    -0.033 C 
HETATM    8  C10 UNL     1      -5.518 -25.564  -9.471  1.00  0.00     0.016 C 
HETATM    9  C11 UNL     1      -5.200 -24.733 -11.737  1.00  0.00     0.011 C 
HETATM   10  C12 UNL     1      -5.251 -23.198 -11.624  1.00  0.00     0.006 C 
HETATM   11  C13 UNL     1      -3.895 -22.914 -11.073  1.00  0.00    -0.004 C 
HETATM   12  C14 UNL     1      -3.735 -21.545 -10.530  1.00  0.00     0.002 C 
HETATM   13  C15 UNL     1      -4.681 -21.246  -9.361  1.00  0.00     0.007 C 
HETATM   14  C16 UNL     1      -4.100 -19.880  -8.953  1.00  0.00     0.021 C 
HETATM   15  C17 UNL     1      -2.624 -20.286  -8.823  1.00  0.00     0.093 C 
HETATM   16 CL1  UNL     1      -2.410 -21.034  -7.279  1.00  0.00    -0.124 Cl
HETATM   17  C18 UNL     1      -2.410 -21.166 -10.030  1.00  0.00     0.005 C 
HETATM   18  C19 UNL     1      -1.855 -20.163 -11.083  1.00  0.00     0.020 C 
HETATM   19  C20 UNL     1      -1.348 -22.163  -9.927  1.00  0.00     0.158 C 
HETATM   20  C21 UNL     1      -3.707 -24.016 -10.086  1.00  0.00     0.005 C 
ENDROOT
BRANCH   1  21
HETATM   21  O2  UNL     1      -0.252 -23.966  -8.889  1.00  0.00    -0.313 OA
BRANCH  21  22
HETATM   22  C2  UNL     1       0.284 -23.875  -7.645  1.00  0.00     0.255 C 
HETATM   23  C1  UNL     1      -0.387 -24.533  -6.493  1.00  0.00     0.126 C 
HETATM   24  O1  UNL     1       1.337 -23.240  -7.469  1.00  0.00    -0.266 OA
ENDBRANCH  21  22
ENDBRANCH   1  21
BRANCH  19  25
HETATM   25  O3  UNL     1      -0.222 -21.534  -9.342  1.00  0.00    -0.392 OA
ATOM     26  H3  UNL     1       0.107 -22.103  -8.656  1.00  0.00     0.210 HD
ENDBRANCH  19  25
TORSDOF 3
ENDMDL
