MODEL 1
REMARK VINA RESULT: -6.056026077      0.000      0.000
REMARK  14 active torsions:
REMARK  status: ('A' for Active; 'I' for Inactive)
REMARK    1  A    between atoms: O1_2  and  C2_3 
REMARK    2  A    between atoms: C2_3  and  C3_5 
REMARK    3  A    between atoms: C3_5  and  O3_6 
REMARK    4  A    between atoms: C3_5  and  C25_37 
REMARK    5  A    between atoms: O3_6  and  C4_7 
REMARK    6  A    between atoms: C5_8  and  O4_9 
REMARK    7  A    between atoms: O4_9  and  C6_10 
REMARK    8  A    between atoms: C8_13  and  C9_14 
REMARK    9  A    between atoms: C12_18  and  O7_19 
REMARK   10  A    between atoms: O7_19  and  C13_20 
REMARK   11  A    between atoms: C17_25  and  O9_27 
REMARK   12  A    between atoms: C19_29  and  O10_30 
REMARK   13  A    between atoms: O10_30  and  C20_31 
REMARK   14  A    between atoms: C25_37  and  O12_40 
ROOT
HETATM    1  C4  UNL     1     -49.801  -3.196 -17.770  1.00  0.00     0.161 C 
HETATM    2  C5  UNL     1     -50.695  -2.507 -16.746  1.00  0.00     0.170 C 
HETATM    3  C8  UNL     1     -51.174  -1.157 -17.059  1.00  0.00     0.056 C 
HETATM    4  C15 UNL     1     -50.973  -0.568 -18.400  1.00  0.00     0.020 C 
HETATM    5  C16 UNL     1     -50.085  -1.360 -19.265  1.00  0.00     0.034 C 
HETATM    6  C17 UNL     1     -50.038  -1.023 -20.705  1.00  0.00     0.085 C 
HETATM    7  C18 UNL     1     -51.316  -0.575 -21.324  1.00  0.00     0.049 C 
HETATM    8  C19 UNL     1     -49.449  -2.269 -21.326  1.00  0.00     0.167 C 
HETATM    9  C22 UNL     1     -49.696  -3.408 -20.318  1.00  0.00     0.048 C 
HETATM   10  C23 UNL     1     -50.364  -2.827 -19.139  1.00  0.00    -0.006 C 
HETATM   11  C24 UNL     1     -51.832  -3.183 -19.235  1.00  0.00     0.018 C 
ENDROOT
BRANCH   1  12
HETATM   12  O3  UNL     1     -48.518  -2.715 -17.599  1.00  0.00    -0.364 OA
BRANCH  12  13
HETATM   13  C3  UNL     1     -47.558  -3.634 -17.205  1.00  0.00     0.255 C 
BRANCH  13  14
HETATM   14  C2  UNL     1     -46.772  -4.114 -18.363  1.00  0.00     0.290 C 
HETATM   15  O2  UNL     1     -46.084  -3.316 -19.090  1.00  0.00    -0.262 OA
BRANCH  14  16
HETATM   16  O1  UNL     1     -46.722  -5.433 -18.743  1.00  0.00    -0.324 OA
HETATM   17  C1  UNL     1     -47.763  -6.346 -18.429  1.00  0.00     0.213 C 
ENDBRANCH  14  16
ENDBRANCH  13  14
BRANCH  13  18
HETATM   18  C25 UNL     1     -46.542  -3.030 -16.252  1.00  0.00     0.086 C 
HETATM   19  C26 UNL     1     -47.257  -2.765 -14.930  1.00  0.00     0.049 C 
HETATM   20  C27 UNL     1     -45.370  -3.923 -15.975  1.00  0.00     0.049 C 
BRANCH  18  21
HETATM   21  O12 UNL     1     -46.055  -1.796 -16.660  1.00  0.00    -0.387 OA
ATOM     22  H12 UNL     1     -45.221  -1.844 -17.111  1.00  0.00     0.210 HD
ENDBRANCH  18  21
ENDBRANCH  13  18
ENDBRANCH  12  13
ENDBRANCH   1  12
BRANCH   2  23
HETATM   23  O4  UNL     1     -51.833  -3.320 -16.461  1.00  0.00    -0.313 OA
BRANCH  23  24
HETATM   24  C6  UNL     1     -52.229  -3.611 -15.175  1.00  0.00     0.255 C 
HETATM   25  C7  UNL     1     -51.528  -3.188 -13.954  1.00  0.00     0.126 C 
HETATM   26  O5  UNL     1     -53.286  -4.301 -15.052  1.00  0.00    -0.266 OA
ENDBRANCH  23  24
ENDBRANCH   2  23
BRANCH   3  27
HETATM   27  C9  UNL     1     -50.566  -0.178 -16.085  1.00  0.00     0.009 A 
HETATM   28  C10 UNL     1     -49.338  -0.069 -15.543  1.00  0.00     0.037 A 
HETATM   29  C11 UNL     1     -49.375   1.057 -14.707  1.00  0.00     0.145 A 
HETATM   30  O6  UNL     1     -50.577   1.567 -14.774  1.00  0.00    -0.300 OA
HETATM   31  C12 UNL     1     -51.332   0.879 -15.575  1.00  0.00     0.199 A 
BRANCH  31  32
HETATM   32  O7  UNL     1     -52.658   1.185 -15.843  1.00  0.00    -0.254 OA
BRANCH  32  33
HETATM   33  C13 UNL     1     -53.015   2.235 -16.690  1.00  0.00     0.261 C 
HETATM   34  C14 UNL     1     -53.192   3.606 -16.152  1.00  0.00     0.126 C 
HETATM   35  O8  UNL     1     -53.171   1.946 -17.903  1.00  0.00    -0.265 OA
ENDBRANCH  32  33
ENDBRANCH  31  32
ENDBRANCH   3  27
BRANCH   6  36
HETATM   36  O9  UNL     1     -49.124   0.047 -20.855  1.00  0.00    -0.387 OA
ATOM     37  H9  UNL     1     -48.258  -0.333 -20.942  1.00  0.00     0.210 HD
ENDBRANCH   6  36
BRANCH   8  38
HETATM   38  O10 UNL     1     -49.970  -2.537 -22.587  1.00  0.00    -0.313 OA
BRANCH  38  39
HETATM   39  C20 UNL     1     -50.531  -3.768 -22.866  1.00  0.00     0.255 C 
HETATM   40  C21 UNL     1     -51.997  -3.955 -22.860  1.00  0.00     0.126 C 
HETATM   41  O11 UNL     1     -49.789  -4.741 -23.127  1.00  0.00    -0.266 OA
ENDBRANCH  38  39
ENDBRANCH   8  38
TORSDOF 14
ENDMDL
MODEL 2
REMARK VINA RESULT: -5.982014710      2.132      6.737
REMARK  14 active torsions:
REMARK  status: ('A' for Active; 'I' for Inactive)
REMARK    1  A    between atoms: O1_2  and  C2_3 
REMARK    2  A    between atoms: C2_3  and  C3_5 
REMARK    3  A    between atoms: C3_5  and  O3_6 
REMARK    4  A    between atoms: C3_5  and  C25_37 
REMARK    5  A    between atoms: O3_6  and  C4_7 
REMARK    6  A    between atoms: C5_8  and  O4_9 
REMARK    7  A    between atoms: O4_9  and  C6_10 
REMARK    8  A    between atoms: C8_13  and  C9_14 
REMARK    9  A    between atoms: C12_18  and  O7_19 
REMARK   10  A    between atoms: O7_19  and  C13_20 
REMARK   11  A    between atoms: C17_25  and  O9_27 
REMARK   12  A    between atoms: C19_29  and  O10_30 
REMARK   13  A    between atoms: O10_30  and  C20_31 
REMARK   14  A    between atoms: C25_37  and  O12_40 
ROOT
HETATM    1  C4  UNL     1     -48.684  -3.094 -18.302  1.00  0.00     0.161 C 
HETATM    2  C5  UNL     1     -48.028  -4.245 -19.054  1.00  0.00     0.170 C 
HETATM    3  C8  UNL     1     -48.794  -4.881 -20.130  1.00  0.00     0.056 C 
HETATM    4  C15 UNL     1     -50.067  -4.300 -20.607  1.00  0.00     0.020 C 
HETATM    5  C16 UNL     1     -50.562  -3.196 -19.769  1.00  0.00     0.034 C 
HETATM    6  C17 UNL     1     -51.662  -2.362 -20.300  1.00  0.00     0.085 C 
HETATM    7  C18 UNL     1     -51.654  -2.108 -21.767  1.00  0.00     0.049 C 
HETATM    8  C19 UNL     1     -51.579  -1.113 -19.452  1.00  0.00     0.167 C 
HETATM    9  C22 UNL     1     -50.150  -1.077 -18.880  1.00  0.00     0.048 C 
HETATM   10  C23 UNL     1     -49.448  -2.287 -19.348  1.00  0.00    -0.006 C 
HETATM   11  C24 UNL     1     -48.537  -1.867 -20.480  1.00  0.00     0.018 C 
ENDROOT
BRANCH   1  12
HETATM   12  O3  UNL     1     -49.532  -3.639 -17.358  1.00  0.00    -0.364 OA
BRANCH  12  13
HETATM   13  C3  UNL     1     -49.809  -2.858 -16.248  1.00  0.00     0.255 C 
BRANCH  13  14
HETATM   14  C2  UNL     1     -51.248  -2.904 -15.907  1.00  0.00     0.290 C 
HETATM   15  O2  UNL     1     -52.016  -3.831 -16.342  1.00  0.00    -0.262 OA
BRANCH  14  16
HETATM   16  O1  UNL     1     -51.863  -1.970 -15.110  1.00  0.00    -0.324 OA
HETATM   17  C1  UNL     1     -51.718  -0.575 -15.337  1.00  0.00     0.213 C 
ENDBRANCH  14  16
ENDBRANCH  13  14
BRANCH  13  18
HETATM   18  C25 UNL     1     -49.085  -3.348 -15.006  1.00  0.00     0.086 C 
HETATM   19  C26 UNL     1     -47.957  -4.265 -15.467  1.00  0.00     0.049 C 
HETATM   20  C27 UNL     1     -48.483  -2.247 -14.186  1.00  0.00     0.049 C 
BRANCH  18  21
HETATM   21  O12 UNL     1     -49.872  -4.125 -14.169  1.00  0.00    -0.387 OA
ATOM     22  H12 UNL     1     -49.655  -4.038 -13.248  1.00  0.00     0.210 HD
ENDBRANCH  18  21
ENDBRANCH  13  18
ENDBRANCH  12  13
ENDBRANCH   1  12
BRANCH   2  23
HETATM   23  O4  UNL     1     -46.776  -3.826 -19.598  1.00  0.00    -0.313 OA
BRANCH  23  24
HETATM   24  C6  UNL     1     -45.570  -4.243 -19.081  1.00  0.00     0.255 C 
HETATM   25  C7  UNL     1     -45.066  -5.624 -19.109  1.00  0.00     0.126 C 
HETATM   26  O5  UNL     1     -44.848  -3.350 -18.540  1.00  0.00    -0.266 OA
ENDBRANCH  23  24
ENDBRANCH   2  23
BRANCH   3  27
HETATM   27  C9  UNL     1     -49.114  -6.302 -19.736  1.00  0.00     0.009 A 
HETATM   28  C10 UNL     1     -48.793  -7.049 -18.662  1.00  0.00     0.037 A 
HETATM   29  C11 UNL     1     -49.392  -8.302 -18.861  1.00  0.00     0.145 A 
HETATM   30  O6  UNL     1     -50.029  -8.266 -20.002  1.00  0.00    -0.300 OA
HETATM   31  C12 UNL     1     -49.903  -7.106 -20.571  1.00  0.00     0.199 A 
BRANCH  31  32
HETATM   32  O7  UNL     1     -50.471  -6.776 -21.792  1.00  0.00    -0.254 OA
BRANCH  32  33
HETATM   33  C13 UNL     1     -49.815  -7.023 -22.999  1.00  0.00     0.261 C 
HETATM   34  C14 UNL     1     -50.108  -6.196 -24.195  1.00  0.00     0.126 C 
HETATM   35  O8  UNL     1     -48.985  -7.967 -23.001  1.00  0.00    -0.265 OA
ENDBRANCH  32  33
ENDBRANCH  31  32
ENDBRANCH   3  27
BRANCH   6  36
HETATM   36  O9  UNL     1     -52.874  -3.036 -20.018  1.00  0.00    -0.387 OA
ATOM     37  H9  UNL     1     -53.289  -2.577 -19.297  1.00  0.00     0.210 HD
ENDBRANCH   6  36
BRANCH   8  38
HETATM   38  O10 UNL     1     -51.911   0.037 -20.160  1.00  0.00    -0.313 OA
BRANCH  38  39
HETATM   39  C20 UNL     1     -52.925   0.864 -19.717  1.00  0.00     0.255 C 
HETATM   40  C21 UNL     1     -53.879   1.474 -20.666  1.00  0.00     0.126 C 
HETATM   41  O11 UNL     1     -53.038   1.104 -18.494  1.00  0.00    -0.266 OA
ENDBRANCH  38  39
ENDBRANCH   8  38
TORSDOF 14
ENDMDL
MODEL 3
REMARK VINA RESULT: -5.706513429      1.903      3.468
REMARK  14 active torsions:
REMARK  status: ('A' for Active; 'I' for Inactive)
REMARK    1  A    between atoms: O1_2  and  C2_3 
REMARK    2  A    between atoms: C2_3  and  C3_5 
REMARK    3  A    between atoms: C3_5  and  O3_6 
REMARK    4  A    between atoms: C3_5  and  C25_37 
REMARK    5  A    between atoms: O3_6  and  C4_7 
REMARK    6  A    between atoms: C5_8  and  O4_9 
REMARK    7  A    between atoms: O4_9  and  C6_10 
REMARK    8  A    between atoms: C8_13  and  C9_14 
REMARK    9  A    between atoms: C12_18  and  O7_19 
REMARK   10  A    between atoms: O7_19  and  C13_20 
REMARK   11  A    between atoms: C17_25  and  O9_27 
REMARK   12  A    between atoms: C19_29  and  O10_30 
REMARK   13  A    between atoms: O10_30  and  C20_31 
REMARK   14  A    between atoms: C25_37  and  O12_40 
ROOT
HETATM    1  C4  UNL     1     -50.513  -4.123 -18.861  1.00  0.00     0.161 C 
HETATM    2  C5  UNL     1     -50.386  -3.569 -17.447  1.00  0.00     0.170 C 
HETATM    3  C8  UNL     1     -49.812  -2.229 -17.289  1.00  0.00     0.056 C 
HETATM    4  C15 UNL     1     -49.559  -1.365 -18.462  1.00  0.00     0.020 C 
HETATM    5  C16 UNL     1     -49.728  -2.054 -19.751  1.00  0.00     0.034 C 
HETATM    6  C17 UNL     1     -49.779  -1.229 -20.977  1.00  0.00     0.085 C 
HETATM    7  C18 UNL     1     -50.448   0.096 -20.858  1.00  0.00     0.049 C 
HETATM    8  C19 UNL     1     -50.416  -2.159 -21.985  1.00  0.00     0.167 C 
HETATM    9  C22 UNL     1     -51.166  -3.228 -21.168  1.00  0.00     0.048 C 
HETATM   10  C23 UNL     1     -50.932  -2.948 -19.740  1.00  0.00    -0.006 C 
HETATM   11  C24 UNL     1     -52.182  -2.287 -19.201  1.00  0.00     0.018 C 
ENDROOT
BRANCH   1  12
HETATM   12  O3  UNL     1     -49.279  -4.622 -19.229  1.00  0.00    -0.364 OA
BRANCH  12  13
HETATM   13  C3  UNL     1     -49.155  -6.002 -19.272  1.00  0.00     0.255 C 
BRANCH  13  14
HETATM   14  C2  UNL     1     -49.620  -6.540 -20.568  1.00  0.00     0.290 C 
HETATM   15  O2  UNL     1     -50.329  -7.603 -20.644  1.00  0.00    -0.262 OA
BRANCH  14  16
HETATM   16  O1  UNL     1     -49.329  -5.952 -21.775  1.00  0.00    -0.324 OA
HETATM   17  C1  UNL     1     -50.017  -6.301 -22.967  1.00  0.00     0.213 C 
ENDBRANCH  14  16
ENDBRANCH  13  14
BRANCH  13  18
HETATM   18  C25 UNL     1     -47.711  -6.453 -19.143  1.00  0.00     0.086 C 
HETATM   19  C26 UNL     1     -46.828  -5.233 -19.388  1.00  0.00     0.049 C 
HETATM   20  C27 UNL     1     -47.371  -7.007 -17.792  1.00  0.00     0.049 C 
BRANCH  18  21
HETATM   21  O12 UNL     1     -47.327  -7.383 -20.098  1.00  0.00    -0.387 OA
ATOM     22  H12 UNL     1     -46.818  -7.013 -20.810  1.00  0.00     0.210 HD
ENDBRANCH  18  21
ENDBRANCH  13  18
ENDBRANCH  12  13
ENDBRANCH   1  12
BRANCH   2  23
HETATM   23  O4  UNL     1     -51.657  -3.579 -16.799  1.00  0.00    -0.313 OA
BRANCH  23  24
HETATM   24  C6  UNL     1     -51.847  -3.064 -15.537  1.00  0.00     0.255 C 
HETATM   25  C7  UNL     1     -51.390  -3.689 -14.287  1.00  0.00     0.126 C 
HETATM   26  O5  UNL     1     -52.468  -1.960 -15.464  1.00  0.00    -0.266 OA
ENDBRANCH  23  24
ENDBRANCH   2  23
BRANCH   3  27
HETATM   27  C9  UNL     1     -48.492  -2.338 -16.568  1.00  0.00     0.009 A 
HETATM   28  C10 UNL     1     -47.324  -2.933 -16.880  1.00  0.00     0.037 A 
HETATM   29  C11 UNL     1     -46.456  -2.683 -15.806  1.00  0.00     0.145 A 
HETATM   30  O6  UNL     1     -47.106  -1.973 -14.922  1.00  0.00    -0.300 OA
HETATM   31  C12 UNL     1     -48.320  -1.735 -15.314  1.00  0.00     0.199 A 
BRANCH  31  32
HETATM   32  O7  UNL     1     -49.242  -1.005 -14.580  1.00  0.00    -0.254 OA
BRANCH  32  33
HETATM   33  C13 UNL     1     -49.316   0.385 -14.666  1.00  0.00     0.261 C 
HETATM   34  C14 UNL     1     -50.330   1.031 -15.534  1.00  0.00     0.126 C 
HETATM   35  O8  UNL     1     -48.487   1.033 -13.977  1.00  0.00    -0.265 OA
ENDBRANCH  32  33
ENDBRANCH  31  32
ENDBRANCH   3  27
BRANCH   6  36
HETATM   36  O9  UNL     1     -48.443  -0.969 -21.364  1.00  0.00    -0.387 OA
ATOM     37  H9  UNL     1     -48.468  -0.625 -22.249  1.00  0.00     0.210 HD
ENDBRANCH   6  36
BRANCH   8  38
HETATM   38  O10 UNL     1     -51.236  -1.490 -22.887  1.00  0.00    -0.313 OA
BRANCH  38  39
HETATM   39  C20 UNL     1     -51.649  -2.110 -24.051  1.00  0.00     0.255 C 
HETATM   40  C21 UNL     1     -50.724  -2.960 -24.830  1.00  0.00     0.126 C 
HETATM   41  O11 UNL     1     -52.823  -1.950 -24.454  1.00  0.00    -0.266 OA
ENDBRANCH  38  39
ENDBRANCH   8  38
TORSDOF 14
ENDMDL
MODEL 4
REMARK VINA RESULT: -5.458373334      1.217      1.551
REMARK  14 active torsions:
REMARK  status: ('A' for Active; 'I' for Inactive)
REMARK    1  A    between atoms: O1_2  and  C2_3 
REMARK    2  A    between atoms: C2_3  and  C3_5 
REMARK    3  A    between atoms: C3_5  and  O3_6 
REMARK    4  A    between atoms: C3_5  and  C25_37 
REMARK    5  A    between atoms: O3_6  and  C4_7 
REMARK    6  A    between atoms: C5_8  and  O4_9 
REMARK    7  A    between atoms: O4_9  and  C6_10 
REMARK    8  A    between atoms: C8_13  and  C9_14 
REMARK    9  A    between atoms: C12_18  and  O7_19 
REMARK   10  A    between atoms: O7_19  and  C13_20 
REMARK   11  A    between atoms: C17_25  and  O9_27 
REMARK   12  A    between atoms: C19_29  and  O10_30 
REMARK   13  A    between atoms: O10_30  and  C20_31 
REMARK   14  A    between atoms: C25_37  and  O12_40 
ROOT
HETATM    1  C4  UNL     1     -49.783  -3.115 -17.685  1.00  0.00     0.161 C 
HETATM    2  C5  UNL     1     -50.703  -2.478 -16.651  1.00  0.00     0.170 C 
HETATM    3  C8  UNL     1     -51.232  -1.142 -16.940  1.00  0.00     0.056 C 
HETATM    4  C15 UNL     1     -51.051  -0.522 -18.270  1.00  0.00     0.020 C 
HETATM    5  C16 UNL     1     -50.133  -1.265 -19.148  1.00  0.00     0.034 C 
HETATM    6  C17 UNL     1     -50.097  -0.900 -20.581  1.00  0.00     0.085 C 
HETATM    7  C18 UNL     1     -51.390  -0.490 -21.194  1.00  0.00     0.049 C 
HETATM    8  C19 UNL     1     -49.461  -2.113 -21.223  1.00  0.00     0.167 C 
HETATM    9  C22 UNL     1     -49.666  -3.278 -20.236  1.00  0.00     0.048 C 
HETATM   10  C23 UNL     1     -50.357  -2.743 -19.048  1.00  0.00    -0.006 C 
HETATM   11  C24 UNL     1     -51.810  -3.152 -19.153  1.00  0.00     0.018 C 
ENDROOT
BRANCH   1  12
HETATM   12  O3  UNL     1     -48.519  -2.589 -17.503  1.00  0.00    -0.364 OA
BRANCH  12  13
HETATM   13  C3  UNL     1     -47.550  -3.455 -17.020  1.00  0.00     0.255 C 
BRANCH  13  14
HETATM   14  C2  UNL     1     -46.734  -4.010 -18.122  1.00  0.00     0.290 C 
HETATM   15  O2  UNL     1     -46.133  -3.257 -18.965  1.00  0.00    -0.262 OA
BRANCH  14  16
HETATM   16  O1  UNL     1     -46.560  -5.358 -18.324  1.00  0.00    -0.324 OA
HETATM   17  C1  UNL     1     -45.585  -5.864 -19.224  1.00  0.00     0.213 C 
ENDBRANCH  14  16
ENDBRANCH  13  14
BRANCH  13  18
HETATM   18  C25 UNL     1     -46.563  -2.757 -16.101  1.00  0.00     0.086 C 
HETATM   19  C26 UNL     1     -47.358  -2.173 -14.936  1.00  0.00     0.049 C 
HETATM   20  C27 UNL     1     -45.517  -3.671 -15.536  1.00  0.00     0.049 C 
BRANCH  18  21
HETATM   21  O12 UNL     1     -45.920  -1.676 -16.686  1.00  0.00    -0.387 OA
ATOM     22  H12 UNL     1     -45.630  -1.020 -16.063  1.00  0.00     0.210 HD
ENDBRANCH  18  21
ENDBRANCH  13  18
ENDBRANCH  12  13
ENDBRANCH   1  12
BRANCH   2  23
HETATM   23  O4  UNL     1     -51.810  -3.338 -16.382  1.00  0.00    -0.313 OA
BRANCH  23  24
HETATM   24  C6  UNL     1     -52.165  -3.707 -15.104  1.00  0.00     0.255 C 
HETATM   25  C7  UNL     1     -51.295  -3.618 -13.922  1.00  0.00     0.126 C 
HETATM   26  O5  UNL     1     -53.341  -4.159 -14.952  1.00  0.00    -0.266 OA
ENDBRANCH  23  24
ENDBRANCH   2  23
BRANCH   3  27
HETATM   27  C9  UNL     1     -50.662  -0.158 -15.949  1.00  0.00     0.009 A 
HETATM   28  C10 UNL     1     -49.500   0.523 -15.898  1.00  0.00     0.037 A 
HETATM   29  C11 UNL     1     -49.546   1.292 -14.725  1.00  0.00     0.145 A 
HETATM   30  O6  UNL     1     -50.689   1.058 -14.136  1.00  0.00    -0.300 OA
HETATM   31  C12 UNL     1     -51.397   0.205 -14.811  1.00  0.00     0.199 A 
BRANCH  31  32
HETATM   32  O7  UNL     1     -52.655  -0.234 -14.427  1.00  0.00    -0.254 OA
BRANCH  32  33
HETATM   33  C13 UNL     1     -53.049  -0.258 -13.089  1.00  0.00     0.261 C 
HETATM   34  C14 UNL     1     -53.184   1.005 -12.323  1.00  0.00     0.126 C 
HETATM   35  O8  UNL     1     -53.274  -1.391 -12.593  1.00  0.00    -0.265 OA
ENDBRANCH  32  33
ENDBRANCH  31  32
ENDBRANCH   3  27
BRANCH   6  36
HETATM   36  O9  UNL     1     -49.224   0.206 -20.710  1.00  0.00    -0.387 OA
ATOM     37  H9  UNL     1     -48.890   0.198 -21.600  1.00  0.00     0.210 HD
ENDBRANCH   6  36
BRANCH   8  38
HETATM   38  O10 UNL     1     -49.971  -2.377 -22.489  1.00  0.00    -0.313 OA
BRANCH  38  39
HETATM   39  C20 UNL     1     -50.535  -3.605 -22.775  1.00  0.00     0.255 C 
HETATM   40  C21 UNL     1     -52.001  -3.786 -22.780  1.00  0.00     0.126 C 
HETATM   41  O11 UNL     1     -49.795  -4.581 -23.033  1.00  0.00    -0.266 OA
ENDBRANCH  38  39
ENDBRANCH   8  38
TORSDOF 14
ENDMDL
MODEL 5
REMARK VINA RESULT: -5.445156757      2.207      5.609
REMARK  14 active torsions:
REMARK  status: ('A' for Active; 'I' for Inactive)
REMARK    1  A    between atoms: O1_2  and  C2_3 
REMARK    2  A    between atoms: C2_3  and  C3_5 
REMARK    3  A    between atoms: C3_5  and  O3_6 
REMARK    4  A    between atoms: C3_5  and  C25_37 
REMARK    5  A    between atoms: O3_6  and  C4_7 
REMARK    6  A    between atoms: C5_8  and  O4_9 
REMARK    7  A    between atoms: O4_9  and  C6_10 
REMARK    8  A    between atoms: C8_13  and  C9_14 
REMARK    9  A    between atoms: C12_18  and  O7_19 
REMARK   10  A    between atoms: O7_19  and  C13_20 
REMARK   11  A    between atoms: C17_25  and  O9_27 
REMARK   12  A    between atoms: C19_29  and  O10_30 
REMARK   13  A    between atoms: O10_30  and  C20_31 
REMARK   14  A    between atoms: C25_37  and  O12_40 
ROOT
HETATM    1  C4  UNL     1     -50.094  -0.766 -17.029  1.00  0.00     0.161 C 
HETATM    2  C5  UNL     1     -49.784  -1.765 -15.920  1.00  0.00     0.170 C 
HETATM    3  C8  UNL     1     -50.257  -3.142 -16.091  1.00  0.00     0.056 C 
HETATM    4  C15 UNL     1     -50.829  -3.598 -17.376  1.00  0.00     0.020 C 
HETATM    5  C16 UNL     1     -51.065  -2.508 -18.337  1.00  0.00     0.034 C 
HETATM    6  C17 UNL     1     -51.363  -2.873 -19.739  1.00  0.00     0.085 C 
HETATM    7  C18 UNL     1     -50.662  -4.070 -20.277  1.00  0.00     0.049 C 
HETATM    8  C19 UNL     1     -51.074  -1.593 -20.491  1.00  0.00     0.167 C 
HETATM    9  C22 UNL     1     -50.138  -0.767 -19.588  1.00  0.00     0.048 C 
HETATM   10  C23 UNL     1     -49.932  -1.527 -18.341  1.00  0.00    -0.006 C 
HETATM   11  C24 UNL     1     -48.564  -2.170 -18.429  1.00  0.00     0.018 C 
ENDROOT
BRANCH   1  12
HETATM   12  O3  UNL     1     -51.392  -0.330 -16.849  1.00  0.00    -0.364 OA
BRANCH  12  13
HETATM   13  C3  UNL     1     -51.576   1.040 -16.736  1.00  0.00     0.255 C 
BRANCH  13  14
HETATM   14  C2  UNL     1     -52.631   1.515 -17.656  1.00  0.00     0.290 C 
HETATM   15  O2  UNL     1     -53.136   2.687 -17.559  1.00  0.00    -0.262 OA
BRANCH  14  16
HETATM   16  O1  UNL     1     -53.147   0.746 -18.671  1.00  0.00    -0.324 OA
HETATM   17  C1  UNL     1     -53.427   1.285 -19.955  1.00  0.00     0.213 C 
ENDBRANCH  14  16
ENDBRANCH  13  14
BRANCH  13  18
HETATM   18  C25 UNL     1     -52.041   1.443 -15.348  1.00  0.00     0.086 C 
HETATM   19  C26 UNL     1     -52.594   0.193 -14.669  1.00  0.00     0.049 C 
HETATM   20  C27 UNL     1     -50.947   1.995 -14.483  1.00  0.00     0.049 C 
BRANCH  18  21
HETATM   21  O12 UNL     1     -53.088   2.354 -15.350  1.00  0.00    -0.387 OA
ATOM     22  H12 UNL     1     -53.794   2.125 -15.942  1.00  0.00     0.210 HD
ENDBRANCH  18  21
ENDBRANCH  13  18
ENDBRANCH  12  13
ENDBRANCH   1  12
BRANCH   2  23
HETATM   23  O4  UNL     1     -48.378  -1.811 -15.681  1.00  0.00    -0.313 OA
BRANCH  23  24
HETATM   24  C6  UNL     1     -47.781  -1.125 -14.647  1.00  0.00     0.255 C 
HETATM   25  C7  UNL     1     -46.508  -1.490 -14.009  1.00  0.00     0.126 C 
HETATM   26  O5  UNL     1     -48.393  -0.098 -14.223  1.00  0.00    -0.266 OA
ENDBRANCH  23  24
ENDBRANCH   2  23
BRANCH   3  27
HETATM   27  C9  UNL     1     -51.305  -3.438 -15.048  1.00  0.00     0.009 A 
HETATM   28  C10 UNL     1     -52.648  -3.520 -15.096  1.00  0.00     0.037 A 
HETATM   29  C11 UNL     1     -53.071  -3.835 -13.796  1.00  0.00     0.145 A 
HETATM   30  O6  UNL     1     -52.009  -3.929 -13.041  1.00  0.00    -0.300 OA
HETATM   31  C12 UNL     1     -50.928  -3.705 -13.724  1.00  0.00     0.199 A 
BRANCH  31  32
HETATM   32  O7  UNL     1     -49.650  -3.736 -13.186  1.00  0.00    -0.254 OA
BRANCH  32  33
HETATM   33  C13 UNL     1     -49.303  -2.974 -12.070  1.00  0.00     0.261 C 
HETATM   34  C14 UNL     1     -50.081  -1.760 -11.719  1.00  0.00     0.126 C 
HETATM   35  O8  UNL     1     -48.314  -3.374 -11.405  1.00  0.00    -0.265 OA
ENDBRANCH  32  33
ENDBRANCH  31  32
ENDBRANCH   3  27
BRANCH   6  36
HETATM   36  O9  UNL     1     -52.748  -3.153 -19.813  1.00  0.00    -0.387 OA
ATOM     37  H9  UNL     1     -52.989  -3.137 -20.732  1.00  0.00     0.210 HD
ENDBRANCH   6  36
BRANCH   8  38
HETATM   38  O10 UNL     1     -50.546  -1.823 -21.756  1.00  0.00    -0.313 OA
BRANCH  38  39
HETATM   39  C20 UNL     1     -51.348  -1.731 -22.877  1.00  0.00     0.255 C 
HETATM   40  C21 UNL     1     -52.423  -0.721 -22.963  1.00  0.00     0.126 C 
HETATM   41  O11 UNL     1     -51.164  -2.515 -23.835  1.00  0.00    -0.266 OA
ENDBRANCH  38  39
ENDBRANCH   8  38
TORSDOF 14
ENDMDL
