MODEL 1
REMARK VINA RESULT: -7.267679029      0.000      0.000
REMARK  6 active torsions:
REMARK  status: ('A' for Active; 'I' for Inactive)
REMARK    1  A    between atoms: C3_3  and  O1_5 
REMARK    2  A    between atoms: C3_3  and  C5_7 
REMARK    3  A    between atoms: C19_24  and  O4_25 
REMARK    4  A    between atoms: N1_33  and  C26_34 
REMARK    5  A    between atoms: C26_34  and  C27_35 
REMARK    6  A    between atoms: C30_41  and  O5_42 
ROOT
HETATM    1  C1  UNL     1      89.270 -36.972 -48.537  1.00  0.00     0.015 C 
HETATM    2  C2  UNL     1      88.927 -37.791 -49.335  1.00  0.00    -0.075 C 
HETATM    3  C3  UNL     1      88.521 -38.739 -50.340  1.00  0.00     0.142 C 
HETATM    4  C4  UNL     1      89.632 -39.700 -50.699  1.00  0.00     0.065 C 
ENDROOT
BRANCH   3   5
HETATM    5  O1  UNL     1      88.384 -37.985 -51.547  1.00  0.00    -0.374 OA
ATOM      6  H1  UNL     1      87.614 -37.442 -51.424  1.00  0.00     0.212 HD
ENDBRANCH   3   5
BRANCH   3   7
HETATM    7  C5  UNL     1      87.194 -39.442 -50.115  1.00  0.00    -0.011 C 
HETATM    8  C6  UNL     1      87.346 -40.229 -48.875  1.00  0.00     0.005 C 
HETATM    9  C7  UNL     1      87.054 -40.658 -47.734  1.00  0.00    -0.018 C 
HETATM   10  C8  UNL     1      86.019 -40.547 -46.648  1.00  0.00     0.035 C 
HETATM   11  C9  UNL     1      85.388 -41.910 -46.450  1.00  0.00     0.019 C 
HETATM   12  C10 UNL     1      85.027 -39.459 -46.767  1.00  0.00    -0.046 C 
HETATM   13  C11 UNL     1      85.349 -38.172 -46.000  1.00  0.00     0.037 C 
HETATM   14  C25 UNL     1      83.571 -39.807 -46.641  1.00  0.00     0.036 C 
HETATM   15  C12 UNL     1      85.502 -37.004 -47.014  1.00  0.00     0.007 C 
HETATM   16  C13 UNL     1      84.178 -36.701 -47.666  1.00  0.00     0.034 C 
HETATM   17  C14 UNL     1      83.604 -37.535 -48.669  1.00  0.00     0.145 C 
HETATM   18  O2  UNL     1      84.139 -37.158 -49.965  1.00  0.00    -0.314 OA
HETATM   19  C17 UNL     1      82.112 -37.794 -48.582  1.00  0.00     0.110 C 
HETATM   20  C15 UNL     1      85.430 -37.545 -50.412  1.00  0.00     0.278 C 
HETATM   21  O3  UNL     1      86.132 -36.516 -50.624  1.00  0.00    -0.264 OA
HETATM   22  C16 UNL     1      85.976 -38.862 -50.637  1.00  0.00     0.190 C 
HETATM   23 BR1  UNL     1      85.877 -39.081 -52.628  1.00  0.00    -0.075 Br
HETATM   24  C18 UNL     1      81.314 -36.808 -47.806  1.00  0.00     0.048 C 
HETATM   25  C31 UNL     1      81.755 -39.205 -48.251  1.00  0.00     0.231 C 
HETATM   26  C19 UNL     1      80.521 -37.241 -46.637  1.00  0.00     0.123 C 
HETATM   27  C20 UNL     1      81.141 -37.428 -45.315  1.00  0.00     0.065 C 
HETATM   28  C21 UNL     1      80.928 -38.769 -44.680  1.00  0.00    -0.083 C 
HETATM   29  C22 UNL     1      79.828 -38.925 -43.959  1.00  0.00     0.014 C 
HETATM   30  C23 UNL     1      81.845 -39.891 -44.790  1.00  0.00     0.062 C 
HETATM   31  C24 UNL     1      83.179 -39.661 -45.341  1.00  0.00     0.007 C 
HETATM   32  N1  UNL     1      82.657 -40.213 -47.667  1.00  0.00    -0.316 N 
HETATM   33  O6  UNL     1      80.568 -39.542 -48.505  1.00  0.00    -0.273 OA
BRANCH  26  34
HETATM   34  O4  UNL     1      79.581 -36.166 -46.442  1.00  0.00    -0.395 OA
ATOM     35  H4  UNL     1      78.740 -36.605 -46.395  1.00  0.00     0.210 HD
ENDBRANCH  26  34
BRANCH  32  36
HETATM   36  C26 UNL     1      82.391 -41.540 -48.229  1.00  0.00     0.168 C 
BRANCH  36  37
HETATM   37  C27 UNL     1      81.928 -42.603 -47.329  1.00  0.00     0.232 C 
HETATM   38  N2  UNL     1      82.544 -43.876 -47.488  1.00  0.00    -0.067 N 
HETATM   39  C28 UNL     1      81.671 -44.749 -46.711  1.00  0.00     0.235 C 
ATOM     40  H22 UNL     1      82.689 -44.165 -48.455  1.00  0.00     0.277 HD
ATOM     41  H21 UNL     1      83.529 -43.912 -47.224  1.00  0.00     0.277 HD
HETATM   42  C29 UNL     1      80.288 -44.275 -47.059  1.00  0.00     0.061 C 
HETATM   43  C30 UNL     1      80.456 -42.881 -47.560  1.00  0.00     0.152 C 
BRANCH  43  44
HETATM   44  O5  UNL     1      79.739 -41.940 -46.847  1.00  0.00    -0.393 OA
ATOM     45  H5  UNL     1      79.920 -41.091 -47.232  1.00  0.00     0.210 HD
ENDBRANCH  43  44
ENDBRANCH  36  37
ENDBRANCH  32  36
ENDBRANCH   3   7
TORSDOF 6
ENDMDL
MODEL 2
REMARK VINA RESULT: -6.984915952      3.002      7.641
REMARK  6 active torsions:
REMARK  status: ('A' for Active; 'I' for Inactive)
REMARK    1  A    between atoms: C3_3  and  O1_5 
REMARK    2  A    between atoms: C3_3  and  C5_7 
REMARK    3  A    between atoms: C19_24  and  O4_25 
REMARK    4  A    between atoms: N1_33  and  C26_34 
REMARK    5  A    between atoms: C26_34  and  C27_35 
REMARK    6  A    between atoms: C30_41  and  O5_42 
ROOT
HETATM    1  C1  UNL     1      80.384 -47.507 -45.085  1.00  0.00     0.015 C 
HETATM    2  C2  UNL     1      80.191 -46.331 -45.158  1.00  0.00    -0.075 C 
HETATM    3  C3  UNL     1      79.928 -44.922 -45.294  1.00  0.00     0.142 C 
HETATM    4  C4  UNL     1      78.806 -44.461 -44.392  1.00  0.00     0.065 C 
ENDROOT
BRANCH   3   5
HETATM    5  O1  UNL     1      79.346 -44.763 -46.590  1.00  0.00    -0.374 OA
ATOM      6  H1  UNL     1      79.440 -43.841 -46.802  1.00  0.00     0.212 HD
ENDBRANCH   3   5
BRANCH   3   7
HETATM    7  C5  UNL     1      81.132 -43.997 -45.243  1.00  0.00    -0.011 C 
HETATM    8  C6  UNL     1      82.245 -44.727 -45.881  1.00  0.00     0.005 C 
HETATM    9  C7  UNL     1      83.210 -44.916 -46.659  1.00  0.00    -0.018 C 
HETATM   10  C8  UNL     1      84.021 -44.247 -47.734  1.00  0.00     0.035 C 
HETATM   11  C9  UNL     1      85.456 -44.151 -47.258  1.00  0.00     0.019 C 
HETATM   12  C10 UNL     1      83.504 -42.976 -48.282  1.00  0.00    -0.046 C 
HETATM   13  C11 UNL     1      82.681 -43.088 -49.569  1.00  0.00     0.037 C 
HETATM   14  C25 UNL     1      84.432 -41.797 -48.340  1.00  0.00     0.036 C 
HETATM   15  C12 UNL     1      81.237 -42.580 -49.293  1.00  0.00     0.007 C 
HETATM   16  C13 UNL     1      81.249 -41.100 -49.011  1.00  0.00     0.034 C 
HETATM   17  C14 UNL     1      81.709 -40.554 -47.778  1.00  0.00     0.145 C 
HETATM   18  O2  UNL     1      80.619 -40.559 -46.819  1.00  0.00    -0.314 OA
HETATM   19  C17 UNL     1      82.563 -39.303 -47.852  1.00  0.00     0.110 C 
HETATM   20  C15 UNL     1      80.204 -41.725 -46.123  1.00  0.00     0.278 C 
HETATM   21  O3  UNL     1      79.001 -41.985 -46.410  1.00  0.00    -0.264 OA
HETATM   22  C16 UNL     1      80.935 -42.564 -45.205  1.00  0.00     0.190 C 
HETATM   23 BR1  UNL     1      80.274 -41.981 -43.403  1.00  0.00    -0.075 Br
HETATM   24  C18 UNL     1      82.443 -38.492 -49.092  1.00  0.00     0.048 C 
HETATM   25  C31 UNL     1      83.984 -39.507 -47.439  1.00  0.00     0.231 C 
HETATM   26  C19 UNL     1      83.627 -38.234 -49.937  1.00  0.00     0.123 C 
HETATM   27  C20 UNL     1      84.105 -39.227 -50.913  1.00  0.00     0.065 C 
HETATM   28  C21 UNL     1      85.544 -39.627 -50.782  1.00  0.00    -0.083 C 
HETATM   29  C22 UNL     1      86.436 -38.880 -51.416  1.00  0.00     0.014 C 
HETATM   30  C23 UNL     1      86.019 -40.776 -50.029  1.00  0.00     0.062 C 
HETATM   31  C24 UNL     1      85.047 -41.761 -49.559  1.00  0.00     0.007 C 
HETATM   32  N1  UNL     1      84.679 -40.803 -47.338  1.00  0.00    -0.316 N 
HETATM   33  O6  UNL     1      84.626 -38.462 -47.155  1.00  0.00    -0.273 OA
BRANCH  26  34
HETATM   34  O4  UNL     1      83.237 -37.104 -50.741  1.00  0.00    -0.395 OA
ATOM     35  H4  UNL     1      84.020 -36.897 -51.238  1.00  0.00     0.210 HD
ENDBRANCH  26  34
BRANCH  32  36
HETATM   36  C26 UNL     1      85.601 -40.813 -46.199  1.00  0.00     0.168 C 
BRANCH  36  37
HETATM   37  C27 UNL     1      87.039 -40.944 -46.463  1.00  0.00     0.232 C 
HETATM   38  N2  UNL     1      87.760 -41.817 -45.600  1.00  0.00    -0.067 N 
HETATM   39  C28 UNL     1      89.148 -41.483 -45.902  1.00  0.00     0.235 C 
ATOM     40  H22 UNL     1      87.508 -41.750 -44.614  1.00  0.00     0.277 HD
ATOM     41  H21 UNL     1      87.526 -42.805 -45.697  1.00  0.00     0.277 HD
HETATM   42  C29 UNL     1      89.143 -39.984 -46.006  1.00  0.00     0.061 C 
HETATM   43  C30 UNL     1      87.728 -39.606 -46.285  1.00  0.00     0.152 C 
BRANCH  43  44
HETATM   44  O5  UNL     1      87.560 -38.893 -47.456  1.00  0.00    -0.393 OA
ATOM     45  H5  UNL     1      88.148 -38.147 -47.423  1.00  0.00     0.210 HD
ENDBRANCH  43  44
ENDBRANCH  36  37
ENDBRANCH  32  36
ENDBRANCH   3   7
TORSDOF 6
ENDMDL
MODEL 3
REMARK VINA RESULT: -6.890774030      2.914      7.422
REMARK  6 active torsions:
REMARK  status: ('A' for Active; 'I' for Inactive)
REMARK    1  A    between atoms: C3_3  and  O1_5 
REMARK    2  A    between atoms: C3_3  and  C5_7 
REMARK    3  A    between atoms: C19_24  and  O4_25 
REMARK    4  A    between atoms: N1_33  and  C26_34 
REMARK    5  A    between atoms: C26_34  and  C27_35 
REMARK    6  A    between atoms: C30_41  and  O5_42 
ROOT
HETATM    1  C1  UNL     1      80.622 -47.264 -45.434  1.00  0.00     0.015 C 
HETATM    2  C2  UNL     1      80.379 -46.095 -45.460  1.00  0.00    -0.075 C 
HETATM    3  C3  UNL     1      80.061 -44.694 -45.544  1.00  0.00     0.142 C 
HETATM    4  C4  UNL     1      78.848 -44.334 -44.717  1.00  0.00     0.065 C 
ENDROOT
BRANCH   3   5
HETATM    5  O1  UNL     1      79.579 -44.488 -46.875  1.00  0.00    -0.374 OA
ATOM      6  H1  UNL     1      80.019 -43.706 -47.188  1.00  0.00     0.212 HD
ENDBRANCH   3   5
BRANCH   3   7
HETATM    7  C5  UNL     1      81.211 -43.722 -45.344  1.00  0.00    -0.011 C 
HETATM    8  C6  UNL     1      82.378 -44.312 -46.028  1.00  0.00     0.005 C 
HETATM    9  C7  UNL     1      83.372 -44.357 -46.791  1.00  0.00    -0.018 C 
HETATM   10  C8  UNL     1      84.174 -43.522 -47.752  1.00  0.00     0.035 C 
HETATM   11  C9  UNL     1      85.588 -43.412 -47.221  1.00  0.00     0.019 C 
HETATM   12  C10 UNL     1      83.603 -42.222 -48.161  1.00  0.00    -0.046 C 
HETATM   13  C11 UNL     1      82.821 -42.219 -49.478  1.00  0.00     0.037 C 
HETATM   14  C25 UNL     1      84.467 -40.999 -48.048  1.00  0.00     0.036 C 
HETATM   15  C12 UNL     1      81.345 -41.822 -49.190  1.00  0.00     0.007 C 
HETATM   16  C13 UNL     1      81.269 -40.389 -48.734  1.00  0.00     0.034 C 
HETATM   17  C14 UNL     1      81.666 -39.973 -47.430  1.00  0.00     0.145 C 
HETATM   18  O2  UNL     1      80.553 -40.149 -46.515  1.00  0.00    -0.314 OA
HETATM   19  C17 UNL     1      82.453 -38.681 -47.326  1.00  0.00     0.110 C 
HETATM   20  C15 UNL     1      80.185 -41.410 -45.976  1.00  0.00     0.278 C 
HETATM   21  O3  UNL     1      79.005 -41.694 -46.331  1.00  0.00    -0.264 OA
HETATM   22  C16 UNL     1      80.936 -42.316 -45.142  1.00  0.00     0.190 C 
HETATM   23 BR1  UNL     1      80.197 -41.989 -43.305  1.00  0.00    -0.075 Br
HETATM   24  C18 UNL     1      82.321 -37.733 -48.464  1.00  0.00     0.048 C 
HETATM   25  C31 UNL     1      83.871 -38.861 -46.895  1.00  0.00     0.231 C 
HETATM   26  C19 UNL     1      83.511 -37.315 -49.233  1.00  0.00     0.123 C 
HETATM   27  C20 UNL     1      84.068 -38.157 -50.305  1.00  0.00     0.065 C 
HETATM   28  C21 UNL     1      85.523 -38.496 -50.176  1.00  0.00    -0.083 C 
HETATM   29  C22 UNL     1      86.389 -37.633 -50.686  1.00  0.00     0.014 C 
HETATM   30  C23 UNL     1      86.039 -39.703 -49.550  1.00  0.00     0.062 C 
HETATM   31  C24 UNL     1      85.111 -40.785 -49.232  1.00  0.00     0.007 C 
HETATM   32  N1  UNL     1      84.633 -40.122 -46.926  1.00  0.00    -0.316 N 
HETATM   33  O6  UNL     1      84.448 -37.826 -46.468  1.00  0.00    -0.273 OA
BRANCH  26  34
HETATM   34  O4  UNL     1      83.081 -36.117 -49.909  1.00  0.00    -0.395 OA
ATOM     35  H4  UNL     1      83.538 -35.421 -49.450  1.00  0.00     0.210 HD
ENDBRANCH  26  34
BRANCH  32  36
HETATM   36  C26 UNL     1      85.524 -40.223 -45.767  1.00  0.00     0.168 C 
BRANCH  36  37
HETATM   37  C27 UNL     1      86.908 -39.756 -45.906  1.00  0.00     0.232 C 
HETATM   38  N2  UNL     1      87.114 -38.644 -46.771  1.00  0.00    -0.067 N 
HETATM   39  C28 UNL     1      88.563 -38.641 -46.942  1.00  0.00     0.235 C 
ATOM     40  H22 UNL     1      86.579 -38.672 -47.640  1.00  0.00     0.277 HD
ATOM     41  H21 UNL     1      86.719 -37.764 -46.439  1.00  0.00     0.277 HD
HETATM   42  C29 UNL     1      88.909 -40.093 -47.108  1.00  0.00     0.061 C 
HETATM   43  C30 UNL     1      87.772 -40.847 -46.507  1.00  0.00     0.152 C 
BRANCH  43  44
HETATM   44  O5  UNL     1      88.142 -41.695 -45.482  1.00  0.00    -0.393 OA
ATOM     45  H5  UNL     1      88.117 -42.582 -45.821  1.00  0.00     0.210 HD
ENDBRANCH  43  44
ENDBRANCH  36  37
ENDBRANCH  32  36
ENDBRANCH   3   7
TORSDOF 6
ENDMDL
MODEL 4
REMARK VINA RESULT: -6.888733048      2.761      7.256
REMARK  6 active torsions:
REMARK  status: ('A' for Active; 'I' for Inactive)
REMARK    1  A    between atoms: C3_3  and  O1_5 
REMARK    2  A    between atoms: C3_3  and  C5_7 
REMARK    3  A    between atoms: C19_24  and  O4_25 
REMARK    4  A    between atoms: N1_33  and  C26_34 
REMARK    5  A    between atoms: C26_34  and  C27_35 
REMARK    6  A    between atoms: C30_41  and  O5_42 
ROOT
HETATM    1  C1  UNL     1      81.185 -45.762 -45.468  1.00  0.00     0.015 C 
HETATM    2  C2  UNL     1      80.828 -44.622 -45.459  1.00  0.00    -0.075 C 
HETATM    3  C3  UNL     1      80.363 -43.260 -45.495  1.00  0.00     0.142 C 
HETATM    4  C4  UNL     1      79.307 -42.991 -44.447  1.00  0.00     0.065 C 
ENDROOT
BRANCH   3   5
HETATM    5  O1  UNL     1      79.611 -43.141 -46.705  1.00  0.00    -0.374 OA
ATOM      6  H1  UNL     1      79.316 -42.239 -46.735  1.00  0.00     0.212 HD
ENDBRANCH   3   5
BRANCH   3   7
HETATM    7  C5  UNL     1      81.429 -42.178 -45.537  1.00  0.00    -0.011 C 
HETATM    8  C6  UNL     1      82.581 -42.759 -46.254  1.00  0.00     0.005 C 
HETATM    9  C7  UNL     1      83.503 -42.825 -47.102  1.00  0.00    -0.018 C 
HETATM   10  C8  UNL     1      84.133 -42.068 -48.237  1.00  0.00     0.035 C 
HETATM   11  C9  UNL     1      85.573 -41.769 -47.871  1.00  0.00     0.019 C 
HETATM   12  C10 UNL     1      83.407 -40.888 -48.751  1.00  0.00    -0.046 C 
HETATM   13  C11 UNL     1      82.514 -41.130 -49.972  1.00  0.00     0.037 C 
HETATM   14  C25 UNL     1      84.157 -39.593 -48.884  1.00  0.00     0.036 C 
HETATM   15  C12 UNL     1      81.040 -40.820 -49.590  1.00  0.00     0.007 C 
HETATM   16  C13 UNL     1      80.868 -39.349 -49.317  1.00  0.00     0.034 C 
HETATM   17  C14 UNL     1      81.338 -38.726 -48.125  1.00  0.00     0.145 C 
HETATM   18  O2  UNL     1      80.333 -38.866 -47.086  1.00  0.00    -0.314 OA
HETATM   19  C17 UNL     1      82.005 -37.372 -48.268  1.00  0.00     0.110 C 
HETATM   20  C15 UNL     1      80.135 -40.068 -46.356  1.00  0.00     0.278 C 
HETATM   21  O3  UNL     1      78.961 -40.494 -46.550  1.00  0.00    -0.264 OA
HETATM   22  C16 UNL     1      81.040 -40.786 -45.492  1.00  0.00     0.190 C 
HETATM   23 BR1  UNL     1      80.440 -40.272 -43.648  1.00  0.00    -0.075 Br
HETATM   24  C18 UNL     1      81.682 -36.603 -49.499  1.00  0.00     0.048 C 
HETATM   25  C31 UNL     1      83.466 -37.374 -47.962  1.00  0.00     0.231 C 
HETATM   26  C19 UNL     1      82.754 -36.198 -50.432  1.00  0.00     0.123 C 
HETATM   27  C20 UNL     1      83.291 -37.131 -51.436  1.00  0.00     0.065 C 
HETATM   28  C21 UNL     1      84.777 -37.328 -51.412  1.00  0.00    -0.083 C 
HETATM   29  C22 UNL     1      85.508 -36.475 -52.113  1.00  0.00     0.014 C 
HETATM   30  C23 UNL     1      85.460 -38.390 -50.691  1.00  0.00     0.062 C 
HETATM   31  C24 UNL     1      84.670 -39.492 -50.145  1.00  0.00     0.007 C 
HETATM   32  N1  UNL     1      84.338 -38.561 -47.907  1.00  0.00    -0.316 N 
HETATM   33  O6  UNL     1      83.978 -36.246 -47.732  1.00  0.00    -0.273 OA
BRANCH  26  34
HETATM   34  O4  UNL     1      82.154 -35.144 -51.209  1.00  0.00    -0.395 OA
ATOM     35  H4  UNL     1      82.592 -35.204 -52.050  1.00  0.00     0.210 HD
ENDBRANCH  26  34
BRANCH  32  36
HETATM   36  C26 UNL     1      85.334 -38.427 -46.840  1.00  0.00     0.168 C 
BRANCH  36  37
HETATM   37  C27 UNL     1      86.754 -38.380 -47.210  1.00  0.00     0.232 C 
HETATM   38  N2  UNL     1      87.640 -39.150 -46.405  1.00  0.00    -0.067 N 
HETATM   39  C28 UNL     1      88.950 -38.648 -46.807  1.00  0.00     0.235 C 
ATOM     40  H22 UNL     1      87.455 -39.108 -45.402  1.00  0.00     0.277 HD
ATOM     41  H21 UNL     1      87.525 -40.160 -46.485  1.00  0.00     0.277 HD
HETATM   42  C29 UNL     1      88.750 -37.163 -46.907  1.00  0.00     0.061 C 
HETATM   43  C30 UNL     1      87.282 -36.965 -47.081  1.00  0.00     0.152 C 
BRANCH  43  44
HETATM   44  O5  UNL     1      86.942 -36.287 -48.235  1.00  0.00    -0.393 OA
ATOM     45  H5  UNL     1      87.072 -35.361 -48.071  1.00  0.00     0.210 HD
ENDBRANCH  43  44
ENDBRANCH  36  37
ENDBRANCH  32  36
ENDBRANCH   3   7
TORSDOF 6
ENDMDL
MODEL 5
REMARK VINA RESULT: -6.656431624      2.835      5.725
REMARK  6 active torsions:
REMARK  status: ('A' for Active; 'I' for Inactive)
REMARK    1  A    between atoms: C3_3  and  O1_5 
REMARK    2  A    between atoms: C3_3  and  C5_7 
REMARK    3  A    between atoms: C19_24  and  O4_25 
REMARK    4  A    between atoms: N1_33  and  C26_34 
REMARK    5  A    between atoms: C26_34  and  C27_35 
REMARK    6  A    between atoms: C30_41  and  O5_42 
ROOT
HETATM    1  C1  UNL     1      84.014 -44.438 -50.627  1.00  0.00     0.015 C 
HETATM    2  C2  UNL     1      85.044 -43.994 -50.216  1.00  0.00    -0.075 C 
HETATM    3  C3  UNL     1      86.293 -43.509 -49.689  1.00  0.00     0.142 C 
HETATM    4  C4  UNL     1      87.419 -43.628 -50.692  1.00  0.00     0.065 C 
ENDROOT
BRANCH   3   5
HETATM    5  O1  UNL     1      86.686 -44.458 -48.695  1.00  0.00    -0.374 OA
ATOM      6  H1  UNL     1      86.967 -43.943 -47.947  1.00  0.00     0.212 HD
ENDBRANCH   3   5
BRANCH   3   7
HETATM    7  C5  UNL     1      86.263 -42.153 -49.007  1.00  0.00    -0.011 C 
HETATM    8  C6  UNL     1      86.015 -41.158 -50.070  1.00  0.00     0.005 C 
HETATM    9  C7  UNL     1      85.465 -40.187 -50.640  1.00  0.00    -0.018 C 
HETATM   10  C8  UNL     1      84.376 -39.164 -50.465  1.00  0.00     0.035 C 
HETATM   11  C9  UNL     1      85.009 -37.787 -50.476  1.00  0.00     0.019 C 
HETATM   12  C10 UNL     1      83.434 -39.361 -49.344  1.00  0.00    -0.046 C 
HETATM   13  C11 UNL     1      82.121 -40.072 -49.690  1.00  0.00     0.037 C 
HETATM   14  C25 UNL     1      83.190 -38.212 -48.409  1.00  0.00     0.036 C 
HETATM   15  C12 UNL     1      82.039 -41.401 -48.888  1.00  0.00     0.007 C 
HETATM   16  C13 UNL     1      81.905 -41.115 -47.415  1.00  0.00     0.034 C 
HETATM   17  C14 UNL     1      82.995 -40.665 -46.615  1.00  0.00     0.145 C 
HETATM   18  O2  UNL     1      83.751 -41.815 -46.153  1.00  0.00    -0.314 OA
HETATM   19  C17 UNL     1      82.706 -39.572 -45.605  1.00  0.00     0.110 C 
HETATM   20  C15 UNL     1      84.672 -42.518 -46.974  1.00  0.00     0.278 C 
HETATM   21  O3  UNL     1      84.297 -43.718 -47.100  1.00  0.00    -0.264 OA
HETATM   22  C16 UNL     1      85.880 -42.057 -47.616  1.00  0.00     0.190 C 
HETATM   23 BR1  UNL     1      87.340 -42.744 -46.424  1.00  0.00    -0.075 Br
HETATM   24  C18 UNL     1      81.288 -39.414 -45.187  1.00  0.00     0.048 C 
HETATM   25  C31 UNL     1      83.359 -38.265 -45.914  1.00  0.00     0.231 C 
HETATM   26  C19 UNL     1      80.584 -38.132 -45.394  1.00  0.00     0.123 C 
HETATM   27  C20 UNL     1      79.995 -37.780 -46.697  1.00  0.00     0.065 C 
HETATM   28  C21 UNL     1      80.435 -36.470 -47.276  1.00  0.00    -0.083 C 
HETATM   29  C22 UNL     1      79.757 -35.392 -46.911  1.00  0.00     0.014 C 
HETATM   30  C23 UNL     1      81.534 -36.307 -48.215  1.00  0.00     0.062 C 
HETATM   31  C24 UNL     1      82.110 -37.496 -48.839  1.00  0.00     0.007 C 
HETATM   32  N1  UNL     1      83.908 -37.859 -47.220  1.00  0.00    -0.316 N 
HETATM   33  O6  UNL     1      83.436 -37.452 -44.956  1.00  0.00    -0.273 OA
BRANCH  26  34
HETATM   34  O4  UNL     1      79.455 -38.212 -44.502  1.00  0.00    -0.395 OA
ATOM     35  H4  UNL     1      79.740 -37.735 -43.731  1.00  0.00     0.210 HD
ENDBRANCH  26  34
BRANCH  32  36
HETATM   36  C26 UNL     1      85.127 -37.064 -47.049  1.00  0.00     0.168 C 
BRANCH  36  37
HETATM   37  C27 UNL     1      86.418 -37.682 -47.374  1.00  0.00     0.232 C 
HETATM   38  N2  UNL     1      86.836 -38.748 -46.528  1.00  0.00    -0.067 N 
HETATM   39  C28 UNL     1      88.238 -38.913 -46.898  1.00  0.00     0.235 C 
ATOM     40  H22 UNL     1      86.670 -38.597 -45.533  1.00  0.00     0.277 HD
ATOM     41  H21 UNL     1      86.273 -39.596 -46.596  1.00  0.00     0.277 HD
HETATM   42  C29 UNL     1      88.744 -37.505 -47.029  1.00  0.00     0.061 C 
HETATM   43  C30 UNL     1      87.533 -36.663 -47.252  1.00  0.00     0.152 C 
BRANCH  43  44
HETATM   44  O5  UNL     1      87.565 -35.939 -48.427  1.00  0.00    -0.393 OA
ATOM     45  H5  UNL     1      88.292 -36.264 -48.944  1.00  0.00     0.210 HD
ENDBRANCH  43  44
ENDBRANCH  36  37
ENDBRANCH  32  36
ENDBRANCH   3   7
TORSDOF 6
ENDMDL
