MODEL 1
REMARK VINA RESULT: -5.931784502      0.000      0.000
REMARK  4 active torsions:
REMARK  status: ('A' for Active; 'I' for Inactive)
REMARK    1  A    between atoms: N1_1  and  N2_4 
REMARK    2  A    between atoms: N2_4  and  N3_5 
REMARK    3  A    between atoms: N3_5  and  C1_7 
REMARK    4  A    between atoms: C4_10  and  N4_11 
ROOT
HETATM    1  C1  UNL     1     -17.570   1.593 -12.515  1.00  0.00     0.114 C 
HETATM    2  C2  UNL     1     -17.588   1.406 -14.010  1.00  0.00     0.030 C 
HETATM    3  C3  UNL     1     -17.918   2.715 -14.643  1.00  0.00     0.035 C 
HETATM    4  C4  UNL     1     -17.148   3.875 -14.159  1.00  0.00     0.183 C 
HETATM    5  C5  UNL     1     -16.653   3.824 -12.767  1.00  0.00     0.035 C 
HETATM    6  C6  UNL     1     -16.344   2.471 -12.235  1.00  0.00     0.030 C 
ENDROOT
BRANCH   1   7
HETATM    7  N3  UNL     1     -17.549   0.375 -11.776  1.00  0.00    -0.248 N 
ATOM      8  H3  UNL     1     -17.051  -0.445 -12.120  1.00  0.00     0.197 HD
BRANCH   7   9
HETATM    9  N2  UNL     1     -18.166   0.350 -10.688  1.00  0.00    -0.248 NA
BRANCH   9  10
HETATM   10  N1  UNL     1     -18.782   0.407  -9.624  1.00  0.00    -0.261 N 
ATOM     11  H12 UNL     1     -18.439   1.355  -9.776  1.00  0.00     0.193 HD
ATOM     12  H11 UNL     1     -19.306   0.387  -8.748  1.00  0.00     0.193 HD
ENDBRANCH   9  10
ENDBRANCH   7   9
ENDBRANCH   1   7
BRANCH   4  13
HETATM   13  N4  UNL     1     -16.027   4.146 -15.066  1.00  0.00    -0.075 N 
ATOM     14  H43 UNL     1     -15.879   3.385 -15.729  1.00  0.00     0.274 HD
ATOM     15  H42 UNL     1     -16.245   4.884 -15.736  1.00  0.00     0.274 HD
ATOM     16  H41 UNL     1     -15.186   4.353 -14.528  1.00  0.00     0.274 HD
ENDBRANCH   4  13
TORSDOF 4
ENDMDL
MODEL 2
REMARK VINA RESULT: -5.673161440      0.853      1.758
REMARK  4 active torsions:
REMARK  status: ('A' for Active; 'I' for Inactive)
REMARK    1  A    between atoms: N1_1  and  N2_4 
REMARK    2  A    between atoms: N2_4  and  N3_5 
REMARK    3  A    between atoms: N3_5  and  C1_7 
REMARK    4  A    between atoms: C4_10  and  N4_11 
ROOT
HETATM    1  C1  UNL     1     -16.908   1.216 -12.252  1.00  0.00     0.114 C 
HETATM    2  C2  UNL     1     -17.004   2.568 -11.595  1.00  0.00     0.030 C 
HETATM    3  C3  UNL     1     -16.229   3.544 -12.414  1.00  0.00     0.035 C 
HETATM    4  C4  UNL     1     -16.498   3.523 -13.863  1.00  0.00     0.183 C 
HETATM    5  C5  UNL     1     -16.935   2.239 -14.450  1.00  0.00     0.035 C 
HETATM    6  C6  UNL     1     -17.710   1.343 -13.552  1.00  0.00     0.030 C 
ENDROOT
BRANCH   1   7
HETATM    7  N3  UNL     1     -17.358   0.139 -11.435  1.00  0.00    -0.248 N 
ATOM      8  H3  UNL     1     -17.055  -0.820 -11.607  1.00  0.00     0.197 HD
BRANCH   7   9
HETATM    9  N2  UNL     1     -18.140   0.413 -10.498  1.00  0.00    -0.248 NA
BRANCH   9  10
HETATM   10  N1  UNL     1     -18.915   0.603  -9.561  1.00  0.00    -0.261 N 
ATOM     11  H12 UNL     1     -19.513   0.544 -10.385  1.00  0.00     0.193 HD
ATOM     12  H11 UNL     1     -19.504   0.762  -8.742  1.00  0.00     0.193 HD
ENDBRANCH   9  10
ENDBRANCH   7   9
ENDBRANCH   1   7
BRANCH   4  13
HETATM   13  N4  UNL     1     -17.464   4.572 -14.209  1.00  0.00    -0.075 N 
ATOM     14  H43 UNL     1     -17.205   5.476 -13.814  1.00  0.00     0.274 HD
ATOM     15  H42 UNL     1     -17.420   4.824 -15.196  1.00  0.00     0.274 HD
ATOM     16  H41 UNL     1     -18.402   4.287 -13.928  1.00  0.00     0.274 HD
ENDBRANCH   4  13
TORSDOF 4
ENDMDL
MODEL 3
REMARK VINA RESULT: -5.346232326      3.495      4.657
REMARK  4 active torsions:
REMARK  status: ('A' for Active; 'I' for Inactive)
REMARK    1  A    between atoms: N1_1  and  N2_4 
REMARK    2  A    between atoms: N2_4  and  N3_5 
REMARK    3  A    between atoms: N3_5  and  C1_7 
REMARK    4  A    between atoms: C4_10  and  N4_11 
ROOT
HETATM    1  C1  UNL     1     -17.225   2.583  -8.745  1.00  0.00     0.114 C 
HETATM    2  C2  UNL     1     -17.297   3.382 -10.020  1.00  0.00     0.030 C 
HETATM    3  C3  UNL     1     -17.007   2.469 -11.163  1.00  0.00     0.035 C 
HETATM    4  C4  UNL     1     -17.747   1.195 -11.171  1.00  0.00     0.183 C 
HETATM    5  C5  UNL     1     -18.157   0.643  -9.863  1.00  0.00     0.035 C 
HETATM    6  C6  UNL     1     -18.433   1.639  -8.794  1.00  0.00     0.030 C 
ENDROOT
BRANCH   1   7
HETATM    7  N3  UNL     1     -17.200   3.376  -7.562  1.00  0.00    -0.248 N 
ATOM      8  H3  UNL     1     -18.024   3.888  -7.249  1.00  0.00     0.197 HD
BRANCH   7   9
HETATM    9  N2  UNL     1     -16.127   3.420  -6.920  1.00  0.00    -0.248 NA
BRANCH   9  10
HETATM   10  N1  UNL     1     -15.035   3.491  -6.356  1.00  0.00    -0.261 N 
ATOM     11  H12 UNL     1     -15.539   2.759  -5.856  1.00  0.00     0.193 HD
ATOM     12  H11 UNL     1     -14.113   3.599  -5.932  1.00  0.00     0.193 HD
ENDBRANCH   9  10
ENDBRANCH   7   9
ENDBRANCH   1   7
BRANCH   4  13
HETATM   13  N4  UNL     1     -18.922   1.304 -12.045  1.00  0.00    -0.075 N 
ATOM     14  H43 UNL     1     -18.863   0.674 -12.846  1.00  0.00     0.274 HD
ATOM     15  H42 UNL     1     -19.759   0.914 -11.612  1.00  0.00     0.274 HD
ATOM     16  H41 UNL     1     -19.054   2.274 -12.331  1.00  0.00     0.274 HD
ENDBRANCH   4  13
TORSDOF 4
ENDMDL
MODEL 4
REMARK VINA RESULT: -5.283759490      1.672      4.462
REMARK  4 active torsions:
REMARK  status: ('A' for Active; 'I' for Inactive)
REMARK    1  A    between atoms: N1_1  and  N2_4 
REMARK    2  A    between atoms: N2_4  and  N3_5 
REMARK    3  A    between atoms: N3_5  and  C1_7 
REMARK    4  A    between atoms: C4_10  and  N4_11 
ROOT
HETATM    1  C1  UNL     1     -16.423   3.075 -11.831  1.00  0.00     0.114 C 
HETATM    2  C2  UNL     1     -17.223   2.012 -12.539  1.00  0.00     0.030 C 
HETATM    3  C3  UNL     1     -17.145   0.756 -11.739  1.00  0.00     0.035 C 
HETATM    4  C4  UNL     1     -17.413   0.895 -10.296  1.00  0.00     0.183 C 
HETATM    5  C5  UNL     1     -17.094   2.197  -9.672  1.00  0.00     0.035 C 
HETATM    6  C6  UNL     1     -17.213   3.388 -10.554  1.00  0.00     0.030 C 
ENDROOT
BRANCH   1   7
HETATM    7  N3  UNL     1     -16.174   4.237 -12.617  1.00  0.00    -0.248 N 
ATOM      8  H3  UNL     1     -15.745   5.069 -12.212  1.00  0.00     0.197 HD
BRANCH   7   9
HETATM    9  N2  UNL     1     -16.503   4.198 -13.823  1.00  0.00    -0.248 NA
BRANCH   9  10
HETATM   10  N1  UNL     1     -16.798   4.236 -15.018  1.00  0.00    -0.261 N 
ATOM     11  H12 UNL     1     -17.152   3.337 -14.691  1.00  0.00     0.193 HD
ATOM     12  H11 UNL     1     -17.013   4.329 -16.011  1.00  0.00     0.193 HD
ENDBRANCH   9  10
ENDBRANCH   7   9
ENDBRANCH   1   7
BRANCH   4  13
HETATM   13  N4  UNL     1     -18.810   0.546 -10.011  1.00  0.00    -0.075 N 
ATOM     14  H43 UNL     1     -19.389   0.568 -10.850  1.00  0.00     0.274 HD
ATOM     15  H42 UNL     1     -18.919  -0.442  -9.782  1.00  0.00     0.274 HD
ATOM     16  H41 UNL     1     -19.177   1.152  -9.277  1.00  0.00     0.274 HD
ENDBRANCH   4  13
TORSDOF 4
ENDMDL
MODEL 5
REMARK VINA RESULT: -5.280553691      2.996      4.503
REMARK  4 active torsions:
REMARK  status: ('A' for Active; 'I' for Inactive)
REMARK    1  A    between atoms: N1_1  and  N2_4 
REMARK    2  A    between atoms: N2_4  and  N3_5 
REMARK    3  A    between atoms: N3_5  and  C1_7 
REMARK    4  A    between atoms: C4_10  and  N4_11 
ROOT
HETATM    1  C1  UNL     1     -18.357   1.496 -10.698  1.00  0.00     0.114 C 
HETATM    2  C2  UNL     1     -17.225   2.488 -10.775  1.00  0.00     0.030 C 
HETATM    3  C3  UNL     1     -17.453   3.540  -9.742  1.00  0.00     0.035 C 
HETATM    4  C4  UNL     1     -17.780   3.053  -8.390  1.00  0.00     0.183 C 
HETATM    5  C5  UNL     1     -18.468   1.749  -8.289  1.00  0.00     0.035 C 
HETATM    6  C6  UNL     1     -18.163   0.767  -9.363  1.00  0.00     0.030 C 
ENDROOT
BRANCH   1   7
HETATM    7  N3  UNL     1     -18.422   0.600 -11.804  1.00  0.00    -0.248 N 
ATOM      8  H3  UNL     1     -18.392  -0.410 -11.670  1.00  0.00     0.197 HD
BRANCH   7   9
HETATM    9  N2  UNL     1     -18.517   1.100 -12.946  1.00  0.00    -0.248 NA
BRANCH   9  10
HETATM   10  N1  UNL     1     -18.562   1.653 -14.046  1.00  0.00    -0.261 N 
ATOM     11  H12 UNL     1     -17.591   1.359 -13.942  1.00  0.00     0.193 HD
ATOM     12  H11 UNL     1     -18.665   2.122 -14.946  1.00  0.00     0.193 HD
ENDBRANCH   9  10
ENDBRANCH   7   9
ENDBRANCH   1   7
BRANCH   4  13
HETATM   13  N4  UNL     1     -16.569   3.032  -7.560  1.00  0.00    -0.075 N 
ATOM     14  H43 UNL     1     -15.916   3.772  -7.817  1.00  0.00     0.274 HD
ATOM     15  H42 UNL     1     -16.756   3.327  -6.601  1.00  0.00     0.274 HD
ATOM     16  H41 UNL     1     -16.136   2.109  -7.599  1.00  0.00     0.274 HD
ENDBRANCH   4  13
TORSDOF 4
ENDMDL
