MODEL 1
REMARK VINA RESULT: -6.561910466      0.000      0.000
REMARK  16 active torsions:
REMARK  status: ('A' for Active; 'I' for Inactive)
REMARK    1  A    between atoms: N1_2  and  N2_3 
REMARK    2  A    between atoms: N1_2  and  C2_6 
REMARK    3  A    between atoms: C2_6  and  O1_7 
REMARK    4  A    between atoms: C2_6  and  C3_9 
REMARK    5  A    between atoms: C3_9  and  O2_10 
REMARK    6  A    between atoms: C3_9  and  N3_12 
REMARK       I    between atoms: N3_12  and  C4_14 
REMARK    7  A    between atoms: C4_14  and  C5_16 
REMARK    8  A    between atoms: C5_16  and  N4_17 
REMARK    9  A    between atoms: C7_22  and  O4_23 
REMARK   10  A    between atoms: C8_25  and  O5_26 
REMARK   11  A    between atoms: C9_28  and  N5_29 
REMARK   12  A    between atoms: N6_31  and  C10_33 
REMARK   13  A    between atoms: C10_33  and  N7_34 
REMARK   14  A    between atoms: C11_38  and  O6_39 
REMARK   15  A    between atoms: C13_44  and  N9_45 
REMARK   16  A    between atoms: C14_49  and  O7_50 
ROOT
HETATM    1  C5  UNL     1      15.789  11.306 122.702  1.00  0.00     0.264 C 
HETATM    2  C6  UNL     1      14.487  11.937 122.630  1.00  0.00     0.055 A 
HETATM    3  C7  UNL     1      14.348  13.285 122.291  1.00  0.00     0.113 A 
HETATM    4  C8  UNL     1      13.081  13.827 122.244  1.00  0.00     0.131 A 
HETATM    5  C9  UNL     1      11.964  13.096 122.515  1.00  0.00     0.119 A 
HETATM    6  C11 UNL     1      12.094  11.755 122.852  1.00  0.00     0.124 A 
HETATM    7  C12 UNL     1      13.349  11.210 122.900  1.00  0.00     0.078 A 
HETATM    8  N8  UNL     1      13.419   9.816 123.234  1.00  0.00    -0.358 N 
ATOM      9  H8  UNL     1      12.598   9.310 123.565  1.00  0.00     0.162 HD
HETATM   10  C13 UNL     1      14.721   9.145 123.081  1.00  0.00     0.314 C 
HETATM   11  C14 UNL     1      15.800  10.109 123.595  1.00  0.00     0.218 C 
ENDROOT
BRANCH   1  12
HETATM   12  C4  UNL     1      16.906  12.246 123.042  1.00  0.00     0.267 C 
HETATM   13  N3  UNL     1      17.864  12.625 122.092  1.00  0.00    -0.305 N 
ATOM     14  H3  UNL     1      17.721  12.194 121.178  1.00  0.00     0.170 HD
HETATM   15  O3  UNL     1      16.922  12.661 124.204  1.00  0.00    -0.270 OA
BRANCH  13  16
HETATM   16  C3  UNL     1      18.961  13.461 122.137  1.00  0.00     0.164 C 
BRANCH  16  17
HETATM   17  C2  UNL     1      20.381  13.278 121.820  1.00  0.00     0.286 C 
BRANCH  17  18
HETATM   18  N1  UNL     1      21.048  12.483 122.867  1.00  0.00    -0.206 NA
HETATM   19  C1  UNL     1      21.262  11.145 122.397  1.00  0.00     0.139 C 
BRANCH  18  20
HETATM   20  N2  UNL     1      20.221  12.464 123.988  1.00  0.00    -0.361 NA
ATOM     21  H22 UNL     1      20.625  13.087 124.688  1.00  0.00     0.171 HD
ATOM     22  H21 UNL     1      19.288  12.789 123.734  1.00  0.00     0.171 HD
ENDBRANCH  18  20
ENDBRANCH  17  18
BRANCH  17  23
HETATM   23  O1  UNL     1      20.671  12.748 120.603  1.00  0.00    -0.372 OA
ATOM     24  H1  UNL     1      20.499  13.396 119.930  1.00  0.00     0.212 HD
ENDBRANCH  17  23
ENDBRANCH  16  17
BRANCH  16  25
HETATM   25  O2  UNL     1      18.647  14.680 122.558  1.00  0.00    -0.346 OA
ATOM     26  H2  UNL     1      19.393  15.210 122.814  1.00  0.00     0.219 HD
ENDBRANCH  16  25
ENDBRANCH  13  16
ENDBRANCH   1  12
BRANCH   1  27
HETATM   27  N4  UNL     1      16.077  10.796 121.350  1.00  0.00    -0.054 N 
ATOM     28  H43 UNL     1      16.575  11.464 120.762  1.00  0.00     0.276 HD
ATOM     29  H42 UNL     1      16.787  10.064 121.336  1.00  0.00     0.276 HD
ATOM     30  H41 UNL     1      15.182  10.500 120.960  1.00  0.00     0.276 HD
ENDBRANCH   1  27
BRANCH  11  31
HETATM   31  O7  UNL     1      15.611  10.351 124.930  1.00  0.00    -0.388 OA
ATOM     32  H7  UNL     1      14.743  10.166 125.269  1.00  0.00     0.210 HD
ENDBRANCH  11  31
BRANCH   3  33
HETATM   33  O4  UNL     1      15.435  14.090 122.001  1.00  0.00    -0.357 OA
ATOM     34  H4  UNL     1      15.352  14.895 121.503  1.00  0.00     0.217 HD
ENDBRANCH   3  33
BRANCH  10  35
HETATM   35  N9  UNL     1      14.758   7.875 123.734  1.00  0.00    -0.056 N 
ATOM     36  H93 UNL     1      15.399   7.888 124.527  1.00  0.00     0.276 HD
ATOM     37  H92 UNL     1      13.887   7.691 124.232  1.00  0.00     0.276 HD
ATOM     38  H91 UNL     1      14.983   7.115 123.093  1.00  0.00     0.276 HD
ENDBRANCH  10  35
BRANCH   4  39
HETATM   39  O5  UNL     1      12.956  15.187 121.902  1.00  0.00    -0.356 OA
ATOM     40  H5  UNL     1      12.476  15.753 122.495  1.00  0.00     0.218 HD
ENDBRANCH   4  39
BRANCH   6  41
HETATM   41  O6  UNL     1      10.933  11.063 123.115  1.00  0.00    -0.356 OA
ATOM     42  H6  UNL     1      10.181  11.262 122.570  1.00  0.00     0.218 HD
ENDBRANCH   6  41
BRANCH   5  43
HETATM   43  N5  UNL     1      10.679  13.683 122.459  1.00  0.00    -0.298 N 
HETATM   44  N6  UNL     1       9.802  13.551 123.371  1.00  0.00    -0.311 N 
ATOM     45  H6  UNL     1      10.010  12.996 124.202  1.00  0.00     0.182 HD
ATOM     46  H5  UNL     1      10.441  14.245 121.641  1.00  0.00     0.186 HD
BRANCH  44  47
HETATM   47  C10 UNL     1       8.499  14.191 123.232  1.00  0.00     0.368 C 
BRANCH  47  48
HETATM   48  N7  UNL     1       7.647  13.478 122.316  1.00  0.00    -0.062 N 
ATOM     49  H73 UNL     1       8.128  12.675 121.910  1.00  0.00     0.276 HD
ATOM     50  H72 UNL     1       6.902  12.986 122.809  1.00  0.00     0.276 HD
ATOM     51  H71 UNL     1       7.272  14.091 121.592  1.00  0.00     0.276 HD
ENDBRANCH  47  48
ENDBRANCH  44  47
ENDBRANCH   5  43
TORSDOF 16
ENDMDL
MODEL 2
REMARK VINA RESULT: -6.329243639      1.636      2.082
REMARK  16 active torsions:
REMARK  status: ('A' for Active; 'I' for Inactive)
REMARK    1  A    between atoms: N1_2  and  N2_3 
REMARK    2  A    between atoms: N1_2  and  C2_6 
REMARK    3  A    between atoms: C2_6  and  O1_7 
REMARK    4  A    between atoms: C2_6  and  C3_9 
REMARK    5  A    between atoms: C3_9  and  O2_10 
REMARK    6  A    between atoms: C3_9  and  N3_12 
REMARK       I    between atoms: N3_12  and  C4_14 
REMARK    7  A    between atoms: C4_14  and  C5_16 
REMARK    8  A    between atoms: C5_16  and  N4_17 
REMARK    9  A    between atoms: C7_22  and  O4_23 
REMARK   10  A    between atoms: C8_25  and  O5_26 
REMARK   11  A    between atoms: C9_28  and  N5_29 
REMARK   12  A    between atoms: N6_31  and  C10_33 
REMARK   13  A    between atoms: C10_33  and  N7_34 
REMARK   14  A    between atoms: C11_38  and  O6_39 
REMARK   15  A    between atoms: C13_44  and  N9_45 
REMARK   16  A    between atoms: C14_49  and  O7_50 
ROOT
HETATM    1  C5  UNL     1      15.301  10.619 122.289  1.00  0.00     0.264 C 
HETATM    2  C6  UNL     1      14.074  11.387 122.326  1.00  0.00     0.055 A 
HETATM    3  C7  UNL     1      14.069  12.765 122.088  1.00  0.00     0.113 A 
HETATM    4  C8  UNL     1      12.868  13.440 122.142  1.00  0.00     0.131 A 
HETATM    5  C9  UNL     1      11.690  12.814 122.417  1.00  0.00     0.119 A 
HETATM    6  C11 UNL     1      11.687  11.445 122.653  1.00  0.00     0.124 A 
HETATM    7  C12 UNL     1      12.876  10.768 122.601  1.00  0.00     0.078 A 
HETATM    8  N8  UNL     1      12.806   9.354 122.834  1.00  0.00    -0.358 N 
ATOM      9  H8  UNL     1      11.949   8.914 123.170  1.00  0.00     0.162 HD
HETATM   10  C13 UNL     1      14.020   8.561 122.571  1.00  0.00     0.314 C 
HETATM   11  C14 UNL     1      15.218   9.364 123.095  1.00  0.00     0.218 C 
ENDROOT
BRANCH   1  12
HETATM   12  C4  UNL     1      16.527  11.407 122.638  1.00  0.00     0.267 C 
HETATM   13  N3  UNL     1      16.790  11.815 123.953  1.00  0.00    -0.305 N 
ATOM     14  H3  UNL     1      16.071  11.529 124.618  1.00  0.00     0.170 HD
HETATM   15  O3  UNL     1      17.283  11.667 121.697  1.00  0.00    -0.270 OA
BRANCH  13  16
HETATM   16  C3  UNL     1      17.823  12.522 124.534  1.00  0.00     0.164 C 
BRANCH  16  17
HETATM   17  C2  UNL     1      18.442  12.494 125.862  1.00  0.00     0.286 C 
BRANCH  17  18
HETATM   18  N1  UNL     1      19.908  12.604 125.754  1.00  0.00    -0.206 NA
HETATM   19  C1  UNL     1      20.461  11.343 125.356  1.00  0.00     0.139 C 
BRANCH  18  20
HETATM   20  N2  UNL     1      20.407  12.966 127.004  1.00  0.00    -0.361 NA
ATOM     21  H22 UNL     1      20.243  12.190 127.646  1.00  0.00     0.171 HD
ATOM     22  H21 UNL     1      21.407  13.153 126.936  1.00  0.00     0.171 HD
ENDBRANCH  18  20
ENDBRANCH  17  18
BRANCH  17  23
HETATM   23  O1  UNL     1      17.991  13.405 126.765  1.00  0.00    -0.372 OA
ATOM     24  H1  UNL     1      18.345  14.260 126.550  1.00  0.00     0.212 HD
ENDBRANCH  17  23
ENDBRANCH  16  17
BRANCH  16  25
HETATM   25  O2  UNL     1      18.356  13.408 123.701  1.00  0.00    -0.346 OA
ATOM     26  H2  UNL     1      18.726  14.173 124.127  1.00  0.00     0.219 HD
ENDBRANCH  16  25
ENDBRANCH  13  16
ENDBRANCH   1  12
BRANCH   1  27
HETATM   27  N4  UNL     1      15.474  10.182 120.893  1.00  0.00    -0.054 N 
ATOM     28  H43 UNL     1      15.460   9.168 120.780  1.00  0.00     0.276 HD
ATOM     29  H42 UNL     1      14.668  10.385 120.301  1.00  0.00     0.276 HD
ATOM     30  H41 UNL     1      16.337  10.615 120.563  1.00  0.00     0.276 HD
ENDBRANCH   1  27
BRANCH  11  31
HETATM   31  O7  UNL     1      15.113   9.525 124.452  1.00  0.00    -0.388 OA
ATOM     32  H7  UNL     1      14.389  10.062 124.754  1.00  0.00     0.210 HD
ENDBRANCH  11  31
BRANCH   3  33
HETATM   33  O4  UNL     1      15.224  13.469 121.801  1.00  0.00    -0.357 OA
ATOM     34  H4  UNL     1      15.581  13.522 120.922  1.00  0.00     0.217 HD
ENDBRANCH   3  33
BRANCH  10  35
HETATM   35  N9  UNL     1      13.945   7.250 123.132  1.00  0.00    -0.056 N 
ATOM     36  H93 UNL     1      12.977   6.968 123.282  1.00  0.00     0.276 HD
ATOM     37  H92 UNL     1      14.216   6.541 122.450  1.00  0.00     0.276 HD
ATOM     38  H91 UNL     1      14.490   7.162 123.989  1.00  0.00     0.276 HD
ENDBRANCH  10  35
BRANCH   4  39
HETATM   39  O5  UNL     1      12.879  14.827 121.902  1.00  0.00    -0.356 OA
ATOM     40  H5  UNL     1      12.609  15.133 121.044  1.00  0.00     0.218 HD
ENDBRANCH   4  39
BRANCH   6  41
HETATM   41  O6  UNL     1      10.468  10.863 122.926  1.00  0.00    -0.356 OA
ATOM     42  H6  UNL     1      10.137  10.241 122.289  1.00  0.00     0.218 HD
ENDBRANCH   6  41
BRANCH   5  43
HETATM   43  N5  UNL     1      10.476  13.536 122.466  1.00  0.00    -0.298 N 
HETATM   44  N6  UNL     1       9.631  13.435 123.413  1.00  0.00    -0.311 N 
ATOM     45  H6  UNL     1       9.815  12.806 124.194  1.00  0.00     0.182 HD
ATOM     46  H5  UNL     1      10.264  14.175 121.699  1.00  0.00     0.186 HD
BRANCH  44  47
HETATM   47  C10 UNL     1       8.401  14.219 123.382  1.00  0.00     0.368 C 
BRANCH  47  48
HETATM   48  N7  UNL     1       7.483  13.735 122.384  1.00  0.00    -0.062 N 
ATOM     49  H73 UNL     1       7.019  14.505 121.903  1.00  0.00     0.276 HD
ATOM     50  H72 UNL     1       7.978  13.326 121.592  1.00  0.00     0.276 HD
ATOM     51  H71 UNL     1       6.806  13.080 122.777  1.00  0.00     0.276 HD
ENDBRANCH  47  48
ENDBRANCH  44  47
ENDBRANCH   5  43
TORSDOF 16
ENDMDL
MODEL 3
REMARK VINA RESULT: -6.316217209      2.939      4.122
REMARK  16 active torsions:
REMARK  status: ('A' for Active; 'I' for Inactive)
REMARK    1  A    between atoms: N1_2  and  N2_3 
REMARK    2  A    between atoms: N1_2  and  C2_6 
REMARK    3  A    between atoms: C2_6  and  O1_7 
REMARK    4  A    between atoms: C2_6  and  C3_9 
REMARK    5  A    between atoms: C3_9  and  O2_10 
REMARK    6  A    between atoms: C3_9  and  N3_12 
REMARK       I    between atoms: N3_12  and  C4_14 
REMARK    7  A    between atoms: C4_14  and  C5_16 
REMARK    8  A    between atoms: C5_16  and  N4_17 
REMARK    9  A    between atoms: C7_22  and  O4_23 
REMARK   10  A    between atoms: C8_25  and  O5_26 
REMARK   11  A    between atoms: C9_28  and  N5_29 
REMARK   12  A    between atoms: N6_31  and  C10_33 
REMARK   13  A    between atoms: C10_33  and  N7_34 
REMARK   14  A    between atoms: C11_38  and  O6_39 
REMARK   15  A    between atoms: C13_44  and  N9_45 
REMARK   16  A    between atoms: C14_49  and  O7_50 
ROOT
HETATM    1  C5  UNL     1      18.535  11.377 124.409  1.00  0.00     0.264 C 
HETATM    2  C6  UNL     1      17.248  10.791 124.098  1.00  0.00     0.055 A 
HETATM    3  C7  UNL     1      16.759  10.759 122.789  1.00  0.00     0.113 A 
HETATM    4  C8  UNL     1      15.524  10.191 122.560  1.00  0.00     0.131 A 
HETATM    5  C9  UNL     1      14.766   9.661 123.560  1.00  0.00     0.119 A 
HETATM    6  C11 UNL     1      15.246   9.689 124.863  1.00  0.00     0.124 A 
HETATM    7  C12 UNL     1      16.472  10.251 125.098  1.00  0.00     0.078 A 
HETATM    8  N8  UNL     1      16.923  10.232 126.461  1.00  0.00    -0.358 N 
ATOM      9  H8  UNL     1      16.300   9.959 127.221  1.00  0.00     0.162 HD
HETATM   10  C13 UNL     1      18.319  10.624 126.720  1.00  0.00     0.314 C 
HETATM   11  C14 UNL     1      18.632  11.833 125.828  1.00  0.00     0.218 C 
ENDROOT
BRANCH   1  12
HETATM   12  C4  UNL     1      18.961  12.458 123.462  1.00  0.00     0.267 C 
HETATM   13  N3  UNL     1      20.004  12.265 122.546  1.00  0.00    -0.305 N 
ATOM     14  H3  UNL     1      20.429  11.339 122.605  1.00  0.00     0.170 HD
HETATM   15  O3  UNL     1      18.333  13.518 123.542  1.00  0.00    -0.270 OA
BRANCH  13  16
HETATM   16  C3  UNL     1      20.575  13.069 121.581  1.00  0.00     0.164 C 
BRANCH  16  17
HETATM   17  C2  UNL     1      21.952  13.488 121.304  1.00  0.00     0.286 C 
BRANCH  17  18
HETATM   18  N1  UNL     1      21.974  14.838 120.711  1.00  0.00    -0.206 NA
HETATM   19  C1  UNL     1      23.186  15.022 119.967  1.00  0.00     0.139 C 
BRANCH  18  20
HETATM   20  N2  UNL     1      21.910  15.766 121.748  1.00  0.00    -0.361 NA
ATOM     21  H22 UNL     1      22.241  16.662 121.391  1.00  0.00     0.171 HD
ATOM     22  H21 UNL     1      20.948  15.857 122.072  1.00  0.00     0.171 HD
ENDBRANCH  18  20
ENDBRANCH  17  18
BRANCH  17  23
HETATM   23  O1  UNL     1      22.825  13.444 122.345  1.00  0.00    -0.372 OA
ATOM     24  H1  UNL     1      22.434  13.870 123.099  1.00  0.00     0.212 HD
ENDBRANCH  17  23
ENDBRANCH  16  17
BRANCH  16  25
HETATM   25  O2  UNL     1      19.675  13.556 120.735  1.00  0.00    -0.346 OA
ATOM     26  H2  UNL     1      19.323  14.403 120.983  1.00  0.00     0.219 HD
ENDBRANCH  16  25
ENDBRANCH  13  16
ENDBRANCH   1  12
BRANCH   1  27
HETATM   27  N4  UNL     1      19.526  10.295 124.272  1.00  0.00    -0.054 N 
ATOM     28  H43 UNL     1      20.491  10.616 124.360  1.00  0.00     0.276 HD
ATOM     29  H42 UNL     1      19.536   9.651 125.063  1.00  0.00     0.276 HD
ATOM     30  H41 UNL     1      19.330   9.839 123.381  1.00  0.00     0.276 HD
ENDBRANCH   1  27
BRANCH  11  31
HETATM   31  O7  UNL     1      17.832  12.889 126.177  1.00  0.00    -0.388 OA
ATOM     32  H7  UNL     1      17.554  12.920 127.085  1.00  0.00     0.210 HD
ENDBRANCH  11  31
BRANCH   3  33
HETATM   33  O4  UNL     1      17.471  11.274 121.721  1.00  0.00    -0.357 OA
ATOM     34  H4  UNL     1      17.823  10.723 121.032  1.00  0.00     0.217 HD
ENDBRANCH   3  33
BRANCH  10  35
HETATM   35  N9  UNL     1      18.564  10.880 128.104  1.00  0.00    -0.056 N 
ATOM     36  H93 UNL     1      17.695  10.880 128.637  1.00  0.00     0.276 HD
ATOM     37  H92 UNL     1      19.028  10.088 128.548  1.00  0.00     0.276 HD
ATOM     38  H91 UNL     1      19.086  11.743 128.252  1.00  0.00     0.276 HD
ENDBRANCH  10  35
BRANCH   4  39
HETATM   39  O5  UNL     1      15.043  10.166 121.236  1.00  0.00    -0.356 OA
ATOM     40  H5  UNL     1      15.273  10.890 120.665  1.00  0.00     0.218 HD
ENDBRANCH   4  39
BRANCH   6  41
HETATM   41  O6  UNL     1      14.440   9.139 125.835  1.00  0.00    -0.356 OA
ATOM     42  H6  UNL     1      14.429   8.191 125.899  1.00  0.00     0.218 HD
ENDBRANCH   6  41
BRANCH   5  43
HETATM   43  N5  UNL     1      13.503   9.087 123.290  1.00  0.00    -0.298 N 
HETATM   44  N6  UNL     1      12.531   9.728 122.776  1.00  0.00    -0.311 N 
ATOM     45  H6  UNL     1      12.642  10.713 122.534  1.00  0.00     0.182 HD
ATOM     46  H5  UNL     1      13.361   8.103 123.520  1.00  0.00     0.186 HD
BRANCH  44  47
HETATM   47  C10 UNL     1      11.259   9.057 122.532  1.00  0.00     0.368 C 
BRANCH  47  48
HETATM   48  N7  UNL     1      10.141   9.856 122.963  1.00  0.00    -0.062 N 
ATOM     49  H73 UNL     1       9.896   9.659 123.933  1.00  0.00     0.276 HD
ATOM     50  H72 UNL     1      10.402  10.837 123.059  1.00  0.00     0.276 HD
ATOM     51  H71 UNL     1       9.336   9.744 122.346  1.00  0.00     0.276 HD
ENDBRANCH  47  48
ENDBRANCH  44  47
ENDBRANCH   5  43
TORSDOF 16
ENDMDL
MODEL 4
REMARK VINA RESULT: -5.968040202      2.965      4.038
REMARK  16 active torsions:
REMARK  status: ('A' for Active; 'I' for Inactive)
REMARK    1  A    between atoms: N1_2  and  N2_3 
REMARK    2  A    between atoms: N1_2  and  C2_6 
REMARK    3  A    between atoms: C2_6  and  O1_7 
REMARK    4  A    between atoms: C2_6  and  C3_9 
REMARK    5  A    between atoms: C3_9  and  O2_10 
REMARK    6  A    between atoms: C3_9  and  N3_12 
REMARK       I    between atoms: N3_12  and  C4_14 
REMARK    7  A    between atoms: C4_14  and  C5_16 
REMARK    8  A    between atoms: C5_16  and  N4_17 
REMARK    9  A    between atoms: C7_22  and  O4_23 
REMARK   10  A    between atoms: C8_25  and  O5_26 
REMARK   11  A    between atoms: C9_28  and  N5_29 
REMARK   12  A    between atoms: N6_31  and  C10_33 
REMARK   13  A    between atoms: C10_33  and  N7_34 
REMARK   14  A    between atoms: C11_38  and  O6_39 
REMARK   15  A    between atoms: C13_44  and  N9_45 
REMARK   16  A    between atoms: C14_49  and  O7_50 
ROOT
HETATM    1  C5  UNL     1      18.488  11.447 124.366  1.00  0.00     0.264 C 
HETATM    2  C6  UNL     1      17.209  10.833 124.076  1.00  0.00     0.055 A 
HETATM    3  C7  UNL     1      16.699  10.789 122.775  1.00  0.00     0.113 A 
HETATM    4  C8  UNL     1      15.474  10.193 122.567  1.00  0.00     0.131 A 
HETATM    5  C9  UNL     1      14.745   9.647 123.580  1.00  0.00     0.119 A 
HETATM    6  C11 UNL     1      15.246   9.685 124.874  1.00  0.00     0.124 A 
HETATM    7  C12 UNL     1      16.463  10.274 125.089  1.00  0.00     0.078 A 
HETATM    8  N8  UNL     1      16.936  10.266 126.444  1.00  0.00    -0.358 N 
ATOM      9  H8  UNL     1      16.333   9.978 127.214  1.00  0.00     0.162 HD
HETATM   10  C13 UNL     1      18.327  10.689 126.680  1.00  0.00     0.314 C 
HETATM   11  C14 UNL     1      18.598  11.905 125.783  1.00  0.00     0.218 C 
ENDROOT
BRANCH   1  12
HETATM   12  C4  UNL     1      18.873  12.537 123.413  1.00  0.00     0.267 C 
HETATM   13  N3  UNL     1      19.933  12.382 122.507  1.00  0.00    -0.305 N 
ATOM     14  H3  UNL     1      20.398  11.477 122.579  1.00  0.00     0.170 HD
HETATM   15  O3  UNL     1      18.198  13.568 123.477  1.00  0.00    -0.270 OA
BRANCH  13  16
HETATM   16  C3  UNL     1      20.476  13.203 121.540  1.00  0.00     0.164 C 
BRANCH  16  17
HETATM   17  C2  UNL     1      21.079  12.951 120.228  1.00  0.00     0.286 C 
BRANCH  17  18
HETATM   18  N1  UNL     1      21.248  11.503 120.004  1.00  0.00    -0.206 NA
HETATM   19  C1  UNL     1      21.892  11.279 118.743  1.00  0.00     0.139 C 
BRANCH  18  20
HETATM   20  N2  UNL     1      19.985  10.917 120.001  1.00  0.00    -0.361 NA
ATOM     21  H22 UNL     1      19.927  10.295 119.195  1.00  0.00     0.171 HD
ATOM     22  H21 UNL     1      19.849  10.383 120.859  1.00  0.00     0.171 HD
ENDBRANCH  18  20
ENDBRANCH  17  18
BRANCH  17  23
HETATM   23  O1  UNL     1      20.454  13.499 119.153  1.00  0.00    -0.372 OA
ATOM     24  H1  UNL     1      19.916  12.837 118.733  1.00  0.00     0.212 HD
ENDBRANCH  17  23
ENDBRANCH  16  17
BRANCH  16  25
HETATM   25  O2  UNL     1      20.433  14.484 121.885  1.00  0.00    -0.346 OA
ATOM     26  H2  UNL     1      19.765  14.988 121.436  1.00  0.00     0.219 HD
ENDBRANCH  16  25
ENDBRANCH  13  16
ENDBRANCH   1  12
BRANCH   1  27
HETATM   27  N4  UNL     1      19.501  10.387 124.212  1.00  0.00    -0.054 N 
ATOM     28  H43 UNL     1      20.101  10.516 123.396  1.00  0.00     0.276 HD
ATOM     29  H42 UNL     1      20.238  10.425 124.916  1.00  0.00     0.276 HD
ATOM     30  H41 UNL     1      18.991   9.504 124.206  1.00  0.00     0.276 HD
ENDBRANCH   1  27
BRANCH  11  31
HETATM   31  O7  UNL     1      17.781  12.943 126.146  1.00  0.00    -0.388 OA
ATOM     32  H7  UNL     1      17.919  13.764 125.689  1.00  0.00     0.210 HD
ENDBRANCH  11  31
BRANCH   3  33
HETATM   33  O4  UNL     1      17.382  11.320 121.697  1.00  0.00    -0.357 OA
ATOM     34  H4  UNL     1      18.329  11.388 121.679  1.00  0.00     0.217 HD
ENDBRANCH   3  33
BRANCH  10  35
HETATM   35  N9  UNL     1      18.590  10.950 128.060  1.00  0.00    -0.056 N 
ATOM     36  H93 UNL     1      17.831  11.484 128.484  1.00  0.00     0.276 HD
ATOM     37  H92 UNL     1      18.520  10.098 128.616  1.00  0.00     0.276 HD
ATOM     38  H91 UNL     1      19.488  11.411 128.204  1.00  0.00     0.276 HD
ENDBRANCH  10  35
BRANCH   4  39
HETATM   39  O5  UNL     1      14.972  10.158 121.251  1.00  0.00    -0.356 OA
ATOM     40  H5  UNL     1      14.308  10.794 121.011  1.00  0.00     0.218 HD
ENDBRANCH   4  39
BRANCH   6  41
HETATM   41  O6  UNL     1      14.468   9.118 125.860  1.00  0.00    -0.356 OA
ATOM     42  H6  UNL     1      13.560   9.393 125.902  1.00  0.00     0.218 HD
ENDBRANCH   6  41
BRANCH   5  43
HETATM   43  N5  UNL     1      13.490   9.044 123.331  1.00  0.00    -0.298 N 
HETATM   44  N6  UNL     1      12.526   9.636 122.747  1.00  0.00    -0.311 N 
ATOM     45  H6  UNL     1      12.637  10.599 122.430  1.00  0.00     0.182 HD
ATOM     46  H5  UNL     1      13.349   8.081 123.635  1.00  0.00     0.186 HD
BRANCH  44  47
HETATM   47  C10 UNL     1      11.263   8.939 122.532  1.00  0.00     0.368 C 
BRANCH  47  48
HETATM   48  N7  UNL     1      10.137   9.727 122.961  1.00  0.00    -0.062 N 
ATOM     49  H73 UNL     1      10.133  10.644 122.514  1.00  0.00     0.276 HD
ATOM     50  H72 UNL     1       9.263   9.361 122.584  1.00  0.00     0.276 HD
ATOM     51  H71 UNL     1      10.097   9.809 123.978  1.00  0.00     0.276 HD
ENDBRANCH  47  48
ENDBRANCH  44  47
ENDBRANCH   5  43
TORSDOF 16
ENDMDL
MODEL 5
REMARK VINA RESULT: -5.964265173      3.108      8.270
REMARK  16 active torsions:
REMARK  status: ('A' for Active; 'I' for Inactive)
REMARK    1  A    between atoms: N1_2  and  N2_3 
REMARK    2  A    between atoms: N1_2  and  C2_6 
REMARK    3  A    between atoms: C2_6  and  O1_7 
REMARK    4  A    between atoms: C2_6  and  C3_9 
REMARK    5  A    between atoms: C3_9  and  O2_10 
REMARK    6  A    between atoms: C3_9  and  N3_12 
REMARK       I    between atoms: N3_12  and  C4_14 
REMARK    7  A    between atoms: C4_14  and  C5_16 
REMARK    8  A    between atoms: C5_16  and  N4_17 
REMARK    9  A    between atoms: C7_22  and  O4_23 
REMARK   10  A    between atoms: C8_25  and  O5_26 
REMARK   11  A    between atoms: C9_28  and  N5_29 
REMARK   12  A    between atoms: N6_31  and  C10_33 
REMARK   13  A    between atoms: C10_33  and  N7_34 
REMARK   14  A    between atoms: C11_38  and  O6_39 
REMARK   15  A    between atoms: C13_44  and  N9_45 
REMARK   16  A    between atoms: C14_49  and  O7_50 
ROOT
HETATM    1  C5  UNL     1      18.936  12.236 122.575  1.00  0.00     0.264 C 
HETATM    2  C6  UNL     1      19.573  12.041 123.860  1.00  0.00     0.055 A 
HETATM    3  C7  UNL     1      18.900  12.308 125.056  1.00  0.00     0.113 A 
HETATM    4  C8  UNL     1      19.564  12.105 126.247  1.00  0.00     0.131 A 
HETATM    5  C9  UNL     1      20.849  11.655 126.299  1.00  0.00     0.119 A 
HETATM    6  C11 UNL     1      21.523  11.387 125.116  1.00  0.00     0.124 A 
HETATM    7  C12 UNL     1      20.870  11.585 123.929  1.00  0.00     0.078 A 
HETATM    8  N8  UNL     1      21.612  11.272 122.741  1.00  0.00    -0.358 N 
ATOM      9  H8  UNL     1      22.610  11.065 122.779  1.00  0.00     0.162 HD
HETATM   10  C13 UNL     1      20.877  11.261 121.464  1.00  0.00     0.314 C 
HETATM   11  C14 UNL     1      19.919  12.460 121.473  1.00  0.00     0.218 C 
ENDROOT
BRANCH   1  12
HETATM   12  C4  UNL     1      17.872  13.292 122.574  1.00  0.00     0.267 C 
HETATM   13  N3  UNL     1      16.511  12.964 122.490  1.00  0.00    -0.305 N 
ATOM     14  H3  UNL     1      16.338  11.961 122.424  1.00  0.00     0.170 HD
HETATM   15  O3  UNL     1      18.272  14.457 122.654  1.00  0.00    -0.270 OA
BRANCH  13  16
HETATM   16  C3  UNL     1      15.356  13.721 122.480  1.00  0.00     0.164 C 
BRANCH  16  17
HETATM   17  C2  UNL     1      13.930  13.382 122.445  1.00  0.00     0.286 C 
BRANCH  17  18
HETATM   18  N1  UNL     1      13.518  13.012 121.079  1.00  0.00    -0.206 NA
HETATM   19  C1  UNL     1      12.965  11.689 121.080  1.00  0.00     0.139 C 
BRANCH  18  20
HETATM   20  N2  UNL     1      14.646  13.052 120.262  1.00  0.00    -0.361 NA
ATOM     21  H22 UNL     1      14.407  12.616 119.371  1.00  0.00     0.171 HD
ATOM     22  H21 UNL     1      14.928  14.020 120.109  1.00  0.00     0.171 HD
ENDBRANCH  18  20
ENDBRANCH  17  18
BRANCH  17  23
HETATM   23  O1  UNL     1      13.509  12.425 123.313  1.00  0.00    -0.372 OA
ATOM     24  H1  UNL     1      14.265  11.996 123.697  1.00  0.00     0.212 HD
ENDBRANCH  17  23
ENDBRANCH  16  17
BRANCH  16  25
HETATM   25  O2  UNL     1      15.608  15.023 122.507  1.00  0.00    -0.346 OA
ATOM     26  H2  UNL     1      16.512  15.243 122.702  1.00  0.00     0.219 HD
ENDBRANCH  16  25
ENDBRANCH  13  16
ENDBRANCH   1  12
BRANCH   1  27
HETATM   27  N4  UNL     1      18.259  10.968 122.251  1.00  0.00    -0.054 N 
ATOM     28  H43 UNL     1      17.248  11.064 122.144  1.00  0.00     0.276 HD
ATOM     29  H42 UNL     1      18.453  10.634 121.307  1.00  0.00     0.276 HD
ATOM     30  H41 UNL     1      18.529  10.306 122.979  1.00  0.00     0.276 HD
ENDBRANCH   1  27
BRANCH  11  31
HETATM   31  O7  UNL     1      20.634  13.627 121.532  1.00  0.00    -0.388 OA
ATOM     32  H7  UNL     1      20.169  14.416 121.278  1.00  0.00     0.210 HD
ENDBRANCH  11  31
BRANCH   3  33
HETATM   33  O4  UNL     1      17.595  12.765 125.083  1.00  0.00    -0.357 OA
ATOM     34  H4  UNL     1      16.897  12.284 125.512  1.00  0.00     0.217 HD
ENDBRANCH   3  33
BRANCH  10  35
HETATM   35  N9  UNL     1      21.751  11.260 120.334  1.00  0.00    -0.056 N 
ATOM     36  H93 UNL     1      21.400  10.647 119.599  1.00  0.00     0.276 HD
ATOM     37  H92 UNL     1      21.711  12.150 119.837  1.00  0.00     0.276 HD
ATOM     38  H91 UNL     1      22.710  11.021 120.585  1.00  0.00     0.276 HD
ENDBRANCH  10  35
BRANCH   4  39
HETATM   39  O5  UNL     1      18.874  12.380 127.444  1.00  0.00    -0.356 OA
ATOM     40  H5  UNL     1      18.745  11.667 128.057  1.00  0.00     0.218 HD
ENDBRANCH   4  39
BRANCH   6  41
HETATM   41  O6  UNL     1      22.820  10.933 125.227  1.00  0.00    -0.356 OA
ATOM     42  H6  UNL     1      23.458  11.539 125.585  1.00  0.00     0.218 HD
ENDBRANCH   6  41
BRANCH   5  43
HETATM   43  N5  UNL     1      21.502  11.459 127.538  1.00  0.00    -0.298 N 
HETATM   44  N6  UNL     1      21.450  10.373 128.200  1.00  0.00    -0.311 N 
ATOM     45  H6  UNL     1      20.916   9.582 127.839  1.00  0.00     0.182 HD
ATOM     46  H5  UNL     1      22.045  12.232 127.924  1.00  0.00     0.186 HD
BRANCH  44  47
HETATM   47  C10 UNL     1      22.153  10.258 129.472  1.00  0.00     0.368 C 
BRANCH  47  48
HETATM   48  N7  UNL     1      23.389  10.997 129.470  1.00  0.00    -0.062 N 
ATOM     49  H73 UNL     1      24.009  10.686 130.218  1.00  0.00     0.276 HD
ATOM     50  H72 UNL     1      23.969  10.747 128.669  1.00  0.00     0.276 HD
ATOM     51  H71 UNL     1      23.229  12.003 129.514  1.00  0.00     0.276 HD
ENDBRANCH  47  48
ENDBRANCH  44  47
ENDBRANCH   5  43
TORSDOF 16
ENDMDL
