MODEL 1
REMARK VINA RESULT: -7.515597609      0.000      0.000
REMARK  6 active torsions:
REMARK  status: ('A' for Active; 'I' for Inactive)
REMARK    1  A    between atoms: C3_5  and  C4_6 
REMARK    2  A    between atoms: C4_6  and  N2_7 
REMARK    3  A    between atoms: C5_11  and  C6_12 
REMARK       I    between atoms: C6_12  and  N3_14 
REMARK    4  A    between atoms: C7_16  and  N4_17 
REMARK    5  A    between atoms: N4_17  and  N5_19 
REMARK    6  A    between atoms: C8_22  and  N6_23 
REMARK       I    between atoms: N6_23  and  C9_25 
REMARK       I    between atoms: C9_25  and  N7_26 
REMARK       I    between atoms: C9_25  and  N8_30 
ROOT
HETATM    1  C1  UNL     1      28.318  75.033  28.287  1.00  0.00     0.089 C 
HETATM    2  C2  UNL     1      29.436  75.026  29.260  1.00  0.00     0.078 A 
HETATM    3  N1  UNL     1      30.710  74.826  28.922  1.00  0.00    -0.347 N 
ATOM      4  H1  UNL     1      30.935  74.667  27.940  1.00  0.00     0.167 HD
HETATM    5  C3  UNL     1      31.733  74.824  29.837  1.00  0.00     0.055 A 
HETATM    6  C5  UNL     1      31.405  75.038  31.152  1.00  0.00     0.100 A 
HETATM    7  C8  UNL     1      30.055  75.252  31.514  1.00  0.00     0.123 A 
HETATM    8  N9  UNL     1      29.135  75.236  30.551  1.00  0.00    -0.332 N 
ATOM      9  H9  UNL     1      28.158  75.389  30.805  1.00  0.00     0.168 HD
ENDROOT
BRANCH   7  10
HETATM   10  N6  UNL     1      29.794  75.447  32.739  1.00  0.00    -0.326 N 
HETATM   11  C9  UNL     1      29.266  76.625  33.349  1.00  0.00     0.481 C 
HETATM   12  N7  UNL     1      27.934  76.970  32.928  1.00  0.00    -0.033 N 
HETATM   13  N8  UNL     1      30.152  77.776  33.256  1.00  0.00    -0.033 N 
ATOM     14  H73 UNL     1      27.892  77.047  31.911  1.00  0.00     0.278 HD
ATOM     15  H72 UNL     1      27.301  76.182  33.069  1.00  0.00     0.278 HD
ATOM     16  H71 UNL     1      27.556  77.811  33.363  1.00  0.00     0.278 HD
ATOM     17  H83 UNL     1      31.072  77.554  33.636  1.00  0.00     0.278 HD
ATOM     18  H82 UNL     1      30.408  77.956  32.285  1.00  0.00     0.278 HD
ATOM     19  H81 UNL     1      29.774  78.617  33.692  1.00  0.00     0.278 HD
ATOM     20  H6  UNL     1      29.986  74.665  33.366  1.00  0.00     0.164 HD
ENDBRANCH   7  10
BRANCH   6  21
HETATM   21  C6  UNL     1      32.421  75.045  32.181  1.00  0.00     0.262 C 
HETATM   22  O1  UNL     1      32.630  73.952  32.811  1.00  0.00    -0.267 OA
HETATM   23  N3  UNL     1      33.184  76.152  32.532  1.00  0.00    -0.318 N 
HETATM   24  C7  UNL     1      33.682  76.373  33.704  1.00  0.00     0.199 C 
ATOM     25  H3  UNL     1      33.364  76.847  31.807  1.00  0.00     0.169 HD
BRANCH  24  26
HETATM   26  N4  UNL     1      34.443  77.518  33.981  1.00  0.00    -0.303 N 
ATOM     27  H4  UNL     1      34.195  78.406  33.544  1.00  0.00     0.187 HD
BRANCH  26  28
HETATM   28  N5  UNL     1      35.534  77.457  34.843  1.00  0.00    -0.344 N 
ATOM     29  H52 UNL     1      35.493  76.819  35.638  1.00  0.00     0.176 HD
ATOM     30  H51 UNL     1      36.358  78.036  34.684  1.00  0.00     0.176 HD
ENDBRANCH  26  28
ENDBRANCH  24  26
ENDBRANCH   6  21
BRANCH   5  31
HETATM   31  C4  UNL     1      33.113  74.601  29.385  1.00  0.00     0.287 C 
BRANCH  31  32
HETATM   32  N2  UNL     1      33.171  75.068  27.973  1.00  0.00    -0.074 N 
ATOM     33  H23 UNL     1      32.254  75.276  27.577  1.00  0.00     0.274 HD
ATOM     34  H22 UNL     1      33.567  76.002  27.871  1.00  0.00     0.274 HD
ATOM     35  H21 UNL     1      33.682  74.352  27.456  1.00  0.00     0.274 HD
ENDBRANCH  31  32
ENDBRANCH   5  31
TORSDOF 6
ENDMDL
MODEL 2
REMARK VINA RESULT: -7.242820060      1.760      1.921
REMARK  6 active torsions:
REMARK  status: ('A' for Active; 'I' for Inactive)
REMARK    1  A    between atoms: C3_5  and  C4_6 
REMARK    2  A    between atoms: C4_6  and  N2_7 
REMARK    3  A    between atoms: C5_11  and  C6_12 
REMARK       I    between atoms: C6_12  and  N3_14 
REMARK    4  A    between atoms: C7_16  and  N4_17 
REMARK    5  A    between atoms: N4_17  and  N5_19 
REMARK    6  A    between atoms: C8_22  and  N6_23 
REMARK       I    between atoms: N6_23  and  C9_25 
REMARK       I    between atoms: C9_25  and  N7_26 
REMARK       I    between atoms: C9_25  and  N8_30 
ROOT
HETATM    1  C1  UNL     1      28.374  75.215  28.076  1.00  0.00     0.089 C 
HETATM    2  C2  UNL     1      29.427  75.171  29.118  1.00  0.00     0.078 A 
HETATM    3  N1  UNL     1      30.710  74.909  28.864  1.00  0.00    -0.347 N 
ATOM      4  H1  UNL     1      30.988  74.728  27.899  1.00  0.00     0.167 HD
HETATM    5  C3  UNL     1      31.672  74.873  29.841  1.00  0.00     0.055 A 
HETATM    6  C5  UNL     1      31.271  75.119  31.130  1.00  0.00     0.100 A 
HETATM    7  C8  UNL     1      29.912  75.397  31.405  1.00  0.00     0.123 A 
HETATM    8  N9  UNL     1      29.055  75.410  30.385  1.00  0.00    -0.332 N 
ATOM      9  H9  UNL     1      28.073  75.610  30.576  1.00  0.00     0.168 HD
ENDROOT
BRANCH   7  10
HETATM   10  N6  UNL     1      29.585  75.619  32.609  1.00  0.00    -0.326 N 
HETATM   11  C9  UNL     1      29.291  76.874  33.223  1.00  0.00     0.481 C 
HETATM   12  N7  UNL     1      28.127  77.539  32.699  1.00  0.00    -0.033 N 
HETATM   13  N8  UNL     1      30.429  77.781  33.265  1.00  0.00    -0.033 N 
ATOM     14  H73 UNL     1      28.207  77.648  31.688  1.00  0.00     0.278 HD
ATOM     15  H72 UNL     1      27.316  76.922  32.745  1.00  0.00     0.278 HD
ATOM     16  H71 UNL     1      27.918  78.435  33.137  1.00  0.00     0.278 HD
ATOM     17  H83 UNL     1      31.229  77.336  33.716  1.00  0.00     0.278 HD
ATOM     18  H82 UNL     1      30.816  77.919  32.331  1.00  0.00     0.278 HD
ATOM     19  H81 UNL     1      30.220  78.678  33.704  1.00  0.00     0.278 HD
ATOM     20  H6  UNL     1      29.523  74.800  33.213  1.00  0.00     0.164 HD
ENDBRANCH   7  10
BRANCH   6  21
HETATM   21  C6  UNL     1      32.221  75.093  32.222  1.00  0.00     0.262 C 
HETATM   22  O1  UNL     1      32.941  76.134  32.402  1.00  0.00    -0.267 OA
HETATM   23  N3  UNL     1      32.404  74.021  33.086  1.00  0.00    -0.318 N 
HETATM   24  C7  UNL     1      33.510  73.729  33.688  1.00  0.00     0.199 C 
ATOM     25  H3  UNL     1      31.602  73.414  33.258  1.00  0.00     0.169 HD
BRANCH  24  26
HETATM   26  N4  UNL     1      33.615  72.625  34.548  1.00  0.00    -0.303 N 
ATOM     27  H4  UNL     1      33.709  71.688  34.156  1.00  0.00     0.187 HD
BRANCH  26  28
HETATM   28  N5  UNL     1      33.593  72.795  35.929  1.00  0.00    -0.344 N 
ATOM     29  H52 UNL     1      34.096  72.126  36.512  1.00  0.00     0.176 HD
ATOM     30  H51 UNL     1      33.084  73.572  36.351  1.00  0.00     0.176 HD
ENDBRANCH  26  28
ENDBRANCH  24  26
ENDBRANCH   6  21
BRANCH   5  31
HETATM   31  C4  UNL     1      33.065  74.582  29.480  1.00  0.00     0.287 C 
BRANCH  31  32
HETATM   32  N2  UNL     1      33.224  74.998  28.059  1.00  0.00    -0.074 N 
ATOM     33  H23 UNL     1      33.606  74.264  27.463  1.00  0.00     0.274 HD
ATOM     34  H22 UNL     1      32.337  75.110  27.568  1.00  0.00     0.274 HD
ATOM     35  H21 UNL     1      33.791  75.846  28.070  1.00  0.00     0.274 HD
ENDBRANCH  31  32
ENDBRANCH   5  31
TORSDOF 6
ENDMDL
MODEL 3
REMARK VINA RESULT: -6.510875701      2.439      5.543
REMARK  6 active torsions:
REMARK  status: ('A' for Active; 'I' for Inactive)
REMARK    1  A    between atoms: C3_5  and  C4_6 
REMARK    2  A    between atoms: C4_6  and  N2_7 
REMARK    3  A    between atoms: C5_11  and  C6_12 
REMARK       I    between atoms: C6_12  and  N3_14 
REMARK    4  A    between atoms: C7_16  and  N4_17 
REMARK    5  A    between atoms: N4_17  and  N5_19 
REMARK    6  A    between atoms: C8_22  and  N6_23 
REMARK       I    between atoms: N6_23  and  C9_25 
REMARK       I    between atoms: C9_25  and  N7_26 
REMARK       I    between atoms: C9_25  and  N8_30 
ROOT
HETATM    1  C1  UNL     1      35.292  77.353  34.942  1.00  0.00     0.089 C 
HETATM    2  C2  UNL     1      34.147  76.560  34.437  1.00  0.00     0.078 A 
HETATM    3  N1  UNL     1      34.072  75.232  34.520  1.00  0.00    -0.347 N 
ATOM      4  H1  UNL     1      34.844  74.726  34.955  1.00  0.00     0.167 HD
HETATM    5  C3  UNL     1      33.003  74.514  34.047  1.00  0.00     0.055 A 
HETATM    6  C5  UNL     1      31.978  75.216  33.465  1.00  0.00     0.100 A 
HETATM    7  C8  UNL     1      32.053  76.626  33.375  1.00  0.00     0.123 A 
HETATM    8  N9  UNL     1      33.134  77.231  33.865  1.00  0.00    -0.332 N 
ATOM      9  H9  UNL     1      33.195  78.247  33.803  1.00  0.00     0.168 HD
ENDROOT
BRANCH   7  10
HETATM   10  N6  UNL     1      31.085  77.236  32.830  1.00  0.00    -0.326 N 
HETATM   11  C9  UNL     1      29.958  77.842  33.466  1.00  0.00     0.481 C 
HETATM   12  N7  UNL     1      30.281  78.951  34.324  1.00  0.00    -0.033 N 
HETATM   13  N8  UNL     1      29.097  76.890  34.152  1.00  0.00    -0.033 N 
ATOM     14  H73 UNL     1      30.973  78.671  35.020  1.00  0.00     0.278 HD
ATOM     15  H72 UNL     1      30.819  79.650  33.813  1.00  0.00     0.278 HD
ATOM     16  H71 UNL     1      29.476  79.383  34.778  1.00  0.00     0.278 HD
ATOM     17  H83 UNL     1      28.799  76.150  33.516  1.00  0.00     0.278 HD
ATOM     18  H82 UNL     1      29.633  76.335  34.820  1.00  0.00     0.278 HD
ATOM     19  H81 UNL     1      28.292  77.322  34.606  1.00  0.00     0.278 HD
ATOM     20  H6  UNL     1      31.115  77.304  31.813  1.00  0.00     0.164 HD
ENDBRANCH   7  10
BRANCH   6  21
HETATM   21  C6  UNL     1      30.817  74.536  32.934  1.00  0.00     0.262 C 
HETATM   22  O1  UNL     1      29.883  74.236  33.754  1.00  0.00    -0.267 OA
HETATM   23  N3  UNL     1      30.645  74.187  31.600  1.00  0.00    -0.318 N 
HETATM   24  C7  UNL     1      29.952  73.183  31.175  1.00  0.00     0.199 C 
ATOM     25  H3  UNL     1      31.104  74.770  30.900  1.00  0.00     0.169 HD
BRANCH  24  26
HETATM   26  N4  UNL     1      29.827  72.896  29.807  1.00  0.00    -0.303 N 
ATOM     27  H4  UNL     1      30.609  73.080  29.180  1.00  0.00     0.187 HD
BRANCH  26  28
HETATM   28  N5  UNL     1      28.646  72.362  29.297  1.00  0.00    -0.344 N 
ATOM     29  H52 UNL     1      28.185  72.844  28.526  1.00  0.00     0.176 HD
ATOM     30  H51 UNL     1      28.250  71.507  29.686  1.00  0.00     0.176 HD
ENDBRANCH  26  28
ENDBRANCH  24  26
ENDBRANCH   6  21
BRANCH   5  31
HETATM   31  C4  UNL     1      32.992  73.051  34.181  1.00  0.00     0.287 C 
BRANCH  31  32
HETATM   32  N2  UNL     1      33.683  72.744  35.463  1.00  0.00    -0.074 N 
ATOM     33  H23 UNL     1      34.327  73.476  35.762  1.00  0.00     0.274 HD
ATOM     34  H22 UNL     1      33.065  72.780  36.275  1.00  0.00     0.274 HD
ATOM     35  H21 UNL     1      34.132  71.837  35.336  1.00  0.00     0.274 HD
ENDBRANCH  31  32
ENDBRANCH   5  31
TORSDOF 6
ENDMDL
MODEL 4
REMARK VINA RESULT: -6.386633884      2.377      4.305
REMARK  6 active torsions:
REMARK  status: ('A' for Active; 'I' for Inactive)
REMARK    1  A    between atoms: C3_5  and  C4_6 
REMARK    2  A    between atoms: C4_6  and  N2_7 
REMARK    3  A    between atoms: C5_11  and  C6_12 
REMARK       I    between atoms: C6_12  and  N3_14 
REMARK    4  A    between atoms: C7_16  and  N4_17 
REMARK    5  A    between atoms: N4_17  and  N5_19 
REMARK    6  A    between atoms: C8_22  and  N6_23 
REMARK       I    between atoms: N6_23  and  C9_25 
REMARK       I    between atoms: C9_25  and  N7_26 
REMARK       I    between atoms: C9_25  and  N8_30 
ROOT
HETATM    1  C1  UNL     1      28.522  78.609  33.071  1.00  0.00     0.089 C 
HETATM    2  C2  UNL     1      29.643  77.652  33.229  1.00  0.00     0.078 A 
HETATM    3  N1  UNL     1      30.804  77.961  33.807  1.00  0.00    -0.347 N 
ATOM      4  H1  UNL     1      30.934  78.908  34.163  1.00  0.00     0.167 HD
HETATM    5  C3  UNL     1      31.831  77.062  33.945  1.00  0.00     0.055 A 
HETATM    6  C5  UNL     1      31.631  75.795  33.457  1.00  0.00     0.100 A 
HETATM    7  C8  UNL     1      30.401  75.463  32.843  1.00  0.00     0.123 A 
HETATM    8  N9  UNL     1      29.465  76.408  32.759  1.00  0.00    -0.332 N 
ATOM      9  H9  UNL     1      28.575  76.175  32.317  1.00  0.00     0.168 HD
ENDROOT
BRANCH   7  10
HETATM   10  N6  UNL     1      30.257  74.282  32.406  1.00  0.00    -0.326 N 
HETATM   11  C9  UNL     1      30.117  73.857  31.050  1.00  0.00     0.481 C 
HETATM   12  N7  UNL     1      31.267  74.110  30.223  1.00  0.00    -0.033 N 
HETATM   13  N8  UNL     1      28.903  74.344  30.411  1.00  0.00    -0.033 N 
ATOM     14  H73 UNL     1      31.521  75.097  30.261  1.00  0.00     0.278 HD
ATOM     15  H72 UNL     1      32.101  73.698  30.639  1.00  0.00     0.278 HD
ATOM     16  H71 UNL     1      31.167  73.807  29.254  1.00  0.00     0.278 HD
ATOM     17  H83 UNL     1      28.080  74.088  30.957  1.00  0.00     0.278 HD
ATOM     18  H82 UNL     1      28.842  75.361  30.479  1.00  0.00     0.278 HD
ATOM     19  H81 UNL     1      28.803  74.041  29.442  1.00  0.00     0.278 HD
ATOM     20  H6  UNL     1      30.240  73.544  33.110  1.00  0.00     0.164 HD
ENDBRANCH   7  10
BRANCH   6  21
HETATM   21  C6  UNL     1      32.665  74.788  33.556  1.00  0.00     0.262 C 
HETATM   22  O1  UNL     1      33.348  74.538  32.503  1.00  0.00    -0.267 OA
HETATM   23  N3  UNL     1      32.968  74.075  34.709  1.00  0.00    -0.318 N 
HETATM   24  C7  UNL     1      33.459  72.880  34.740  1.00  0.00     0.199 C 
ATOM     25  H3  UNL     1      32.787  74.531  35.603  1.00  0.00     0.169 HD
BRANCH  24  26
HETATM   26  N4  UNL     1      33.737  72.226  35.949  1.00  0.00    -0.303 N 
ATOM     27  H4  UNL     1      33.968  71.232  35.943  1.00  0.00     0.187 HD
BRANCH  26  28
HETATM   28  N5  UNL     1      33.702  72.917  37.157  1.00  0.00    -0.344 N 
ATOM     29  H52 UNL     1      32.825  73.350  37.447  1.00  0.00     0.176 HD
ATOM     30  H51 UNL     1      34.534  72.989  37.742  1.00  0.00     0.176 HD
ENDBRANCH  26  28
ENDBRANCH  24  26
ENDBRANCH   6  21
BRANCH   5  31
HETATM   31  C4  UNL     1      33.079  77.477  34.599  1.00  0.00     0.287 C 
BRANCH  31  32
HETATM   32  N2  UNL     1      34.098  77.594  33.520  1.00  0.00    -0.074 N 
ATOM     33  H23 UNL     1      34.187  76.751  32.954  1.00  0.00     0.274 HD
ATOM     34  H22 UNL     1      33.820  78.223  32.767  1.00  0.00     0.274 HD
ATOM     35  H21 UNL     1      34.968  77.869  33.977  1.00  0.00     0.274 HD
ENDBRANCH  31  32
ENDBRANCH   5  31
TORSDOF 6
ENDMDL
MODEL 5
REMARK VINA RESULT: -5.919859886      1.830      4.631
REMARK  6 active torsions:
REMARK  status: ('A' for Active; 'I' for Inactive)
REMARK    1  A    between atoms: C3_5  and  C4_6 
REMARK    2  A    between atoms: C4_6  and  N2_7 
REMARK    3  A    between atoms: C5_11  and  C6_12 
REMARK       I    between atoms: C6_12  and  N3_14 
REMARK    4  A    between atoms: C7_16  and  N4_17 
REMARK    5  A    between atoms: N4_17  and  N5_19 
REMARK    6  A    between atoms: C8_22  and  N6_23 
REMARK       I    between atoms: N6_23  and  C9_25 
REMARK       I    between atoms: C9_25  and  N7_26 
REMARK       I    between atoms: C9_25  and  N8_30 
ROOT
HETATM    1  C1  UNL     1      33.025  74.386  28.982  1.00  0.00     0.089 C 
HETATM    2  C2  UNL     1      32.156  74.863  30.084  1.00  0.00     0.078 A 
HETATM    3  N1  UNL     1      32.617  75.458  31.185  1.00  0.00    -0.347 N 
ATOM      4  H1  UNL     1      33.623  75.595  31.280  1.00  0.00     0.167 HD
HETATM    5  C3  UNL     1      31.798  75.893  32.196  1.00  0.00     0.055 A 
HETATM    6  C5  UNL     1      30.449  75.695  32.045  1.00  0.00     0.100 A 
HETATM    7  C8  UNL     1      29.956  75.065  30.879  1.00  0.00     0.123 A 
HETATM    8  N9  UNL     1      30.833  74.679  29.954  1.00  0.00    -0.332 N 
ATOM      9  H9  UNL     1      30.485  74.224  29.110  1.00  0.00     0.168 HD
ENDROOT
BRANCH   7  10
HETATM   10  N6  UNL     1      28.703  74.902  30.778  1.00  0.00    -0.326 N 
HETATM   11  C9  UNL     1      27.993  74.111  29.824  1.00  0.00     0.481 C 
HETATM   12  N7  UNL     1      28.252  72.698  29.908  1.00  0.00    -0.033 N 
HETATM   13  N8  UNL     1      28.138  74.583  28.455  1.00  0.00    -0.033 N 
ATOM     14  H73 UNL     1      29.254  72.517  29.844  1.00  0.00     0.278 HD
ATOM     15  H72 UNL     1      28.073  72.360  30.853  1.00  0.00     0.278 HD
ATOM     16  H71 UNL     1      27.745  72.133  29.227  1.00  0.00     0.278 HD
ATOM     17  H83 UNL     1      27.870  75.565  28.382  1.00  0.00     0.278 HD
ATOM     18  H82 UNL     1      29.123  74.656  28.200  1.00  0.00     0.278 HD
ATOM     19  H81 UNL     1      27.630  74.018  27.774  1.00  0.00     0.278 HD
ATOM     20  H6  UNL     1      28.132  75.396  31.464  1.00  0.00     0.164 HD
ENDBRANCH   7  10
BRANCH   6  21
HETATM   21  C6  UNL     1      29.515  76.118  33.067  1.00  0.00     0.262 C 
HETATM   22  O1  UNL     1      29.108  75.234  33.896  1.00  0.00    -0.267 OA
HETATM   23  N3  UNL     1      29.032  77.412  33.209  1.00  0.00    -0.318 N 
HETATM   24  C7  UNL     1      27.882  77.728  33.706  1.00  0.00     0.199 C 
ATOM     25  H3  UNL     1      29.634  78.175  32.897  1.00  0.00     0.169 HD
BRANCH  24  26
HETATM   26  N4  UNL     1      27.465  79.063  33.816  1.00  0.00    -0.303 N 
ATOM     27  H4  UNL     1      27.721  79.734  33.092  1.00  0.00     0.187 HD
BRANCH  26  28
HETATM   28  N5  UNL     1      26.705  79.484  34.905  1.00  0.00    -0.344 N 
ATOM     29  H52 UNL     1      26.469  78.805  35.628  1.00  0.00     0.176 HD
ATOM     30  H51 UNL     1      26.392  80.451  34.979  1.00  0.00     0.176 HD
ENDBRANCH  26  28
ENDBRANCH  24  26
ENDBRANCH   6  21
BRANCH   5  31
HETATM   31  C4  UNL     1      32.382  76.544  33.376  1.00  0.00     0.287 C 
BRANCH  31  32
HETATM   32  N2  UNL     1      33.858  76.421  33.234  1.00  0.00    -0.074 N 
ATOM     33  H23 UNL     1      34.192  76.613  32.289  1.00  0.00     0.274 HD
ATOM     34  H22 UNL     1      34.374  77.166  33.703  1.00  0.00     0.274 HD
ATOM     35  H21 UNL     1      34.101  75.488  33.567  1.00  0.00     0.274 HD
ENDBRANCH  31  32
ENDBRANCH   5  31
TORSDOF 6
ENDMDL
