MODEL 1
REMARK VINA RESULT: -7.870350646      0.000      0.000
REMARK  6 active torsions:
REMARK  status: ('A' for Active; 'I' for Inactive)
REMARK    1  A    between atoms: N1_1  and  N2_4 
REMARK       I    between atoms: N2_4  and  C1_6 
REMARK    2  A    between atoms: C1_6  and  C2_8 
REMARK    3  A    between atoms: N3_9  and  N4_11 
REMARK       I    between atoms: N4_11  and  C3_13 
REMARK       I    between atoms: C3_13  and  N5_15 
REMARK    4  A    between atoms: N5_15  and  N6_17 
REMARK    5  A    between atoms: C4_19  and  C5_20 
REMARK    6  A    between atoms: N7_24  and  N8_25 
ROOT
HETATM    1  N4  UNL     1      33.785  73.900  35.602  1.00  0.00    -0.251 N 
ATOM      2  H4  UNL     1      34.780  73.853  35.378  1.00  0.00     0.191 HD
HETATM    3  C3  UNL     1      32.818  74.023  34.552  1.00  0.00     0.353 C 
HETATM    4  O2  UNL     1      31.584  74.084  34.804  1.00  0.00    -0.244 OA
HETATM    5  N5  UNL     1      33.278  74.073  33.215  1.00  0.00    -0.251 N 
ATOM      6  H5  UNL     1      34.277  74.024  33.011  1.00  0.00     0.191 HD
ENDROOT
BRANCH   1   7
HETATM    7  N3  UNL     1      33.373  73.849  36.906  1.00  0.00    -0.302 N 
HETATM    8  C2  UNL     1      33.894  73.264  37.878  1.00  0.00     0.182 C 
ATOM      9  H3  UNL     1      32.516  74.362  37.113  1.00  0.00     0.186 HD
BRANCH   8  10
HETATM   10  C1  UNL     1      35.076  72.478  37.903  1.00  0.00     0.276 C 
HETATM   11  N2  UNL     1      35.892  72.122  38.989  1.00  0.00    -0.272 N 
ATOM     12  H2  UNL     1      35.636  72.456  39.919  1.00  0.00     0.189 HD
HETATM   13  O1  UNL     1      35.481  72.006  36.762  1.00  0.00    -0.265 OA
BRANCH  11  14
HETATM   14  N1  UNL     1      37.052  71.323  38.858  1.00  0.00    -0.342 N 
ATOM     15  H12 UNL     1      37.308  71.019  37.918  1.00  0.00     0.176 HD
ATOM     16  H11 UNL     1      37.631  71.044  39.649  1.00  0.00     0.176 HD
ENDBRANCH  11  14
ENDBRANCH   8  10
ENDBRANCH   1   7
BRANCH   5  17
HETATM   17  N6  UNL     1      32.353  74.192  32.178  1.00  0.00    -0.306 N 
HETATM   18  C4  UNL     1      32.563  74.951  31.145  1.00  0.00     0.138 C 
ATOM     19  H6  UNL     1      31.481  73.665  32.233  1.00  0.00     0.186 HD
BRANCH  18  20
HETATM   20  C5  UNL     1      31.522  74.991  30.130  1.00  0.00     0.072 A 
HETATM   21  C6  UNL     1      30.175  74.991  30.410  1.00  0.00     0.034 A 
HETATM   22  C7  UNL     1      29.516  75.034  29.197  1.00  0.00     0.022 A 
HETATM   23  C8  UNL     1      30.442  75.058  28.199  1.00  0.00     0.116 A 
HETATM   24  N7  UNL     1      31.652  75.032  28.797  1.00  0.00    -0.273 N 
BRANCH  24  25
HETATM   25  N8  UNL     1      32.916  75.042  28.161  1.00  0.00    -0.339 N 
ATOM     26  H82 UNL     1      33.805  74.734  28.556  1.00  0.00     0.177 HD
ATOM     27  H81 UNL     1      33.043  75.378  27.206  1.00  0.00     0.177 HD
ENDBRANCH  24  25
ENDBRANCH  18  20
ENDBRANCH   5  17
TORSDOF 6
ENDMDL
MODEL 2
REMARK VINA RESULT: -7.868822692      1.136      1.511
REMARK  6 active torsions:
REMARK  status: ('A' for Active; 'I' for Inactive)
REMARK    1  A    between atoms: N1_1  and  N2_4 
REMARK       I    between atoms: N2_4  and  C1_6 
REMARK    2  A    between atoms: C1_6  and  C2_8 
REMARK    3  A    between atoms: N3_9  and  N4_11 
REMARK       I    between atoms: N4_11  and  C3_13 
REMARK       I    between atoms: C3_13  and  N5_15 
REMARK    4  A    between atoms: N5_15  and  N6_17 
REMARK    5  A    between atoms: C4_19  and  C5_20 
REMARK    6  A    between atoms: N7_24  and  N8_25 
ROOT
HETATM    1  N4  UNL     1      33.811  73.936  35.730  1.00  0.00    -0.251 N 
ATOM      2  H4  UNL     1      34.809  74.081  35.579  1.00  0.00     0.191 HD
HETATM    3  C3  UNL     1      32.907  73.947  34.617  1.00  0.00     0.353 C 
HETATM    4  O2  UNL     1      31.669  73.770  34.779  1.00  0.00    -0.244 OA
HETATM    5  N5  UNL     1      33.435  74.162  33.322  1.00  0.00    -0.251 N 
ATOM      6  H5  UNL     1      34.437  74.305  33.192  1.00  0.00     0.191 HD
ENDROOT
BRANCH   1   7
HETATM    7  N3  UNL     1      33.331  73.730  36.994  1.00  0.00    -0.302 N 
HETATM    8  C2  UNL     1      33.821  73.060  37.927  1.00  0.00     0.182 C 
ATOM      9  H3  UNL     1      32.446  74.191  37.206  1.00  0.00     0.186 HD
BRANCH   8  10
HETATM   10  C1  UNL     1      35.028  72.312  37.936  1.00  0.00     0.276 C 
HETATM   11  N2  UNL     1      35.807  71.882  39.022  1.00  0.00    -0.272 N 
ATOM     12  H2  UNL     1      35.499  72.119  39.965  1.00  0.00     0.189 HD
HETATM   13  O1  UNL     1      35.499  71.962  36.776  1.00  0.00    -0.265 OA
BRANCH  11  14
HETATM   14  N1  UNL     1      37.000  71.135  38.872  1.00  0.00    -0.342 N 
ATOM     15  H12 UNL     1      37.864  71.657  38.729  1.00  0.00     0.176 HD
ATOM     16  H11 UNL     1      37.028  70.116  38.900  1.00  0.00     0.176 HD
ENDBRANCH  11  14
ENDBRANCH   8  10
ENDBRANCH   1   7
BRANCH   5  17
HETATM   17  N6  UNL     1      32.573  74.176  32.226  1.00  0.00    -0.306 N 
HETATM   18  C4  UNL     1      32.151  75.282  31.691  1.00  0.00     0.138 C 
ATOM     19  H6  UNL     1      32.263  73.288  31.832  1.00  0.00     0.186 HD
BRANCH  18  20
HETATM   20  C5  UNL     1      31.255  75.166  30.552  1.00  0.00     0.072 A 
HETATM   21  C6  UNL     1      31.666  74.835  29.281  1.00  0.00     0.034 A 
HETATM   22  C7  UNL     1      30.536  74.827  28.486  1.00  0.00     0.022 A 
HETATM   23  C8  UNL     1      29.460  75.147  29.255  1.00  0.00     0.116 A 
HETATM   24  N7  UNL     1      29.928  75.348  30.506  1.00  0.00    -0.273 N 
BRANCH  24  25
HETATM   25  N8  UNL     1      29.174  75.702  31.650  1.00  0.00    -0.339 N 
ATOM     26  H82 UNL     1      29.241  75.290  32.581  1.00  0.00     0.177 HD
ATOM     27  H81 UNL     1      28.466  76.436  31.631  1.00  0.00     0.177 HD
ENDBRANCH  24  25
ENDBRANCH  18  20
ENDBRANCH   5  17
TORSDOF 6
ENDMDL
MODEL 3
REMARK VINA RESULT: -7.443297304      5.172      6.150
REMARK  6 active torsions:
REMARK  status: ('A' for Active; 'I' for Inactive)
REMARK    1  A    between atoms: N1_1  and  N2_4 
REMARK       I    between atoms: N2_4  and  C1_6 
REMARK    2  A    between atoms: C1_6  and  C2_8 
REMARK    3  A    between atoms: N3_9  and  N4_11 
REMARK       I    between atoms: N4_11  and  C3_13 
REMARK       I    between atoms: C3_13  and  N5_15 
REMARK    4  A    between atoms: N5_15  and  N6_17 
REMARK    5  A    between atoms: C4_19  and  C5_20 
REMARK    6  A    between atoms: N7_24  and  N8_25 
ROOT
HETATM    1  N4  UNL     1      32.094  75.543  33.689  1.00  0.00    -0.251 N 
ATOM      2  H4  UNL     1      32.901  76.151  33.550  1.00  0.00     0.191 HD
HETATM    3  C3  UNL     1      30.784  76.108  33.832  1.00  0.00     0.353 C 
HETATM    4  O2  UNL     1      29.772  75.377  34.005  1.00  0.00    -0.244 OA
HETATM    5  N5  UNL     1      30.649  77.516  33.775  1.00  0.00    -0.251 N 
ATOM      6  H5  UNL     1      31.469  78.107  33.635  1.00  0.00     0.191 HD
ENDROOT
BRANCH   1   7
HETATM    7  N3  UNL     1      32.258  74.186  33.739  1.00  0.00    -0.302 N 
HETATM    8  C2  UNL     1      32.869  73.493  34.579  1.00  0.00     0.182 C 
ATOM      9  H3  UNL     1      31.818  73.664  32.981  1.00  0.00     0.186 HD
BRANCH   8  10
HETATM   10  C1  UNL     1      33.574  73.926  35.732  1.00  0.00     0.276 C 
HETATM   11  N2  UNL     1      33.671  73.330  37.000  1.00  0.00    -0.272 N 
ATOM     12  H2  UNL     1      33.177  72.452  37.163  1.00  0.00     0.189 HD
HETATM   13  O1  UNL     1      34.238  75.038  35.621  1.00  0.00    -0.265 OA
BRANCH  11  14
HETATM   14  N1  UNL     1      34.421  73.886  38.063  1.00  0.00    -0.342 N 
ATOM     15  H12 UNL     1      34.075  74.750  38.479  1.00  0.00     0.176 HD
ATOM     16  H11 UNL     1      35.278  73.465  38.422  1.00  0.00     0.176 HD
ENDBRANCH  11  14
ENDBRANCH   8  10
ENDBRANCH   1   7
BRANCH   5  17
HETATM   17  N6  UNL     1      29.384  78.086  33.912  1.00  0.00    -0.306 N 
HETATM   18  C4  UNL     1      29.076  78.858  34.910  1.00  0.00     0.138 C 
ATOM     19  H6  UNL     1      28.676  77.890  33.204  1.00  0.00     0.186 HD
BRANCH  18  20
HETATM   20  C5  UNL     1      27.724  79.393  34.942  1.00  0.00     0.072 A 
HETATM   21  C6  UNL     1      26.918  79.509  33.833  1.00  0.00     0.034 A 
HETATM   22  C7  UNL     1      25.724  80.054  34.264  1.00  0.00     0.022 A 
HETATM   23  C8  UNL     1      25.801  80.266  35.607  1.00  0.00     0.116 A 
HETATM   24  N7  UNL     1      27.028  79.853  35.991  1.00  0.00    -0.273 N 
BRANCH  24  25
HETATM   25  N8  UNL     1      27.564  79.879  37.300  1.00  0.00    -0.339 N 
ATOM     26  H82 UNL     1      27.509  79.139  38.000  1.00  0.00     0.177 HD
ATOM     27  H81 UNL     1      28.073  80.684  37.665  1.00  0.00     0.177 HD
ENDBRANCH  24  25
ENDBRANCH  18  20
ENDBRANCH   5  17
TORSDOF 6
ENDMDL
MODEL 4
REMARK VINA RESULT: -7.324684963      2.365      8.554
REMARK  6 active torsions:
REMARK  status: ('A' for Active; 'I' for Inactive)
REMARK    1  A    between atoms: N1_1  and  N2_4 
REMARK       I    between atoms: N2_4  and  C1_6 
REMARK    2  A    between atoms: C1_6  and  C2_8 
REMARK    3  A    between atoms: N3_9  and  N4_11 
REMARK       I    between atoms: N4_11  and  C3_13 
REMARK       I    between atoms: C3_13  and  N5_15 
REMARK    4  A    between atoms: N5_15  and  N6_17 
REMARK    5  A    between atoms: C4_19  and  C5_20 
REMARK    6  A    between atoms: N7_24  and  N8_25 
ROOT
HETATM    1  N4  UNL     1      31.986  73.698  33.086  1.00  0.00    -0.251 N 
ATOM      2  H4  UNL     1      31.237  73.007  33.129  1.00  0.00     0.191 HD
HETATM    3  C3  UNL     1      33.065  73.647  34.028  1.00  0.00     0.353 C 
HETATM    4  O2  UNL     1      34.002  74.491  33.994  1.00  0.00    -0.244 OA
HETATM    5  N5  UNL     1      33.059  72.623  35.004  1.00  0.00    -0.251 N 
ATOM      6  H5  UNL     1      32.301  71.941  35.031  1.00  0.00     0.191 HD
ENDROOT
BRANCH   1   7
HETATM    7  N3  UNL     1      31.962  74.676  32.129  1.00  0.00    -0.302 N 
HETATM    8  C2  UNL     1      31.098  75.550  31.912  1.00  0.00     0.182 C 
ATOM      9  H3  UNL     1      32.768  74.694  31.503  1.00  0.00     0.186 HD
BRANCH   8  10
HETATM   10  C1  UNL     1      29.880  75.777  32.606  1.00  0.00     0.276 C 
HETATM   11  N2  UNL     1      28.769  76.553  32.237  1.00  0.00    -0.272 N 
ATOM     12  H2  UNL     1      28.797  77.046  31.344  1.00  0.00     0.189 HD
HETATM   13  O1  UNL     1      29.752  75.186  33.756  1.00  0.00    -0.265 OA
BRANCH  11  14
HETATM   14  N1  UNL     1      27.613  76.683  33.042  1.00  0.00    -0.342 N 
ATOM     15  H12 UNL     1      27.693  77.247  33.888  1.00  0.00     0.176 HD
ATOM     16  H11 UNL     1      26.722  76.245  32.814  1.00  0.00     0.176 HD
ENDBRANCH  11  14
ENDBRANCH   8  10
ENDBRANCH   1   7
BRANCH   5  17
HETATM   17  N6  UNL     1      34.100  72.556  35.929  1.00  0.00    -0.306 N 
HETATM   18  C4  UNL     1      33.961  71.987  37.089  1.00  0.00     0.138 C 
ATOM     19  H6  UNL     1      35.002  72.967  35.687  1.00  0.00     0.186 HD
BRANCH  18  20
HETATM   20  C5  UNL     1      35.120  71.981  37.967  1.00  0.00     0.072 A 
HETATM   21  C6  UNL     1      35.988  70.920  38.087  1.00  0.00     0.034 A 
HETATM   22  C7  UNL     1      36.948  71.292  39.007  1.00  0.00     0.022 A 
HETATM   23  C8  UNL     1      36.672  72.553  39.440  1.00  0.00     0.116 A 
HETATM   24  N7  UNL     1      35.555  72.946  38.790  1.00  0.00    -0.273 N 
BRANCH  24  25
HETATM   25  N8  UNL     1      34.889  74.187  38.917  1.00  0.00    -0.339 N 
ATOM     26  H82 UNL     1      35.318  75.104  39.046  1.00  0.00     0.177 HD
ATOM     27  H81 UNL     1      33.872  74.266  38.888  1.00  0.00     0.177 HD
ENDBRANCH  24  25
ENDBRANCH  18  20
ENDBRANCH   5  17
TORSDOF 6
ENDMDL
MODEL 5
REMARK VINA RESULT: -7.227787659      2.234      8.680
REMARK  6 active torsions:
REMARK  status: ('A' for Active; 'I' for Inactive)
REMARK    1  A    between atoms: N1_1  and  N2_4 
REMARK       I    between atoms: N2_4  and  C1_6 
REMARK    2  A    between atoms: C1_6  and  C2_8 
REMARK    3  A    between atoms: N3_9  and  N4_11 
REMARK       I    between atoms: N4_11  and  C3_13 
REMARK       I    between atoms: C3_13  and  N5_15 
REMARK    4  A    between atoms: N5_15  and  N6_17 
REMARK    5  A    between atoms: C4_19  and  C5_20 
REMARK    6  A    between atoms: N7_24  and  N8_25 
ROOT
HETATM    1  N4  UNL     1      31.967  73.727  33.065  1.00  0.00    -0.251 N 
ATOM      2  H4  UNL     1      31.194  73.065  33.132  1.00  0.00     0.191 HD
HETATM    3  C3  UNL     1      33.053  73.659  33.997  1.00  0.00     0.353 C 
HETATM    4  O2  UNL     1      34.020  74.467  33.934  1.00  0.00    -0.244 OA
HETATM    5  N5  UNL     1      33.020  72.661  34.999  1.00  0.00    -0.251 N 
ATOM      6  H5  UNL     1      32.237  72.008  35.050  1.00  0.00     0.191 HD
ENDROOT
BRANCH   1   7
HETATM    7  N3  UNL     1      31.970  74.681  32.084  1.00  0.00    -0.302 N 
HETATM    8  C2  UNL     1      31.151  74.870  31.161  1.00  0.00     0.182 C 
ATOM      9  H3  UNL     1      32.755  75.332  32.111  1.00  0.00     0.186 HD
BRANCH   8  10
HETATM   10  C1  UNL     1      29.971  74.137  30.867  1.00  0.00     0.276 C 
HETATM   11  N2  UNL     1      29.828  72.826  30.382  1.00  0.00    -0.272 N 
ATOM     12  H2  UNL     1      30.670  72.282  30.199  1.00  0.00     0.189 HD
HETATM   13  O1  UNL     1      28.843  74.750  31.070  1.00  0.00    -0.265 OA
BRANCH  11  14
HETATM   14  N1  UNL     1      28.571  72.225  30.134  1.00  0.00    -0.342 N 
ATOM     15  H12 UNL     1      28.559  71.220  29.962  1.00  0.00     0.176 HD
ATOM     16  H11 UNL     1      27.695  72.747  30.122  1.00  0.00     0.176 HD
ENDBRANCH  11  14
ENDBRANCH   8  10
ENDBRANCH   1   7
BRANCH   5  17
HETATM   17  N6  UNL     1      34.067  72.578  35.916  1.00  0.00    -0.306 N 
HETATM   18  C4  UNL     1      33.925  72.022  37.082  1.00  0.00     0.138 C 
ATOM     19  H6  UNL     1      34.975  72.967  35.663  1.00  0.00     0.186 HD
BRANCH  18  20
HETATM   20  C5  UNL     1      35.092  71.997  37.950  1.00  0.00     0.072 A 
HETATM   21  C6  UNL     1      35.938  70.919  38.069  1.00  0.00     0.034 A 
HETATM   22  C7  UNL     1      36.914  71.277  38.978  1.00  0.00     0.022 A 
HETATM   23  C8  UNL     1      36.667  72.546  39.406  1.00  0.00     0.116 A 
HETATM   24  N7  UNL     1      35.553  72.957  38.762  1.00  0.00    -0.273 N 
BRANCH  24  25
HETATM   25  N8  UNL     1      34.914  74.214  38.886  1.00  0.00    -0.339 N 
ATOM     26  H82 UNL     1      34.766  74.902  38.149  1.00  0.00     0.177 HD
ATOM     27  H81 UNL     1      34.532  74.546  39.772  1.00  0.00     0.177 HD
ENDBRANCH  24  25
ENDBRANCH  18  20
ENDBRANCH   5  17
TORSDOF 6
ENDMDL
