MODEL 1
REMARK VINA RESULT: -7.069295921      0.000      0.000
REMARK  4 active torsions:
REMARK  status: ('A' for Active; 'I' for Inactive)
REMARK    1  A    between atoms: N1_1  and  C1_5 
REMARK    2  A    between atoms: N2_10  and  N3_11 
REMARK    3  A    between atoms: C6_13  and  C7_14 
REMARK    4  A    between atoms: C8_15  and  C9_16 
ROOT
HETATM    1  N3  UNL     1      16.456  -5.110 -10.198  1.00  0.00    -0.312 N 
ATOM      2  H3  UNL     1      16.152  -5.911 -10.751  1.00  0.00     0.185 HD
HETATM    3  C6  UNL     1      16.484  -5.207  -8.924  1.00  0.00     0.107 C 
ENDROOT
BRANCH   1   4
HETATM    4  N2  UNL     1      16.827  -3.949 -10.844  1.00  0.00    -0.298 N 
HETATM    5  C1  UNL     1      18.168  -3.813 -11.321  1.00  0.00     0.298 C 
HETATM    6  C2  UNL     1      18.745  -2.585 -10.613  1.00  0.00     0.056 C 
HETATM    7  C3  UNL     1      17.843  -1.419 -10.941  1.00  0.00     0.006 C 
HETATM    8  C4  UNL     1      16.471  -1.651 -10.372  1.00  0.00     0.022 C 
HETATM    9  C5  UNL     1      15.865  -2.902 -11.024  1.00  0.00     0.145 C 
BRANCH   5  10
HETATM   10  N1  UNL     1      18.266  -3.683 -12.752  1.00  0.00    -0.057 N 
ATOM     11  H13 UNL     1      17.524  -3.091 -13.126  1.00  0.00     0.276 HD
ATOM     12  H12 UNL     1      19.069  -3.116 -13.022  1.00  0.00     0.276 HD
ATOM     13  H11 UNL     1      18.281  -4.597 -13.204  1.00  0.00     0.276 HD
ENDBRANCH   5  10
ENDBRANCH   1   4
BRANCH   3  14
HETATM   14  C7  UNL     1      16.089  -6.438  -8.260  1.00  0.00     0.019 C 
HETATM   15  C8  UNL     1      15.681  -7.477  -9.022  1.00  0.00     0.002 C 
BRANCH  15  16
HETATM   16  C9  UNL     1      15.294  -8.689  -8.344  1.00  0.00     0.007 C 
HETATM   17  C10 UNL     1      14.251  -9.387  -8.703  1.00  0.00    -0.058 C 
HETATM   18  C11 UNL     1      13.904 -10.605  -7.981  1.00  0.00     0.003 C 
HETATM   19  C15 UNL     1      13.410  -8.971  -9.828  1.00  0.00     0.039 C 
HETATM   20  C12 UNL     1      12.983 -11.414  -8.464  1.00  0.00    -0.026 C 
HETATM   21  C13 UNL     1      12.254 -11.165  -9.728  1.00  0.00     0.027 C 
HETATM   22  C14 UNL     1      13.011 -10.207 -10.624  1.00  0.00     0.008 C 
ENDBRANCH  15  16
ENDBRANCH   3  14
TORSDOF 4
ENDMDL
MODEL 2
REMARK VINA RESULT: -7.034218715      5.553      6.752
REMARK  4 active torsions:
REMARK  status: ('A' for Active; 'I' for Inactive)
REMARK    1  A    between atoms: N1_1  and  C1_5 
REMARK    2  A    between atoms: N2_10  and  N3_11 
REMARK    3  A    between atoms: C6_13  and  C7_14 
REMARK    4  A    between atoms: C8_15  and  C9_16 
ROOT
HETATM    1  N3  UNL     1      16.492  -8.652  -3.855  1.00  0.00    -0.312 N 
ATOM      2  H3  UNL     1      15.900  -9.271  -3.301  1.00  0.00     0.185 HD
HETATM    3  C6  UNL     1      16.311  -8.583  -5.118  1.00  0.00     0.107 C 
ENDROOT
BRANCH   1   4
HETATM    4  N2  UNL     1      17.465  -7.909  -3.221  1.00  0.00    -0.298 N 
HETATM    5  C1  UNL     1      17.950  -8.334  -1.945  1.00  0.00     0.298 C 
HETATM    6  C2  UNL     1      17.657  -7.185  -0.978  1.00  0.00     0.056 C 
HETATM    7  C3  UNL     1      18.342  -5.957  -1.529  1.00  0.00     0.006 C 
HETATM    8  C4  UNL     1      17.741  -5.581  -2.855  1.00  0.00     0.022 C 
HETATM    9  C5  UNL     1      17.973  -6.725  -3.851  1.00  0.00     0.145 C 
BRANCH   5  10
HETATM   10  N1  UNL     1      19.348  -8.678  -1.939  1.00  0.00    -0.057 N 
ATOM     11  H13 UNL     1      19.588  -9.256  -1.134  1.00  0.00     0.276 HD
ATOM     12  H12 UNL     1      19.574  -9.340  -2.680  1.00  0.00     0.276 HD
ATOM     13  H11 UNL     1      19.933  -7.843  -1.990  1.00  0.00     0.276 HD
ENDBRANCH   5  10
ENDBRANCH   1   4
BRANCH   3  14
HETATM   14  C7  UNL     1      15.280  -9.374  -5.769  1.00  0.00     0.019 C 
HETATM   15  C8  UNL     1      15.548  -9.906  -6.982  1.00  0.00     0.002 C 
BRANCH  15  16
HETATM   16  C9  UNL     1      14.512 -10.687  -7.611  1.00  0.00     0.007 C 
HETATM   17  C10 UNL     1      13.852 -10.261  -8.654  1.00  0.00    -0.058 C 
HETATM   18  C11 UNL     1      12.814 -11.092  -9.250  1.00  0.00     0.003 C 
HETATM   19  C15 UNL     1      14.135  -8.952  -9.248  1.00  0.00     0.039 C 
HETATM   20  C12 UNL     1      12.294 -10.758 -10.413  1.00  0.00    -0.026 C 
HETATM   21  C13 UNL     1      12.705  -9.562 -11.182  1.00  0.00     0.027 C 
HETATM   22  C14 UNL     1      14.079  -9.081 -10.765  1.00  0.00     0.008 C 
ENDBRANCH  15  16
ENDBRANCH   3  14
TORSDOF 4
ENDMDL
MODEL 3
REMARK VINA RESULT: -7.025259804      0.984      1.774
REMARK  4 active torsions:
REMARK  status: ('A' for Active; 'I' for Inactive)
REMARK    1  A    between atoms: N1_1  and  C1_5 
REMARK    2  A    between atoms: N2_10  and  N3_11 
REMARK    3  A    between atoms: C6_13  and  C7_14 
REMARK    4  A    between atoms: C8_15  and  C9_16 
ROOT
HETATM    1  N3  UNL     1      16.472  -5.006 -10.250  1.00  0.00    -0.312 N 
ATOM      2  H3  UNL     1      16.205  -5.812 -10.816  1.00  0.00     0.185 HD
HETATM    3  C6  UNL     1      16.481  -5.115  -8.977  1.00  0.00     0.107 C 
ENDROOT
BRANCH   1   4
HETATM    4  N2  UNL     1      16.814  -3.828 -10.879  1.00  0.00    -0.298 N 
HETATM    5  C1  UNL     1      15.781  -2.930 -11.291  1.00  0.00     0.298 C 
HETATM    6  C2  UNL     1      15.932  -2.779 -12.806  1.00  0.00     0.056 C 
HETATM    7  C3  UNL     1      17.333  -2.280 -13.064  1.00  0.00     0.006 C 
HETATM    8  C4  UNL     1      18.338  -3.307 -12.621  1.00  0.00     0.022 C 
HETATM    9  C5  UNL     1      18.196  -3.524 -11.108  1.00  0.00     0.145 C 
BRANCH   5  10
HETATM   10  N1  UNL     1      15.826  -1.650 -10.632  1.00  0.00    -0.057 N 
ATOM     11  H13 UNL     1      15.709  -0.884 -11.295  1.00  0.00     0.276 HD
ATOM     12  H12 UNL     1      14.995  -1.493 -10.063  1.00  0.00     0.276 HD
ATOM     13  H11 UNL     1      16.681  -1.546 -10.086  1.00  0.00     0.276 HD
ENDBRANCH   5  10
ENDBRANCH   1   4
BRANCH   3  14
HETATM   14  C7  UNL     1      16.117  -6.366  -8.331  1.00  0.00     0.019 C 
HETATM   15  C8  UNL     1      15.730  -7.402  -9.109  1.00  0.00     0.002 C 
BRANCH  15  16
HETATM   16  C9  UNL     1      15.374  -8.633  -8.449  1.00  0.00     0.007 C 
HETATM   17  C10 UNL     1      14.334  -9.339  -8.801  1.00  0.00    -0.058 C 
HETATM   18  C11 UNL     1      14.019 -10.576  -8.099  1.00  0.00     0.003 C 
HETATM   19  C15 UNL     1      13.464  -8.911  -9.901  1.00  0.00     0.039 C 
HETATM   20  C12 UNL     1      13.100 -11.388  -8.580  1.00  0.00    -0.026 C 
HETATM   21  C13 UNL     1      12.342 -11.124  -9.824  1.00  0.00     0.027 C 
HETATM   22  C14 UNL     1      13.067 -10.137 -10.715  1.00  0.00     0.008 C 
ENDBRANCH  15  16
ENDBRANCH   3  14
TORSDOF 4
ENDMDL
MODEL 4
REMARK VINA RESULT: -6.860616041      1.241      1.616
REMARK  4 active torsions:
REMARK  status: ('A' for Active; 'I' for Inactive)
REMARK    1  A    between atoms: N1_1  and  C1_5 
REMARK    2  A    between atoms: N2_10  and  N3_11 
REMARK    3  A    between atoms: C6_13  and  C7_14 
REMARK    4  A    between atoms: C8_15  and  C9_16 
ROOT
HETATM    1  N3  UNL     1      16.158  -5.304  -8.981  1.00  0.00    -0.312 N 
ATOM      2  H3  UNL     1      15.525  -5.803  -9.607  1.00  0.00     0.185 HD
HETATM    3  C6  UNL     1      16.404  -5.791  -7.826  1.00  0.00     0.107 C 
ENDROOT
BRANCH   1   4
HETATM    4  N2  UNL     1      16.727  -4.122  -9.405  1.00  0.00    -0.298 N 
HETATM    5  C1  UNL     1      16.528  -3.694 -10.754  1.00  0.00     0.298 C 
HETATM    6  C2  UNL     1      17.924  -3.588 -11.373  1.00  0.00     0.056 C 
HETATM    7  C3  UNL     1      18.714  -2.623 -10.522  1.00  0.00     0.006 C 
HETATM    8  C4  UNL     1      18.888  -3.179  -9.135  1.00  0.00     0.022 C 
HETATM    9  C5  UNL     1      17.507  -3.344  -8.486  1.00  0.00     0.145 C 
BRANCH   5  10
HETATM   10  N1  UNL     1      15.810  -2.451 -10.871  1.00  0.00    -0.057 N 
ATOM     11  H13 UNL     1      16.163  -1.752 -10.218  1.00  0.00     0.276 HD
ATOM     12  H12 UNL     1      16.028  -1.974 -11.745  1.00  0.00     0.276 HD
ATOM     13  H11 UNL     1      14.806  -2.594 -10.761  1.00  0.00     0.276 HD
ENDBRANCH   5  10
ENDBRANCH   1   4
BRANCH   3  14
HETATM   14  C7  UNL     1      15.795  -7.039  -7.395  1.00  0.00     0.019 C 
HETATM   15  C8  UNL     1      15.811  -8.089  -8.247  1.00  0.00     0.002 C 
BRANCH  15  16
HETATM   16  C9  UNL     1      15.203  -9.318  -7.801  1.00  0.00     0.007 C 
HETATM   17  C10 UNL     1      14.164  -9.838  -8.396  1.00  0.00    -0.058 C 
HETATM   18  C11 UNL     1      13.588 -11.083  -7.902  1.00  0.00     0.003 C 
HETATM   19  C15 UNL     1      13.557  -9.194  -9.564  1.00  0.00     0.039 C 
HETATM   20  C12 UNL     1      12.678 -11.713  -8.617  1.00  0.00    -0.026 C 
HETATM   21  C13 UNL     1      12.186 -11.231  -9.927  1.00  0.00     0.027 C 
HETATM   22  C14 UNL     1      13.167 -10.272 -10.568  1.00  0.00     0.008 C 
ENDBRANCH  15  16
ENDBRANCH   3  14
TORSDOF 4
ENDMDL
MODEL 5
REMARK VINA RESULT: -6.838797362      1.243      1.474
REMARK  4 active torsions:
REMARK  status: ('A' for Active; 'I' for Inactive)
REMARK    1  A    between atoms: N1_1  and  C1_5 
REMARK    2  A    between atoms: N2_10  and  N3_11 
REMARK    3  A    between atoms: C6_13  and  C7_14 
REMARK    4  A    between atoms: C8_15  and  C9_16 
ROOT
HETATM    1  N3  UNL     1      16.098  -4.901  -9.441  1.00  0.00    -0.312 N 
ATOM      2  H3  UNL     1      15.510  -5.491 -10.029  1.00  0.00     0.185 HD
HETATM    3  C6  UNL     1      16.459  -5.328  -8.293  1.00  0.00     0.107 C 
ENDROOT
BRANCH   1   4
HETATM    4  N2  UNL     1      16.484  -3.661  -9.907  1.00  0.00    -0.298 N 
HETATM    5  C1  UNL     1      17.142  -2.755  -9.019  1.00  0.00     0.298 C 
HETATM    6  C2  UNL     1      16.260  -1.505  -8.962  1.00  0.00     0.056 C 
HETATM    7  C3  UNL     1      16.115  -1.000 -10.376  1.00  0.00     0.006 C 
HETATM    8  C4  UNL     1      15.388  -2.013 -11.216  1.00  0.00     0.022 C 
HETATM    9  C5  UNL     1      16.217  -3.304 -11.270  1.00  0.00     0.145 C 
BRANCH   5  10
HETATM   10  N1  UNL     1      18.487  -2.426  -9.415  1.00  0.00    -0.057 N 
ATOM     11  H13 UNL     1      18.669  -2.696 -10.382  1.00  0.00     0.276 HD
ATOM     12  H12 UNL     1      18.614  -1.419  -9.508  1.00  0.00     0.276 HD
ATOM     13  H11 UNL     1      19.169  -2.834  -8.777  1.00  0.00     0.276 HD
ENDBRANCH   5  10
ENDBRANCH   1   4
BRANCH   3  14
HETATM   14  C7  UNL     1      16.043  -6.638  -7.818  1.00  0.00     0.019 C 
HETATM   15  C8  UNL     1      15.682  -7.568  -8.730  1.00  0.00     0.002 C 
BRANCH  15  16
HETATM   16  C9  UNL     1      15.273  -8.860  -8.238  1.00  0.00     0.007 C 
HETATM   17  C10 UNL     1      14.233  -9.489  -8.712  1.00  0.00    -0.058 C 
HETATM   18  C11 UNL     1      13.863 -10.794  -8.178  1.00  0.00     0.003 C 
HETATM   19  C15 UNL     1      13.417  -8.909  -9.783  1.00  0.00     0.039 C 
HETATM   20  C12 UNL     1      12.946 -11.517  -8.788  1.00  0.00    -0.026 C 
HETATM   21  C13 UNL     1      12.244 -11.084 -10.017  1.00  0.00     0.027 C 
HETATM   22  C14 UNL     1      13.026 -10.016 -10.754  1.00  0.00     0.008 C 
ENDBRANCH  15  16
ENDBRANCH   3  14
TORSDOF 4
ENDMDL
