MODEL 1
REMARK VINA RESULT: -8.384872494      0.000      0.000
REMARK  4 active torsions:
REMARK  status: ('A' for Active; 'I' for Inactive)
REMARK    1  A    between atoms: C17_20  and  O3_21 
REMARK    2  A    between atoms: C18_23  and  O4_24 
REMARK    3  A    between atoms: C19_26  and  O5_27 
REMARK    4  A    between atoms: O5_27  and  C20_28 
ROOT
HETATM    1  C1  UNL     1      27.206  16.134  22.347  1.00  0.00     0.015 C 
HETATM    2  C2  UNL     1      27.155  14.846  22.597  1.00  0.00    -0.077 C 
HETATM    3  C3  UNL     1      28.057  13.842  23.190  1.00  0.00     0.047 C 
HETATM    4  C4  UNL     1      26.773  13.162  23.653  1.00  0.00     0.021 C 
HETATM    5  C5  UNL     1      26.196  13.721  22.444  1.00  0.00     0.026 C 
HETATM    6  C6  UNL     1      26.418  12.951  21.134  1.00  0.00     0.005 C 
HETATM    7  C7  UNL     1      25.682  11.633  21.472  1.00  0.00     0.020 C 
HETATM    8  C8  UNL     1      25.753  13.695  20.059  1.00  0.00     0.036 C 
HETATM    9  C9  UNL     1      26.556  14.260  18.938  1.00  0.00     0.026 C 
HETATM   10  C10 UNL     1      28.022  14.248  19.098  1.00  0.00     0.031 C 
HETATM   11  C11 UNL     1      28.589  13.089  19.816  1.00  0.00     0.121 C 
HETATM   12 CL1  UNL     1      28.896  11.808  18.578  1.00  0.00    -0.122 Cl
HETATM   13  C12 UNL     1      27.856  12.564  21.007  1.00  0.00     0.116 C 
HETATM   14  O1  UNL     1      28.061  11.163  20.940  1.00  0.00    -0.340 OA
HETATM   15  C13 UNL     1      29.044  10.797  21.791  1.00  0.00     0.158 C 
HETATM   16  C14 UNL     1      30.455  10.758  21.284  1.00  0.00     0.078 C 
HETATM   17  C15 UNL     1      28.840   9.355  22.313  1.00  0.00     0.078 C 
HETATM   18  O2  UNL     1      28.961  11.650  22.862  1.00  0.00    -0.347 OA
HETATM   19  C16 UNL     1      28.683  12.878  22.235  1.00  0.00     0.170 C 
HETATM   20  C17 UNL     1      26.202  13.506  17.660  1.00  0.00     0.154 C 
HETATM   21  C18 UNL     1      25.283  12.371  18.093  1.00  0.00     0.177 C 
HETATM   22  C19 UNL     1      24.635  13.037  19.284  1.00  0.00     0.168 C 
ENDROOT
BRANCH  22  23
HETATM   23  O5  UNL     1      23.685  12.358  19.950  1.00  0.00    -0.313 OA
BRANCH  23  24
HETATM   24  C20 UNL     1      22.355  12.684  19.964  1.00  0.00     0.255 C 
HETATM   25  C21 UNL     1      21.479  12.672  21.152  1.00  0.00     0.126 C 
HETATM   26  O6  UNL     1      21.879  13.012  18.859  1.00  0.00    -0.266 OA
ENDBRANCH  23  24
ENDBRANCH  22  23
BRANCH  21  27
HETATM   27  O4  UNL     1      24.374  12.236  17.026  1.00  0.00    -0.390 OA
ATOM     28  H4  UNL     1      23.575  11.930  17.439  1.00  0.00     0.210 HD
ENDBRANCH  21  27
BRANCH  20  29
HETATM   29  O3  UNL     1      25.543  14.350  16.732  1.00  0.00    -0.393 OA
ATOM     30  H3  UNL     1      24.643  14.078  16.598  1.00  0.00     0.210 HD
ENDBRANCH  20  29
TORSDOF 4
ENDMDL
MODEL 2
REMARK VINA RESULT: -7.158381640      7.439     10.878
REMARK  4 active torsions:
REMARK  status: ('A' for Active; 'I' for Inactive)
REMARK    1  A    between atoms: C17_20  and  O3_21 
REMARK    2  A    between atoms: C18_23  and  O4_24 
REMARK    3  A    between atoms: C19_26  and  O5_27 
REMARK    4  A    between atoms: O5_27  and  C20_28 
ROOT
HETATM    1  C1  UNL     1      20.362  17.577  26.485  1.00  0.00     0.015 C 
HETATM    2  C2  UNL     1      19.255  16.950  26.158  1.00  0.00    -0.077 C 
HETATM    3  C3  UNL     1      17.836  17.027  26.548  1.00  0.00     0.047 C 
HETATM    4  C4  UNL     1      17.559  16.574  25.119  1.00  0.00     0.021 C 
HETATM    5  C5  UNL     1      18.821  15.866  25.238  1.00  0.00     0.026 C 
HETATM    6  C6  UNL     1      18.801  14.498  25.933  1.00  0.00     0.005 C 
HETATM    7  C7  UNL     1      17.885  13.719  24.960  1.00  0.00     0.020 C 
HETATM    8  C8  UNL     1      20.172  13.977  25.937  1.00  0.00     0.036 C 
HETATM    9  C9  UNL     1      20.873  13.738  27.230  1.00  0.00     0.026 C 
HETATM   10  C10 UNL     1      20.229  14.272  28.445  1.00  0.00     0.031 C 
HETATM   11  C11 UNL     1      18.753  14.247  28.464  1.00  0.00     0.121 C 
HETATM   12 CL1  UNL     1      18.268  12.640  29.134  1.00  0.00    -0.122 Cl
HETATM   13  C12 UNL     1      18.021  14.583  27.205  1.00  0.00     0.116 C 
HETATM   14  O1  UNL     1      16.890  13.728  27.234  1.00  0.00    -0.340 OA
HETATM   15  C13 UNL     1      15.805  14.411  27.661  1.00  0.00     0.158 C 
HETATM   16  C14 UNL     1      15.498  14.425  29.129  1.00  0.00     0.078 C 
HETATM   17  C15 UNL     1      14.500  13.844  27.056  1.00  0.00     0.078 C 
HETATM   18  O2  UNL     1      15.958  15.697  27.209  1.00  0.00    -0.347 OA
HETATM   19  C16 UNL     1      17.333  15.914  27.412  1.00  0.00     0.170 C 
HETATM   20  C17 UNL     1      21.067  12.235  27.406  1.00  0.00     0.154 C 
HETATM   21  C18 UNL     1      20.314  11.585  26.252  1.00  0.00     0.177 C 
HETATM   22  C19 UNL     1      20.474  12.680  25.223  1.00  0.00     0.168 C 
ENDROOT
BRANCH  22  23
HETATM   23  O5  UNL     1      19.970  12.473  23.995  1.00  0.00    -0.313 OA
BRANCH  23  24
HETATM   24  C20 UNL     1      20.697  12.063  22.909  1.00  0.00     0.255 C 
HETATM   25  C21 UNL     1      21.272  12.945  21.875  1.00  0.00     0.126 C 
HETATM   26  O6  UNL     1      20.865  10.830  22.820  1.00  0.00    -0.266 OA
ENDBRANCH  23  24
ENDBRANCH  22  23
BRANCH  21  27
HETATM   27  O4  UNL     1      21.091  10.458  25.924  1.00  0.00    -0.390 OA
ATOM     28  H4  UNL     1      21.914  10.823  25.620  1.00  0.00     0.210 HD
ENDBRANCH  21  27
BRANCH  20  29
HETATM   29  O3  UNL     1      22.439  11.885  27.361  1.00  0.00    -0.393 OA
ATOM     30  H3  UNL     1      22.897  12.374  26.688  1.00  0.00     0.210 HD
ENDBRANCH  20  29
TORSDOF 4
ENDMDL
MODEL 3
REMARK VINA RESULT: -6.961040925      2.192      5.404
REMARK  4 active torsions:
REMARK  status: ('A' for Active; 'I' for Inactive)
REMARK    1  A    between atoms: C17_20  and  O3_21 
REMARK    2  A    between atoms: C18_23  and  O4_24 
REMARK    3  A    between atoms: C19_26  and  O5_27 
REMARK    4  A    between atoms: O5_27  and  C20_28 
ROOT
HETATM    1  C1  UNL     1      28.657   9.753  19.673  1.00  0.00     0.015 C 
HETATM    2  C2  UNL     1      27.427  10.149  19.910  1.00  0.00    -0.077 C 
HETATM    3  C3  UNL     1      26.146  10.134  19.181  1.00  0.00     0.047 C 
HETATM    4  C4  UNL     1      25.516  10.018  20.564  1.00  0.00     0.021 C 
HETATM    5  C5  UNL     1      26.660  10.795  21.006  1.00  0.00     0.026 C 
HETATM    6  C6  UNL     1      26.587  12.319  20.835  1.00  0.00     0.005 C 
HETATM    7  C7  UNL     1      25.385  12.633  21.758  1.00  0.00     0.020 C 
HETATM    8  C8  UNL     1      27.838  12.888  21.345  1.00  0.00     0.036 C 
HETATM    9  C9  UNL     1      28.751  13.623  20.425  1.00  0.00     0.026 C 
HETATM   10  C10 UNL     1      28.458  13.529  18.982  1.00  0.00     0.031 C 
HETATM   11  C11 UNL     1      27.031  13.470  18.610  1.00  0.00     0.121 C 
HETATM   12 CL1  UNL     1      26.468  15.178  18.428  1.00  0.00    -0.122 Cl
HETATM   13  C12 UNL     1      26.109  12.656  19.460  1.00  0.00     0.116 C 
HETATM   14  O1  UNL     1      24.898  13.392  19.445  1.00  0.00    -0.340 OA
HETATM   15  C13 UNL     1      24.035  12.847  18.559  1.00  0.00     0.158 C 
HETATM   16  C14 UNL     1      24.046  13.350  17.145  1.00  0.00     0.078 C 
HETATM   17  C15 UNL     1      22.565  13.074  18.980  1.00  0.00     0.078 C 
HETATM   18  O2  UNL     1      24.275  11.496  18.571  1.00  0.00    -0.347 OA
HETATM   19  C16 UNL     1      25.679  11.451  18.651  1.00  0.00     0.170 C 
HETATM   20  C17 UNL     1      28.758  15.096  20.822  1.00  0.00     0.154 C 
HETATM   21  C18 UNL     1      27.695  15.234  21.906  1.00  0.00     0.177 C 
HETATM   22  C19 UNL     1      27.795  13.852  22.508  1.00  0.00     0.168 C 
ENDROOT
BRANCH  22  23
HETATM   23  O5  UNL     1      27.022  13.567  23.569  1.00  0.00    -0.313 OA
BRANCH  23  24
HETATM   24  C20 UNL     1      27.192  14.087  24.824  1.00  0.00     0.255 C 
HETATM   25  C21 UNL     1      26.117  14.593  25.700  1.00  0.00     0.126 C 
HETATM   26  O6  UNL     1      28.373  14.121  25.227  1.00  0.00    -0.266 OA
ENDBRANCH  23  24
ENDBRANCH  22  23
BRANCH  21  27
HETATM   27  O4  UNL     1      28.216  16.209  22.778  1.00  0.00    -0.390 OA
ATOM     28  H4  UNL     1      27.507  16.380  23.386  1.00  0.00     0.210 HD
ENDBRANCH  21  27
BRANCH  20  29
HETATM   29  O3  UNL     1      30.025  15.488  21.319  1.00  0.00    -0.393 OA
ATOM     30  H3  UNL     1      30.648  14.771  21.279  1.00  0.00     0.210 HD
ENDBRANCH  20  29
TORSDOF 4
ENDMDL
MODEL 4
REMARK VINA RESULT: -6.698410357      2.354      4.881
REMARK  4 active torsions:
REMARK  status: ('A' for Active; 'I' for Inactive)
REMARK    1  A    between atoms: C17_20  and  O3_21 
REMARK    2  A    between atoms: C18_23  and  O4_24 
REMARK    3  A    between atoms: C19_26  and  O5_27 
REMARK    4  A    between atoms: O5_27  and  C20_28 
ROOT
HETATM    1  C1  UNL     1      24.980  13.305  24.087  1.00  0.00     0.015 C 
HETATM    2  C2  UNL     1      26.182  13.800  23.905  1.00  0.00    -0.077 C 
HETATM    3  C3  UNL     1      26.781  15.146  23.858  1.00  0.00     0.047 C 
HETATM    4  C4  UNL     1      28.026  14.463  24.412  1.00  0.00     0.021 C 
HETATM    5  C5  UNL     1      27.564  13.306  23.666  1.00  0.00     0.026 C 
HETATM    6  C6  UNL     1      27.902  13.249  22.170  1.00  0.00     0.005 C 
HETATM    7  C7  UNL     1      29.447  13.203  22.249  1.00  0.00     0.020 C 
HETATM    8  C8  UNL     1      27.341  12.006  21.631  1.00  0.00     0.036 C 
HETATM    9  C9  UNL     1      26.286  12.062  20.580  1.00  0.00     0.026 C 
HETATM   10  C10 UNL     1      25.684  13.381  20.309  1.00  0.00     0.031 C 
HETATM   11  C11 UNL     1      26.589  14.543  20.418  1.00  0.00     0.121 C 
HETATM   12 CL1  UNL     1      27.354  14.761  18.795  1.00  0.00    -0.122 Cl
HETATM   13  C12 UNL     1      27.592  14.561  21.526  1.00  0.00     0.116 C 
HETATM   14  O1  UNL     1      28.723  15.190  20.948  1.00  0.00    -0.340 OA
HETATM   15  C13 UNL     1      28.773  16.488  21.321  1.00  0.00     0.158 C 
HETATM   16  C14 UNL     1      28.096  17.509  20.455  1.00  0.00     0.078 C 
HETATM   17  C15 UNL     1      30.227  17.011  21.376  1.00  0.00     0.078 C 
HETATM   18  O2  UNL     1      28.255  16.542  22.590  1.00  0.00    -0.347 OA
HETATM   19  C16 UNL     1      27.180  15.639  22.504  1.00  0.00     0.170 C 
HETATM   20  C17 UNL     1      26.868  11.520  19.278  1.00  0.00     0.154 C 
HETATM   21  C18 UNL     1      28.349  11.292  19.554  1.00  0.00     0.177 C 
HETATM   22  C19 UNL     1      28.265  10.974  21.028  1.00  0.00     0.168 C 
ENDROOT
BRANCH  22  23
HETATM   23  O5  UNL     1      29.401  10.654  21.672  1.00  0.00    -0.313 OA
BRANCH  23  24
HETATM   24  C20 UNL     1      29.548   9.588  22.518  1.00  0.00     0.255 C 
HETATM   25  C21 UNL     1      29.042   8.222  22.277  1.00  0.00     0.126 C 
HETATM   26  O6  UNL     1      30.167   9.831  23.574  1.00  0.00    -0.266 OA
ENDBRANCH  23  24
ENDBRANCH  22  23
BRANCH  21  27
HETATM   27  O4  UNL     1      28.668  10.145  18.802  1.00  0.00    -0.390 OA
ATOM     28  H4  UNL     1      29.362   9.728  19.298  1.00  0.00     0.210 HD
ENDBRANCH  21  27
BRANCH  20  29
HETATM   29  O3  UNL     1      26.242  10.305  18.903  1.00  0.00    -0.393 OA
ATOM     30  H3  UNL     1      25.597  10.447  18.219  1.00  0.00     0.210 HD
ENDBRANCH  20  29
TORSDOF 4
ENDMDL
MODEL 5
REMARK VINA RESULT: -6.676326410      2.135      5.864
REMARK  4 active torsions:
REMARK  status: ('A' for Active; 'I' for Inactive)
REMARK    1  A    between atoms: C17_20  and  O3_21 
REMARK    2  A    between atoms: C18_23  and  O4_24 
REMARK    3  A    between atoms: C19_26  and  O5_27 
REMARK    4  A    between atoms: O5_27  and  C20_28 
ROOT
HETATM    1  C1  UNL     1      26.049  13.911  17.361  1.00  0.00     0.015 C 
HETATM    2  C2  UNL     1      25.446  12.883  17.912  1.00  0.00    -0.077 C 
HETATM    3  C3  UNL     1      24.053  12.493  18.192  1.00  0.00     0.047 C 
HETATM    4  C4  UNL     1      24.557  11.067  18.001  1.00  0.00     0.021 C 
HETATM    5  C5  UNL     1      25.810  11.579  18.526  1.00  0.00     0.026 C 
HETATM    6  C6  UNL     1      25.947  11.682  20.052  1.00  0.00     0.005 C 
HETATM    7  C7  UNL     1      25.824  10.187  20.431  1.00  0.00     0.020 C 
HETATM    8  C8  UNL     1      27.280  12.217  20.346  1.00  0.00     0.036 C 
HETATM    9  C9  UNL     1      27.417  13.529  21.040  1.00  0.00     0.026 C 
HETATM   10  C10 UNL     1      26.193  14.340  21.178  1.00  0.00     0.031 C 
HETATM   11  C11 UNL     1      24.938  13.593  21.392  1.00  0.00     0.121 C 
HETATM   12 CL1  UNL     1      24.767  13.361  23.177  1.00  0.00    -0.122 Cl
HETATM   13  C12 UNL     1      24.729  12.324  20.631  1.00  0.00     0.116 C 
HETATM   14  O1  UNL     1      24.031  11.493  21.545  1.00  0.00    -0.340 OA
HETATM   15  C13 UNL     1      22.711  11.499  21.260  1.00  0.00     0.158 C 
HETATM   16  C14 UNL     1      21.836  12.516  21.931  1.00  0.00     0.078 C 
HETATM   17  C15 UNL     1      22.035  10.167  21.660  1.00  0.00     0.078 C 
HETATM   18  O2  UNL     1      22.612  11.631  19.898  1.00  0.00    -0.347 OA
HETATM   19  C16 UNL     1      23.627  12.566  19.623  1.00  0.00     0.170 C 
HETATM   20  C17 UNL     1      27.995  13.285  22.431  1.00  0.00     0.154 C 
HETATM   21  C18 UNL     1      28.043  11.771  22.595  1.00  0.00     0.177 C 
HETATM   22  C19 UNL     1      28.253  11.386  21.149  1.00  0.00     0.168 C 
ENDROOT
BRANCH  22  23
HETATM   23  O5  UNL     1      28.401  10.083  20.856  1.00  0.00    -0.313 OA
BRANCH  23  24
HETATM   24  C20 UNL     1      29.171   9.203  21.568  1.00  0.00     0.255 C 
HETATM   25  C21 UNL     1      28.753   7.862  22.021  1.00  0.00     0.126 C 
HETATM   26  O6  UNL     1      30.321   9.606  21.839  1.00  0.00    -0.266 OA
ENDBRANCH  23  24
ENDBRANCH  22  23
BRANCH  21  27
HETATM   27  O4  UNL     1      29.205  11.544  23.357  1.00  0.00    -0.390 OA
ATOM     28  H4  UNL     1      29.539  12.415  23.537  1.00  0.00     0.210 HD
ENDBRANCH  21  27
BRANCH  20  29
HETATM   29  O3  UNL     1      29.293  13.838  22.551  1.00  0.00    -0.393 OA
ATOM     30  H3  UNL     1      29.891  13.226  22.965  1.00  0.00     0.210 HD
ENDBRANCH  20  29
TORSDOF 4
ENDMDL
