MODEL 1
REMARK VINA RESULT: -6.885789530      0.000      0.000
REMARK  4 active torsions:
REMARK  status: ('A' for Active; 'I' for Inactive)
REMARK    1  A    between atoms: C2_2  and  N1_3 
REMARK       I    between atoms: N1_3  and  C3_4 
REMARK    2  A    between atoms: N1_3  and  C10_19 
REMARK    3  A    between atoms: C3_4  and  C4_6 
REMARK    4  A    between atoms: C10_19  and  C13_22 
ROOT
HETATM    1  N1  UNL     1     -16.807   6.749  -8.661  1.00  0.00    -0.338 N 
HETATM    2  C3  UNL     1     -15.626   5.999  -8.598  1.00  0.00     0.271 C 
HETATM    3  O1  UNL     1     -14.976   6.037  -7.485  1.00  0.00    -0.266 OA
ENDROOT
BRANCH   1   4
HETATM    4  C2  UNL     1     -17.624   6.726  -9.855  1.00  0.00     0.122 C 
HETATM    5  C1  UNL     1     -18.485   5.519 -10.020  1.00  0.00     0.026 C 
ENDBRANCH   1   4
BRANCH   1   6
HETATM    6  C10 UNL     1     -17.190   7.551  -7.498  1.00  0.00     0.034 C 
HETATM    7  C11 UNL     1     -18.684   7.857  -7.565  1.00  0.00     0.039 C 
HETATM    8  C12 UNL     1     -17.023   6.689  -6.228  1.00  0.00     0.039 C 
BRANCH   6   9
HETATM    9  C13 UNL     1     -16.377   8.762  -7.253  1.00  0.00     0.047 C 
HETATM   10  C14 UNL     1     -17.120  10.076  -7.218  1.00  0.00     0.011 C 
HETATM   11  C15 UNL     1     -16.157  11.214  -7.055  1.00  0.00     0.009 C 
HETATM   12  C16 UNL     1     -15.102  11.059  -6.030  1.00  0.00    -0.045 C 
HETATM   13  C17 UNL     1     -13.914  11.935  -6.464  1.00  0.00     0.015 C 
HETATM   14  C18 UNL     1     -15.505  11.585  -4.666  1.00  0.00     0.015 C 
HETATM   15  C19 UNL     1     -14.525   9.653  -5.958  1.00  0.00     0.046 C 
HETATM   16  C20 UNL     1     -15.706   8.673  -5.870  1.00  0.00     0.177 C 
HETATM   17  F1  UNL     1     -16.539   9.247  -4.911  1.00  0.00    -0.249 F 
ENDBRANCH   6   9
ENDBRANCH   1   6
BRANCH   2  18
HETATM   18  C4  UNL     1     -15.036   5.176  -9.647  1.00  0.00     0.103 A 
HETATM   19  C5  UNL     1     -14.151   5.749 -10.542  1.00  0.00     0.067 A 
HETATM   20  C6  UNL     1     -13.538   5.019 -11.585  1.00  0.00     0.071 A 
HETATM   21  N2  UNL     1     -12.667   5.548 -12.477  1.00  0.00    -0.310 N 
HETATM   22  C7  UNL     1     -13.809   3.711 -11.735  1.00  0.00     0.089 A 
HETATM   23  S1  UNL     1     -12.264   4.262 -13.466  1.00  0.00     0.068 SA
ATOM     24  H2  UNL     1     -12.335   6.510 -12.533  1.00  0.00     0.176 HD
HETATM   25  N3  UNL     1     -13.198   3.076 -12.740  1.00  0.00    -0.309 N 
ATOM     26  H3  UNL     1     -13.281   2.095 -13.005  1.00  0.00     0.176 HD
HETATM   27  C8  UNL     1     -14.713   3.151 -10.813  1.00  0.00     0.035 A 
HETATM   28  C9  UNL     1     -15.056   1.712 -10.923  1.00  0.00     0.070 C 
HETATM   29  N4  UNL     1     -15.272   3.873  -9.839  1.00  0.00    -0.353 N 
ATOM     30  H4  UNL     1     -15.918   3.404  -9.204  1.00  0.00     0.166 HD
ENDBRANCH   2  18
TORSDOF 4
ENDMDL
MODEL 2
REMARK VINA RESULT: -6.716323556      3.897      7.203
REMARK  4 active torsions:
REMARK  status: ('A' for Active; 'I' for Inactive)
REMARK    1  A    between atoms: C2_2  and  N1_3 
REMARK       I    between atoms: N1_3  and  C3_4 
REMARK    2  A    between atoms: N1_3  and  C10_19 
REMARK    3  A    between atoms: C3_4  and  C4_6 
REMARK    4  A    between atoms: C10_19  and  C13_22 
ROOT
HETATM    1  N1  UNL     1     -17.538   6.563  -8.365  1.00  0.00    -0.338 N 
HETATM    2  C3  UNL     1     -18.546   6.911  -9.272  1.00  0.00     0.271 C 
HETATM    3  O1  UNL     1     -19.288   5.950  -9.709  1.00  0.00    -0.266 OA
ENDROOT
BRANCH   1   4
HETATM    4  C2  UNL     1     -16.691   7.584  -7.788  1.00  0.00     0.122 C 
HETATM    5  C1  UNL     1     -15.516   7.987  -8.615  1.00  0.00     0.026 C 
ENDBRANCH   1   4
BRANCH   1   6
HETATM    6  C10 UNL     1     -17.364   5.151  -8.019  1.00  0.00     0.034 C 
HETATM    7  C11 UNL     1     -16.800   5.044  -6.604  1.00  0.00     0.039 C 
HETATM    8  C12 UNL     1     -18.757   4.489  -7.936  1.00  0.00     0.039 C 
BRANCH   6   9
HETATM    9  C13 UNL     1     -16.605   4.337  -8.992  1.00  0.00     0.047 C 
HETATM   10  C14 UNL     1     -16.531   4.868 -10.402  1.00  0.00     0.011 C 
HETATM   11  C15 UNL     1     -15.813   3.894 -11.289  1.00  0.00     0.009 C 
HETATM   12  C16 UNL     1     -14.557   3.312 -10.768  1.00  0.00    -0.045 C 
HETATM   13  C17 UNL     1     -14.370   1.947 -11.452  1.00  0.00     0.015 C 
HETATM   14  C18 UNL     1     -13.323   4.112 -11.137  1.00  0.00     0.015 C 
HETATM   15  C19 UNL     1     -14.609   2.984  -9.283  1.00  0.00     0.046 C 
HETATM   16  C20 UNL     1     -15.133   4.230  -8.552  1.00  0.00     0.177 C 
HETATM   17  F1  UNL     1     -14.403   5.274  -9.117  1.00  0.00    -0.249 F 
ENDBRANCH   6   9
ENDBRANCH   1   6
BRANCH   2  18
HETATM   18  C4  UNL     1     -18.861   8.238  -9.789  1.00  0.00     0.103 A 
HETATM   19  C5  UNL     1     -19.334   8.367 -11.082  1.00  0.00     0.067 A 
HETATM   20  C6  UNL     1     -19.662   9.617 -11.655  1.00  0.00     0.071 A 
HETATM   21  N2  UNL     1     -20.128   9.779 -12.916  1.00  0.00    -0.310 N 
HETATM   22  C7  UNL     1     -19.516  10.741 -10.934  1.00  0.00     0.089 A 
HETATM   23  S1  UNL     1     -20.342  11.430 -13.063  1.00  0.00     0.068 SA
ATOM     24  H2  UNL     1     -20.307   9.059 -13.616  1.00  0.00     0.176 HD
HETATM   25  N3  UNL     1     -19.842  11.892 -11.533  1.00  0.00    -0.309 N 
ATOM     26  H3  UNL     1     -19.796  12.835 -11.146  1.00  0.00     0.176 HD
HETATM   27  C8  UNL     1     -19.032  10.585  -9.622  1.00  0.00     0.035 A 
HETATM   28  C9  UNL     1     -18.847  11.787  -8.773  1.00  0.00     0.070 C 
HETATM   29  N4  UNL     1     -18.734   9.386  -9.115  1.00  0.00    -0.353 N 
ATOM     30  H4  UNL     1     -18.388   9.344  -8.156  1.00  0.00     0.166 HD
ENDBRANCH   2  18
TORSDOF 4
ENDMDL
MODEL 3
REMARK VINA RESULT: -6.601633141      1.451      2.469
REMARK  4 active torsions:
REMARK  status: ('A' for Active; 'I' for Inactive)
REMARK    1  A    between atoms: C2_2  and  N1_3 
REMARK       I    between atoms: N1_3  and  C3_4 
REMARK    2  A    between atoms: N1_3  and  C10_19 
REMARK    3  A    between atoms: C3_4  and  C4_6 
REMARK    4  A    between atoms: C10_19  and  C13_22 
ROOT
HETATM    1  N1  UNL     1     -16.622   7.535  -8.723  1.00  0.00    -0.338 N 
HETATM    2  C3  UNL     1     -15.541   6.657  -8.579  1.00  0.00     0.271 C 
HETATM    3  O1  UNL     1     -15.348   6.163  -7.403  1.00  0.00    -0.266 OA
ENDROOT
BRANCH   1   4
HETATM    4  C2  UNL     1     -16.939   8.097 -10.017  1.00  0.00     0.122 C 
HETATM    5  C1  UNL     1     -16.046   9.203 -10.473  1.00  0.00     0.026 C 
ENDBRANCH   1   4
BRANCH   1   6
HETATM    6  C10 UNL     1     -17.415   7.867  -7.537  1.00  0.00     0.034 C 
HETATM    7  C11 UNL     1     -18.843   8.200  -7.964  1.00  0.00     0.039 C 
HETATM    8  C12 UNL     1     -17.552   6.600  -6.665  1.00  0.00     0.039 C 
BRANCH   6   9
HETATM    9  C13 UNL     1     -16.840   8.894  -6.642  1.00  0.00     0.047 C 
HETATM   10  C14 UNL     1     -15.452   8.627  -6.115  1.00  0.00     0.011 C 
HETATM   11  C15 UNL     1     -15.044   9.703  -5.154  1.00  0.00     0.009 C 
HETATM   12  C16 UNL     1     -15.306  11.101  -5.561  1.00  0.00    -0.045 C 
HETATM   13  C17 UNL     1     -15.453  11.930  -4.274  1.00  0.00     0.015 C 
HETATM   14  C18 UNL     1     -14.151  11.736  -6.311  1.00  0.00     0.015 C 
HETATM   15  C19 UNL     1     -16.633  11.287  -6.281  1.00  0.00     0.046 C 
HETATM   16  C20 UNL     1     -16.707  10.230  -7.395  1.00  0.00     0.177 C 
HETATM   17  F1  UNL     1     -15.452  10.300  -7.998  1.00  0.00    -0.249 F 
ENDBRANCH   6   9
ENDBRANCH   1   6
BRANCH   2  18
HETATM   18  C4  UNL     1     -14.596   6.231  -9.606  1.00  0.00     0.103 A 
HETATM   19  C5  UNL     1     -14.857   5.084 -10.334  1.00  0.00     0.067 A 
HETATM   20  C6  UNL     1     -13.993   4.607 -11.345  1.00  0.00     0.071 A 
HETATM   21  N2  UNL     1     -14.218   3.490 -12.076  1.00  0.00    -0.310 N 
HETATM   22  C7  UNL     1     -12.864   5.277 -11.630  1.00  0.00     0.089 A 
HETATM   23  S1  UNL     1     -12.902   3.402 -13.103  1.00  0.00     0.068 SA
ATOM     24  H2  UNL     1     -15.008   2.849 -12.014  1.00  0.00     0.176 HD
HETATM   25  N3  UNL     1     -12.087   4.774 -12.596  1.00  0.00    -0.309 N 
ATOM     26  H3  UNL     1     -11.202   5.142 -12.944  1.00  0.00     0.176 HD
HETATM   27  C8  UNL     1     -12.619   6.440 -10.876  1.00  0.00     0.035 A 
HETATM   28  C9  UNL     1     -11.390   7.226 -11.141  1.00  0.00     0.070 C 
HETATM   29  N4  UNL     1     -13.461   6.861  -9.928  1.00  0.00    -0.353 N 
ATOM     30  H4  UNL     1     -13.223   7.713  -9.420  1.00  0.00     0.166 HD
ENDBRANCH   2  18
TORSDOF 4
ENDMDL
MODEL 4
REMARK VINA RESULT: -6.578463678      4.065      6.644
REMARK  4 active torsions:
REMARK  status: ('A' for Active; 'I' for Inactive)
REMARK    1  A    between atoms: C2_2  and  N1_3 
REMARK       I    between atoms: N1_3  and  C3_4 
REMARK    2  A    between atoms: N1_3  and  C10_19 
REMARK    3  A    between atoms: C3_4  and  C4_6 
REMARK    4  A    between atoms: C10_19  and  C13_22 
ROOT
HETATM    1  N1  UNL     1     -15.643   8.378  -8.141  1.00  0.00    -0.338 N 
HETATM    2  C3  UNL     1     -16.309   8.324  -9.371  1.00  0.00     0.271 C 
HETATM    3  O1  UNL     1     -16.000   7.348 -10.155  1.00  0.00    -0.266 OA
ENDROOT
BRANCH   1   4
HETATM    4  C2  UNL     1     -15.962   9.412  -7.181  1.00  0.00     0.122 C 
HETATM    5  C1  UNL     1     -15.005  10.556  -7.128  1.00  0.00     0.026 C 
ENDBRANCH   1   4
BRANCH   1   6
HETATM    6  C10 UNL     1     -14.622   7.368  -7.853  1.00  0.00     0.034 C 
HETATM    7  C11 UNL     1     -14.415   7.275  -6.343  1.00  0.00     0.039 C 
HETATM    8  C12 UNL     1     -15.171   5.983  -8.259  1.00  0.00     0.039 C 
BRANCH   6   9
HETATM    9  C13 UNL     1     -13.348   7.510  -8.589  1.00  0.00     0.047 C 
HETATM   10  C14 UNL     1     -13.286   6.879  -9.958  1.00  0.00     0.011 C 
HETATM   11  C15 UNL     1     -11.911   7.024 -10.538  1.00  0.00     0.009 C 
HETATM   12  C16 UNL     1     -11.273   8.355 -10.427  1.00  0.00    -0.045 C 
HETATM   13  C17 UNL     1      -9.751   8.133 -10.442  1.00  0.00     0.015 C 
HETATM   14  C18 UNL     1     -11.554   9.257 -11.614  1.00  0.00     0.015 C 
HETATM   15  C19 UNL     1     -11.539   9.049  -9.100  1.00  0.00     0.046 C 
HETATM   16  C20 UNL     1     -13.055   8.999  -8.847  1.00  0.00     0.177 C 
HETATM   17  F1  UNL     1     -13.604   9.375 -10.072  1.00  0.00    -0.249 F 
ENDBRANCH   6   9
ENDBRANCH   1   6
BRANCH   2  18
HETATM   18  C4  UNL     1     -17.316   9.249  -9.880  1.00  0.00     0.103 A 
HETATM   19  C5  UNL     1     -18.019   8.922 -11.025  1.00  0.00     0.067 A 
HETATM   20  C6  UNL     1     -19.010   9.763 -11.580  1.00  0.00     0.071 A 
HETATM   21  N2  UNL     1     -19.718   9.474 -12.698  1.00  0.00    -0.310 N 
HETATM   22  C7  UNL     1     -19.299  10.935 -10.989  1.00  0.00     0.089 A 
HETATM   23  S1  UNL     1     -20.729  10.791 -12.893  1.00  0.00     0.068 SA
ATOM     24  H2  UNL     1     -19.649   8.644 -13.286  1.00  0.00     0.176 HD
HETATM   25  N3  UNL     1     -20.245  11.686 -11.562  1.00  0.00    -0.309 N 
ATOM     26  H3  UNL     1     -20.593  12.596 -11.259  1.00  0.00     0.176 HD
HETATM   27  C8  UNL     1     -18.570  11.246  -9.826  1.00  0.00     0.035 A 
HETATM   28  C9  UNL     1     -18.841  12.525  -9.125  1.00  0.00     0.070 C 
HETATM   29  N4  UNL     1     -17.641  10.424  -9.331  1.00  0.00    -0.353 N 
ATOM     30  H4  UNL     1     -17.150  10.711  -8.484  1.00  0.00     0.166 HD
ENDBRANCH   2  18
TORSDOF 4
ENDMDL
MODEL 5
REMARK VINA RESULT: -6.467934694      3.735      7.028
REMARK  4 active torsions:
REMARK  status: ('A' for Active; 'I' for Inactive)
REMARK    1  A    between atoms: C2_2  and  N1_3 
REMARK       I    between atoms: N1_3  and  C3_4 
REMARK    2  A    between atoms: N1_3  and  C10_19 
REMARK    3  A    between atoms: C3_4  and  C4_6 
REMARK    4  A    between atoms: C10_19  and  C13_22 
ROOT
HETATM    1  N1  UNL     1     -15.783   8.522  -8.151  1.00  0.00    -0.338 N 
HETATM    2  C3  UNL     1     -17.160   8.531  -8.403  1.00  0.00     0.271 C 
HETATM    3  O1  UNL     1     -17.864   7.627  -7.810  1.00  0.00    -0.266 OA
ENDROOT
BRANCH   1   4
HETATM    4  C2  UNL     1     -14.926   9.529  -8.738  1.00  0.00     0.122 C 
HETATM    5  C1  UNL     1     -14.628   9.352 -10.189  1.00  0.00     0.026 C 
ENDBRANCH   1   4
BRANCH   1   6
HETATM    6  C10 UNL     1     -15.237   7.473  -7.287  1.00  0.00     0.034 C 
HETATM    7  C11 UNL     1     -13.964   7.985  -6.617  1.00  0.00     0.039 C 
HETATM    8  C12 UNL     1     -16.222   7.232  -6.123  1.00  0.00     0.039 C 
BRANCH   6   9
HETATM    9  C13 UNL     1     -15.050   6.149  -7.917  1.00  0.00     0.047 C 
HETATM   10  C14 UNL     1     -16.131   5.126  -7.669  1.00  0.00     0.011 C 
HETATM   11  C15 UNL     1     -15.758   3.813  -8.290  1.00  0.00     0.009 C 
HETATM   12  C16 UNL     1     -15.230   3.850  -9.671  1.00  0.00    -0.045 C 
HETATM   13  C17 UNL     1     -14.334   2.613  -9.849  1.00  0.00     0.015 C 
HETATM   14  C18 UNL     1     -16.307   3.716 -10.731  1.00  0.00     0.015 C 
HETATM   15  C19 UNL     1     -14.303   5.027  -9.938  1.00  0.00     0.046 C 
HETATM   16  C20 UNL     1     -15.017   6.297  -9.449  1.00  0.00     0.177 C 
HETATM   17  F1  UNL     1     -16.308   6.164  -9.957  1.00  0.00    -0.249 F 
ENDBRANCH   6   9
ENDBRANCH   1   6
BRANCH   2  18
HETATM   18  C4  UNL     1     -17.902   9.445  -9.265  1.00  0.00     0.103 A 
HETATM   19  C5  UNL     1     -18.586   8.943 -10.357  1.00  0.00     0.067 A 
HETATM   20  C6  UNL     1     -19.328   9.763 -11.238  1.00  0.00     0.071 A 
HETATM   21  N2  UNL     1     -20.008   9.305 -12.315  1.00  0.00    -0.310 N 
HETATM   22  C7  UNL     1     -19.386  11.088 -11.026  1.00  0.00     0.089 A 
HETATM   23  S1  UNL     1     -20.687  10.678 -12.983  1.00  0.00     0.068 SA
ATOM     24  H2  UNL     1     -20.088   8.343 -12.643  1.00  0.00     0.176 HD
HETATM   25  N3  UNL     1     -20.103  11.809 -11.895  1.00  0.00    -0.309 N 
ATOM     26  H3  UNL     1     -20.259  12.817 -11.895  1.00  0.00     0.176 HD
HETATM   27  C8  UNL     1     -18.683  11.576  -9.909  1.00  0.00     0.035 A 
HETATM   28  C9  UNL     1     -18.707  13.030  -9.620  1.00  0.00     0.070 C 
HETATM   29  N4  UNL     1     -17.993  10.769  -9.099  1.00  0.00    -0.353 N 
ATOM     30  H4  UNL     1     -17.506  11.188  -8.306  1.00  0.00     0.166 HD
ENDBRANCH   2  18
TORSDOF 4
ENDMDL
