MODEL 1
REMARK VINA RESULT: -8.058443855      0.000      0.000
REMARK  5 active torsions:
REMARK  status: ('A' for Active; 'I' for Inactive)
REMARK    1  A    between atoms: C2_2  and  C3_3 
REMARK    2  A    between atoms: C3_3  and  C4_4 
REMARK    3  A    between atoms: C12_12  and  C14_14 
REMARK    4  A    between atoms: C14_14  and  O1_16 
REMARK    5  A    between atoms: C14_14  and  C16_18 
ROOT
HETATM    1  C4  UNL     1      17.220  -3.676 -20.066  1.00  0.00    -0.054 C 
HETATM    2  C5  UNL     1      17.566  -2.370 -20.084  1.00  0.00    -0.080 C 
HETATM    3  C6  UNL     1      18.943  -2.034 -20.588  1.00  0.00     0.043 C 
HETATM    4  C7  UNL     1      16.768  -1.236 -19.634  1.00  0.00     0.034 C 
HETATM    5  C8  UNL     1      15.290  -1.535 -19.453  1.00  0.00     0.011 C 
HETATM    6  C9  UNL     1      15.022  -2.730 -20.298  1.00  0.00     0.021 C 
HETATM    7  C10 UNL     1      13.672  -3.115 -20.586  1.00  0.00     0.029 C 
HETATM    8  C11 UNL     1      12.650  -2.032 -20.806  1.00  0.00     0.049 C 
HETATM    9  C12 UNL     1      11.407  -2.923 -20.959  1.00  0.00     0.089 C 
HETATM   10  C13 UNL     1      10.337  -2.238 -20.098  1.00  0.00     0.049 C 
HETATM   11  O2  UNL     1      11.738  -4.174 -20.501  1.00  0.00    -0.366 OA
HETATM   12  C18 UNL     1      12.921  -4.068 -19.728  1.00  0.00     0.062 C 
HETATM   13  C19 UNL     1      12.521  -3.714 -18.365  1.00  0.00     0.046 C 
HETATM   14  C20 UNL     1      13.744  -5.320 -19.712  1.00  0.00     0.040 C 
HETATM   15  C21 UNL     1      15.174  -5.139 -20.146  1.00  0.00     0.034 C 
HETATM   16  C22 UNL     1      15.817  -3.892 -19.636  1.00  0.00     0.065 C 
HETATM   17 CL1  UNL     1      15.820  -3.691 -17.892  1.00  0.00    -0.114 Cl
ENDROOT
BRANCH   9  18
HETATM   18  C14 UNL     1      10.849  -2.907 -22.352  1.00  0.00     0.085 C 
HETATM   19  C15 UNL     1      11.563  -1.885 -23.194  1.00  0.00     0.049 C 
BRANCH  18  20
HETATM   20  O1  UNL     1       9.517  -2.462 -22.216  1.00  0.00    -0.387 OA
ATOM     21  H1  UNL     1       9.534  -1.541 -22.449  1.00  0.00     0.210 HD
ENDBRANCH  18  20
BRANCH  18  22
HETATM   22  C16 UNL     1      10.897  -4.208 -23.080  1.00  0.00     0.036 C 
HETATM   23  C17 UNL     1      12.175  -4.227 -23.896  1.00  0.00     0.008 C 
ENDBRANCH  18  22
ENDBRANCH   9  18
BRANCH   1  24
HETATM   24  C3  UNL     1      18.209  -4.627 -20.530  1.00  0.00     0.036 C 
BRANCH  24  25
HETATM   25  C2  UNL     1      18.153  -5.193 -21.883  1.00  0.00    -0.000 C 
HETATM   26  C1  UNL     1      17.220  -4.691 -22.899  1.00  0.00     0.005 C 
ENDBRANCH  24  25
ENDBRANCH   1  24
TORSDOF 5
ENDMDL
MODEL 2
REMARK VINA RESULT: -7.620552999      1.416      1.669
REMARK  5 active torsions:
REMARK  status: ('A' for Active; 'I' for Inactive)
REMARK    1  A    between atoms: C2_2  and  C3_3 
REMARK    2  A    between atoms: C3_3  and  C4_4 
REMARK    3  A    between atoms: C12_12  and  C14_14 
REMARK    4  A    between atoms: C14_14  and  O1_16 
REMARK    5  A    between atoms: C14_14  and  C16_18 
ROOT
HETATM    1  C4  UNL     1      17.113  -4.545 -20.169  1.00  0.00    -0.054 C 
HETATM    2  C5  UNL     1      17.964  -3.509 -20.003  1.00  0.00    -0.080 C 
HETATM    3  C6  UNL     1      19.298  -3.603 -20.692  1.00  0.00     0.043 C 
HETATM    4  C7  UNL     1      17.756  -2.312 -19.198  1.00  0.00     0.034 C 
HETATM    5  C8  UNL     1      16.314  -2.064 -18.794  1.00  0.00     0.011 C 
HETATM    6  C9  UNL     1      15.491  -2.812 -19.783  1.00  0.00     0.021 C 
HETATM    7  C10 UNL     1      14.082  -2.571 -19.871  1.00  0.00     0.029 C 
HETATM    8  C11 UNL     1      13.582  -1.165 -19.676  1.00  0.00     0.049 C 
HETATM    9  C12 UNL     1      12.074  -1.449 -19.752  1.00  0.00     0.089 C 
HETATM   10  C13 UNL     1      11.476  -0.652 -18.584  1.00  0.00     0.049 C 
HETATM   11  O2  UNL     1      11.902  -2.804 -19.615  1.00  0.00    -0.366 OA
HETATM   12  C18 UNL     1      13.095  -3.353 -19.081  1.00  0.00     0.062 C 
HETATM   13  C19 UNL     1      13.016  -3.232 -17.624  1.00  0.00     0.046 C 
HETATM   14  C20 UNL     1      13.323  -4.783 -19.465  1.00  0.00     0.040 C 
HETATM   15  C21 UNL     1      14.648  -5.053 -20.127  1.00  0.00     0.034 C 
HETATM   16  C22 UNL     1      15.797  -4.316 -19.523  1.00  0.00     0.065 C 
HETATM   17 CL1  UNL     1      16.060  -4.580 -17.807  1.00  0.00    -0.114 Cl
ENDROOT
BRANCH   9  18
HETATM   18  C14 UNL     1      11.435  -0.871 -20.980  1.00  0.00     0.085 C 
HETATM   19  C15 UNL     1      12.276   0.247 -21.535  1.00  0.00     0.049 C 
BRANCH  18  20
HETATM   20  O1  UNL     1      10.229  -0.288 -20.535  1.00  0.00    -0.387 OA
ATOM     21  H1  UNL     1      10.122  -0.582 -19.638  1.00  0.00     0.210 HD
ENDBRANCH  18  20
BRANCH  18  22
HETATM   22  C16 UNL     1      11.176  -1.835 -22.087  1.00  0.00     0.036 C 
HETATM   23  C17 UNL     1      12.310  -1.701 -23.085  1.00  0.00     0.008 C 
ENDBRANCH  18  22
ENDBRANCH   9  18
BRANCH   1  24
HETATM   24  C3  UNL     1      17.568  -5.648 -20.989  1.00  0.00     0.036 C 
BRANCH  24  25
HETATM   25  C2  UNL     1      17.230  -5.734 -22.415  1.00  0.00    -0.000 C 
HETATM   26  C1  UNL     1      16.512  -4.659 -23.111  1.00  0.00     0.005 C 
ENDBRANCH  24  25
ENDBRANCH   1  24
TORSDOF 5
ENDMDL
MODEL 3
REMARK VINA RESULT: -7.582047149      1.990      4.237
REMARK  5 active torsions:
REMARK  status: ('A' for Active; 'I' for Inactive)
REMARK    1  A    between atoms: C2_2  and  C3_3 
REMARK    2  A    between atoms: C3_3  and  C4_4 
REMARK    3  A    between atoms: C12_12  and  C14_14 
REMARK    4  A    between atoms: C14_14  and  O1_16 
REMARK    5  A    between atoms: C14_14  and  C16_18 
ROOT
HETATM    1  C4  UNL     1      17.569  -3.033 -21.043  1.00  0.00    -0.054 C 
HETATM    2  C5  UNL     1      18.111  -4.271 -21.064  1.00  0.00    -0.080 C 
HETATM    3  C6  UNL     1      19.601  -4.369 -20.892  1.00  0.00     0.043 C 
HETATM    4  C7  UNL     1      17.418  -5.537 -21.272  1.00  0.00     0.034 C 
HETATM    5  C8  UNL     1      15.910  -5.468 -21.105  1.00  0.00     0.011 C 
HETATM    6  C9  UNL     1      15.660  -4.268 -20.261  1.00  0.00     0.021 C 
HETATM    7  C10 UNL     1      14.370  -4.063 -19.673  1.00  0.00     0.029 C 
HETATM    8  C11 UNL     1      13.609  -5.264 -19.179  1.00  0.00     0.049 C 
HETATM    9  C12 UNL     1      12.311  -4.553 -18.764  1.00  0.00     0.089 C 
HETATM   10  C13 UNL     1      11.192  -5.444 -19.321  1.00  0.00     0.049 C 
HETATM   11  O2  UNL     1      12.327  -3.302 -19.330  1.00  0.00    -0.366 OA
HETATM   12  C18 UNL     1      13.301  -3.291 -20.359  1.00  0.00     0.062 C 
HETATM   13  C19 UNL     1      12.658  -3.793 -21.574  1.00  0.00     0.046 C 
HETATM   14  C20 UNL     1      13.891  -1.937 -20.614  1.00  0.00     0.040 C 
HETATM   15  C21 UNL     1      15.393  -1.879 -20.527  1.00  0.00     0.034 C 
HETATM   16  C22 UNL     1      16.089  -3.052 -21.133  1.00  0.00     0.065 C 
HETATM   17 CL1  UNL     1      15.721  -3.373 -22.820  1.00  0.00    -0.114 Cl
ENDROOT
BRANCH   9  18
HETATM   18  C14 UNL     1      12.099  -4.552 -17.279  1.00  0.00     0.085 C 
HETATM   19  C15 UNL     1      12.640  -5.816 -16.668  1.00  0.00     0.049 C 
BRANCH  18  20
HETATM   20  O1  UNL     1      10.699  -4.582 -17.101  1.00  0.00    -0.387 OA
ATOM     21  H1  UNL     1      10.563  -4.519 -16.163  1.00  0.00     0.210 HD
ENDBRANCH  18  20
BRANCH  18  22
HETATM   22  C16 UNL     1      12.698  -3.401 -16.543  1.00  0.00     0.036 C 
HETATM   23  C17 UNL     1      14.071  -3.831 -16.063  1.00  0.00     0.008 C 
ENDBRANCH  18  22
ENDBRANCH   9  18
BRANCH   1  24
HETATM   24  C3  UNL     1      18.476  -1.920 -20.861  1.00  0.00     0.036 C 
BRANCH  24  25
HETATM   25  C2  UNL     1      18.630  -1.260 -19.559  1.00  0.00    -0.000 C 
HETATM   26  C1  UNL     1      19.072  -1.989 -18.364  1.00  0.00     0.005 C 
ENDBRANCH  24  25
ENDBRANCH   1  24
TORSDOF 5
ENDMDL
MODEL 4
REMARK VINA RESULT: -7.556550896      3.013      4.986
REMARK  5 active torsions:
REMARK  status: ('A' for Active; 'I' for Inactive)
REMARK    1  A    between atoms: C2_2  and  C3_3 
REMARK    2  A    between atoms: C3_3  and  C4_4 
REMARK    3  A    between atoms: C12_12  and  C14_14 
REMARK    4  A    between atoms: C14_14  and  O1_16 
REMARK    5  A    between atoms: C14_14  and  C16_18 
ROOT
HETATM    1  C4  UNL     1      12.254  -1.951 -18.600  1.00  0.00    -0.054 C 
HETATM    2  C5  UNL     1      11.560  -0.837 -18.918  1.00  0.00    -0.080 C 
HETATM    3  C6  UNL     1      11.715   0.350 -18.008  1.00  0.00     0.043 C 
HETATM    4  C7  UNL     1      10.638  -0.656 -20.034  1.00  0.00     0.034 C 
HETATM    5  C8  UNL     1      10.745  -1.712 -21.120  1.00  0.00     0.011 C 
HETATM    6  C9  UNL     1      12.108  -2.292 -20.975  1.00  0.00     0.021 C 
HETATM    7  C10 UNL     1      12.648  -3.118 -22.014  1.00  0.00     0.029 C 
HETATM    8  C11 UNL     1      12.337  -2.766 -23.444  1.00  0.00     0.049 C 
HETATM    9  C12 UNL     1      13.021  -3.962 -24.124  1.00  0.00     0.089 C 
HETATM   10  C13 UNL     1      12.005  -4.438 -25.172  1.00  0.00     0.049 C 
HETATM   11  O2  UNL     1      13.266  -4.904 -23.155  1.00  0.00    -0.366 OA
HETATM   12  C18 UNL     1      12.472  -4.594 -22.022  1.00  0.00     0.062 C 
HETATM   13  C19 UNL     1      11.158  -5.204 -22.232  1.00  0.00     0.046 C 
HETATM   14  C20 UNL     1      13.058  -5.071 -20.729  1.00  0.00     0.040 C 
HETATM   15  C21 UNL     1      13.232  -4.001 -19.684  1.00  0.00     0.034 C 
HETATM   16  C22 UNL     1      12.100  -3.030 -19.605  1.00  0.00     0.065 C 
HETATM   17 CL1  UNL     1      10.514  -3.726 -19.314  1.00  0.00    -0.114 Cl
ENDROOT
BRANCH   9  18
HETATM   18  C14 UNL     1      14.233  -3.566 -24.915  1.00  0.00     0.085 C 
HETATM   19  C15 UNL     1      15.485  -3.815 -24.119  1.00  0.00     0.049 C 
BRANCH  18  20
HETATM   20  O1  UNL     1      14.131  -2.168 -25.082  1.00  0.00    -0.387 OA
ATOM     21  H1  UNL     1      14.345  -2.007 -25.993  1.00  0.00     0.210 HD
ENDBRANCH  18  20
BRANCH  18  22
HETATM   22  C16 UNL     1      14.392  -4.243 -26.234  1.00  0.00     0.036 C 
HETATM   23  C17 UNL     1      15.833  -4.058 -26.671  1.00  0.00     0.008 C 
ENDBRANCH  18  22
ENDBRANCH   9  18
BRANCH   1  24
HETATM   24  C3  UNL     1      13.078  -1.897 -17.410  1.00  0.00     0.036 C 
BRANCH  24  25
HETATM   25  C2  UNL     1      13.002  -2.936 -16.377  1.00  0.00    -0.000 C 
HETATM   26  C1  UNL     1      14.092  -3.895 -16.156  1.00  0.00     0.005 C 
ENDBRANCH  24  25
ENDBRANCH   1  24
TORSDOF 5
ENDMDL
MODEL 5
REMARK VINA RESULT: -7.476427037      2.756      4.761
REMARK  5 active torsions:
REMARK  status: ('A' for Active; 'I' for Inactive)
REMARK    1  A    between atoms: C2_2  and  C3_3 
REMARK    2  A    between atoms: C3_3  and  C4_4 
REMARK    3  A    between atoms: C12_12  and  C14_14 
REMARK    4  A    between atoms: C14_14  and  O1_16 
REMARK    5  A    between atoms: C14_14  and  C16_18 
ROOT
HETATM    1  C4  UNL     1      13.498  -3.922 -23.247  1.00  0.00    -0.054 C 
HETATM    2  C5  UNL     1      14.844  -3.865 -23.143  1.00  0.00    -0.080 C 
HETATM    3  C6  UNL     1      15.631  -3.896 -24.424  1.00  0.00     0.043 C 
HETATM    4  C7  UNL     1      15.637  -3.813 -21.920  1.00  0.00     0.034 C 
HETATM    5  C8  UNL     1      14.853  -3.443 -20.674  1.00  0.00     0.011 C 
HETATM    6  C9  UNL     1      13.643  -2.728 -21.164  1.00  0.00     0.021 C 
HETATM    7  C10 UNL     1      12.825  -1.993 -20.247  1.00  0.00     0.029 C 
HETATM    8  C11 UNL     1      13.497  -1.249 -19.125  1.00  0.00     0.049 C 
HETATM    9  C12 UNL     1      12.239  -0.746 -18.401  1.00  0.00     0.089 C 
HETATM   10  C13 UNL     1      12.514  -1.023 -16.917  1.00  0.00     0.049 C 
HETATM   11  O2  UNL     1      11.171  -1.460 -18.886  1.00  0.00    -0.366 OA
HETATM   12  C18 UNL     1      11.668  -2.611 -19.548  1.00  0.00     0.062 C 
HETATM   13  C19 UNL     1      11.856  -3.650 -18.534  1.00  0.00     0.046 C 
HETATM   14  C20 UNL     1      10.769  -3.113 -20.637  1.00  0.00     0.040 C 
HETATM   15  C21 UNL     1      11.428  -3.250 -21.983  1.00  0.00     0.034 C 
HETATM   16  C22 UNL     1      12.816  -3.797 -21.936  1.00  0.00     0.065 C 
HETATM   17 CL1  UNL     1      12.995  -5.361 -21.158  1.00  0.00    -0.114 Cl
ENDROOT
BRANCH   9  18
HETATM   18  C14 UNL     1      12.073   0.742 -18.491  1.00  0.00     0.085 C 
HETATM   19  C15 UNL     1      12.635   1.410 -17.266  1.00  0.00     0.049 C 
BRANCH  18  20
HETATM   20  O1  UNL     1      10.680   0.966 -18.472  1.00  0.00    -0.387 OA
ATOM     21  H1  UNL     1      10.516   1.599 -19.161  1.00  0.00     0.210 HD
ENDBRANCH  18  20
BRANCH  18  22
HETATM   22  C16 UNL     1      12.693   1.390 -19.684  1.00  0.00     0.036 C 
HETATM   23  C17 UNL     1      12.710   2.885 -19.434  1.00  0.00     0.008 C 
ENDBRANCH  18  22
ENDBRANCH   9  18
BRANCH   1  24
HETATM   24  C3  UNL     1      12.943  -4.011 -24.581  1.00  0.00     0.036 C 
BRANCH  24  25
HETATM   25  C2  UNL     1      12.331  -5.250 -25.076  1.00  0.00    -0.000 C 
HETATM   26  C1  UNL     1      11.652  -5.318 -26.376  1.00  0.00     0.005 C 
ENDBRANCH  24  25
ENDBRANCH   1  24
TORSDOF 5
ENDMDL
