MODEL 1
REMARK VINA RESULT: -8.687610433      0.000      0.000
REMARK  5 active torsions:
REMARK  status: ('A' for Active; 'I' for Inactive)
REMARK    1  A    between atoms: C2_2  and  C3_3 
REMARK    2  A    between atoms: C3_3  and  C4_4 
REMARK    3  A    between atoms: C4_4  and  C5_5 
REMARK    4  A    between atoms: C5_5  and  C7_7 
REMARK    5  A    between atoms: N1_16  and  O1_18 
ROOT
HETATM    1  C7  UNL     1      12.729  -4.889 -23.801  1.00  0.00    -0.002 C 
HETATM    2  C8  UNL     1      13.890  -4.447 -22.933  1.00  0.00     0.011 C 
HETATM    3  C9  UNL     1      12.773  -4.198 -21.907  1.00  0.00    -0.001 C 
HETATM    4  C10 UNL     1      12.988  -3.187 -20.899  1.00  0.00    -0.004 C 
HETATM    5  C11 UNL     1      12.070  -3.391 -19.724  1.00  0.00     0.007 C 
HETATM    6  C12 UNL     1      12.324  -2.392 -18.584  1.00  0.00     0.017 C 
HETATM    7  C13 UNL     1      12.137  -1.049 -19.161  1.00  0.00     0.019 C 
HETATM    8  C14 UNL     1      10.746  -0.695 -19.541  1.00  0.00     0.023 C 
HETATM    9  C15 UNL     1      12.812   0.128 -18.606  1.00  0.00     0.022 C 
HETATM   10  N1  UNL     1      13.019   0.570 -17.417  1.00  0.00    -0.277 N 
ATOM     11  H1  UNL     1      13.535   1.444 -17.317  1.00  0.00     0.193 HD
HETATM   12  C16 UNL     1      13.096   0.489 -20.031  1.00  0.00     0.082 C 
HETATM   13  C17 UNL     1      13.217  -0.937 -20.237  1.00  0.00     0.058 C 
HETATM   14 CL1  UNL     1      14.758  -1.484 -19.446  1.00  0.00    -0.117 Cl
HETATM   15  C18 UNL     1      12.978  -1.733 -21.396  1.00  0.00     0.015 C 
HETATM   16  C19 UNL     1      11.808  -1.555 -22.264  1.00  0.00     0.008 C 
HETATM   17  C20 UNL     1      12.070  -2.418 -23.519  1.00  0.00     0.010 C 
HETATM   18  C21 UNL     1      11.927  -3.830 -23.129  1.00  0.00    -0.036 C 
HETATM   19  C22 UNL     1      10.502  -4.275 -22.963  1.00  0.00     0.016 C 
ENDROOT
BRANCH   1  20
HETATM   20  C5  UNL     1      12.915  -4.967 -25.240  1.00  0.00    -0.014 C 
HETATM   21  C6  UNL     1      11.703  -4.901 -26.109  1.00  0.00     0.010 C 
BRANCH  20  22
HETATM   22  C4  UNL     1      13.793  -3.801 -25.675  1.00  0.00     0.005 C 
BRANCH  22  23
HETATM   23  C3  UNL     1      14.991  -4.228 -26.469  1.00  0.00     0.000 C 
BRANCH  23  24
HETATM   24  C2  UNL     1      16.212  -3.402 -26.208  1.00  0.00    -0.005 C 
HETATM   25  C1  UNL     1      16.626  -3.635 -24.763  1.00  0.00     0.005 C 
ENDBRANCH  23  24
ENDBRANCH  22  23
ENDBRANCH  20  22
ENDBRANCH   1  20
BRANCH  10  26
HETATM   26  O1  UNL     1      12.597  -0.046 -16.289  1.00  0.00    -0.290 OA
ATOM     27  H1  UNL     1      12.320   0.407 -15.501  1.00  0.00     0.244 HD
ENDBRANCH  10  26
TORSDOF 5
ENDMDL
MODEL 2
REMARK VINA RESULT: -8.681639564      1.799      2.558
REMARK  5 active torsions:
REMARK  status: ('A' for Active; 'I' for Inactive)
REMARK    1  A    between atoms: C2_2  and  C3_3 
REMARK    2  A    between atoms: C3_3  and  C4_4 
REMARK    3  A    between atoms: C4_4  and  C5_5 
REMARK    4  A    between atoms: C5_5  and  C7_7 
REMARK    5  A    between atoms: N1_16  and  O1_18 
ROOT
HETATM    1  C7  UNL     1      11.981  -4.271 -24.094  1.00  0.00    -0.002 C 
HETATM    2  C8  UNL     1      11.506  -5.034 -22.874  1.00  0.00     0.011 C 
HETATM    3  C9  UNL     1      11.681  -3.666 -22.193  1.00  0.00    -0.001 C 
HETATM    4  C10 UNL     1      11.969  -3.642 -20.779  1.00  0.00    -0.004 C 
HETATM    5  C11 UNL     1      11.635  -2.302 -20.182  1.00  0.00     0.007 C 
HETATM    6  C12 UNL     1      11.839  -2.255 -18.660  1.00  0.00     0.017 C 
HETATM    7  C13 UNL     1      13.254  -2.591 -18.421  1.00  0.00     0.019 C 
HETATM    8  C14 UNL     1      14.244  -1.579 -18.869  1.00  0.00     0.023 C 
HETATM    9  C15 UNL     1      13.699  -3.194 -17.162  1.00  0.00     0.022 C 
HETATM   10  N1  UNL     1      13.450  -2.976 -15.920  1.00  0.00    -0.277 N 
ATOM     11  H1  UNL     1      13.914  -3.566 -15.230  1.00  0.00     0.193 HD
HETATM   12  C16 UNL     1      14.515  -4.105 -18.026  1.00  0.00     0.082 C 
HETATM   13  C17 UNL     1      13.407  -4.016 -18.950  1.00  0.00     0.058 C 
HETATM   14 CL1  UNL     1      12.021  -4.955 -18.245  1.00  0.00    -0.117 Cl
HETATM   15  C18 UNL     1      13.371  -4.124 -20.371  1.00  0.00     0.015 C 
HETATM   16  C19 UNL     1      14.350  -3.476 -21.251  1.00  0.00     0.008 C 
HETATM   17  C20 UNL     1      14.109  -4.055 -22.663  1.00  0.00     0.010 C 
HETATM   18  C21 UNL     1      12.848  -3.489 -23.170  1.00  0.00    -0.036 C 
HETATM   19  C22 UNL     1      12.962  -2.065 -23.634  1.00  0.00     0.016 C 
ENDROOT
BRANCH   1  20
HETATM   20  C5  UNL     1      12.486  -5.013 -25.236  1.00  0.00    -0.014 C 
HETATM   21  C6  UNL     1      11.506  -5.476 -26.262  1.00  0.00     0.010 C 
BRANCH  20  22
HETATM   22  C4  UNL     1      13.476  -4.130 -25.985  1.00  0.00     0.005 C 
BRANCH  22  23
HETATM   23  C3  UNL     1      14.876  -4.665 -25.967  1.00  0.00     0.000 C 
BRANCH  23  24
HETATM   24  C2  UNL     1      15.841  -3.857 -26.777  1.00  0.00    -0.005 C 
HETATM   25  C1  UNL     1      16.671  -3.026 -25.811  1.00  0.00     0.005 C 
ENDBRANCH  23  24
ENDBRANCH  22  23
ENDBRANCH  20  22
ENDBRANCH   1  20
BRANCH  10  26
HETATM   26  O1  UNL     1      12.612  -2.014 -15.468  1.00  0.00    -0.290 OA
ATOM     27  H1  UNL     1      12.796  -1.448 -14.728  1.00  0.00     0.244 HD
ENDBRANCH  10  26
TORSDOF 5
ENDMDL
MODEL 3
REMARK VINA RESULT: -8.513448800      3.371      4.753
REMARK  5 active torsions:
REMARK  status: ('A' for Active; 'I' for Inactive)
REMARK    1  A    between atoms: C2_2  and  C3_3 
REMARK    2  A    between atoms: C3_3  and  C4_4 
REMARK    3  A    between atoms: C4_4  and  C5_5 
REMARK    4  A    between atoms: C5_5  and  C7_7 
REMARK    5  A    between atoms: N1_16  and  O1_18 
ROOT
HETATM    1  C7  UNL     1      11.890  -3.656 -21.543  1.00  0.00    -0.002 C 
HETATM    2  C8  UNL     1      12.531  -4.003 -20.214  1.00  0.00     0.011 C 
HETATM    3  C9  UNL     1      13.431  -2.804 -20.559  1.00  0.00    -0.001 C 
HETATM    4  C10 UNL     1      14.768  -2.779 -20.015  1.00  0.00    -0.004 C 
HETATM    5  C11 UNL     1      15.329  -1.383 -20.024  1.00  0.00     0.007 C 
HETATM    6  C12 UNL     1      16.717  -1.290 -19.371  1.00  0.00     0.017 C 
HETATM    7  C13 UNL     1      17.592  -2.205 -20.125  1.00  0.00     0.019 C 
HETATM    8  C14 UNL     1      17.908  -1.798 -21.517  1.00  0.00     0.023 C 
HETATM    9  C15 UNL     1      18.771  -2.822 -19.511  1.00  0.00     0.022 C 
HETATM   10  N1  UNL     1      19.718  -2.398 -18.754  1.00  0.00    -0.277 N 
ATOM     11  H1  UNL     1      20.433  -3.066 -18.466  1.00  0.00     0.193 HD
HETATM   12  C16 UNL     1      18.311  -4.081 -20.180  1.00  0.00     0.082 C 
HETATM   13  C17 UNL     1      16.978  -3.588 -19.912  1.00  0.00     0.058 C 
HETATM   14 CL1  UNL     1      16.685  -3.727 -18.124  1.00  0.00    -0.117 Cl
HETATM   15  C18 UNL     1      15.752  -3.802 -20.606  1.00  0.00     0.015 C 
HETATM   16  C19 UNL     1      15.638  -3.753 -22.068  1.00  0.00     0.008 C 
HETATM   17  C20 UNL     1      14.229  -4.292 -22.407  1.00  0.00     0.010 C 
HETATM   18  C21 UNL     1      13.250  -3.267 -22.007  1.00  0.00    -0.036 C 
HETATM   19  C22 UNL     1      13.171  -2.100 -22.949  1.00  0.00     0.016 C 
ENDROOT
BRANCH   1  20
HETATM   20  C5  UNL     1      11.067  -4.651 -22.208  1.00  0.00    -0.014 C 
HETATM   21  C6  UNL     1      10.106  -5.436 -21.378  1.00  0.00     0.010 C 
BRANCH  20  22
HETATM   22  C4  UNL     1      10.218  -3.949 -23.260  1.00  0.00     0.005 C 
BRANCH  22  23
HETATM   23  C3  UNL     1      10.614  -4.294 -24.665  1.00  0.00     0.000 C 
BRANCH  23  24
HETATM   24  C2  UNL     1      11.861  -5.118 -24.754  1.00  0.00    -0.005 C 
HETATM   25  C1  UNL     1      12.695  -4.566 -25.901  1.00  0.00     0.005 C 
ENDBRANCH  23  24
ENDBRANCH  22  23
ENDBRANCH  20  22
ENDBRANCH   1  20
BRANCH  10  26
HETATM   26  O1  UNL     1      19.831  -1.124 -18.313  1.00  0.00    -0.290 OA
ATOM     27  H1  UNL     1      19.733  -0.356 -18.863  1.00  0.00     0.244 HD
ENDBRANCH  10  26
TORSDOF 5
ENDMDL
MODEL 4
REMARK VINA RESULT: -8.511804593      4.051      5.739
REMARK  5 active torsions:
REMARK  status: ('A' for Active; 'I' for Inactive)
REMARK    1  A    between atoms: C2_2  and  C3_3 
REMARK    2  A    between atoms: C3_3  and  C4_4 
REMARK    3  A    between atoms: C4_4  and  C5_5 
REMARK    4  A    between atoms: C5_5  and  C7_7 
REMARK    5  A    between atoms: N1_16  and  O1_18 
ROOT
HETATM    1  C7  UNL     1      17.058  -3.783 -20.997  1.00  0.00    -0.002 C 
HETATM    2  C8  UNL     1      16.395  -4.315 -22.252  1.00  0.00     0.011 C 
HETATM    3  C9  UNL     1      15.349  -3.238 -21.918  1.00  0.00    -0.001 C 
HETATM    4  C10 UNL     1      13.992  -3.447 -22.364  1.00  0.00    -0.004 C 
HETATM    5  C11 UNL     1      13.230  -2.150 -22.402  1.00  0.00     0.007 C 
HETATM    6  C12 UNL     1      11.805  -2.307 -22.957  1.00  0.00     0.017 C 
HETATM    7  C13 UNL     1      11.126  -3.282 -22.086  1.00  0.00     0.019 C 
HETATM    8  C14 UNL     1      10.840  -2.826 -20.702  1.00  0.00     0.023 C 
HETATM    9  C15 UNL     1      10.017  -4.107 -22.573  1.00  0.00     0.022 C 
HETATM   10  N1  UNL     1       8.971  -3.881 -23.284  1.00  0.00    -0.277 N 
ATOM     11  H1  UNL     1       8.348  -4.665 -23.477  1.00  0.00     0.193 HD
HETATM   12  C16 UNL     1      10.701  -5.234 -21.862  1.00  0.00     0.082 C 
HETATM   13  C17 UNL     1      11.925  -4.574 -22.256  1.00  0.00     0.058 C 
HETATM   14 CL1  UNL     1      12.124  -4.797 -24.048  1.00  0.00    -0.117 Cl
HETATM   15  C18 UNL     1      13.211  -4.556 -21.640  1.00  0.00     0.015 C 
HETATM   16  C19 UNL     1      13.408  -4.385 -20.197  1.00  0.00     0.008 C 
HETATM   17  C20 UNL     1      14.899  -4.688 -19.928  1.00  0.00     0.010 C 
HETATM   18  C21 UNL     1      15.687  -3.564 -20.460  1.00  0.00    -0.036 C 
HETATM   19  C22 UNL     1      15.649  -2.332 -19.601  1.00  0.00     0.016 C 
ENDROOT
BRANCH   1  20
HETATM   20  C5  UNL     1      18.061  -4.597 -20.333  1.00  0.00    -0.014 C 
HETATM   21  C6  UNL     1      18.403  -5.920 -20.934  1.00  0.00     0.010 C 
BRANCH  20  22
HETATM   22  C4  UNL     1      19.368  -3.816 -20.295  1.00  0.00     0.005 C 
BRANCH  22  23
HETATM   23  C3  UNL     1      19.205  -2.416 -19.782  1.00  0.00     0.000 C 
BRANCH  23  24
HETATM   24  C2  UNL     1      19.070  -1.390 -20.864  1.00  0.00    -0.005 C 
HETATM   25  C1  UNL     1      18.375  -0.177 -20.263  1.00  0.00     0.005 C 
ENDBRANCH  23  24
ENDBRANCH  22  23
ENDBRANCH  20  22
ENDBRANCH   1  20
BRANCH  10  26
HETATM   26  O1  UNL     1       8.641  -2.672 -23.795  1.00  0.00    -0.290 OA
ATOM     27  H1  UNL     1       7.767  -2.302 -23.774  1.00  0.00     0.244 HD
ENDBRANCH  10  26
TORSDOF 5
ENDMDL
MODEL 5
REMARK VINA RESULT: -8.452361671      1.395      2.317
REMARK  5 active torsions:
REMARK  status: ('A' for Active; 'I' for Inactive)
REMARK    1  A    between atoms: C2_2  and  C3_3 
REMARK    2  A    between atoms: C3_3  and  C4_4 
REMARK    3  A    between atoms: C4_4  and  C5_5 
REMARK    4  A    between atoms: C5_5  and  C7_7 
REMARK    5  A    between atoms: N1_16  and  O1_18 
ROOT
HETATM    1  C7  UNL     1      12.520  -3.943 -22.909  1.00  0.00    -0.002 C 
HETATM    2  C8  UNL     1      12.639  -2.433 -22.971  1.00  0.00     0.011 C 
HETATM    3  C9  UNL     1      13.321  -2.626 -21.607  1.00  0.00    -0.001 C 
HETATM    4  C10 UNL     1      13.260  -1.541 -20.657  1.00  0.00    -0.004 C 
HETATM    5  C11 UNL     1      14.340  -1.672 -19.617  1.00  0.00     0.007 C 
HETATM    6  C12 UNL     1      14.374  -0.491 -18.634  1.00  0.00     0.017 C 
HETATM    7  C13 UNL     1      13.045  -0.442 -17.999  1.00  0.00     0.019 C 
HETATM    8  C14 UNL     1      12.725  -1.564 -17.080  1.00  0.00     0.023 C 
HETATM    9  C15 UNL     1      12.493   0.806 -17.466  1.00  0.00     0.022 C 
HETATM   10  N1  UNL     1      12.963   1.770 -16.759  1.00  0.00    -0.277 N 
ATOM     11  H1  UNL     1      12.336   2.539 -16.525  1.00  0.00     0.193 HD
HETATM   12  C16 UNL     1      11.217   0.383 -18.127  1.00  0.00     0.082 C 
HETATM   13  C17 UNL     1      12.077  -0.170 -19.150  1.00  0.00     0.058 C 
HETATM   14 CL1  UNL     1      12.795   1.215 -20.080  1.00  0.00    -0.117 Cl
HETATM   15  C18 UNL     1      11.882  -1.274 -20.030  1.00  0.00     0.015 C 
HETATM   16  C19 UNL     1      11.322  -2.559 -19.595  1.00  0.00     0.008 C 
HETATM   17  C20 UNL     1      11.040  -3.363 -20.884  1.00  0.00     0.010 C 
HETATM   18  C21 UNL     1      12.337  -3.787 -21.439  1.00  0.00    -0.036 C 
HETATM   19  C22 UNL     1      12.967  -4.937 -20.706  1.00  0.00     0.016 C 
ENDROOT
BRANCH   1  20
HETATM   20  C5  UNL     1      11.562  -4.610 -23.773  1.00  0.00    -0.014 C 
HETATM   21  C6  UNL     1      10.295  -3.893 -24.102  1.00  0.00     0.010 C 
BRANCH  20  22
HETATM   22  C4  UNL     1      12.233  -4.888 -25.111  1.00  0.00     0.005 C 
BRANCH  22  23
HETATM   23  C3  UNL     1      13.731  -4.883 -25.034  1.00  0.00     0.000 C 
BRANCH  23  24
HETATM   24  C2  UNL     1      14.391  -4.197 -26.190  1.00  0.00    -0.005 C 
HETATM   25  C1  UNL     1      15.590  -3.434 -25.648  1.00  0.00     0.005 C 
ENDBRANCH  23  24
ENDBRANCH  22  23
ENDBRANCH  20  22
ENDBRANCH   1  20
BRANCH  10  26
HETATM   26  O1  UNL     1      14.237   1.833 -16.305  1.00  0.00    -0.290 OA
ATOM     27  H1  UNL     1      14.578   1.305 -15.592  1.00  0.00     0.244 HD
ENDBRANCH  10  26
TORSDOF 5
ENDMDL
