MODEL 1
REMARK VINA RESULT: -9.031141887      0.000      0.000
REMARK  5 active torsions:
REMARK  status: ('A' for Active; 'I' for Inactive)
REMARK    1  A    between atoms: C6_8  and  C7_9 
REMARK    2  A    between atoms: C7_9  and  C8_10 
REMARK    3  A    between atoms: C18_20  and  C20_22 
REMARK    4  A    between atoms: C20_22  and  O1_23 
REMARK    5  A    between atoms: C20_22  and  O2_25 
ROOT
HETATM    1  C8  UNL     1       2.439  -8.358 -17.319  1.00  0.00     0.123 C 
HETATM    2  C9  UNL     1       3.041  -8.346 -15.962  1.00  0.00     0.032 C 
HETATM    3  C10 UNL     1       3.149  -9.823 -15.532  1.00  0.00     0.011 C 
HETATM    4  C11 UNL     1       4.227 -10.413 -16.413  1.00  0.00     0.033 C 
HETATM    5  C12 UNL     1       4.080  -9.970 -17.813  1.00  0.00     0.062 C 
HETATM    6  C13 UNL     1       5.208  -9.068 -18.299  1.00  0.00     0.046 C 
HETATM    7  C14 UNL     1       4.135 -11.148 -18.809  1.00  0.00     0.038 C 
HETATM    8  C15 UNL     1       3.099 -12.091 -18.316  1.00  0.00     0.008 C 
HETATM    9  C16 UNL     1       3.722 -12.784 -17.086  1.00  0.00    -0.005 C 
HETATM   10  C17 UNL     1       2.607 -13.607 -16.541  1.00  0.00     0.011 C 
HETATM   11  C18 UNL     1       4.465 -11.891 -16.194  1.00  0.00     0.015 C 
HETATM   12  C19 UNL     1       5.969 -12.082 -16.522  1.00  0.00     0.021 C 
HETATM   13  O3  UNL     1       2.881  -9.362 -18.125  1.00  0.00    -0.375 OA
ENDROOT
BRANCH   1  14
HETATM   14  C7  UNL     1       2.448  -7.031 -18.021  1.00  0.00     0.043 C 
BRANCH  14  15
HETATM   15  C6  UNL     1       2.104  -7.045 -19.459  1.00  0.00     0.068 C 
HETATM   16  C5  UNL     1       3.030  -6.363 -20.396  1.00  0.00     0.248 C 
HETATM   17  C4  UNL     1       3.394  -4.962 -19.977  1.00  0.00     0.084 C 
HETATM   18  F1  UNL     1       4.163  -7.032 -20.741  1.00  0.00    -0.206 F 
HETATM   19  F2  UNL     1       2.313  -6.201 -21.597  1.00  0.00    -0.206 F 
HETATM   20  C3  UNL     1       2.257  -4.158 -19.480  1.00  0.00     0.039 C 
HETATM   21  C2  UNL     1       1.032  -4.918 -19.133  1.00  0.00    -0.085 C 
HETATM   22  C1  UNL     1       0.148  -4.301 -18.373  1.00  0.00     0.014 C 
HETATM   23  C22 UNL     1       0.763  -6.306 -19.595  1.00  0.00     0.019 C 
HETATM   24  C23 UNL     1      -0.309  -6.959 -18.770  1.00  0.00     0.015 C 
ENDBRANCH  14  15
ENDBRANCH   1  14
BRANCH  11  25
HETATM   25  C20 UNL     1       4.415 -12.213 -14.737  1.00  0.00     0.265 C 
BRANCH  25  26
HETATM   26  O1  UNL     1       5.272 -13.390 -14.539  1.00  0.00    -0.370 OA
ATOM     27  H1  UNL     1       4.737 -14.151 -14.739  1.00  0.00     0.212 HD
ENDBRANCH  25  26
BRANCH  25  28
HETATM   28  O2  UNL     1       4.738 -11.282 -13.825  1.00  0.00    -0.365 OA
HETATM   29  C21 UNL     1       4.061 -11.431 -12.652  1.00  0.00     0.204 C 
ENDBRANCH  25  28
ENDBRANCH  11  25
TORSDOF 5
ENDMDL
MODEL 2
REMARK VINA RESULT: -8.878667846      1.329      2.318
REMARK  5 active torsions:
REMARK  status: ('A' for Active; 'I' for Inactive)
REMARK    1  A    between atoms: C6_8  and  C7_9 
REMARK    2  A    between atoms: C7_9  and  C8_10 
REMARK    3  A    between atoms: C18_20  and  C20_22 
REMARK    4  A    between atoms: C20_22  and  O1_23 
REMARK    5  A    between atoms: C20_22  and  O2_25 
ROOT
HETATM    1  C8  UNL     1       3.005  -8.237 -17.861  1.00  0.00     0.123 C 
HETATM    2  C9  UNL     1       2.005  -9.194 -17.323  1.00  0.00     0.032 C 
HETATM    3  C10 UNL     1       2.813 -10.373 -16.745  1.00  0.00     0.011 C 
HETATM    4  C11 UNL     1       3.496  -9.818 -15.515  1.00  0.00     0.033 C 
HETATM    5  C12 UNL     1       4.060  -8.479 -15.771  1.00  0.00     0.062 C 
HETATM    6  C13 UNL     1       3.377  -7.360 -14.992  1.00  0.00     0.046 C 
HETATM    7  C14 UNL     1       5.529  -8.365 -15.311  1.00  0.00     0.038 C 
HETATM    8  C15 UNL     1       6.212  -9.495 -15.989  1.00  0.00     0.008 C 
HETATM    9  C16 UNL     1       5.808 -10.756 -15.198  1.00  0.00    -0.005 C 
HETATM   10  C17 UNL     1       6.392 -11.873 -15.992  1.00  0.00     0.011 C 
HETATM   11  C18 UNL     1       4.397 -10.807 -14.809  1.00  0.00     0.015 C 
HETATM   12  C19 UNL     1       4.330 -10.379 -13.319  1.00  0.00     0.021 C 
HETATM   13  O3  UNL     1       4.124  -8.100 -17.096  1.00  0.00    -0.375 OA
ENDROOT
BRANCH   1  14
HETATM   14  C7  UNL     1       2.444  -6.908 -18.273  1.00  0.00     0.043 C 
BRANCH  14  15
HETATM   15  C6  UNL     1       2.038  -6.775 -19.689  1.00  0.00     0.068 C 
HETATM   16  C5  UNL     1       2.899  -5.960 -20.580  1.00  0.00     0.248 C 
HETATM   17  C4  UNL     1       3.235  -4.601 -20.023  1.00  0.00     0.084 C 
HETATM   18  F1  UNL     1       4.036  -6.544 -21.044  1.00  0.00    -0.206 F 
HETATM   19  F2  UNL     1       2.124  -5.693 -21.726  1.00  0.00    -0.206 F 
HETATM   20  C3  UNL     1       2.095  -3.900 -19.394  1.00  0.00     0.039 C 
HETATM   21  C2  UNL     1       0.912  -4.739 -19.085  1.00  0.00    -0.085 C 
HETATM   22  C1  UNL     1       0.043  -4.243 -18.225  1.00  0.00     0.014 C 
HETATM   23  C22 UNL     1       0.668  -6.076 -19.688  1.00  0.00     0.019 C 
HETATM   24  C23 UNL     1      -0.345  -6.857 -18.899  1.00  0.00     0.015 C 
ENDBRANCH  14  15
ENDBRANCH   1  14
BRANCH  11  25
HETATM   25  C20 UNL     1       3.762 -12.158 -14.780  1.00  0.00     0.265 C 
BRANCH  25  26
HETATM   26  O1  UNL     1       4.488 -12.940 -13.770  1.00  0.00    -0.370 OA
ATOM     27  H1  UNL     1       3.831 -13.403 -13.263  1.00  0.00     0.212 HD
ENDBRANCH  25  26
BRANCH  25  28
HETATM   28  O2  UNL     1       2.443 -12.282 -14.562  1.00  0.00    -0.365 OA
HETATM   29  C21 UNL     1       2.031 -13.581 -14.530  1.00  0.00     0.204 C 
ENDBRANCH  25  28
ENDBRANCH  11  25
TORSDOF 5
ENDMDL
MODEL 3
REMARK VINA RESULT: -8.457060178      1.876      2.520
REMARK  5 active torsions:
REMARK  status: ('A' for Active; 'I' for Inactive)
REMARK    1  A    between atoms: C6_8  and  C7_9 
REMARK    2  A    between atoms: C7_9  and  C8_10 
REMARK    3  A    between atoms: C18_20  and  C20_22 
REMARK    4  A    between atoms: C20_22  and  O1_23 
REMARK    5  A    between atoms: C20_22  and  O2_25 
ROOT
HETATM    1  C8  UNL     1       2.776  -7.202 -16.470  1.00  0.00     0.123 C 
HETATM    2  C9  UNL     1       3.041  -6.560 -15.158  1.00  0.00     0.032 C 
HETATM    3  C10 UNL     1       3.322  -7.711 -14.170  1.00  0.00     0.011 C 
HETATM    4  C11 UNL     1       4.662  -8.271 -14.587  1.00  0.00     0.033 C 
HETATM    5  C12 UNL     1       4.757  -8.402 -16.053  1.00  0.00     0.062 C 
HETATM    6  C13 UNL     1       5.778  -7.469 -16.694  1.00  0.00     0.046 C 
HETATM    7  C14 UNL     1       5.256  -9.798 -16.486  1.00  0.00     0.038 C 
HETATM    8  C15 UNL     1       4.329 -10.741 -15.811  1.00  0.00     0.008 C 
HETATM    9  C16 UNL     1       4.774 -10.771 -14.334  1.00  0.00    -0.005 C 
HETATM   10  C17 UNL     1       3.737 -11.610 -13.670  1.00  0.00     0.011 C 
HETATM   11  C18 UNL     1       5.115  -9.463 -13.772  1.00  0.00     0.015 C 
HETATM   12  C19 UNL     1       6.663  -9.360 -13.785  1.00  0.00     0.021 C 
HETATM   13  O3  UNL     1       3.569  -8.275 -16.744  1.00  0.00    -0.375 OA
ENDROOT
BRANCH   1  14
HETATM   14  C7  UNL     1       2.698  -6.253 -17.629  1.00  0.00     0.043 C 
BRANCH  14  15
HETATM   15  C6  UNL     1       2.357  -6.843 -18.942  1.00  0.00     0.068 C 
HETATM   16  C5  UNL     1       3.123  -6.382 -20.125  1.00  0.00     0.248 C 
HETATM   17  C4  UNL     1       3.202  -4.882 -20.251  1.00  0.00     0.084 C 
HETATM   18  F1  UNL     1       4.365  -6.909 -20.300  1.00  0.00    -0.206 F 
HETATM   19  F2  UNL     1       2.381  -6.796 -21.249  1.00  0.00    -0.206 F 
HETATM   20  C3  UNL     1       1.929  -4.180 -19.981  1.00  0.00     0.039 C 
HETATM   21  C2  UNL     1       0.882  -4.978 -19.298  1.00  0.00    -0.085 C 
HETATM   22  C1  UNL     1      -0.103  -4.305 -18.736  1.00  0.00     0.014 C 
HETATM   23  C22 UNL     1       0.894  -6.463 -19.225  1.00  0.00     0.019 C 
HETATM   24  C23 UNL     1      -0.022  -6.965 -18.144  1.00  0.00     0.015 C 
ENDBRANCH  14  15
ENDBRANCH   1  14
BRANCH  11  25
HETATM   25  C20 UNL     1       4.795  -9.254 -12.328  1.00  0.00     0.265 C 
BRANCH  25  26
HETATM   26  O1  UNL     1       5.680 -10.150 -11.571  1.00  0.00    -0.370 OA
ATOM     27  H1  UNL     1       5.786  -9.761 -10.710  1.00  0.00     0.212 HD
ENDBRANCH  25  26
BRANCH  25  28
HETATM   28  O2  UNL     1       4.857  -8.025 -11.791  1.00  0.00    -0.365 OA
HETATM   29  C21 UNL     1       5.487  -8.005 -10.583  1.00  0.00     0.204 C 
ENDBRANCH  25  28
ENDBRANCH  11  25
TORSDOF 5
ENDMDL
MODEL 4
REMARK VINA RESULT: -8.403765046      1.515      2.325
REMARK  5 active torsions:
REMARK  status: ('A' for Active; 'I' for Inactive)
REMARK    1  A    between atoms: C6_8  and  C7_9 
REMARK    2  A    between atoms: C7_9  and  C8_10 
REMARK    3  A    between atoms: C18_20  and  C20_22 
REMARK    4  A    between atoms: C20_22  and  O1_23 
REMARK    5  A    between atoms: C20_22  and  O2_25 
ROOT
HETATM    1  C8  UNL     1       2.364  -9.128 -17.701  1.00  0.00     0.123 C 
HETATM    2  C9  UNL     1       2.996  -8.805 -16.396  1.00  0.00     0.032 C 
HETATM    3  C10 UNL     1       3.009 -10.121 -15.593  1.00  0.00     0.011 C 
HETATM    4  C11 UNL     1       4.024 -11.000 -16.290  1.00  0.00     0.033 C 
HETATM    5  C12 UNL     1       3.876 -10.930 -17.757  1.00  0.00     0.062 C 
HETATM    6  C13 UNL     1       5.054 -10.273 -18.467  1.00  0.00     0.046 C 
HETATM    7  C14 UNL     1       3.827 -12.329 -18.407  1.00  0.00     0.038 C 
HETATM    8  C15 UNL     1       2.739 -13.030 -17.680  1.00  0.00     0.008 C 
HETATM    9  C16 UNL     1       3.339 -13.420 -16.313  1.00  0.00    -0.005 C 
HETATM   10  C17 UNL     1       2.180 -13.986 -15.567  1.00  0.00     0.011 C 
HETATM   11  C18 UNL     1       4.162 -12.381 -15.690  1.00  0.00     0.015 C 
HETATM   12  C19 UNL     1       5.641 -12.762 -15.960  1.00  0.00     0.021 C 
HETATM   13  O3  UNL     1       2.717 -10.339 -18.215  1.00  0.00    -0.375 OA
ENDROOT
BRANCH   1  14
HETATM   14  C7  UNL     1       2.451  -8.038 -18.728  1.00  0.00     0.043 C 
BRANCH  14  15
HETATM   15  C6  UNL     1       2.690  -6.670 -18.218  1.00  0.00     0.068 C 
HETATM   16  C5  UNL     1       1.570  -5.700 -18.292  1.00  0.00     0.248 C 
HETATM   17  C4  UNL     1       0.921  -5.626 -19.651  1.00  0.00     0.084 C 
HETATM   18  F1  UNL     1       0.602  -5.800 -17.342  1.00  0.00    -0.206 F 
HETATM   19  F2  UNL     1       2.148  -4.430 -18.103  1.00  0.00    -0.206 F 
HETATM   20  C3  UNL     1       1.873  -5.615 -20.782  1.00  0.00     0.039 C 
HETATM   21  C2  UNL     1       3.261  -6.027 -20.463  1.00  0.00    -0.085 C 
HETATM   22  C1  UNL     1       4.028  -6.366 -21.482  1.00  0.00     0.014 C 
HETATM   23  C22 UNL     1       3.811  -6.071 -19.082  1.00  0.00     0.019 C 
HETATM   24  C23 UNL     1       5.059  -6.906 -19.017  1.00  0.00     0.015 C 
ENDBRANCH  14  15
ENDBRANCH   1  14
BRANCH  11  25
HETATM   25  C20 UNL     1       4.121 -12.304 -14.199  1.00  0.00     0.265 C 
BRANCH  25  26
HETATM   26  O1  UNL     1       4.873 -13.464 -13.701  1.00  0.00    -0.370 OA
ATOM     27  H1  UNL     1       5.755 -13.384 -14.048  1.00  0.00     0.212 HD
ENDBRANCH  25  26
BRANCH  25  28
HETATM   28  O2  UNL     1       4.551 -11.202 -13.565  1.00  0.00    -0.365 OA
HETATM   29  C21 UNL     1       4.155 -11.150 -12.263  1.00  0.00     0.204 C 
ENDBRANCH  25  28
ENDBRANCH  11  25
TORSDOF 5
ENDMDL
MODEL 5
REMARK VINA RESULT: -8.286688098      1.759      3.171
REMARK  5 active torsions:
REMARK  status: ('A' for Active; 'I' for Inactive)
REMARK    1  A    between atoms: C6_8  and  C7_9 
REMARK    2  A    between atoms: C7_9  and  C8_10 
REMARK    3  A    between atoms: C18_20  and  C20_22 
REMARK    4  A    between atoms: C20_22  and  O1_23 
REMARK    5  A    between atoms: C20_22  and  O2_25 
ROOT
HETATM    1  C8  UNL     1       4.101  -7.537 -18.142  1.00  0.00     0.123 C 
HETATM    2  C9  UNL     1       4.340  -8.540 -19.210  1.00  0.00     0.032 C 
HETATM    3  C10 UNL     1       5.495  -9.429 -18.707  1.00  0.00     0.011 C 
HETATM    4  C11 UNL     1       4.908 -10.232 -17.569  1.00  0.00     0.033 C 
HETATM    5  C12 UNL     1       4.075  -9.389 -16.690  1.00  0.00     0.062 C 
HETATM    6  C13 UNL     1       2.591  -9.737 -16.724  1.00  0.00     0.046 C 
HETATM    7  C14 UNL     1       4.431  -9.565 -15.199  1.00  0.00     0.038 C 
HETATM    8  C15 UNL     1       5.893  -9.312 -15.141  1.00  0.00     0.008 C 
HETATM    9  C16 UNL     1       6.555 -10.588 -15.701  1.00  0.00    -0.005 C 
HETATM   10  C17 UNL     1       8.002 -10.238 -15.760  1.00  0.00     0.011 C 
HETATM   11  C18 UNL     1       5.898 -11.148 -16.884  1.00  0.00     0.015 C 
HETATM   12  C19 UNL     1       5.031 -12.337 -16.392  1.00  0.00     0.021 C 
HETATM   13  O3  UNL     1       4.198  -8.027 -16.875  1.00  0.00    -0.375 OA
ENDROOT
BRANCH   1  14
HETATM   14  C7  UNL     1       2.866  -6.705 -18.327  1.00  0.00     0.043 C 
BRANCH  14  15
HETATM   15  C6  UNL     1       2.282  -6.685 -19.685  1.00  0.00     0.068 C 
HETATM   16  C5  UNL     1       2.851  -5.729 -20.666  1.00  0.00     0.248 C 
HETATM   17  C4  UNL     1       2.963  -4.319 -20.145  1.00  0.00     0.084 C 
HETATM   18  F1  UNL     1       4.023  -6.077 -21.261  1.00  0.00    -0.206 F 
HETATM   19  F2  UNL     1       1.912  -5.647 -21.713  1.00  0.00    -0.206 F 
HETATM   20  C3  UNL     1       1.783  -3.853 -19.385  1.00  0.00     0.039 C 
HETATM   21  C2  UNL     1       0.840  -4.909 -18.945  1.00  0.00    -0.085 C 
HETATM   22  C1  UNL     1      -0.008  -4.585 -17.988  1.00  0.00     0.014 C 
HETATM   23  C22 UNL     1       0.808  -6.279 -19.522  1.00  0.00     0.019 C 
HETATM   24  C23 UNL     1       0.073  -7.235 -18.624  1.00  0.00     0.015 C 
ENDBRANCH  14  15
ENDBRANCH   1  14
BRANCH  11  25
HETATM   25  C20 UNL     1       6.785 -11.799 -17.893  1.00  0.00     0.265 C 
BRANCH  25  26
HETATM   26  O1  UNL     1       6.804 -13.233 -17.570  1.00  0.00    -0.370 OA
ATOM     27  H1  UNL     1       6.904 -13.296 -16.627  1.00  0.00     0.212 HD
ENDBRANCH  25  26
BRANCH  25  28
HETATM   28  O2  UNL     1       6.542 -11.651 -19.205  1.00  0.00    -0.365 OA
HETATM   29  C21 UNL     1       7.675 -11.463 -19.937  1.00  0.00     0.204 C 
ENDBRANCH  25  28
ENDBRANCH  11  25
TORSDOF 5
ENDMDL
