MODEL 1
REMARK VINA RESULT: -6.976463743      0.000      0.000
REMARK  7 active torsions:
REMARK  status: ('A' for Active; 'I' for Inactive)
REMARK    1  A    between atoms: O1_2  and  C2_3 
REMARK    2  A    between atoms: C2_3  and  C3_4 
REMARK    3  A    between atoms: C4_5  and  C5_6 
REMARK    4  A    between atoms: N1_13  and  C13_15 
REMARK    5  A    between atoms: C13_15  and  C14_16 
REMARK       I    between atoms: C14_16  and  N2_18 
REMARK    6  A    between atoms: N2_18  and  C15_20 
REMARK    7  A    between atoms: C15_20  and  C16_21 
ROOT
HETATM    1  C2  UNL     1      -3.907  13.690   7.294  1.00  0.00     0.125 C 
HETATM    2  C9  UNL     1      -2.900  14.758   7.077  1.00  0.00     0.053 C 
HETATM    3  C10 UNL     1      -3.428  15.955   6.327  1.00  0.00     0.032 C 
HETATM    4  C11 UNL     1      -4.344  16.701   7.222  1.00  0.00     0.237 C 
HETATM    5  N1  UNL     1      -5.758  16.405   7.057  1.00  0.00    -0.062 N 
HETATM    6  C12 UNL     1      -6.474  17.031   8.156  1.00  0.00     0.273 C 
HETATM    7  C19 UNL     1      -6.043  15.008   7.058  1.00  0.00     0.241 C 
HETATM    8  C20 UNL     1      -5.158  14.205   7.984  1.00  0.00     0.079 C 
ENDROOT
BRANCH   5   9
HETATM    9  C13 UNL     1      -6.174  17.022   5.833  1.00  0.00     0.339 C 
BRANCH   9  10
HETATM   10  C14 UNL     1      -7.256  18.015   5.945  1.00  0.00     0.243 C 
HETATM   11  O2  UNL     1      -6.976  19.226   6.026  1.00  0.00    -0.272 OA
HETATM   12  N2  UNL     1      -8.627  17.606   5.960  1.00  0.00    -0.359 N 
ATOM     13  H2  UNL     1      -8.866  16.616   5.893  1.00  0.00     0.162 HD
BRANCH  12  14
HETATM   14  C15 UNL     1      -9.672  18.597   6.070  1.00  0.00     0.126 C 
BRANCH  14  15
HETATM   15  C16 UNL     1     -10.781  18.360   5.104  1.00  0.00    -0.005 C 
HETATM   16  C17 UNL     1     -11.857  17.491   5.709  1.00  0.00     0.011 C 
HETATM   17  C18 UNL     1     -11.321  19.614   4.494  1.00  0.00     0.011 C 
ENDBRANCH  14  15
ENDBRANCH  12  14
ENDBRANCH   9  10
ENDBRANCH   5   9
BRANCH   1  18
HETATM   18  O1  UNL     1      -4.250  13.050   6.128  1.00  0.00    -0.372 OA
HETATM   19  C1  UNL     1      -3.237  12.485   5.413  1.00  0.00     0.204 C 
ENDBRANCH   1  18
BRANCH   1  20
HETATM   20  C3  UNL     1      -3.314  12.734   8.263  1.00  0.00    -0.063 C 
HETATM   21  C4  UNL     1      -2.828  11.971   9.069  1.00  0.00    -0.075 C 
BRANCH  21  22
HETATM   22  C5  UNL     1      -2.261  11.076  10.050  1.00  0.00     0.066 C 
HETATM   23  C6  UNL     1      -3.074  10.486  10.909  1.00  0.00    -0.080 C 
HETATM   24  C7  UNL     1      -2.497   9.555  11.932  1.00  0.00     0.043 C 
HETATM   25  C8  UNL     1      -4.530  10.700  10.910  1.00  0.00     0.043 C 
ENDBRANCH  21  22
ENDBRANCH   1  20
TORSDOF 7
ENDMDL
MODEL 2
REMARK VINA RESULT: -6.893845461      2.194      8.204
REMARK  7 active torsions:
REMARK  status: ('A' for Active; 'I' for Inactive)
REMARK    1  A    between atoms: O1_2  and  C2_3 
REMARK    2  A    between atoms: C2_3  and  C3_4 
REMARK    3  A    between atoms: C4_5  and  C5_6 
REMARK    4  A    between atoms: N1_13  and  C13_15 
REMARK    5  A    between atoms: C13_15  and  C14_16 
REMARK       I    between atoms: C14_16  and  N2_18 
REMARK    6  A    between atoms: N2_18  and  C15_20 
REMARK    7  A    between atoms: C15_20  and  C16_21 
ROOT
HETATM    1  C2  UNL     1      -5.582  16.757   6.581  1.00  0.00     0.125 C 
HETATM    2  C9  UNL     1      -4.339  17.557   6.711  1.00  0.00     0.053 C 
HETATM    3  C10 UNL     1      -3.087  16.729   6.848  1.00  0.00     0.032 C 
HETATM    4  C11 UNL     1      -2.799  16.097   5.538  1.00  0.00     0.237 C 
HETATM    5  N1  UNL     1      -3.275  14.731   5.387  1.00  0.00    -0.062 N 
HETATM    6  C12 UNL     1      -3.124  14.361   3.989  1.00  0.00     0.273 C 
HETATM    7  C19 UNL     1      -4.640  14.567   5.762  1.00  0.00     0.241 C 
HETATM    8  C20 UNL     1      -5.510  15.759   5.438  1.00  0.00     0.079 C 
ENDROOT
BRANCH   5   9
HETATM    9  C13 UNL     1      -2.413  13.899   6.172  1.00  0.00     0.339 C 
BRANCH   9  10
HETATM   10  C14 UNL     1      -3.071  12.823   6.934  1.00  0.00     0.243 C 
HETATM   11  O2  UNL     1      -3.400  11.769   6.356  1.00  0.00    -0.272 OA
HETATM   12  N2  UNL     1      -3.337  12.973   8.331  1.00  0.00    -0.359 N 
ATOM     13  H2  UNL     1      -3.071  13.832   8.814  1.00  0.00     0.162 HD
BRANCH  12  14
HETATM   14  C15 UNL     1      -3.983  11.906   9.059  1.00  0.00     0.126 C 
BRANCH  14  15
HETATM   15  C16 UNL     1      -3.204  11.484  10.257  1.00  0.00    -0.005 C 
HETATM   16  C17 UNL     1      -3.920  10.395  11.019  1.00  0.00     0.011 C 
HETATM   17  C18 UNL     1      -1.780  11.143   9.954  1.00  0.00     0.011 C 
ENDBRANCH  14  15
ENDBRANCH  12  14
ENDBRANCH   9  10
ENDBRANCH   5   9
BRANCH   1  18
HETATM   18  O1  UNL     1      -5.908  16.107   7.745  1.00  0.00    -0.372 OA
HETATM   19  C1  UNL     1      -5.678  16.773   8.911  1.00  0.00     0.204 C 
ENDBRANCH   1  18
BRANCH   1  20
HETATM   20  C3  UNL     1      -6.658  17.700   6.187  1.00  0.00    -0.063 C 
HETATM   21  C4  UNL     1      -7.521  18.483   5.855  1.00  0.00    -0.075 C 
BRANCH  21  22
HETATM   22  C5  UNL     1      -8.535  19.422   5.436  1.00  0.00     0.066 C 
HETATM   23  C6  UNL     1      -9.417  19.836   6.328  1.00  0.00    -0.080 C 
HETATM   24  C7  UNL     1     -10.475  20.811   5.906  1.00  0.00     0.043 C 
HETATM   25  C8  UNL     1      -9.413  19.384   7.729  1.00  0.00     0.043 C 
ENDBRANCH  21  22
ENDBRANCH   1  20
TORSDOF 7
ENDMDL
MODEL 3
REMARK VINA RESULT: -6.858624981      1.006      1.182
REMARK  7 active torsions:
REMARK  status: ('A' for Active; 'I' for Inactive)
REMARK    1  A    between atoms: O1_2  and  C2_3 
REMARK    2  A    between atoms: C2_3  and  C3_4 
REMARK    3  A    between atoms: C4_5  and  C5_6 
REMARK    4  A    between atoms: N1_13  and  C13_15 
REMARK    5  A    between atoms: C13_15  and  C14_16 
REMARK       I    between atoms: C14_16  and  N2_18 
REMARK    6  A    between atoms: N2_18  and  C15_20 
REMARK    7  A    between atoms: C15_20  and  C16_21 
ROOT
HETATM    1  C2  UNL     1      -4.227  13.707   6.202  1.00  0.00     0.125 C 
HETATM    2  C9  UNL     1      -3.142  14.712   6.320  1.00  0.00     0.053 C 
HETATM    3  C10 UNL     1      -3.567  16.117   5.977  1.00  0.00     0.032 C 
HETATM    4  C11 UNL     1      -4.443  16.620   7.062  1.00  0.00     0.237 C 
HETATM    5  N1  UNL     1      -5.872  16.495   6.819  1.00  0.00    -0.062 N 
HETATM    6  C12 UNL     1      -6.561  16.806   8.060  1.00  0.00     0.273 C 
HETATM    7  C19 UNL     1      -6.257  15.190   6.391  1.00  0.00     0.241 C 
HETATM    8  C20 UNL     1      -5.450  14.078   7.023  1.00  0.00     0.079 C 
ENDROOT
BRANCH   5   9
HETATM    9  C13 UNL     1      -6.218  17.487   5.846  1.00  0.00     0.339 C 
BRANCH   9  10
HETATM   10  C14 UNL     1      -7.447  18.253   6.113  1.00  0.00     0.243 C 
HETATM   11  O2  UNL     1      -7.365  19.437   6.494  1.00  0.00    -0.272 OA
HETATM   12  N2  UNL     1      -8.735  17.656   5.940  1.00  0.00    -0.359 N 
ATOM     13  H2  UNL     1      -8.812  16.688   5.628  1.00  0.00     0.162 HD
BRANCH  12  14
HETATM   14  C15 UNL     1      -9.927  18.427   6.208  1.00  0.00     0.126 C 
BRANCH  14  15
HETATM   15  C16 UNL     1     -10.960  18.261   5.147  1.00  0.00    -0.005 C 
HETATM   16  C17 UNL     1     -12.161  17.506   5.666  1.00  0.00     0.011 C 
HETATM   17  C18 UNL     1     -11.327  19.540   4.464  1.00  0.00     0.011 C 
ENDBRANCH  14  15
ENDBRANCH  12  14
ENDBRANCH   9  10
ENDBRANCH   5   9
BRANCH   1  18
HETATM   18  O1  UNL     1      -4.593  13.484   4.898  1.00  0.00    -0.372 OA
HETATM   19  C1  UNL     1      -3.607  13.110   4.035  1.00  0.00     0.204 C 
ENDBRANCH   1  18
BRANCH   1  20
HETATM   20  C3  UNL     1      -3.723  12.459   6.828  1.00  0.00    -0.063 C 
HETATM   21  C4  UNL     1      -3.333  11.431   7.338  1.00  0.00    -0.075 C 
BRANCH  21  22
HETATM   22  C5  UNL     1      -2.888  10.192   7.931  1.00  0.00     0.066 C 
HETATM   23  C6  UNL     1      -2.566  10.187   9.213  1.00  0.00    -0.080 C 
HETATM   24  C7  UNL     1      -2.103   8.907   9.840  1.00  0.00     0.043 C 
HETATM   25  C8  UNL     1      -2.641  11.387  10.063  1.00  0.00     0.043 C 
ENDBRANCH  21  22
ENDBRANCH   1  20
TORSDOF 7
ENDMDL
MODEL 4
REMARK VINA RESULT: -6.836326148      0.768      1.228
REMARK  7 active torsions:
REMARK  status: ('A' for Active; 'I' for Inactive)
REMARK    1  A    between atoms: O1_2  and  C2_3 
REMARK    2  A    between atoms: C2_3  and  C3_4 
REMARK    3  A    between atoms: C4_5  and  C5_6 
REMARK    4  A    between atoms: N1_13  and  C13_15 
REMARK    5  A    between atoms: C13_15  and  C14_16 
REMARK       I    between atoms: C14_16  and  N2_18 
REMARK    6  A    between atoms: N2_18  and  C15_20 
REMARK    7  A    between atoms: C15_20  and  C16_21 
ROOT
HETATM    1  C2  UNL     1      -3.889  13.716   7.343  1.00  0.00     0.125 C 
HETATM    2  C9  UNL     1      -2.891  14.781   7.078  1.00  0.00     0.053 C 
HETATM    3  C10 UNL     1      -3.435  15.951   6.298  1.00  0.00     0.032 C 
HETATM    4  C11 UNL     1      -4.342  16.721   7.182  1.00  0.00     0.237 C 
HETATM    5  N1  UNL     1      -5.757  16.414   7.047  1.00  0.00    -0.062 N 
HETATM    6  C12 UNL     1      -6.460  17.072   8.136  1.00  0.00     0.273 C 
HETATM    7  C19 UNL     1      -6.035  15.016   7.096  1.00  0.00     0.241 C 
HETATM    8  C20 UNL     1      -5.133  14.247   8.035  1.00  0.00     0.079 C 
ENDROOT
BRANCH   5   9
HETATM    9  C13 UNL     1      -6.193  16.989   5.810  1.00  0.00     0.339 C 
BRANCH   9  10
HETATM   10  C14 UNL     1      -7.257  18.003   5.909  1.00  0.00     0.243 C 
HETATM   11  O2  UNL     1      -6.956  19.212   5.947  1.00  0.00    -0.272 OA
HETATM   12  N2  UNL     1      -8.634  17.617   5.960  1.00  0.00    -0.359 N 
ATOM     13  H2  UNL     1      -8.890  16.630   5.930  1.00  0.00     0.162 HD
BRANCH  12  14
HETATM   14  C15 UNL     1      -9.661  18.629   6.057  1.00  0.00     0.126 C 
BRANCH  14  15
HETATM   15  C16 UNL     1     -10.778  18.395   5.099  1.00  0.00    -0.005 C 
HETATM   16  C17 UNL     1     -11.847  17.521   5.709  1.00  0.00     0.011 C 
HETATM   17  C18 UNL     1     -11.325  19.651   4.500  1.00  0.00     0.011 C 
ENDBRANCH  14  15
ENDBRANCH  12  14
ENDBRANCH   9  10
ENDBRANCH   5   9
BRANCH   1  18
HETATM   18  O1  UNL     1      -4.245  13.038   6.204  1.00  0.00    -0.372 OA
HETATM   19  C1  UNL     1      -3.240  12.462   5.487  1.00  0.00     0.204 C 
ENDBRANCH   1  18
BRANCH   1  20
HETATM   20  C3  UNL     1      -3.278  12.794   8.333  1.00  0.00    -0.063 C 
HETATM   21  C4  UNL     1      -2.775  12.060   9.156  1.00  0.00    -0.075 C 
BRANCH  21  22
HETATM   22  C5  UNL     1      -2.187  11.200  10.156  1.00  0.00     0.066 C 
HETATM   23  C6  UNL     1      -0.886  10.975  10.107  1.00  0.00    -0.080 C 
HETATM   24  C7  UNL     1      -0.263  10.085  11.140  1.00  0.00     0.043 C 
HETATM   25  C8  UNL     1      -0.010  11.560   9.079  1.00  0.00     0.043 C 
ENDBRANCH  21  22
ENDBRANCH   1  20
TORSDOF 7
ENDMDL
MODEL 5
REMARK VINA RESULT: -6.773603731      2.448      8.211
REMARK  7 active torsions:
REMARK  status: ('A' for Active; 'I' for Inactive)
REMARK    1  A    between atoms: O1_2  and  C2_3 
REMARK    2  A    between atoms: C2_3  and  C3_4 
REMARK    3  A    between atoms: C4_5  and  C5_6 
REMARK    4  A    between atoms: N1_13  and  C13_15 
REMARK    5  A    between atoms: C13_15  and  C14_16 
REMARK       I    between atoms: C14_16  and  N2_18 
REMARK    6  A    between atoms: N2_18  and  C15_20 
REMARK    7  A    between atoms: C15_20  and  C16_21 
ROOT
HETATM    1  C2  UNL     1      -5.625  16.671   6.593  1.00  0.00     0.125 C 
HETATM    2  C9  UNL     1      -4.337  17.404   6.662  1.00  0.00     0.053 C 
HETATM    3  C10 UNL     1      -3.131  16.511   6.806  1.00  0.00     0.032 C 
HETATM    4  C11 UNL     1      -2.910  15.811   5.519  1.00  0.00     0.237 C 
HETATM    5  N1  UNL     1      -3.466  14.469   5.435  1.00  0.00    -0.062 N 
HETATM    6  C12 UNL     1      -3.370  14.035   4.051  1.00  0.00     0.273 C 
HETATM    7  C19 UNL     1      -4.829  14.399   5.847  1.00  0.00     0.241 C 
HETATM    8  C20 UNL     1      -5.638  15.625   5.491  1.00  0.00     0.079 C 
ENDROOT
BRANCH   5   9
HETATM    9  C13 UNL     1      -2.634  13.622   6.236  1.00  0.00     0.339 C 
BRANCH   9  10
HETATM   10  C14 UNL     1      -3.297  12.942   7.362  1.00  0.00     0.243 C 
HETATM   11  O2  UNL     1      -3.717  13.612   8.326  1.00  0.00    -0.272 OA
HETATM   12  N2  UNL     1      -3.466  11.522   7.364  1.00  0.00    -0.359 N 
ATOM     13  H2  UNL     1      -3.126  10.965   6.580  1.00  0.00     0.162 HD
BRANCH  12  14
HETATM   14  C15 UNL     1      -4.119  10.877   8.479  1.00  0.00     0.126 C 
BRANCH  14  15
HETATM   15  C16 UNL     1      -3.740   9.442   8.605  1.00  0.00    -0.005 C 
HETATM   16  C17 UNL     1      -4.944   8.583   8.909  1.00  0.00     0.011 C 
HETATM   17  C18 UNL     1      -2.937   8.932   7.451  1.00  0.00     0.011 C 
ENDBRANCH  14  15
ENDBRANCH  12  14
ENDBRANCH   9  10
ENDBRANCH   5   9
BRANCH   1  18
HETATM   18  O1  UNL     1      -5.960  16.089   7.790  1.00  0.00    -0.372 OA
HETATM   19  C1  UNL     1      -5.697  16.803   8.920  1.00  0.00     0.204 C 
ENDBRANCH   1  18
BRANCH   1  20
HETATM   20  C3  UNL     1      -6.656  17.657   6.182  1.00  0.00    -0.063 C 
HETATM   21  C4  UNL     1      -7.481  18.474   5.836  1.00  0.00    -0.075 C 
BRANCH  21  22
HETATM   22  C5  UNL     1      -8.451  19.452   5.400  1.00  0.00     0.066 C 
HETATM   23  C6  UNL     1      -9.367  19.859   6.261  1.00  0.00    -0.080 C 
HETATM   24  C7  UNL     1     -10.378  20.874   5.820  1.00  0.00     0.043 C 
HETATM   25  C8  UNL     1      -9.443  19.362   7.644  1.00  0.00     0.043 C 
ENDBRANCH  21  22
ENDBRANCH   1  20
TORSDOF 7
ENDMDL
