MODEL 1
REMARK VINA RESULT: -6.443334166      0.000      0.000
REMARK  14 active torsions:
REMARK  status: ('A' for Active; 'I' for Inactive)
REMARK    1  A    between atoms: C2_2  and  C3_3 
REMARK    2  A    between atoms: C3_3  and  C4_5 
REMARK    3  A    between atoms: C4_5  and  O3_7 
REMARK    4  A    between atoms: O3_7  and  C5_8 
REMARK    5  A    between atoms: C6_9  and  O4_10 
REMARK    6  A    between atoms: C12_16  and  O5_17 
REMARK    7  A    between atoms: C15_20  and  O6_21 
REMARK    8  A    between atoms: C18_26  and  O8_27 
REMARK    9  A    between atoms: O8_27  and  C19_28 
REMARK   10  A    between atoms: C19_28  and  O9_30 
REMARK   11  A    between atoms: C19_28  and  C21_32 
REMARK   12  A    between atoms: C21_32  and  O10_33 
REMARK   13  A    between atoms: C21_32  and  O11_35 
REMARK   14  A    between atoms: C21_32  and  C22_37 
ROOT
HETATM    1  C5  UNL     1     -34.065  10.294 -23.632  1.00  0.00     0.196 C 
HETATM    2  C6  UNL     1     -33.421  10.740 -24.977  1.00  0.00     0.158 C 
HETATM    3  C8  UNL     1     -32.949   9.592 -25.800  1.00  0.00     0.029 C 
HETATM    4  C9  UNL     1     -33.895   8.561 -26.224  1.00  0.00     0.001 C 
HETATM    5  C10 UNL     1     -35.232   8.679 -25.663  1.00  0.00     0.009 C 
HETATM    6  C11 UNL     1     -35.074   8.208 -24.195  1.00  0.00     0.042 C 
HETATM    7  C12 UNL     1     -33.950   8.813 -23.449  1.00  0.00     0.096 C 
HETATM    8  C14 UNL     1     -32.549   8.470 -23.717  1.00  0.00     0.062 C 
HETATM    9  C15 UNL     1     -32.018   7.111 -23.983  1.00  0.00     0.160 C 
HETATM   10  C16 UNL     1     -31.489   7.572 -25.358  1.00  0.00     0.091 C 
HETATM   11  C17 UNL     1     -29.950   7.455 -25.308  1.00  0.00     0.049 C 
HETATM   12  O7  UNL     1     -31.934   6.992 -26.461  1.00  0.00    -0.347 OA
HETATM   13  C18 UNL     1     -32.161   7.731 -27.629  1.00  0.00     0.269 C 
HETATM   14  C25 UNL     1     -33.601   8.292 -27.667  1.00  0.00     0.042 C 
HETATM   15  C26 UNL     1     -33.728   9.487 -28.551  1.00  0.00     0.015 C 
HETATM   16  C27 UNL     1     -31.890   8.920 -24.972  1.00  0.00     0.039 C 
ENDROOT
BRANCH  13  17
HETATM   17  O8  UNL     1     -32.123   6.901 -28.718  1.00  0.00    -0.320 OA
BRANCH  17  18
HETATM   18  C19 UNL     1     -31.032   6.827 -29.502  1.00  0.00     0.218 C 
HETATM   19  C20 UNL     1     -31.196   6.971 -30.974  1.00  0.00     0.085 C 
BRANCH  18  20
HETATM   20  O9  UNL     1     -30.095   7.760 -28.991  1.00  0.00    -0.361 OA
ATOM     21  H9  UNL     1     -29.753   8.240 -29.735  1.00  0.00     0.213 HD
ENDBRANCH  18  20
BRANCH  18  22
HETATM   22  C21 UNL     1     -30.382   5.475 -29.161  1.00  0.00     0.220 C 
BRANCH  22  23
HETATM   23  O10 UNL     1     -30.401   4.658 -30.296  1.00  0.00    -0.361 OA
ATOM     24  H10 UNL     1     -30.747   3.805 -30.059  1.00  0.00     0.213 HD
ENDBRANCH  22  23
BRANCH  22  25
HETATM   25  O11 UNL     1     -31.164   4.804 -28.213  1.00  0.00    -0.361 OA
ATOM     26  H11 UNL     1     -30.728   4.001 -27.951  1.00  0.00     0.213 HD
ENDBRANCH  22  25
BRANCH  22  27
HETATM   27  C22 UNL     1     -29.001   5.568 -28.678  1.00  0.00     0.045 C 
HETATM   28  C23 UNL     1     -28.105   5.114 -29.847  1.00  0.00     0.015 C 
HETATM   29  C24 UNL     1     -28.614   4.741 -27.509  1.00  0.00     0.015 C 
ENDBRANCH  22  27
ENDBRANCH  18  22
ENDBRANCH  17  18
ENDBRANCH  13  17
BRANCH   9  30
HETATM   30  O6  UNL     1     -31.024   6.642 -23.119  1.00  0.00    -0.392 OA
ATOM     31  H6  UNL     1     -30.801   5.722 -23.182  1.00  0.00     0.210 HD
ENDBRANCH   9  30
BRANCH   2  32
HETATM   32  O4  UNL     1     -34.230  11.637 -25.635  1.00  0.00    -0.388 OA
HETATM   33  C7  UNL     1     -33.534  12.576 -26.379  1.00  0.00     0.202 C 
ENDBRANCH   2  32
BRANCH   7  34
HETATM   34  O5  UNL     1     -34.134   8.492 -22.130  1.00  0.00    -0.382 OA
HETATM   35  C13 UNL     1     -33.413   8.866 -21.112  1.00  0.00     0.202 C 
ENDBRANCH   7  34
BRANCH   1  36
HETATM   36  O3  UNL     1     -35.402  10.785 -23.649  1.00  0.00    -0.304 OA
BRANCH  36  37
HETATM   37  C4  UNL     1     -35.939  11.541 -22.629  1.00  0.00     0.329 C 
HETATM   38  O2  UNL     1     -36.116  12.780 -22.895  1.00  0.00    -0.256 OA
BRANCH  37  39
HETATM   39  C3  UNL     1     -36.295  11.013 -21.327  1.00  0.00     0.223 C 
HETATM   40  O1  UNL     1     -37.040  10.016 -21.252  1.00  0.00    -0.287 OA
BRANCH  39  41
HETATM   41  C2  UNL     1     -35.772  11.663 -20.110  1.00  0.00     0.085 C 
HETATM   42  C1  UNL     1     -36.788  11.652 -18.973  1.00  0.00     0.013 C 
ENDBRANCH  39  41
ENDBRANCH  37  39
ENDBRANCH  36  37
ENDBRANCH   1  36
TORSDOF 14
ENDMDL
MODEL 2
REMARK VINA RESULT: -6.362252866      0.846      1.245
REMARK  14 active torsions:
REMARK  status: ('A' for Active; 'I' for Inactive)
REMARK    1  A    between atoms: C2_2  and  C3_3 
REMARK    2  A    between atoms: C3_3  and  C4_5 
REMARK    3  A    between atoms: C4_5  and  O3_7 
REMARK    4  A    between atoms: O3_7  and  C5_8 
REMARK    5  A    between atoms: C6_9  and  O4_10 
REMARK    6  A    between atoms: C12_16  and  O5_17 
REMARK    7  A    between atoms: C15_20  and  O6_21 
REMARK    8  A    between atoms: C18_26  and  O8_27 
REMARK    9  A    between atoms: O8_27  and  C19_28 
REMARK   10  A    between atoms: C19_28  and  O9_30 
REMARK   11  A    between atoms: C19_28  and  C21_32 
REMARK   12  A    between atoms: C21_32  and  O10_33 
REMARK   13  A    between atoms: C21_32  and  O11_35 
REMARK   14  A    between atoms: C21_32  and  C22_37 
ROOT
HETATM    1  C5  UNL     1     -34.120  10.394 -23.573  1.00  0.00     0.196 C 
HETATM    2  C6  UNL     1     -33.459  10.824 -24.914  1.00  0.00     0.158 C 
HETATM    3  C8  UNL     1     -33.010   9.664 -25.734  1.00  0.00     0.029 C 
HETATM    4  C9  UNL     1     -33.977   8.654 -26.161  1.00  0.00     0.001 C 
HETATM    5  C10 UNL     1     -35.313   8.803 -25.607  1.00  0.00     0.009 C 
HETATM    6  C11 UNL     1     -35.173   8.331 -24.138  1.00  0.00     0.042 C 
HETATM    7  C12 UNL     1     -34.039   8.911 -23.387  1.00  0.00     0.096 C 
HETATM    8  C14 UNL     1     -32.645   8.537 -23.648  1.00  0.00     0.062 C 
HETATM    9  C15 UNL     1     -32.144   7.165 -23.909  1.00  0.00     0.160 C 
HETATM   10  C16 UNL     1     -31.598   7.612 -25.282  1.00  0.00     0.091 C 
HETATM   11  C17 UNL     1     -30.062   7.460 -25.225  1.00  0.00     0.049 C 
HETATM   12  O7  UNL     1     -32.051   7.040 -26.387  1.00  0.00    -0.347 OA
HETATM   13  C18 UNL     1     -32.255   7.783 -27.557  1.00  0.00     0.269 C 
HETATM   14  C25 UNL     1     -33.682   8.376 -27.602  1.00  0.00     0.042 C 
HETATM   15  C26 UNL     1     -33.778   9.573 -28.489  1.00  0.00     0.015 C 
HETATM   16  C27 UNL     1     -31.970   8.969 -24.900  1.00  0.00     0.039 C 
ENDROOT
BRANCH  13  17
HETATM   17  O8  UNL     1     -32.231   6.951 -28.645  1.00  0.00    -0.320 OA
BRANCH  17  18
HETATM   18  C19 UNL     1     -31.144   6.863 -29.433  1.00  0.00     0.218 C 
HETATM   19  C20 UNL     1     -31.311   7.004 -30.904  1.00  0.00     0.085 C 
BRANCH  18  20
HETATM   20  O9  UNL     1     -30.196   7.788 -28.929  1.00  0.00    -0.361 OA
ATOM     21  H9  UNL     1     -29.545   7.912 -29.608  1.00  0.00     0.213 HD
ENDBRANCH  18  20
BRANCH  18  22
HETATM   22  C21 UNL     1     -30.507   5.506 -29.089  1.00  0.00     0.220 C 
BRANCH  22  23
HETATM   23  O10 UNL     1     -30.543   4.684 -30.220  1.00  0.00    -0.361 OA
ATOM     24  H10 UNL     1     -30.715   5.217 -30.987  1.00  0.00     0.213 HD
ENDBRANCH  22  23
BRANCH  22  25
HETATM   25  O11 UNL     1     -31.289   4.848 -28.132  1.00  0.00    -0.361 OA
ATOM     26  H11 UNL     1     -31.841   4.204 -28.560  1.00  0.00     0.213 HD
ENDBRANCH  22  25
BRANCH  22  27
HETATM   27  C22 UNL     1     -29.121   5.586 -28.617  1.00  0.00     0.045 C 
HETATM   28  C23 UNL     1     -28.242   5.060 -29.769  1.00  0.00     0.015 C 
HETATM   29  C24 UNL     1     -28.748   4.801 -27.415  1.00  0.00     0.015 C 
ENDBRANCH  22  27
ENDBRANCH  18  22
ENDBRANCH  17  18
ENDBRANCH  13  17
BRANCH   9  30
HETATM   30  O6  UNL     1     -31.165   6.675 -23.040  1.00  0.00    -0.392 OA
ATOM     31  H6  UNL     1     -31.333   6.770 -22.110  1.00  0.00     0.210 HD
ENDBRANCH   9  30
BRANCH   2  32
HETATM   32  O4  UNL     1     -34.245  11.738 -25.578  1.00  0.00    -0.388 OA
HETATM   33  C7  UNL     1     -33.524  12.653 -26.329  1.00  0.00     0.202 C 
ENDBRANCH   2  32
BRANCH   7  34
HETATM   34  O5  UNL     1     -34.237   8.596 -22.068  1.00  0.00    -0.382 OA
HETATM   35  C13 UNL     1     -33.518   8.962 -21.046  1.00  0.00     0.202 C 
ENDBRANCH   7  34
BRANCH   1  36
HETATM   36  O3  UNL     1     -35.445  10.915 -23.596  1.00  0.00    -0.304 OA
BRANCH  36  37
HETATM   37  C4  UNL     1     -36.060  11.459 -22.489  1.00  0.00     0.329 C 
HETATM   38  O2  UNL     1     -37.159  10.905 -22.140  1.00  0.00    -0.256 OA
BRANCH  37  39
HETATM   39  C3  UNL     1     -35.535  12.583 -21.738  1.00  0.00     0.223 C 
HETATM   40  O1  UNL     1     -35.157  12.412 -20.563  1.00  0.00    -0.287 OA
BRANCH  39  41
HETATM   41  C2  UNL     1     -35.458  13.911 -22.375  1.00  0.00     0.085 C 
HETATM   42  C1  UNL     1     -34.086  14.171 -22.992  1.00  0.00     0.013 C 
ENDBRANCH  39  41
ENDBRANCH  37  39
ENDBRANCH  36  37
ENDBRANCH   1  36
TORSDOF 14
ENDMDL
MODEL 3
REMARK VINA RESULT: -6.169067546      0.808      1.132
REMARK  14 active torsions:
REMARK  status: ('A' for Active; 'I' for Inactive)
REMARK    1  A    between atoms: C2_2  and  C3_3 
REMARK    2  A    between atoms: C3_3  and  C4_5 
REMARK    3  A    between atoms: C4_5  and  O3_7 
REMARK    4  A    between atoms: O3_7  and  C5_8 
REMARK    5  A    between atoms: C6_9  and  O4_10 
REMARK    6  A    between atoms: C12_16  and  O5_17 
REMARK    7  A    between atoms: C15_20  and  O6_21 
REMARK    8  A    between atoms: C18_26  and  O8_27 
REMARK    9  A    between atoms: O8_27  and  C19_28 
REMARK   10  A    between atoms: C19_28  and  O9_30 
REMARK   11  A    between atoms: C19_28  and  C21_32 
REMARK   12  A    between atoms: C21_32  and  O10_33 
REMARK   13  A    between atoms: C21_32  and  O11_35 
REMARK   14  A    between atoms: C21_32  and  C22_37 
ROOT
HETATM    1  C5  UNL     1     -33.915  10.220 -23.983  1.00  0.00     0.196 C 
HETATM    2  C6  UNL     1     -33.190  10.670 -25.285  1.00  0.00     0.158 C 
HETATM    3  C8  UNL     1     -32.677   9.524 -26.086  1.00  0.00     0.029 C 
HETATM    4  C9  UNL     1     -33.603   8.501 -26.571  1.00  0.00     0.001 C 
HETATM    5  C10 UNL     1     -34.969   8.623 -26.088  1.00  0.00     0.009 C 
HETATM    6  C11 UNL     1     -34.900   8.143 -24.617  1.00  0.00     0.042 C 
HETATM    7  C12 UNL     1     -33.818   8.737 -23.803  1.00  0.00     0.096 C 
HETATM    8  C14 UNL     1     -32.406   8.388 -23.990  1.00  0.00     0.062 C 
HETATM    9  C15 UNL     1     -31.868   7.027 -24.233  1.00  0.00     0.160 C 
HETATM   10  C16 UNL     1     -31.257   7.493 -25.572  1.00  0.00     0.091 C 
HETATM   11  C17 UNL     1     -29.724   7.367 -25.433  1.00  0.00     0.049 C 
HETATM   12  O7  UNL     1     -31.640   6.921 -26.702  1.00  0.00    -0.347 OA
HETATM   13  C18 UNL     1     -31.794   7.669 -27.877  1.00  0.00     0.269 C 
HETATM   14  C25 UNL     1     -33.227   8.238 -27.996  1.00  0.00     0.042 C 
HETATM   15  C26 UNL     1     -33.296   9.440 -28.879  1.00  0.00     0.015 C 
HETATM   16  C27 UNL     1     -31.672   8.841 -25.202  1.00  0.00     0.039 C 
ENDROOT
BRANCH  13  17
HETATM   17  O8  UNL     1     -31.697   6.845 -28.968  1.00  0.00    -0.320 OA
BRANCH  17  18
HETATM   18  C19 UNL     1     -30.743   7.028 -29.899  1.00  0.00     0.218 C 
HETATM   19  C20 UNL     1     -31.148   7.156 -31.324  1.00  0.00     0.085 C 
BRANCH  18  20
HETATM   20  O9  UNL     1     -29.967   8.137 -29.479  1.00  0.00    -0.361 OA
ATOM     21  H9  UNL     1     -29.790   8.657 -30.253  1.00  0.00     0.213 HD
ENDBRANCH  18  20
BRANCH  18  22
HETATM   22  C21 UNL     1     -29.772   5.848 -29.717  1.00  0.00     0.220 C 
BRANCH  22  23
HETATM   23  O10 UNL     1     -30.361   4.895 -28.880  1.00  0.00    -0.361 OA
ATOM     24  H10 UNL     1     -30.794   5.338 -28.160  1.00  0.00     0.213 HD
ENDBRANCH  22  23
BRANCH  22  25
HETATM   25  O11 UNL     1     -28.630   6.281 -29.033  1.00  0.00    -0.361 OA
ATOM     26  H11 UNL     1     -27.874   6.224 -29.606  1.00  0.00     0.213 HD
ENDBRANCH  22  25
BRANCH  22  27
HETATM   27  C22 UNL     1     -29.375   5.189 -30.965  1.00  0.00     0.045 C 
HETATM   28  C23 UNL     1     -30.143   3.854 -31.010  1.00  0.00     0.015 C 
HETATM   29  C24 UNL     1     -27.941   4.855 -31.150  1.00  0.00     0.015 C 
ENDBRANCH  22  27
ENDBRANCH  18  22
ENDBRANCH  17  18
ENDBRANCH  13  17
BRANCH   9  30
HETATM   30  O6  UNL     1     -30.929   6.548 -23.315  1.00  0.00    -0.392 OA
ATOM     31  H6  UNL     1     -30.599   5.669 -23.459  1.00  0.00     0.210 HD
ENDBRANCH   9  30
BRANCH   2  32
HETATM   32  O4  UNL     1     -33.955  11.575 -25.984  1.00  0.00    -0.388 OA
HETATM   33  C7  UNL     1     -33.211  12.520 -26.673  1.00  0.00     0.202 C 
ENDBRANCH   2  32
BRANCH   7  34
HETATM   34  O5  UNL     1     -34.081   8.409 -22.498  1.00  0.00    -0.382 OA
HETATM   35  C13 UNL     1     -33.456   8.823 -21.433  1.00  0.00     0.202 C 
ENDBRANCH   7  34
BRANCH   1  36
HETATM   36  O3  UNL     1     -35.245  10.718 -24.075  1.00  0.00    -0.304 OA
BRANCH  36  37
HETATM   37  C4  UNL     1     -35.855  11.429 -23.062  1.00  0.00     0.329 C 
HETATM   38  O2  UNL     1     -35.691  12.697 -23.102  1.00  0.00    -0.256 OA
BRANCH  37  39
HETATM   39  C3  UNL     1     -36.637  10.823 -22.002  1.00  0.00     0.223 C 
HETATM   40  O1  UNL     1     -37.129   9.691 -22.174  1.00  0.00    -0.287 OA
BRANCH  39  41
HETATM   41  C2  UNL     1     -36.840  11.556 -20.738  1.00  0.00     0.085 C 
HETATM   42  C1  UNL     1     -35.676  11.363 -19.771  1.00  0.00     0.013 C 
ENDBRANCH  39  41
ENDBRANCH  37  39
ENDBRANCH  36  37
ENDBRANCH   1  36
TORSDOF 14
ENDMDL
MODEL 4
REMARK VINA RESULT: -6.105518483      2.355      8.440
REMARK  14 active torsions:
REMARK  status: ('A' for Active; 'I' for Inactive)
REMARK    1  A    between atoms: C2_2  and  C3_3 
REMARK    2  A    between atoms: C3_3  and  C4_5 
REMARK    3  A    between atoms: C4_5  and  O3_7 
REMARK    4  A    between atoms: O3_7  and  C5_8 
REMARK    5  A    between atoms: C6_9  and  O4_10 
REMARK    6  A    between atoms: C12_16  and  O5_17 
REMARK    7  A    between atoms: C15_20  and  O6_21 
REMARK    8  A    between atoms: C18_26  and  O8_27 
REMARK    9  A    between atoms: O8_27  and  C19_28 
REMARK   10  A    between atoms: C19_28  and  O9_30 
REMARK   11  A    between atoms: C19_28  and  C21_32 
REMARK   12  A    between atoms: C21_32  and  O10_33 
REMARK   13  A    between atoms: C21_32  and  O11_35 
REMARK   14  A    between atoms: C21_32  and  C22_37 
ROOT
HETATM    1  C5  UNL     1     -30.560   6.773 -27.614  1.00  0.00     0.196 C 
HETATM    2  C6  UNL     1     -31.566   7.778 -28.246  1.00  0.00     0.158 C 
HETATM    3  C8  UNL     1     -31.969   8.860 -27.306  1.00  0.00     0.029 C 
HETATM    4  C9  UNL     1     -30.954   9.741 -26.729  1.00  0.00     0.001 C 
HETATM    5  C10 UNL     1     -29.577   9.377 -27.026  1.00  0.00     0.009 C 
HETATM    6  C11 UNL     1     -29.304   8.147 -26.124  1.00  0.00     0.042 C 
HETATM    7  C12 UNL     1     -30.330   7.084 -26.168  1.00  0.00     0.096 C 
HETATM    8  C14 UNL     1     -31.657   7.242 -25.563  1.00  0.00     0.062 C 
HETATM    9  C15 UNL     1     -31.949   7.868 -24.249  1.00  0.00     0.160 C 
HETATM   10  C16 UNL     1     -32.854   8.913 -24.935  1.00  0.00     0.091 C 
HETATM   11  C17 UNL     1     -34.287   8.679 -24.408  1.00  0.00     0.049 C 
HETATM   12  O7  UNL     1     -32.560  10.200 -24.839  1.00  0.00    -0.347 OA
HETATM   13  C18 UNL     1     -32.755  11.071 -25.918  1.00  0.00     0.269 C 
HETATM   14  C25 UNL     1     -31.503  11.130 -26.824  1.00  0.00     0.042 C 
HETATM   15  C26 UNL     1     -31.821  11.569 -28.215  1.00  0.00     0.015 C 
HETATM   16  C27 UNL     1     -32.658   8.161 -26.168  1.00  0.00     0.039 C 
ENDROOT
BRANCH  13  17
HETATM   17  O8  UNL     1     -32.868  12.358 -25.462  1.00  0.00    -0.320 OA
BRANCH  17  18
HETATM   18  C19 UNL     1     -33.995  12.793 -24.870  1.00  0.00     0.218 C 
HETATM   19  C20 UNL     1     -35.266  12.768 -25.642  1.00  0.00     0.085 C 
BRANCH  18  20
HETATM   20  O9  UNL     1     -34.116  12.084 -23.649  1.00  0.00    -0.361 OA
ATOM     21  H9  UNL     1     -34.235  12.732 -22.965  1.00  0.00     0.213 HD
ENDBRANCH  18  20
BRANCH  18  22
HETATM   22  C21 UNL     1     -33.676  14.223 -24.399  1.00  0.00     0.220 C 
BRANCH  22  23
HETATM   23  O10 UNL     1     -33.499  14.220 -23.013  1.00  0.00    -0.361 OA
ATOM     24  H10 UNL     1     -33.953  14.967 -22.639  1.00  0.00     0.213 HD
ENDBRANCH  22  23
BRANCH  22  25
HETATM   25  O11 UNL     1     -34.783  15.049 -24.626  1.00  0.00    -0.361 OA
ATOM     26  H11 UNL     1     -34.948  15.580 -23.855  1.00  0.00     0.213 HD
ENDBRANCH  22  25
BRANCH  22  27
HETATM   27  C22 UNL     1     -32.488  14.817 -25.019  1.00  0.00     0.045 C 
HETATM   28  C23 UNL     1     -31.585  15.283 -23.860  1.00  0.00     0.015 C 
HETATM   29  C24 UNL     1     -32.677  15.994 -25.902  1.00  0.00     0.015 C 
ENDBRANCH  22  27
ENDBRANCH  18  22
ENDBRANCH  17  18
ENDBRANCH  13  17
BRANCH   9  30
HETATM   30  O6  UNL     1     -32.608   7.075 -23.306  1.00  0.00    -0.392 OA
ATOM     31  H6  UNL     1     -32.064   6.528 -22.752  1.00  0.00     0.210 HD
ENDBRANCH   9  30
BRANCH   2  32
HETATM   32  O4  UNL     1     -31.123   8.208 -29.476  1.00  0.00    -0.388 OA
HETATM   33  C7  UNL     1     -32.143   8.490 -30.370  1.00  0.00     0.202 C 
ENDBRANCH   2  32
BRANCH   7  34
HETATM   34  O5  UNL     1     -29.794   5.992 -25.537  1.00  0.00    -0.382 OA
HETATM   35  C13 UNL     1     -30.366   4.844 -25.310  1.00  0.00     0.202 C 
ENDBRANCH   7  34
BRANCH   1  36
HETATM   36  O3  UNL     1     -29.389   6.821 -28.422  1.00  0.00    -0.304 OA
BRANCH  36  37
HETATM   37  C4  UNL     1     -28.835   5.704 -29.012  1.00  0.00     0.329 C 
HETATM   38  O2  UNL     1     -28.616   4.717 -28.228  1.00  0.00    -0.256 OA
BRANCH  37  39
HETATM   39  C3  UNL     1     -28.505   5.608 -30.420  1.00  0.00     0.223 C 
HETATM   40  O1  UNL     1     -29.410   5.714 -31.271  1.00  0.00    -0.287 OA
BRANCH  39  41
HETATM   41  C2  UNL     1     -27.104   5.387 -30.826  1.00  0.00     0.085 C 
HETATM   42  C1  UNL     1     -26.993   4.406 -31.990  1.00  0.00     0.013 C 
ENDBRANCH  39  41
ENDBRANCH  37  39
ENDBRANCH  36  37
ENDBRANCH   1  36
TORSDOF 14
ENDMDL
MODEL 5
REMARK VINA RESULT: -6.093630678      1.141      1.702
REMARK  14 active torsions:
REMARK  status: ('A' for Active; 'I' for Inactive)
REMARK    1  A    between atoms: C2_2  and  C3_3 
REMARK    2  A    between atoms: C3_3  and  C4_5 
REMARK    3  A    between atoms: C4_5  and  O3_7 
REMARK    4  A    between atoms: O3_7  and  C5_8 
REMARK    5  A    between atoms: C6_9  and  O4_10 
REMARK    6  A    between atoms: C12_16  and  O5_17 
REMARK    7  A    between atoms: C15_20  and  O6_21 
REMARK    8  A    between atoms: C18_26  and  O8_27 
REMARK    9  A    between atoms: O8_27  and  C19_28 
REMARK   10  A    between atoms: C19_28  and  O9_30 
REMARK   11  A    between atoms: C19_28  and  C21_32 
REMARK   12  A    between atoms: C21_32  and  O10_33 
REMARK   13  A    between atoms: C21_32  and  O11_35 
REMARK   14  A    between atoms: C21_32  and  C22_37 
ROOT
HETATM    1  C5  UNL     1     -33.930  10.229 -24.001  1.00  0.00     0.196 C 
HETATM    2  C6  UNL     1     -33.193  10.677 -25.296  1.00  0.00     0.158 C 
HETATM    3  C8  UNL     1     -32.673   9.529 -26.090  1.00  0.00     0.029 C 
HETATM    4  C9  UNL     1     -33.594   8.505 -26.582  1.00  0.00     0.001 C 
HETATM    5  C10 UNL     1     -34.964   8.628 -26.112  1.00  0.00     0.009 C 
HETATM    6  C11 UNL     1     -34.909   8.151 -24.639  1.00  0.00     0.042 C 
HETATM    7  C12 UNL     1     -33.835   8.747 -23.816  1.00  0.00     0.096 C 
HETATM    8  C14 UNL     1     -32.421   8.397 -23.990  1.00  0.00     0.062 C 
HETATM    9  C15 UNL     1     -31.881   7.035 -24.225  1.00  0.00     0.160 C 
HETATM   10  C16 UNL     1     -31.257   7.499 -25.558  1.00  0.00     0.091 C 
HETATM   11  C17 UNL     1     -29.725   7.373 -25.404  1.00  0.00     0.049 C 
HETATM   12  O7  UNL     1     -31.629   6.925 -26.691  1.00  0.00    -0.347 OA
HETATM   13  C18 UNL     1     -31.772   7.670 -27.869  1.00  0.00     0.269 C 
HETATM   14  C25 UNL     1     -33.203   8.239 -28.002  1.00  0.00     0.042 C 
HETATM   15  C26 UNL     1     -33.264   9.439 -28.888  1.00  0.00     0.015 C 
HETATM   16  C27 UNL     1     -31.676   8.848 -25.195  1.00  0.00     0.039 C 
ENDROOT
BRANCH  13  17
HETATM   17  O8  UNL     1     -31.665   6.844 -28.957  1.00  0.00    -0.320 OA
BRANCH  17  18
HETATM   18  C19 UNL     1     -30.713   7.036 -29.888  1.00  0.00     0.218 C 
HETATM   19  C20 UNL     1     -31.118   7.163 -31.313  1.00  0.00     0.085 C 
BRANCH  18  20
HETATM   20  O9  UNL     1     -29.945   8.150 -29.467  1.00  0.00    -0.361 OA
ATOM     21  H9  UNL     1     -29.699   8.626 -30.251  1.00  0.00     0.213 HD
ENDBRANCH  18  20
BRANCH  18  22
HETATM   22  C21 UNL     1     -29.732   5.863 -29.708  1.00  0.00     0.220 C 
BRANCH  22  23
HETATM   23  O10 UNL     1     -30.312   4.905 -28.871  1.00  0.00    -0.361 OA
ATOM     24  H10 UNL     1     -29.850   4.896 -28.041  1.00  0.00     0.213 HD
ENDBRANCH  22  23
BRANCH  22  25
HETATM   25  O11 UNL     1     -28.592   6.304 -29.026  1.00  0.00    -0.361 OA
ATOM     26  H11 UNL     1     -27.860   6.357 -29.629  1.00  0.00     0.213 HD
ENDBRANCH  22  25
BRANCH  22  27
HETATM   27  C22 UNL     1     -29.332   5.208 -30.957  1.00  0.00     0.045 C 
HETATM   28  C23 UNL     1     -30.116   3.882 -31.019  1.00  0.00     0.015 C 
HETATM   29  C24 UNL     1     -27.901   4.857 -31.132  1.00  0.00     0.015 C 
ENDBRANCH  22  27
ENDBRANCH  18  22
ENDBRANCH  17  18
ENDBRANCH  13  17
BRANCH   9  30
HETATM   30  O6  UNL     1     -30.950   6.558 -23.296  1.00  0.00    -0.392 OA
ATOM     31  H6  UNL     1     -31.247   6.472 -22.399  1.00  0.00     0.210 HD
ENDBRANCH   9  30
BRANCH   2  32
HETATM   32  O4  UNL     1     -33.951  11.580 -26.005  1.00  0.00    -0.388 OA
HETATM   33  C7  UNL     1     -33.200  12.517 -26.697  1.00  0.00     0.202 C 
ENDBRANCH   2  32
BRANCH   7  34
HETATM   34  O5  UNL     1     -34.110   8.421 -22.514  1.00  0.00    -0.382 OA
HETATM   35  C13 UNL     1     -33.491   8.832 -21.444  1.00  0.00     0.202 C 
ENDBRANCH   7  34
BRANCH   1  36
HETATM   36  O3  UNL     1     -35.260  10.727 -24.106  1.00  0.00    -0.304 OA
BRANCH  36  37
HETATM   37  C4  UNL     1     -35.932  11.307 -23.051  1.00  0.00     0.329 C 
HETATM   38  O2  UNL     1     -36.989  10.696 -22.668  1.00  0.00    -0.256 OA
BRANCH  37  39
HETATM   39  C3  UNL     1     -35.510  12.526 -22.389  1.00  0.00     0.223 C 
HETATM   40  O1  UNL     1     -35.339  12.526 -21.155  1.00  0.00    -0.287 OA
BRANCH  39  41
HETATM   41  C2  UNL     1     -35.289  13.747 -23.187  1.00  0.00     0.085 C 
HETATM   42  C1  UNL     1     -33.805  14.050 -23.370  1.00  0.00     0.013 C 
ENDBRANCH  39  41
ENDBRANCH  37  39
ENDBRANCH  36  37
ENDBRANCH   1  36
TORSDOF 14
ENDMDL
