MODEL 1
REMARK VINA RESULT: -5.413691314      0.000      0.000
REMARK  13 active torsions:
REMARK  status: ('A' for Active; 'I' for Inactive)
REMARK    1  A    between atoms: C2_2  and  O1_3 
REMARK    2  A    between atoms: O1_3  and  C3_4 
REMARK    3  A    between atoms: C3_4  and  C4_6 
REMARK    4  A    between atoms: C5_7  and  C6_8 
REMARK    5  A    between atoms: C7_12  and  C8_13 
REMARK    6  A    between atoms: C8_13  and  O7_15 
REMARK    7  A    between atoms: O7_15  and  C9_16 
REMARK    8  A    between atoms: C11_19  and  O9_21 
REMARK    9  A    between atoms: C16_26  and  C17_27 
REMARK   10  A    between atoms: C17_27  and  O10_30 
REMARK   11  A    between atoms: C20_32  and  O11_33 
REMARK   12  A    between atoms: C22_35  and  C23_36 
REMARK   13  A    between atoms: C25_39  and  O13_40 
ROOT
HETATM    1  C4  UNL     1     -32.906   8.224 -25.670  1.00  0.00     0.170 C 
HETATM    2  C5  UNL     1     -31.469   8.210 -25.089  1.00  0.00     0.243 C 
HETATM    3  O5  UNL     1     -30.659   8.661 -26.020  1.00  0.00    -0.327 OA
HETATM    4  C7  UNL     1     -31.368   9.304 -27.049  1.00  0.00     0.296 C 
HETATM    5  O8  UNL     1     -31.045   8.821 -28.253  1.00  0.00    -0.308 OA
HETATM    6  C11 UNL     1     -30.164   7.851 -28.469  1.00  0.00     0.162 C 
HETATM    7  C12 UNL     1     -29.432   7.939 -29.814  1.00  0.00     0.079 C 
HETATM    8  C13 UNL     1     -30.829   6.498 -28.438  1.00  0.00     0.072 C 
HETATM    9  C14 UNL     1     -32.188   6.501 -29.027  1.00  0.00     0.033 C 
HETATM   10  C15 UNL     1     -32.411   7.584 -29.994  1.00  0.00    -0.014 C 
HETATM   11  C16 UNL     1     -33.132   8.664 -29.952  1.00  0.00     0.006 C 
HETATM   12  C20 UNL     1     -33.946   9.261 -28.886  1.00  0.00     0.090 C 
HETATM   13  C22 UNL     1     -33.840   9.568 -27.628  1.00  0.00     0.062 C 
HETATM   14  C25 UNL     1     -32.777   9.359 -26.605  1.00  0.00     0.173 C 
ENDROOT
BRANCH   1  15
HETATM   15  C3  UNL     1     -33.736   8.266 -24.464  1.00  0.00     0.269 C 
HETATM   16  O2  UNL     1     -34.728   7.477 -24.341  1.00  0.00    -0.265 OA
BRANCH  15  17
HETATM   17  O1  UNL     1     -33.487   9.135 -23.421  1.00  0.00    -0.321 OA
BRANCH  17  18
HETATM   18  C2  UNL     1     -34.058   9.126 -22.157  1.00  0.00     0.174 C 
HETATM   19  C1  UNL     1     -33.199   8.544 -21.077  1.00  0.00     0.034 C 
ENDBRANCH  17  18
ENDBRANCH  15  17
ENDBRANCH   1  15
BRANCH   2  20
HETATM   20  C6  UNL     1     -31.169   6.938 -24.405  1.00  0.00     0.204 C 
HETATM   21  O3  UNL     1     -30.857   6.899 -23.201  1.00  0.00    -0.646 OA
HETATM   22  O4  UNL     1     -31.234   5.760 -25.123  1.00  0.00    -0.646 OA
ENDBRANCH   2  20
BRANCH  14  23
HETATM   23  O13 UNL     1     -32.782  10.479 -25.704  1.00  0.00    -0.378 OA
ATOM     24  H13 UNL     1     -31.883  10.481 -25.396  1.00  0.00     0.211 HD
ENDBRANCH  14  23
BRANCH   4  25
HETATM   25  C8  UNL     1     -30.803  10.708 -27.004  1.00  0.00     0.326 C 
HETATM   26  O6  UNL     1     -29.782  11.017 -26.354  1.00  0.00    -0.259 OA
BRANCH  25  27
HETATM   27  O7  UNL     1     -31.395  11.770 -27.697  1.00  0.00    -0.317 OA
BRANCH  27  28
HETATM   28  C9  UNL     1     -31.143  13.089 -27.316  1.00  0.00     0.174 C 
HETATM   29  C10 UNL     1     -32.339  13.842 -26.838  1.00  0.00     0.034 C 
ENDBRANCH  27  28
ENDBRANCH  25  27
ENDBRANCH   4  25
BRANCH  13  30
HETATM   30  C23 UNL     1     -35.033  10.229 -26.995  1.00  0.00     0.157 C 
HETATM   31  C24 UNL     1     -36.239   9.646 -26.446  1.00  0.00     0.096 C 
HETATM   32  O12 UNL     1     -35.035  11.510 -26.912  1.00  0.00    -0.293 OA
ENDBRANCH  13  30
BRANCH  12  33
HETATM   33  O11 UNL     1     -35.242   9.545 -29.518  1.00  0.00    -0.355 OA
HETATM   34  C21 UNL     1     -36.134   8.430 -29.734  1.00  0.00     0.210 C 
ENDBRANCH  12  33
BRANCH   6  35
HETATM   35  O9  UNL     1     -29.128   7.736 -27.533  1.00  0.00    -0.365 OA
ATOM     36  H9  UNL     1     -28.958   6.863 -27.200  1.00  0.00     0.213 HD
ENDBRANCH   6  35
BRANCH  11  37
HETATM   37  C17 UNL     1     -33.027   9.481 -31.262  1.00  0.00     0.080 C 
HETATM   38  C18 UNL     1     -31.923   9.076 -32.152  1.00  0.00     0.051 C 
HETATM   39  C19 UNL     1     -32.892  10.976 -30.924  1.00  0.00     0.051 C 
BRANCH  37  40
HETATM   40  O10 UNL     1     -34.194   9.415 -32.005  1.00  0.00    -0.386 OA
ATOM     41  H10 UNL     1     -34.887   9.939 -31.622  1.00  0.00     0.211 HD
ENDBRANCH  37  40
ENDBRANCH  11  37
TORSDOF 13
ENDMDL
MODEL 2
REMARK VINA RESULT: -4.959718126      1.770      3.076
REMARK  13 active torsions:
REMARK  status: ('A' for Active; 'I' for Inactive)
REMARK    1  A    between atoms: C2_2  and  O1_3 
REMARK    2  A    between atoms: O1_3  and  C3_4 
REMARK    3  A    between atoms: C3_4  and  C4_6 
REMARK    4  A    between atoms: C5_7  and  C6_8 
REMARK    5  A    between atoms: C7_12  and  C8_13 
REMARK    6  A    between atoms: C8_13  and  O7_15 
REMARK    7  A    between atoms: O7_15  and  C9_16 
REMARK    8  A    between atoms: C11_19  and  O9_21 
REMARK    9  A    between atoms: C16_26  and  C17_27 
REMARK   10  A    between atoms: C17_27  and  O10_30 
REMARK   11  A    between atoms: C20_32  and  O11_33 
REMARK   12  A    between atoms: C22_35  and  C23_36 
REMARK   13  A    between atoms: C25_39  and  O13_40 
ROOT
HETATM    1  C4  UNL     1     -31.185   6.418 -26.018  1.00  0.00     0.170 C 
HETATM    2  C5  UNL     1     -29.697   6.309 -26.438  1.00  0.00     0.243 C 
HETATM    3  O5  UNL     1     -29.476   7.223 -27.357  1.00  0.00    -0.327 OA
HETATM    4  C7  UNL     1     -30.510   8.174 -27.393  1.00  0.00     0.296 C 
HETATM    5  O8  UNL     1     -31.001   8.328 -28.626  1.00  0.00    -0.308 OA
HETATM    6  C11 UNL     1     -30.577   7.670 -29.700  1.00  0.00     0.162 C 
HETATM    7  C12 UNL     1     -30.712   8.440 -31.018  1.00  0.00     0.079 C 
HETATM    8  C13 UNL     1     -31.339   6.382 -29.882  1.00  0.00     0.072 C 
HETATM    9  C14 UNL     1     -32.770   6.493 -29.516  1.00  0.00     0.033 C 
HETATM   10  C15 UNL     1     -33.296   7.862 -29.597  1.00  0.00    -0.014 C 
HETATM   11  C16 UNL     1     -33.667   8.715 -28.690  1.00  0.00     0.006 C 
HETATM   12  C20 UNL     1     -33.632   8.668 -27.222  1.00  0.00     0.090 C 
HETATM   13  C22 UNL     1     -32.794   8.383 -26.272  1.00  0.00     0.062 C 
HETATM   14  C25 UNL     1     -31.398   7.859 -26.255  1.00  0.00     0.173 C 
ENDROOT
BRANCH   1  15
HETATM   15  C3  UNL     1     -31.183   5.814 -24.683  1.00  0.00     0.269 C 
HETATM   16  O2  UNL     1     -30.412   6.266 -23.777  1.00  0.00    -0.265 OA
BRANCH  15  17
HETATM   17  O1  UNL     1     -32.000   4.754 -24.347  1.00  0.00    -0.321 OA
BRANCH  17  18
HETATM   18  C2  UNL     1     -31.625   3.444 -24.090  1.00  0.00     0.174 C 
HETATM   19  C1  UNL     1     -31.255   3.157 -22.667  1.00  0.00     0.034 C 
ENDBRANCH  17  18
ENDBRANCH  15  17
ENDBRANCH   1  15
BRANCH   2  20
HETATM   20  C6  UNL     1     -29.299   4.910 -26.681  1.00  0.00     0.204 C 
HETATM   21  O3  UNL     1     -29.915   4.184 -27.483  1.00  0.00    -0.646 OA
HETATM   22  O4  UNL     1     -28.216   4.394 -25.999  1.00  0.00    -0.646 OA
ENDBRANCH   2  20
BRANCH  14  23
HETATM   23  O13 UNL     1     -30.704   8.442 -25.139  1.00  0.00    -0.378 OA
ATOM     24  H13 UNL     1     -31.423   8.798 -24.631  1.00  0.00     0.211 HD
ENDBRANCH  14  23
BRANCH   4  25
HETATM   25  C8  UNL     1     -29.777   9.462 -27.078  1.00  0.00     0.326 C 
HETATM   26  O6  UNL     1     -28.711   9.503 -26.428  1.00  0.00    -0.259 OA
BRANCH  25  27
HETATM   27  O7  UNL     1     -30.251  10.709 -27.500  1.00  0.00    -0.317 OA
BRANCH  27  28
HETATM   28  C9  UNL     1     -31.118  11.445 -26.690  1.00  0.00     0.174 C 
HETATM   29  C10 UNL     1     -31.533  12.763 -27.253  1.00  0.00     0.034 C 
ENDBRANCH  27  28
ENDBRANCH  25  27
ENDBRANCH   4  25
BRANCH  13  30
HETATM   30  C23 UNL     1     -33.294   8.544 -24.864  1.00  0.00     0.157 C 
HETATM   31  C24 UNL     1     -33.351   9.724 -24.026  1.00  0.00     0.096 C 
HETATM   32  O12 UNL     1     -33.743   7.503 -24.263  1.00  0.00    -0.293 OA
ENDBRANCH  13  30
BRANCH  12  33
HETATM   33  O11 UNL     1     -34.986   9.054 -26.802  1.00  0.00    -0.355 OA
HETATM   34  C21 UNL     1     -36.044   8.092 -27.003  1.00  0.00     0.210 C 
ENDBRANCH  12  33
BRANCH   6  35
HETATM   35  O9  UNL     1     -29.235   7.266 -29.687  1.00  0.00    -0.365 OA
ATOM     36  H9  UNL     1     -29.075   6.339 -29.825  1.00  0.00     0.213 HD
ENDBRANCH   6  35
BRANCH  11  37
HETATM   37  C17 UNL     1     -34.165  10.042 -29.312  1.00  0.00     0.080 C 
HETATM   38  C18 UNL     1     -35.370   9.912 -30.152  1.00  0.00     0.051 C 
HETATM   39  C19 UNL     1     -33.031  10.678 -30.135  1.00  0.00     0.051 C 
BRANCH  37  40
HETATM   40  O10 UNL     1     -34.443  10.993 -28.344  1.00  0.00    -0.386 OA
ATOM     41  H10 UNL     1     -33.665  11.244 -27.862  1.00  0.00     0.211 HD
ENDBRANCH  37  40
ENDBRANCH  11  37
TORSDOF 13
ENDMDL
MODEL 3
REMARK VINA RESULT: -4.836966594      2.062      5.727
REMARK  13 active torsions:
REMARK  status: ('A' for Active; 'I' for Inactive)
REMARK    1  A    between atoms: C2_2  and  O1_3 
REMARK    2  A    between atoms: O1_3  and  C3_4 
REMARK    3  A    between atoms: C3_4  and  C4_6 
REMARK    4  A    between atoms: C5_7  and  C6_8 
REMARK    5  A    between atoms: C7_12  and  C8_13 
REMARK    6  A    between atoms: C8_13  and  O7_15 
REMARK    7  A    between atoms: O7_15  and  C9_16 
REMARK    8  A    between atoms: C11_19  and  O9_21 
REMARK    9  A    between atoms: C16_26  and  C17_27 
REMARK   10  A    between atoms: C17_27  and  O10_30 
REMARK   11  A    between atoms: C20_32  and  O11_33 
REMARK   12  A    between atoms: C22_35  and  C23_36 
REMARK   13  A    between atoms: C25_39  and  O13_40 
ROOT
HETATM    1  C4  UNL     1     -32.039   6.866 -28.388  1.00  0.00     0.170 C 
HETATM    2  C5  UNL     1     -32.408   6.961 -29.890  1.00  0.00     0.243 C 
HETATM    3  O5  UNL     1     -33.053   8.092 -30.071  1.00  0.00    -0.327 OA
HETATM    4  C7  UNL     1     -32.890   8.955 -28.974  1.00  0.00     0.296 C 
HETATM    5  O8  UNL     1     -34.064   9.391 -28.506  1.00  0.00    -0.308 OA
HETATM    6  C11 UNL     1     -35.250   9.058 -29.003  1.00  0.00     0.162 C 
HETATM    7  C12 UNL     1     -36.333  10.132 -28.848  1.00  0.00     0.079 C 
HETATM    8  C13 UNL     1     -35.787   7.816 -28.338  1.00  0.00     0.072 C 
HETATM    9  C14 UNL     1     -35.467   7.742 -26.894  1.00  0.00     0.033 C 
HETATM   10  C15 UNL     1     -35.219   9.051 -26.275  1.00  0.00    -0.014 C 
HETATM   11  C16 UNL     1     -34.142   9.617 -25.821  1.00  0.00     0.006 C 
HETATM   12  C20 UNL     1     -32.735   9.196 -25.822  1.00  0.00     0.090 C 
HETATM   13  C22 UNL     1     -31.853   8.728 -26.652  1.00  0.00     0.062 C 
HETATM   14  C25 UNL     1     -31.909   8.304 -28.081  1.00  0.00     0.173 C 
ENDROOT
BRANCH   1  15
HETATM   15  C3  UNL     1     -30.903   5.941 -28.398  1.00  0.00     0.269 C 
HETATM   16  O2  UNL     1     -30.897   4.926 -27.628  1.00  0.00    -0.265 OA
BRANCH  15  17
HETATM   17  O1  UNL     1     -29.813   6.112 -29.225  1.00  0.00    -0.321 OA
BRANCH  17  18
HETATM   18  C2  UNL     1     -28.574   5.495 -29.132  1.00  0.00     0.174 C 
HETATM   19  C1  UNL     1     -27.770   5.492 -30.396  1.00  0.00     0.034 C 
ENDBRANCH  17  18
ENDBRANCH  15  17
ENDBRANCH   1  15
BRANCH   2  20
HETATM   20  C6  UNL     1     -32.982   5.698 -30.392  1.00  0.00     0.204 C 
HETATM   21  O3  UNL     1     -32.561   5.153 -31.428  1.00  0.00    -0.646 OA
HETATM   22  O4  UNL     1     -34.015   5.108 -29.692  1.00  0.00    -0.646 OA
ENDBRANCH   2  20
BRANCH  14  23
HETATM   23  O13 UNL     1     -30.653   8.622 -28.703  1.00  0.00    -0.378 OA
ATOM     24  H13 UNL     1     -30.781   9.534 -28.937  1.00  0.00     0.211 HD
ENDBRANCH  14  23
BRANCH   4  25
HETATM   25  C8  UNL     1     -32.226  10.161 -29.606  1.00  0.00     0.326 C 
HETATM   26  O6  UNL     1     -31.914  10.217 -30.815  1.00  0.00    -0.259 OA
BRANCH  25  27
HETATM   27  O7  UNL     1     -31.913  11.309 -28.869  1.00  0.00    -0.317 OA
BRANCH  27  28
HETATM   28  C9  UNL     1     -32.299  12.569 -29.329  1.00  0.00     0.174 C 
HETATM   29  C10 UNL     1     -33.767  12.831 -29.278  1.00  0.00     0.034 C 
ENDBRANCH  27  28
ENDBRANCH  25  27
ENDBRANCH   4  25
BRANCH  13  30
HETATM   30  C23 UNL     1     -30.473   8.491 -26.105  1.00  0.00     0.157 C 
HETATM   31  C24 UNL     1     -29.948   7.366 -25.360  1.00  0.00     0.096 C 
HETATM   32  O12 UNL     1     -29.587   9.401 -26.294  1.00  0.00    -0.293 OA
ENDBRANCH  13  30
BRANCH  12  33
HETATM   33  O11 UNL     1     -32.289   9.378 -24.433  1.00  0.00    -0.355 OA
HETATM   34  C21 UNL     1     -32.683   8.375 -23.472  1.00  0.00     0.210 C 
ENDBRANCH  12  33
BRANCH   6  35
HETATM   35  O9  UNL     1     -35.282   8.747 -30.369  1.00  0.00    -0.365 OA
ATOM     36  H9  UNL     1     -36.142   8.603 -30.746  1.00  0.00     0.213 HD
ENDBRANCH   6  35
BRANCH  11  37
HETATM   37  C17 UNL     1     -34.426  11.027 -25.248  1.00  0.00     0.080 C 
HETATM   38  C18 UNL     1     -35.748  11.577 -25.601  1.00  0.00     0.051 C 
HETATM   39  C19 UNL     1     -33.325  11.998 -25.708  1.00  0.00     0.051 C 
BRANCH  37  40
HETATM   40  O10 UNL     1     -34.331  11.050 -23.867  1.00  0.00    -0.386 OA
ATOM     41  H10 UNL     1     -34.886  11.719 -23.485  1.00  0.00     0.211 HD
ENDBRANCH  37  40
ENDBRANCH  11  37
TORSDOF 13
ENDMDL
MODEL 4
REMARK VINA RESULT: -4.755790896      0.804      1.273
REMARK  13 active torsions:
REMARK  status: ('A' for Active; 'I' for Inactive)
REMARK    1  A    between atoms: C2_2  and  O1_3 
REMARK    2  A    between atoms: O1_3  and  C3_4 
REMARK    3  A    between atoms: C3_4  and  C4_6 
REMARK    4  A    between atoms: C5_7  and  C6_8 
REMARK    5  A    between atoms: C7_12  and  C8_13 
REMARK    6  A    between atoms: C8_13  and  O7_15 
REMARK    7  A    between atoms: O7_15  and  C9_16 
REMARK    8  A    between atoms: C11_19  and  O9_21 
REMARK    9  A    between atoms: C16_26  and  C17_27 
REMARK   10  A    between atoms: C17_27  and  O10_30 
REMARK   11  A    between atoms: C20_32  and  O11_33 
REMARK   12  A    between atoms: C22_35  and  C23_36 
REMARK   13  A    between atoms: C25_39  and  O13_40 
ROOT
HETATM    1  C4  UNL     1     -33.162   8.433 -25.776  1.00  0.00     0.170 C 
HETATM    2  C5  UNL     1     -31.753   8.403 -25.131  1.00  0.00     0.243 C 
HETATM    3  O5  UNL     1     -30.894   8.823 -26.034  1.00  0.00    -0.327 OA
HETATM    4  C7  UNL     1     -31.545   9.461 -27.103  1.00  0.00     0.296 C 
HETATM    5  O8  UNL     1     -31.179   8.950 -28.283  1.00  0.00    -0.308 OA
HETATM    6  C11 UNL     1     -30.308   7.961 -28.444  1.00  0.00     0.162 C 
HETATM    7  C12 UNL     1     -29.516   8.012 -29.756  1.00  0.00     0.079 C 
HETATM    8  C13 UNL     1     -31.000   6.621 -28.420  1.00  0.00     0.072 C 
HETATM    9  C14 UNL     1     -32.331   6.638 -29.068  1.00  0.00     0.033 C 
HETATM   10  C15 UNL     1     -32.490   7.708 -30.063  1.00  0.00    -0.014 C 
HETATM   11  C16 UNL     1     -33.191   8.802 -30.070  1.00  0.00     0.006 C 
HETATM   12  C20 UNL     1     -34.040   9.433 -29.051  1.00  0.00     0.090 C 
HETATM   13  C22 UNL     1     -33.984   9.759 -27.796  1.00  0.00     0.062 C 
HETATM   14  C25 UNL     1     -32.970   9.549 -26.723  1.00  0.00     0.173 C 
ENDROOT
BRANCH   1  15
HETATM   15  C3  UNL     1     -34.044   8.511 -24.608  1.00  0.00     0.269 C 
HETATM   16  O2  UNL     1     -33.779   9.317 -23.659  1.00  0.00    -0.265 OA
BRANCH  15  17
HETATM   17  O1  UNL     1     -35.181   7.740 -24.484  1.00  0.00    -0.321 OA
BRANCH  17  18
HETATM   18  C2  UNL     1     -36.326   8.032 -23.755  1.00  0.00     0.174 C 
HETATM   19  C1  UNL     1     -37.480   7.108 -23.992  1.00  0.00     0.034 C 
ENDBRANCH  17  18
ENDBRANCH  15  17
ENDBRANCH   1  15
BRANCH   2  20
HETATM   20  C6  UNL     1     -31.508   7.138 -24.414  1.00  0.00     0.204 C 
HETATM   21  O3  UNL     1     -31.529   6.039 -24.998  1.00  0.00    -0.646 OA
HETATM   22  O4  UNL     1     -31.250   7.175 -23.058  1.00  0.00    -0.646 OA
ENDBRANCH   2  20
BRANCH  14  23
HETATM   23  O13 UNL     1     -32.994  10.685 -25.842  1.00  0.00    -0.378 OA
ATOM     24  H13 UNL     1     -32.725  11.385 -26.425  1.00  0.00     0.211 HD
ENDBRANCH  14  23
BRANCH   4  25
HETATM   25  C8  UNL     1     -30.956  10.855 -27.057  1.00  0.00     0.326 C 
HETATM   26  O6  UNL     1     -29.936  11.147 -26.398  1.00  0.00    -0.259 OA
BRANCH  25  27
HETATM   27  O7  UNL     1     -31.523  11.925 -27.758  1.00  0.00    -0.317 OA
BRANCH  27  28
HETATM   28  C9  UNL     1     -31.168  13.239 -27.447  1.00  0.00     0.174 C 
HETATM   29  C10 UNL     1     -32.190  13.994 -26.664  1.00  0.00     0.034 C 
ENDBRANCH  27  28
ENDBRANCH  25  27
ENDBRANCH   4  25
BRANCH  13  30
HETATM   30  C23 UNL     1     -35.190  10.454 -27.227  1.00  0.00     0.157 C 
HETATM   31  C24 UNL     1     -36.455   9.908 -26.782  1.00  0.00     0.096 C 
HETATM   32  O12 UNL     1     -35.146  11.731 -27.104  1.00  0.00    -0.293 OA
ENDBRANCH  13  30
BRANCH  12  33
HETATM   33  O11 UNL     1     -35.301   9.729 -29.745  1.00  0.00    -0.355 OA
HETATM   34  C21 UNL     1     -36.196   8.624 -29.998  1.00  0.00     0.210 C 
ENDBRANCH  12  33
BRANCH   6  35
HETATM   35  O9  UNL     1     -29.316   7.844 -27.461  1.00  0.00    -0.365 OA
ATOM     36  H9  UNL     1     -29.316   7.037 -26.960  1.00  0.00     0.213 HD
ENDBRANCH   6  35
BRANCH  11  37
HETATM   37  C17 UNL     1     -33.013   9.594 -31.388  1.00  0.00     0.080 C 
HETATM   38  C18 UNL     1     -31.882   9.150 -32.223  1.00  0.00     0.051 C 
HETATM   39  C19 UNL     1     -32.860  11.092 -31.069  1.00  0.00     0.051 C 
BRANCH  37  40
HETATM   40  O10 UNL     1     -34.149   9.540 -32.179  1.00  0.00    -0.386 OA
ATOM     41  H10 UNL     1     -33.937   9.385 -33.091  1.00  0.00     0.211 HD
ENDBRANCH  37  40
ENDBRANCH  11  37
TORSDOF 13
ENDMDL
MODEL 5
REMARK VINA RESULT: -4.724142439      2.383      5.658
REMARK  13 active torsions:
REMARK  status: ('A' for Active; 'I' for Inactive)
REMARK    1  A    between atoms: C2_2  and  O1_3 
REMARK    2  A    between atoms: O1_3  and  C3_4 
REMARK    3  A    between atoms: C3_4  and  C4_6 
REMARK    4  A    between atoms: C5_7  and  C6_8 
REMARK    5  A    between atoms: C7_12  and  C8_13 
REMARK    6  A    between atoms: C8_13  and  O7_15 
REMARK    7  A    between atoms: O7_15  and  C9_16 
REMARK    8  A    between atoms: C11_19  and  O9_21 
REMARK    9  A    between atoms: C16_26  and  C17_27 
REMARK   10  A    between atoms: C17_27  and  O10_30 
REMARK   11  A    between atoms: C20_32  and  O11_33 
REMARK   12  A    between atoms: C22_35  and  C23_36 
REMARK   13  A    between atoms: C25_39  and  O13_40 
ROOT
HETATM    1  C4  UNL     1     -31.357   8.871 -28.344  1.00  0.00     0.170 C 
HETATM    2  C5  UNL     1     -32.537   9.828 -28.035  1.00  0.00     0.243 C 
HETATM    3  O5  UNL     1     -33.557   9.451 -28.774  1.00  0.00    -0.327 OA
HETATM    4  C7  UNL     1     -33.361   8.163 -29.300  1.00  0.00     0.296 C 
HETATM    5  O8  UNL     1     -33.534   8.136 -30.625  1.00  0.00    -0.308 OA
HETATM    6  C11 UNL     1     -33.853   9.189 -31.370  1.00  0.00     0.162 C 
HETATM    7  C12 UNL     1     -34.673   8.862 -32.624  1.00  0.00     0.079 C 
HETATM    8  C13 UNL     1     -32.617   9.907 -31.849  1.00  0.00     0.072 C 
HETATM    9  C14 UNL     1     -31.500   8.993 -32.180  1.00  0.00     0.033 C 
HETATM   10  C15 UNL     1     -31.933   7.632 -32.525  1.00  0.00    -0.014 C 
HETATM   11  C16 UNL     1     -31.825   6.494 -31.908  1.00  0.00     0.006 C 
HETATM   12  C20 UNL     1     -31.294   6.139 -30.586  1.00  0.00     0.090 C 
HETATM   13  C22 UNL     1     -31.402   6.527 -29.351  1.00  0.00     0.062 C 
HETATM   14  C25 UNL     1     -32.117   7.653 -28.686  1.00  0.00     0.173 C 
ENDROOT
BRANCH   1  15
HETATM   15  C3  UNL     1     -30.529   8.991 -27.141  1.00  0.00     0.269 C 
HETATM   16  O2  UNL     1     -29.294   9.284 -27.240  1.00  0.00    -0.265 OA
BRANCH  15  17
HETATM   17  O1  UNL     1     -31.034   8.805 -25.870  1.00  0.00    -0.321 OA
BRANCH  17  18
HETATM   18  C2  UNL     1     -30.791   7.744 -25.010  1.00  0.00     0.174 C 
HETATM   19  C1  UNL     1     -31.757   7.615 -23.873  1.00  0.00     0.034 C 
ENDBRANCH  17  18
ENDBRANCH  15  17
ENDBRANCH   1  15
BRANCH   2  20
HETATM   20  C6  UNL     1     -32.110  11.240 -28.036  1.00  0.00     0.204 C 
HETATM   21  O3  UNL     1     -31.870  11.851 -29.093  1.00  0.00    -0.646 OA
HETATM   22  O4  UNL     1     -31.972  11.898 -26.831  1.00  0.00    -0.646 OA
ENDBRANCH   2  20
BRANCH  14  23
HETATM   23  O13 UNL     1     -32.560   7.213 -27.391  1.00  0.00    -0.378 OA
ATOM     24  H13 UNL     1     -33.185   7.891 -27.162  1.00  0.00     0.211 HD
ENDBRANCH  14  23
BRANCH   4  25
HETATM   25  C8  UNL     1     -34.527   7.392 -28.717  1.00  0.00     0.326 C 
HETATM   26  O6  UNL     1     -35.326   7.879 -27.889  1.00  0.00    -0.259 OA
BRANCH  25  27
HETATM   27  O7  UNL     1     -34.791   6.064 -29.070  1.00  0.00    -0.317 OA
BRANCH  27  28
HETATM   28  C9  UNL     1     -35.935   5.744 -29.803  1.00  0.00     0.174 C 
HETATM   29  C10 UNL     1     -35.938   4.373 -30.392  1.00  0.00     0.034 C 
ENDBRANCH  27  28
ENDBRANCH  25  27
ENDBRANCH   4  25
BRANCH  13  30
HETATM   30  C23 UNL     1     -30.620   5.748 -28.331  1.00  0.00     0.157 C 
HETATM   31  C24 UNL     1     -29.238   5.879 -27.917  1.00  0.00     0.096 C 
HETATM   32  O12 UNL     1     -31.222   4.801 -27.707  1.00  0.00    -0.293 OA
ENDBRANCH  13  30
BRANCH  12  33
HETATM   33  O11 UNL     1     -30.372   5.023 -30.839  1.00  0.00    -0.355 OA
HETATM   34  C21 UNL     1     -29.086   5.341 -31.413  1.00  0.00     0.210 C 
ENDBRANCH  12  33
BRANCH   6  35
HETATM   35  O9  UNL     1     -34.599  10.191 -30.737  1.00  0.00    -0.365 OA
ATOM     36  H9  UNL     1     -35.323  10.553 -31.234  1.00  0.00     0.213 HD
ENDBRANCH   6  35
BRANCH  11  37
HETATM   37  C17 UNL     1     -32.449   5.334 -32.721  1.00  0.00     0.080 C 
HETATM   38  C18 UNL     1     -31.638   4.881 -33.866  1.00  0.00     0.051 C 
HETATM   39  C19 UNL     1     -33.847   5.749 -33.214  1.00  0.00     0.051 C 
BRANCH  37  40
HETATM   40  O10 UNL     1     -32.694   4.224 -31.930  1.00  0.00    -0.386 OA
ATOM     41  H10 UNL     1     -33.498   4.315 -31.432  1.00  0.00     0.211 HD
ENDBRANCH  37  40
ENDBRANCH  11  37
TORSDOF 13
ENDMDL
