MODEL 1
REMARK VINA RESULT: -8.477291792      0.000      0.000
REMARK  8 active torsions:
REMARK  status: ('A' for Active; 'I' for Inactive)
REMARK    1  A    between atoms: C9_9  and  O1_10 
REMARK    2  A    between atoms: C11_13  and  O2_14 
REMARK    3  A    between atoms: O2_14  and  C12_15 
REMARK    4  A    between atoms: C12_15  and  C13_17 
REMARK    5  A    between atoms: C13_17  and  C14_18 
REMARK    6  A    between atoms: C14_18  and  C15_19 
REMARK    7  A    between atoms: C15_19  and  C16_20 
REMARK    8  A    between atoms: C16_20  and  C17_21 
ROOT
HETATM    1  C1  UNL     1      73.353  50.727   7.456  1.00  0.00     0.015 C 
HETATM    2  C2  UNL     1      72.554  49.530   7.955  1.00  0.00    -0.040 C 
HETATM    3  C3  UNL     1      73.459  48.318   8.081  1.00  0.00     0.010 C 
HETATM    4  C4  UNL     1      73.605  48.683   9.559  1.00  0.00     0.006 C 
HETATM    5  C5  UNL     1      72.382  49.607   9.435  1.00  0.00    -0.002 C 
HETATM    6  C6  UNL     1      71.114  48.931   9.929  1.00  0.00    -0.005 C 
HETATM    7  C7  UNL     1      71.078  49.048  11.415  1.00  0.00     0.008 C 
HETATM    8  C8  UNL     1      70.437  50.255  11.962  1.00  0.00     0.039 C 
HETATM    9  C9  UNL     1      69.519  50.993  11.050  1.00  0.00     0.068 C 
HETATM   10  C10 UNL     1      68.483  51.697  11.880  1.00  0.00     0.071 C 
HETATM   11  C11 UNL     1      67.394  50.808  12.401  1.00  0.00     0.134 C 
HETATM   12  C18 UNL     1      66.783  49.926  11.358  1.00  0.00     0.033 C 
HETATM   13  C19 UNL     1      67.930  49.194  10.659  1.00  0.00     0.015 C 
HETATM   14  C20 UNL     1      68.898  50.132  10.012  1.00  0.00    -0.009 C 
HETATM   15  C21 UNL     1      68.076  51.021   9.068  1.00  0.00     0.019 C 
HETATM   16  C22 UNL     1      69.888  49.346   9.215  1.00  0.00     0.001 C 
HETATM   17  C23 UNL     1      70.204  50.138   7.936  1.00  0.00     0.007 C 
HETATM   18  C24 UNL     1      71.270  49.301   7.214  1.00  0.00     0.010 C 
ENDROOT
BRANCH  11  19
HETATM   19  O2  UNL     1      66.489  51.666  13.043  1.00  0.00    -0.316 OA
BRANCH  19  20
HETATM   20  C12 UNL     1      65.144  51.686  12.910  1.00  0.00     0.259 C 
HETATM   21  O3  UNL     1      64.464  50.851  13.509  1.00  0.00    -0.265 OA
BRANCH  20  22
HETATM   22  C13 UNL     1      64.492  52.701  12.052  1.00  0.00     0.111 C 
BRANCH  22  23
HETATM   23  C14 UNL     1      65.003  54.098  12.395  1.00  0.00     0.010 C 
BRANCH  23  24
HETATM   24  C15 UNL     1      65.648  54.780  11.231  1.00  0.00     0.011 C 
BRANCH  24  25
HETATM   25  C16 UNL     1      67.067  55.165  11.496  1.00  0.00     0.113 C 
BRANCH  25  26
HETATM   26  C17 UNL     1      67.806  55.210  10.206  1.00  0.00     0.172 C 
HETATM   27  O4  UNL     1      68.916  54.648  10.084  1.00  0.00    -0.648 OA
HETATM   28  O5  UNL     1      67.278  55.876   9.114  1.00  0.00    -0.648 OA
ENDBRANCH  25  26
ENDBRANCH  24  25
ENDBRANCH  23  24
ENDBRANCH  22  23
ENDBRANCH  20  22
ENDBRANCH  19  20
ENDBRANCH  11  19
BRANCH   9  29
HETATM   29  O1  UNL     1      70.189  52.042  10.371  1.00  0.00    -0.389 OA
ATOM     30  H1  UNL     1      70.036  52.006   9.434  1.00  0.00     0.210 HD
ENDBRANCH   9  29
TORSDOF 8
ENDMDL
MODEL 2
REMARK VINA RESULT: -8.091272634      1.224      2.526
REMARK  8 active torsions:
REMARK  status: ('A' for Active; 'I' for Inactive)
REMARK    1  A    between atoms: C9_9  and  O1_10 
REMARK    2  A    between atoms: C11_13  and  O2_14 
REMARK    3  A    between atoms: O2_14  and  C12_15 
REMARK    4  A    between atoms: C12_15  and  C13_17 
REMARK    5  A    between atoms: C13_17  and  C14_18 
REMARK    6  A    between atoms: C14_18  and  C15_19 
REMARK    7  A    between atoms: C15_19  and  C16_20 
REMARK    8  A    between atoms: C16_20  and  C17_21 
ROOT
HETATM    1  C1  UNL     1      73.688  46.950   7.777  1.00  0.00     0.015 C 
HETATM    2  C2  UNL     1      73.390  48.443   7.727  1.00  0.00    -0.040 C 
HETATM    3  C3  UNL     1      73.804  49.009   6.381  1.00  0.00     0.010 C 
HETATM    4  C4  UNL     1      72.348  48.827   5.948  1.00  0.00     0.006 C 
HETATM    5  C5  UNL     1      71.947  48.669   7.424  1.00  0.00    -0.002 C 
HETATM    6  C6  UNL     1      71.407  49.967   8.002  1.00  0.00    -0.005 C 
HETATM    7  C7  UNL     1      69.976  50.090   7.604  1.00  0.00     0.008 C 
HETATM    8  C8  UNL     1      68.989  49.482   8.511  1.00  0.00     0.039 C 
HETATM    9  C9  UNL     1      69.442  49.214   9.905  1.00  0.00     0.068 C 
HETATM   10  C10 UNL     1      68.249  49.274  10.816  1.00  0.00     0.071 C 
HETATM   11  C11 UNL     1      67.782  50.662  11.140  1.00  0.00     0.134 C 
HETATM   12  C18 UNL     1      68.878  51.581  11.578  1.00  0.00     0.033 C 
HETATM   13  C19 UNL     1      69.980  51.505  10.520  1.00  0.00     0.015 C 
HETATM   14  C20 UNL     1      70.525  50.121  10.360  1.00  0.00    -0.009 C 
HETATM   15  C21 UNL     1      70.985  49.672  11.754  1.00  0.00     0.019 C 
HETATM   16  C22 UNL     1      71.701  50.159   9.438  1.00  0.00     0.001 C 
HETATM   17  C23 UNL     1      72.741  49.152   9.956  1.00  0.00     0.007 C 
HETATM   18  C24 UNL     1      73.877  49.203   8.923  1.00  0.00     0.010 C 
ENDROOT
BRANCH  11  19
HETATM   19  O2  UNL     1      66.749  50.498  12.075  1.00  0.00    -0.316 OA
BRANCH  19  20
HETATM   20  C12 UNL     1      65.869  51.434  12.495  1.00  0.00     0.259 C 
HETATM   21  O3  UNL     1      65.550  51.474  13.684  1.00  0.00    -0.265 OA
BRANCH  20  22
HETATM   22  C13 UNL     1      65.292  52.402  11.535  1.00  0.00     0.111 C 
BRANCH  22  23
HETATM   23  C14 UNL     1      65.040  53.745  12.216  1.00  0.00     0.010 C 
BRANCH  23  24
HETATM   24  C15 UNL     1      65.638  54.894  11.468  1.00  0.00     0.011 C 
BRANCH  24  25
HETATM   25  C16 UNL     1      67.125  54.958  11.592  1.00  0.00     0.113 C 
BRANCH  25  26
HETATM   26  C17 UNL     1      67.713  55.221  10.252  1.00  0.00     0.172 C 
HETATM   27  O4  UNL     1      67.055  55.815   9.369  1.00  0.00    -0.648 OA
HETATM   28  O5  UNL     1      69.002  54.814   9.954  1.00  0.00    -0.648 OA
ENDBRANCH  25  26
ENDBRANCH  24  25
ENDBRANCH  23  24
ENDBRANCH  22  23
ENDBRANCH  20  22
ENDBRANCH  19  20
ENDBRANCH  11  19
BRANCH   9  29
HETATM   29  O1  UNL     1      69.923  47.888  10.053  1.00  0.00    -0.389 OA
ATOM     30  H1  UNL     1      69.246  47.304  10.375  1.00  0.00     0.210 HD
ENDBRANCH   9  29
TORSDOF 8
ENDMDL
MODEL 3
REMARK VINA RESULT: -8.032575097      0.926      1.172
REMARK  8 active torsions:
REMARK  status: ('A' for Active; 'I' for Inactive)
REMARK    1  A    between atoms: C9_9  and  O1_10 
REMARK    2  A    between atoms: C11_13  and  O2_14 
REMARK    3  A    between atoms: O2_14  and  C12_15 
REMARK    4  A    between atoms: C12_15  and  C13_17 
REMARK    5  A    between atoms: C13_17  and  C14_18 
REMARK    6  A    between atoms: C14_18  and  C15_19 
REMARK    7  A    between atoms: C15_19  and  C16_20 
REMARK    8  A    between atoms: C16_20  and  C17_21 
ROOT
HETATM    1  C1  UNL     1      73.370  50.172   7.746  1.00  0.00     0.015 C 
HETATM    2  C2  UNL     1      72.666  49.063   8.517  1.00  0.00    -0.040 C 
HETATM    3  C3  UNL     1      73.687  48.211   9.248  1.00  0.00     0.010 C 
HETATM    4  C4  UNL     1      73.409  49.077  10.478  1.00  0.00     0.006 C 
HETATM    5  C5  UNL     1      72.127  49.593   9.803  1.00  0.00    -0.002 C 
HETATM    6  C6  UNL     1      70.895  48.849  10.291  1.00  0.00    -0.005 C 
HETATM    7  C7  UNL     1      70.478  49.450  11.591  1.00  0.00     0.008 C 
HETATM    8  C8  UNL     1      69.546  50.586  11.518  1.00  0.00     0.039 C 
HETATM    9  C9  UNL     1      68.778  50.738  10.251  1.00  0.00     0.068 C 
HETATM   10  C10 UNL     1      67.475  51.419  10.559  1.00  0.00     0.071 C 
HETATM   11  C11 UNL     1      66.441  50.532  11.183  1.00  0.00     0.134 C 
HETATM   12  C18 UNL     1      66.246  49.233  10.467  1.00  0.00     0.033 C 
HETATM   13  C19 UNL     1      67.628  48.596  10.307  1.00  0.00     0.015 C 
HETATM   14  C20 UNL     1      68.570  49.458   9.529  1.00  0.00    -0.009 C 
HETATM   15  C21 UNL     1      67.878  49.758   8.191  1.00  0.00     0.019 C 
HETATM   16  C22 UNL     1      69.833  48.701   9.274  1.00  0.00     0.001 C 
HETATM   17  C23 UNL     1      70.328  49.065   7.865  1.00  0.00     0.007 C 
HETATM   18  C24 UNL     1      71.654  48.306   7.710  1.00  0.00     0.010 C 
ENDROOT
BRANCH  11  19
HETATM   19  O2  UNL     1      65.285  51.320  11.284  1.00  0.00    -0.316 OA
BRANCH  19  20
HETATM   20  C12 UNL     1      64.876  52.041  12.352  1.00  0.00     0.259 C 
HETATM   21  O3  UNL     1      65.091  51.617  13.488  1.00  0.00    -0.265 OA
BRANCH  20  22
HETATM   22  C13 UNL     1      64.175  53.331  12.158  1.00  0.00     0.111 C 
BRANCH  22  23
HETATM   23  C14 UNL     1      65.142  54.498  12.339  1.00  0.00     0.010 C 
BRANCH  23  24
HETATM   24  C15 UNL     1      65.885  54.834  11.086  1.00  0.00     0.011 C 
BRANCH  24  25
HETATM   25  C16 UNL     1      67.287  55.280  11.344  1.00  0.00     0.113 C 
BRANCH  25  26
HETATM   26  C17 UNL     1      68.073  55.160  10.087  1.00  0.00     0.172 C 
HETATM   27  O4  UNL     1      67.680  55.704   9.031  1.00  0.00    -0.648 OA
HETATM   28  O5  UNL     1      69.256  54.441  10.060  1.00  0.00    -0.648 OA
ENDBRANCH  25  26
ENDBRANCH  24  25
ENDBRANCH  23  24
ENDBRANCH  22  23
ENDBRANCH  20  22
ENDBRANCH  19  20
ENDBRANCH  11  19
BRANCH   9  29
HETATM   29  O1  UNL     1      69.425  51.621   9.350  1.00  0.00    -0.389 OA
ATOM     30  H1  UNL     1      69.829  52.351   9.804  1.00  0.00     0.210 HD
ENDBRANCH   9  29
TORSDOF 8
ENDMDL
MODEL 4
REMARK VINA RESULT: -7.895689516      1.532      2.881
REMARK  8 active torsions:
REMARK  status: ('A' for Active; 'I' for Inactive)
REMARK    1  A    between atoms: C9_9  and  O1_10 
REMARK    2  A    between atoms: C11_13  and  O2_14 
REMARK    3  A    between atoms: O2_14  and  C12_15 
REMARK    4  A    between atoms: C12_15  and  C13_17 
REMARK    5  A    between atoms: C13_17  and  C14_18 
REMARK    6  A    between atoms: C14_18  and  C15_19 
REMARK    7  A    between atoms: C15_19  and  C16_20 
REMARK    8  A    between atoms: C16_20  and  C17_21 
ROOT
HETATM    1  C1  UNL     1      74.472  46.908   7.157  1.00  0.00     0.015 C 
HETATM    2  C2  UNL     1      74.007  48.350   7.004  1.00  0.00    -0.040 C 
HETATM    3  C3  UNL     1      74.317  48.848   5.604  1.00  0.00     0.010 C 
HETATM    4  C4  UNL     1      72.880  48.473   5.240  1.00  0.00     0.006 C 
HETATM    5  C5  UNL     1      72.540  48.391   6.737  1.00  0.00    -0.002 C 
HETATM    6  C6  UNL     1      71.874  49.663   7.234  1.00  0.00    -0.005 C 
HETATM    7  C7  UNL     1      70.427  49.596   6.880  1.00  0.00     0.008 C 
HETATM    8  C8  UNL     1      69.540  48.958   7.866  1.00  0.00     0.039 C 
HETATM    9  C9  UNL     1      70.059  48.854   9.259  1.00  0.00     0.068 C 
HETATM   10  C10 UNL     1      68.892  48.855  10.206  1.00  0.00     0.071 C 
HETATM   11  C11 UNL     1      68.281  50.204  10.439  1.00  0.00     0.134 C 
HETATM   12  C18 UNL     1      69.278  51.271  10.765  1.00  0.00     0.033 C 
HETATM   13  C19 UNL     1      70.352  51.232   9.677  1.00  0.00     0.015 C 
HETATM   14  C20 UNL     1      71.045  49.908   9.603  1.00  0.00    -0.009 C 
HETATM   15  C21 UNL     1      71.592  49.627  11.010  1.00  0.00     0.019 C 
HETATM   16  C22 UNL     1      72.184  50.001   8.639  1.00  0.00     0.001 C 
HETATM   17  C23 UNL     1      73.344  49.160   9.194  1.00  0.00     0.007 C 
HETATM   18  C24 UNL     1      74.439  49.253   8.120  1.00  0.00     0.010 C 
ENDROOT
BRANCH  11  19
HETATM   19  O2  UNL     1      67.300  50.004  11.420  1.00  0.00    -0.316 OA
BRANCH  19  20
HETATM   20  C12 UNL     1      66.647  50.950  12.132  1.00  0.00     0.259 C 
HETATM   21  O3  UNL     1      66.836  51.032  13.346  1.00  0.00    -0.265 OA
BRANCH  20  22
HETATM   22  C13 UNL     1      65.712  51.878  11.458  1.00  0.00     0.111 C 
BRANCH  22  23
HETATM   23  C14 UNL     1      65.494  53.128  12.308  1.00  0.00     0.010 C 
BRANCH  23  24
HETATM   24  C15 UNL     1      65.466  54.383  11.494  1.00  0.00     0.011 C 
BRANCH  24  25
HETATM   25  C16 UNL     1      66.673  55.238  11.704  1.00  0.00     0.113 C 
BRANCH  25  26
HETATM   26  C17 UNL     1      67.510  55.205  10.475  1.00  0.00     0.172 C 
HETATM   27  O4  UNL     1      68.613  54.614  10.468  1.00  0.00    -0.648 OA
HETATM   28  O5  UNL     1      67.086  55.828   9.315  1.00  0.00    -0.648 OA
ENDBRANCH  25  26
ENDBRANCH  24  25
ENDBRANCH  23  24
ENDBRANCH  22  23
ENDBRANCH  20  22
ENDBRANCH  19  20
ENDBRANCH  11  19
BRANCH   9  29
HETATM   29  O1  UNL     1      70.690  47.605   9.490  1.00  0.00    -0.389 OA
ATOM     30  H1  UNL     1      71.093  47.265   8.700  1.00  0.00     0.210 HD
ENDBRANCH   9  29
TORSDOF 8
ENDMDL
MODEL 5
REMARK VINA RESULT: -7.894862531      1.691      3.466
REMARK  8 active torsions:
REMARK  status: ('A' for Active; 'I' for Inactive)
REMARK    1  A    between atoms: C9_9  and  O1_10 
REMARK    2  A    between atoms: C11_13  and  O2_14 
REMARK    3  A    between atoms: O2_14  and  C12_15 
REMARK    4  A    between atoms: C12_15  and  C13_17 
REMARK    5  A    between atoms: C13_17  and  C14_18 
REMARK    6  A    between atoms: C14_18  and  C15_19 
REMARK    7  A    between atoms: C15_19  and  C16_20 
REMARK    8  A    between atoms: C16_20  and  C17_21 
ROOT
HETATM    1  C1  UNL     1      72.999  48.073   8.805  1.00  0.00     0.015 C 
HETATM    2  C2  UNL     1      72.168  47.901  10.070  1.00  0.00    -0.040 C 
HETATM    3  C3  UNL     1      73.009  47.261  11.159  1.00  0.00     0.010 C 
HETATM    4  C4  UNL     1      73.276  48.677  11.672  1.00  0.00     0.006 C 
HETATM    5  C5  UNL     1      72.103  49.189  10.821  1.00  0.00    -0.002 C 
HETATM    6  C6  UNL     1      70.834  49.341  11.643  1.00  0.00    -0.005 C 
HETATM    7  C7  UNL     1      70.906  50.644  12.365  1.00  0.00     0.008 C 
HETATM    8  C8  UNL     1      70.373  51.817  11.654  1.00  0.00     0.039 C 
HETATM    9  C9  UNL     1      69.440  51.545  10.526  1.00  0.00     0.068 C 
HETATM   10  C10 UNL     1      68.504  52.712  10.386  1.00  0.00     0.071 C 
HETATM   11  C11 UNL     1      67.404  52.753  11.403  1.00  0.00     0.134 C 
HETATM   12  C18 UNL     1      66.674  51.457  11.557  1.00  0.00     0.033 C 
HETATM   13  C19 UNL     1      67.727  50.373  11.794  1.00  0.00     0.015 C 
HETATM   14  C20 UNL     1      68.702  50.264  10.664  1.00  0.00    -0.009 C 
HETATM   15  C21 UNL     1      67.869  50.039   9.394  1.00  0.00     0.019 C 
HETATM   16  C22 UNL     1      69.588  49.083  10.891  1.00  0.00     0.001 C 
HETATM   17  C23 UNL     1      69.861  48.427   9.528  1.00  0.00     0.007 C 
HETATM   18  C24 UNL     1      70.826  47.273   9.839  1.00  0.00     0.010 C 
ENDROOT
BRANCH  11  19
HETATM   19  O2  UNL     1      66.595  53.837  11.032  1.00  0.00    -0.316 OA
BRANCH  19  20
HETATM   20  C12 UNL     1      65.906  54.663  11.851  1.00  0.00     0.259 C 
HETATM   21  O3  UNL     1      66.433  55.705  12.244  1.00  0.00    -0.265 OA
BRANCH  20  22
HETATM   22  C13 UNL     1      64.529  54.319  12.272  1.00  0.00     0.111 C 
BRANCH  22  23
HETATM   23  C14 UNL     1      63.759  53.684  11.117  1.00  0.00     0.010 C 
BRANCH  23  24
HETATM   24  C15 UNL     1      62.797  52.632  11.572  1.00  0.00     0.011 C 
BRANCH  24  25
HETATM   25  C16 UNL     1      62.986  51.328  10.869  1.00  0.00     0.113 C 
BRANCH  25  26
HETATM   26  C17 UNL     1      63.329  50.283  11.870  1.00  0.00     0.172 C 
HETATM   27  O4  UNL     1      63.559  50.588  13.061  1.00  0.00    -0.648 OA
HETATM   28  O5  UNL     1      63.400  48.951  11.502  1.00  0.00    -0.648 OA
ENDBRANCH  25  26
ENDBRANCH  24  25
ENDBRANCH  23  24
ENDBRANCH  22  23
ENDBRANCH  20  22
ENDBRANCH  19  20
ENDBRANCH  11  19
BRANCH   9  29
HETATM   29  O1  UNL     1      70.121  51.496   9.283  1.00  0.00    -0.389 OA
ATOM     30  H1  UNL     1      70.886  52.060   9.281  1.00  0.00     0.210 HD
ENDBRANCH   9  29
TORSDOF 8
ENDMDL
