MODEL 1
REMARK VINA RESULT: -9.012849408      0.000      0.000
REMARK  6 active torsions:
REMARK  status: ('A' for Active; 'I' for Inactive)
REMARK    1  A    between atoms: C1_2  and  C2_4 
REMARK    2  A    between atoms: C5_7  and  C6_8 
REMARK    3  A    between atoms: C6_8  and  N1_9 
REMARK    4  A    between atoms: N1_9  and  C7_12 
REMARK    5  A    between atoms: C10_15  and  C11_16 
REMARK    6  A    between atoms: C11_16  and  C12_17 
ROOT
HETATM    1  C7  UNL     1      64.593  51.362  11.525  1.00  0.00     0.186 C 
HETATM    2  C8  UNL     1      65.536  52.439  11.194  1.00  0.00     0.033 C 
HETATM    3  C9  UNL     1      66.696  52.631  12.159  1.00  0.00     0.007 C 
HETATM    4  C10 UNL     1      67.183  51.272  12.518  1.00  0.00    -0.014 C 
HETATM    5  C23 UNL     1      66.112  50.698  13.439  1.00  0.00     0.007 C 
HETATM    6  C24 UNL     1      64.801  50.608  12.774  1.00  0.00     0.033 C 
ENDROOT
BRANCH   4   7
HETATM    7  C11 UNL     1      68.536  51.116  13.067  1.00  0.00     0.011 C 
BRANCH   7   8
HETATM    8  C12 UNL     1      69.720  51.193  12.198  1.00  0.00     0.025 C 
HETATM    9  C13 UNL     1      70.832  50.427  12.971  1.00  0.00     0.025 C 
HETATM   10  C14 UNL     1      71.597  51.336  13.867  1.00  0.00     0.007 C 
HETATM   11  C18 UNL     1      71.749  49.991  11.837  1.00  0.00     0.228 C 
HETATM   12  C15 UNL     1      72.982  50.736  14.076  1.00  0.00     0.001 C 
HETATM   13  C16 UNL     1      72.977  49.241  13.818  1.00  0.00     0.002 C 
HETATM   14  C17 UNL     1      72.647  48.915  12.388  1.00  0.00     0.036 C 
HETATM   15  N2  UNL     1      70.766  49.465  10.915  1.00  0.00     0.098 N 
HETATM   16  C19 UNL     1      71.298  49.407   9.594  1.00  0.00     0.273 C 
HETATM   17  C22 UNL     1      69.661  50.422  10.927  1.00  0.00     0.228 C 
HETATM   18  C20 UNL     1      70.484  50.322   8.719  1.00  0.00     0.032 C 
HETATM   19  C21 UNL     1      69.922  51.299   9.710  1.00  0.00     0.038 C 
ENDBRANCH   7   8
ENDBRANCH   4   7
BRANCH   1  20
HETATM   20  N1  UNL     1      64.493  50.427  10.419  1.00  0.00    -0.065 N 
ATOM     21  H12 UNL     1      65.285  50.533   9.784  1.00  0.00     0.278 HD
ATOM     22  H11 UNL     1      63.734  50.692   9.791  1.00  0.00     0.278 HD
BRANCH  20  23
HETATM   23  C6  UNL     1      64.355  49.058  10.831  1.00  0.00     0.297 C 
BRANCH  23  24
HETATM   24  C5  UNL     1      65.408  48.277  10.105  1.00  0.00     0.079 A 
HETATM   25  C4  UNL     1      66.735  48.619   9.952  1.00  0.00     0.037 A 
HETATM   26  C3  UNL     1      67.348  47.632   9.222  1.00  0.00     0.047 A 
HETATM   27  C2  UNL     1      66.360  46.705   8.950  1.00  0.00     0.152 A 
HETATM   28  O3  UNL     1      65.234  47.123   9.486  1.00  0.00    -0.306 OA
BRANCH  27  29
HETATM   29  C1  UNL     1      66.579  45.491   8.193  1.00  0.00     0.234 C 
HETATM   30  O1  UNL     1      67.733  45.111   7.879  1.00  0.00    -0.642 OA
HETATM   31  O2  UNL     1      65.452  44.742   7.818  1.00  0.00    -0.642 OA
ENDBRANCH  27  29
ENDBRANCH  23  24
ENDBRANCH  20  23
ENDBRANCH   1  20
TORSDOF 6
ENDMDL
MODEL 2
REMARK VINA RESULT: -8.783353996      3.467      6.894
REMARK  6 active torsions:
REMARK  status: ('A' for Active; 'I' for Inactive)
REMARK    1  A    between atoms: C1_2  and  C2_4 
REMARK    2  A    between atoms: C5_7  and  C6_8 
REMARK    3  A    between atoms: C6_8  and  N1_9 
REMARK    4  A    between atoms: N1_9  and  C7_12 
REMARK    5  A    between atoms: C10_15  and  C11_16 
REMARK    6  A    between atoms: C11_16  and  C12_17 
ROOT
HETATM    1  C7  UNL     1      72.277  48.574  10.788  1.00  0.00     0.186 C 
HETATM    2  C8  UNL     1      70.886  48.524  10.316  1.00  0.00     0.033 C 
HETATM    3  C9  UNL     1      69.857  49.214  11.200  1.00  0.00     0.007 C 
HETATM    4  C10 UNL     1      70.468  50.494  11.647  1.00  0.00    -0.014 C 
HETATM    5  C23 UNL     1      71.526  50.093  12.669  1.00  0.00     0.007 C 
HETATM    6  C24 UNL     1      72.556  49.217  12.084  1.00  0.00     0.033 C 
ENDROOT
BRANCH   4   7
HETATM    7  C11 UNL     1      69.598  51.571  12.137  1.00  0.00     0.011 C 
BRANCH   7   8
HETATM    8  C12 UNL     1      68.584  52.183  11.263  1.00  0.00     0.025 C 
HETATM    9  C13 UNL     1      67.232  51.950  11.998  1.00  0.00     0.025 C 
HETATM   10  C14 UNL     1      66.608  50.661  11.594  1.00  0.00     0.007 C 
HETATM   11  C18 UNL     1      66.384  53.086  11.444  1.00  0.00     0.228 C 
HETATM   12  C15 UNL     1      65.103  50.780  11.805  1.00  0.00     0.001 C 
HETATM   13  C16 UNL     1      64.775  51.857  12.821  1.00  0.00     0.002 C 
HETATM   14  C17 UNL     1      65.189  53.223  12.351  1.00  0.00     0.036 C 
HETATM   15  N2  UNL     1      67.315  54.183  11.594  1.00  0.00     0.098 N 
HETATM   16  C19 UNL     1      66.952  55.269  10.744  1.00  0.00     0.273 C 
HETATM   17  C22 UNL     1      68.609  53.666  11.156  1.00  0.00     0.228 C 
HETATM   18  C20 UNL     1      68.066  55.485   9.755  1.00  0.00     0.032 C 
HETATM   19  C21 UNL     1      68.722  54.137   9.711  1.00  0.00     0.038 C 
ENDBRANCH   7   8
ENDBRANCH   4   7
BRANCH   1  20
HETATM   20  N1  UNL     1      73.128  49.168   9.772  1.00  0.00    -0.065 N 
ATOM     21  H12 UNL     1      73.837  48.502   9.463  1.00  0.00     0.278 HD
ATOM     22  H11 UNL     1      73.731  49.882  10.181  1.00  0.00     0.278 HD
BRANCH  20  23
HETATM   23  C6  UNL     1      72.405  49.697   8.649  1.00  0.00     0.297 C 
BRANCH  23  24
HETATM   24  C5  UNL     1      73.083  49.183   7.415  1.00  0.00     0.079 A 
HETATM   25  C4  UNL     1      74.434  48.970   7.241  1.00  0.00     0.037 A 
HETATM   26  C3  UNL     1      74.630  48.498   5.968  1.00  0.00     0.047 A 
HETATM   27  C2  UNL     1      73.372  48.436   5.398  1.00  0.00     0.152 A 
HETATM   28  O3  UNL     1      72.491  48.849   6.283  1.00  0.00    -0.306 OA
BRANCH  27  29
HETATM   29  C1  UNL     1      73.119  47.985   4.047  1.00  0.00     0.234 C 
HETATM   30  O1  UNL     1      72.316  48.587   3.293  1.00  0.00    -0.642 OA
HETATM   31  O2  UNL     1      73.805  46.846   3.597  1.00  0.00    -0.642 OA
ENDBRANCH  27  29
ENDBRANCH  23  24
ENDBRANCH  20  23
ENDBRANCH   1  20
TORSDOF 6
ENDMDL
MODEL 3
REMARK VINA RESULT: -8.766047292      1.726      2.220
REMARK  6 active torsions:
REMARK  status: ('A' for Active; 'I' for Inactive)
REMARK    1  A    between atoms: C1_2  and  C2_4 
REMARK    2  A    between atoms: C5_7  and  C6_8 
REMARK    3  A    between atoms: C6_8  and  N1_9 
REMARK    4  A    between atoms: N1_9  and  C7_12 
REMARK    5  A    between atoms: C10_15  and  C11_16 
REMARK    6  A    between atoms: C11_16  and  C12_17 
ROOT
HETATM    1  C7  UNL     1      64.635  51.234  11.375  1.00  0.00     0.186 C 
HETATM    2  C8  UNL     1      65.480  52.422  11.194  1.00  0.00     0.033 C 
HETATM    3  C9  UNL     1      66.590  52.613  12.217  1.00  0.00     0.007 C 
HETATM    4  C10 UNL     1      67.194  51.273  12.448  1.00  0.00    -0.014 C 
HETATM    5  C23 UNL     1      66.157  50.507  13.263  1.00  0.00     0.007 C 
HETATM    6  C24 UNL     1      64.879  50.370  12.545  1.00  0.00     0.033 C 
ENDROOT
BRANCH   4   7
HETATM    7  C11 UNL     1      68.540  51.183  13.027  1.00  0.00     0.011 C 
BRANCH   7   8
HETATM    8  C12 UNL     1      69.738  51.255  12.176  1.00  0.00     0.025 C 
HETATM    9  C13 UNL     1      70.830  50.469  12.958  1.00  0.00     0.025 C 
HETATM   10  C14 UNL     1      71.591  51.361  13.874  1.00  0.00     0.007 C 
HETATM   11  C18 UNL     1      71.758  50.034  11.833  1.00  0.00     0.228 C 
HETATM   12  C15 UNL     1      72.967  50.743  14.097  1.00  0.00     0.001 C 
HETATM   13  C16 UNL     1      72.949  49.251  13.825  1.00  0.00     0.002 C 
HETATM   14  C17 UNL     1      72.636  48.943  12.387  1.00  0.00     0.036 C 
HETATM   15  N2  UNL     1      70.782  49.528  10.892  1.00  0.00     0.098 N 
HETATM   16  C19 UNL     1      71.333  49.477   9.578  1.00  0.00     0.273 C 
HETATM   17  C22 UNL     1      69.689  50.497  10.897  1.00  0.00     0.228 C 
HETATM   18  C20 UNL     1      70.542  50.409   8.700  1.00  0.00     0.032 C 
HETATM   19  C21 UNL     1      69.977  51.383   9.692  1.00  0.00     0.038 C 
ENDBRANCH   7   8
ENDBRANCH   4   7
BRANCH   1  20
HETATM   20  N1  UNL     1      64.654  50.418  10.174  1.00  0.00    -0.065 N 
ATOM     21  H12 UNL     1      65.068  50.932   9.396  1.00  0.00     0.278 HD
ATOM     22  H11 UNL     1      63.709  50.290   9.811  1.00  0.00     0.278 HD
BRANCH  20  23
HETATM   23  C6  UNL     1      65.306  49.150  10.347  1.00  0.00     0.297 C 
BRANCH  23  24
HETATM   24  C5  UNL     1      64.423  48.117   9.716  1.00  0.00     0.079 A 
HETATM   25  C4  UNL     1      64.532  47.601   8.441  1.00  0.00     0.037 A 
HETATM   26  C3  UNL     1      63.527  46.684   8.265  1.00  0.00     0.047 A 
HETATM   27  C2  UNL     1      62.827  46.669   9.457  1.00  0.00     0.152 A 
HETATM   28  O3  UNL     1      63.386  47.527  10.282  1.00  0.00    -0.306 OA
BRANCH  27  29
HETATM   29  C1  UNL     1      61.673  45.831   9.705  1.00  0.00     0.234 C 
HETATM   30  O1  UNL     1      60.996  45.939  10.756  1.00  0.00    -0.642 OA
HETATM   31  O2  UNL     1      61.329  44.886   8.726  1.00  0.00    -0.642 OA
ENDBRANCH  27  29
ENDBRANCH  23  24
ENDBRANCH  20  23
ENDBRANCH   1  20
TORSDOF 6
ENDMDL
MODEL 4
REMARK VINA RESULT: -8.724247971      3.287      6.839
REMARK  6 active torsions:
REMARK  status: ('A' for Active; 'I' for Inactive)
REMARK    1  A    between atoms: C1_2  and  C2_4 
REMARK    2  A    between atoms: C5_7  and  C6_8 
REMARK    3  A    between atoms: C6_8  and  N1_9 
REMARK    4  A    between atoms: N1_9  and  C7_12 
REMARK    5  A    between atoms: C10_15  and  C11_16 
REMARK    6  A    between atoms: C11_16  and  C12_17 
ROOT
HETATM    1  C7  UNL     1      72.408  48.595  10.890  1.00  0.00     0.186 C 
HETATM    2  C8  UNL     1      71.037  48.555  10.364  1.00  0.00     0.033 C 
HETATM    3  C9  UNL     1      69.976  49.236  11.216  1.00  0.00     0.007 C 
HETATM    4  C10 UNL     1      70.571  50.509  11.703  1.00  0.00    -0.014 C 
HETATM    5  C23 UNL     1      71.588  50.091  12.760  1.00  0.00     0.007 C 
HETATM    6  C24 UNL     1      72.637  49.221  12.205  1.00  0.00     0.033 C 
ENDROOT
BRANCH   4   7
HETATM    7  C11 UNL     1      69.685  51.582  12.171  1.00  0.00     0.011 C 
BRANCH   7   8
HETATM    8  C12 UNL     1      68.666  52.165  11.285  1.00  0.00     0.025 C 
HETATM    9  C13 UNL     1      67.314  51.921  12.017  1.00  0.00     0.025 C 
HETATM   10  C14 UNL     1      66.713  50.617  11.629  1.00  0.00     0.007 C 
HETATM   11  C18 UNL     1      66.451  53.035  11.443  1.00  0.00     0.228 C 
HETATM   12  C15 UNL     1      65.205  50.714  11.832  1.00  0.00     0.001 C 
HETATM   13  C16 UNL     1      64.855  51.799  12.831  1.00  0.00     0.002 C 
HETATM   14  C17 UNL     1      65.250  53.166  12.343  1.00  0.00     0.036 C 
HETATM   15  N2  UNL     1      67.363  54.149  11.582  1.00  0.00     0.098 N 
HETATM   16  C19 UNL     1      66.986  55.216  10.715  1.00  0.00     0.273 C 
HETATM   17  C22 UNL     1      68.667  53.647  11.156  1.00  0.00     0.228 C 
HETATM   18  C20 UNL     1      68.101  55.437   9.728  1.00  0.00     0.032 C 
HETATM   19  C21 UNL     1      68.780  54.098   9.706  1.00  0.00     0.038 C 
ENDBRANCH   7   8
ENDBRANCH   4   7
BRANCH   1  20
HETATM   20  N1  UNL     1      73.300  49.199   9.917  1.00  0.00    -0.065 N 
ATOM     21  H12 UNL     1      73.926  49.866  10.368  1.00  0.00     0.278 HD
ATOM     22  H11 UNL     1      72.788  49.834   9.304  1.00  0.00     0.278 HD
BRANCH  20  23
HETATM   23  C6  UNL     1      74.047  48.244   9.147  1.00  0.00     0.297 C 
BRANCH  23  24
HETATM   24  C5  UNL     1      73.733  48.507   7.706  1.00  0.00     0.079 A 
HETATM   25  C4  UNL     1      74.567  48.302   6.626  1.00  0.00     0.037 A 
HETATM   26  C3  UNL     1      73.891  48.670   5.490  1.00  0.00     0.047 A 
HETATM   27  C2  UNL     1      72.647  49.093   5.920  1.00  0.00     0.152 A 
HETATM   28  O3  UNL     1      72.597  48.982   7.230  1.00  0.00    -0.306 OA
BRANCH  27  29
HETATM   29  C1  UNL     1      71.608  49.573   5.036  1.00  0.00     0.234 C 
HETATM   30  O1  UNL     1      70.493  49.949   5.474  1.00  0.00    -0.642 OA
HETATM   31  O2  UNL     1      71.884  49.609   3.660  1.00  0.00    -0.642 OA
ENDBRANCH  27  29
ENDBRANCH  23  24
ENDBRANCH  20  23
ENDBRANCH   1  20
TORSDOF 6
ENDMDL
MODEL 5
REMARK VINA RESULT: -8.687449305      4.147      7.255
REMARK  6 active torsions:
REMARK  status: ('A' for Active; 'I' for Inactive)
REMARK    1  A    between atoms: C1_2  and  C2_4 
REMARK    2  A    between atoms: C5_7  and  C6_8 
REMARK    3  A    between atoms: C6_8  and  N1_9 
REMARK    4  A    between atoms: N1_9  and  C7_12 
REMARK    5  A    between atoms: C10_15  and  C11_16 
REMARK    6  A    between atoms: C11_16  and  C12_17 
ROOT
HETATM    1  C7  UNL     1      74.530  47.202   7.513  1.00  0.00     0.186 C 
HETATM    2  C8  UNL     1      73.238  46.678   7.976  1.00  0.00     0.033 C 
HETATM    3  C9  UNL     1      72.545  47.480   9.068  1.00  0.00     0.007 C 
HETATM    4  C10 UNL     1      72.706  48.915   8.712  1.00  0.00    -0.014 C 
HETATM    5  C23 UNL     1      74.172  49.230   8.986  1.00  0.00     0.007 C 
HETATM    6  C24 UNL     1      75.077  48.401   8.172  1.00  0.00     0.033 C 
ENDROOT
BRANCH   4   7
HETATM    7  C11 UNL     1      71.800  49.907   9.305  1.00  0.00     0.011 C 
BRANCH   7   8
HETATM    8  C12 UNL     1      70.930  49.557  10.439  1.00  0.00     0.025 C 
HETATM    9  C13 UNL     1      71.596  50.229  11.674  1.00  0.00     0.025 C 
HETATM   10  C14 UNL     1      72.580  49.321  12.323  1.00  0.00     0.007 C 
HETATM   11  C18 UNL     1      70.408  50.393  12.611  1.00  0.00     0.228 C 
HETATM   12  C15 UNL     1      72.702  49.726  13.787  1.00  0.00     0.001 C 
HETATM   13  C16 UNL     1      72.275  51.166  13.995  1.00  0.00     0.002 C 
HETATM   14  C17 UNL     1      70.821  51.377  13.674  1.00  0.00     0.036 C 
HETATM   15  N2  UNL     1      69.444  50.954  11.689  1.00  0.00     0.098 N 
HETATM   16  C19 UNL     1      68.119  50.784  12.185  1.00  0.00     0.273 C 
HETATM   17  C22 UNL     1      69.580  50.182  10.457  1.00  0.00     0.228 C 
HETATM   18  C20 UNL     1      67.364  49.910  11.219  1.00  0.00     0.032 C 
HETATM   19  C21 UNL     1      68.468  49.145  10.549  1.00  0.00     0.038 C 
ENDBRANCH   7   8
ENDBRANCH   4   7
BRANCH   1  20
HETATM   20  N1  UNL     1      74.494  47.425   6.079  1.00  0.00    -0.065 N 
ATOM     21  H12 UNL     1      75.314  47.015   5.630  1.00  0.00     0.278 HD
ATOM     22  H11 UNL     1      74.656  48.409   5.863  1.00  0.00     0.278 HD
BRANCH  20  23
HETATM   23  C6  UNL     1      73.288  46.961   5.451  1.00  0.00     0.297 C 
BRANCH  23  24
HETATM   24  C5  UNL     1      72.594  48.168   4.899  1.00  0.00     0.079 A 
HETATM   25  C4  UNL     1      71.915  49.133   5.614  1.00  0.00     0.037 A 
HETATM   26  C3  UNL     1      71.431  50.060   4.726  1.00  0.00     0.047 A 
HETATM   27  C2  UNL     1      71.837  49.625   3.478  1.00  0.00     0.152 A 
HETATM   28  O3  UNL     1      72.517  48.508   3.625  1.00  0.00    -0.306 OA
BRANCH  27  29
HETATM   29  C1  UNL     1      71.535  50.317   2.244  1.00  0.00     0.234 C 
HETATM   30  O1  UNL     1      71.158  51.514   2.237  1.00  0.00    -0.642 OA
HETATM   31  O2  UNL     1      71.680  49.607   1.043  1.00  0.00    -0.642 OA
ENDBRANCH  27  29
ENDBRANCH  23  24
ENDBRANCH  20  23
ENDBRANCH   1  20
TORSDOF 6
ENDMDL
