MODEL 1
REMARK VINA RESULT: -7.665450483      0.000      0.000
REMARK  9 active torsions:
REMARK  status: ('A' for Active; 'I' for Inactive)
REMARK    1  A    between atoms: C2_2  and  C3_3 
REMARK    2  A    between atoms: C3_3  and  C5_5 
REMARK    3  A    between atoms: C5_5  and  C6_6 
REMARK    4  A    between atoms: C6_6  and  O1_7 
REMARK    5  A    between atoms: C6_6  and  C7_9 
REMARK    6  A    between atoms: C8_10  and  C9_11 
REMARK    7  A    between atoms: C9_11  and  C11_13 
REMARK    8  A    between atoms: C16_18  and  O2_19 
REMARK    9  A    between atoms: C19_22  and  O3_23 
ROOT
HETATM    1  C11 UNL     1      72.382  48.666   9.475  1.00  0.00    -0.006 C 
HETATM    2  C12 UNL     1      71.269  49.646   9.091  1.00  0.00     0.019 C 
HETATM    3  C13 UNL     1      71.926  47.262   9.442  1.00  0.00     0.013 C 
HETATM    4  C14 UNL     1      71.587  46.634   8.149  1.00  0.00     0.010 C 
HETATM    5  C15 UNL     1      72.635  46.651   7.057  1.00  0.00     0.044 C 
HETATM    6  C16 UNL     1      73.956  46.453   7.745  1.00  0.00     0.130 C 
HETATM    7  C18 UNL     1      74.457  47.624   8.501  1.00  0.00     0.071 C 
HETATM    8  C19 UNL     1      73.604  48.843   8.602  1.00  0.00     0.069 C 
HETATM    9  C20 UNL     1      73.424  49.596   7.315  1.00  0.00     0.053 C 
HETATM   10  C21 UNL     1      73.453  48.833   6.057  1.00  0.00     0.011 C 
HETATM   11  C22 UNL     1      74.788  48.575   5.410  1.00  0.00     0.020 C 
HETATM   12  C23 UNL     1      72.540  49.130   4.904  1.00  0.00     0.128 C 
HETATM   13  C24 UNL     1      71.312  49.890   5.033  1.00  0.00     0.040 C 
HETATM   14  O4  UNL     1      72.485  47.709   4.772  1.00  0.00    -0.379 OA
HETATM   15  C25 UNL     1      72.454  47.733   6.151  1.00  0.00     0.139 C 
ENDROOT
BRANCH   1  16
HETATM   16  C9  UNL     1      72.615  49.048  10.931  1.00  0.00     0.015 C 
HETATM   17  C10 UNL     1      72.907  47.956  11.891  1.00  0.00     0.015 C 
BRANCH  16  18
HETATM   18  C8  UNL     1      71.452  49.764  11.527  1.00  0.00    -0.023 C 
HETATM   19  C7  UNL     1      71.471  50.368  12.705  1.00  0.00     0.001 C 
BRANCH  19  20
HETATM   20  C6  UNL     1      70.306  51.063  13.260  1.00  0.00     0.141 C 
BRANCH  20  21
HETATM   21  C5  UNL     1      69.732  51.979  12.232  1.00  0.00     0.040 C 
BRANCH  21  22
HETATM   22  C3  UNL     1      68.262  51.757  11.987  1.00  0.00    -0.016 C 
HETATM   23  C4  UNL     1      67.613  50.914  13.043  1.00  0.00     0.010 C 
BRANCH  22  24
HETATM   24  C2  UNL     1      68.079  51.065  10.652  1.00  0.00    -0.000 C 
HETATM   25  C1  UNL     1      67.845  49.595  10.796  1.00  0.00     0.005 C 
ENDBRANCH  22  24
ENDBRANCH  21  22
ENDBRANCH  20  21
BRANCH  20  26
HETATM   26  O1  UNL     1      70.738  51.863  14.341  1.00  0.00    -0.392 OA
ATOM     27  H1  UNL     1      70.437  51.446  15.139  1.00  0.00     0.210 HD
ENDBRANCH  20  26
ENDBRANCH  19  20
ENDBRANCH  16  18
ENDBRANCH   1  16
BRANCH   8  28
HETATM   28  O3  UNL     1      74.438  49.712   9.374  1.00  0.00    -0.389 OA
ATOM     29  H3  UNL     1      74.825  50.282   8.720  1.00  0.00     0.210 HD
ENDBRANCH   8  28
BRANCH   6  30
HETATM   30  O2  UNL     1      74.919  45.882   6.911  1.00  0.00    -0.390 OA
HETATM   31  C17 UNL     1      74.546  44.716   6.303  1.00  0.00     0.202 C 
ENDBRANCH   6  30
TORSDOF 9
ENDMDL
MODEL 2
REMARK VINA RESULT: -7.358368816      2.174      7.781
REMARK  9 active torsions:
REMARK  status: ('A' for Active; 'I' for Inactive)
REMARK    1  A    between atoms: C2_2  and  C3_3 
REMARK    2  A    between atoms: C3_3  and  C5_5 
REMARK    3  A    between atoms: C5_5  and  C6_6 
REMARK    4  A    between atoms: C6_6  and  O1_7 
REMARK    5  A    between atoms: C6_6  and  C7_9 
REMARK    6  A    between atoms: C8_10  and  C9_11 
REMARK    7  A    between atoms: C9_11  and  C11_13 
REMARK    8  A    between atoms: C16_18  and  O2_19 
REMARK    9  A    between atoms: C19_22  and  O3_23 
ROOT
HETATM    1  C11 UNL     1      69.866  50.097  10.149  1.00  0.00    -0.006 C 
HETATM    2  C12 UNL     1      70.485  50.997   9.076  1.00  0.00     0.019 C 
HETATM    3  C13 UNL     1      70.572  50.201  11.442  1.00  0.00     0.013 C 
HETATM    4  C14 UNL     1      70.501  51.457  12.215  1.00  0.00     0.010 C 
HETATM    5  C15 UNL     1      69.131  52.001  12.560  1.00  0.00     0.044 C 
HETATM    6  C16 UNL     1      68.272  50.805  12.856  1.00  0.00     0.130 C 
HETATM    7  C18 UNL     1      67.865  50.010  11.675  1.00  0.00     0.071 C 
HETATM    8  C19 UNL     1      68.391  50.383  10.331  1.00  0.00     0.069 C 
HETATM    9  C20 UNL     1      67.874  51.684   9.788  1.00  0.00     0.053 C 
HETATM   10  C21 UNL     1      67.520  52.742  10.748  1.00  0.00     0.011 C 
HETATM   11  C22 UNL     1      66.132  52.740  11.332  1.00  0.00     0.020 C 
HETATM   12  C23 UNL     1      67.810  54.194  10.501  1.00  0.00     0.128 C 
HETATM   13  C24 UNL     1      68.785  54.661   9.535  1.00  0.00     0.040 C 
HETATM   14  O4  UNL     1      68.123  54.215  11.895  1.00  0.00    -0.379 OA
HETATM   15  C25 UNL     1      68.692  52.987  11.632  1.00  0.00     0.139 C 
ENDROOT
BRANCH   1  16
HETATM   16  C9  UNL     1      70.150  48.717   9.570  1.00  0.00     0.015 C 
HETATM   17  C10 UNL     1      70.868  47.745  10.429  1.00  0.00     0.015 C 
BRANCH  16  18
HETATM   18  C8  UNL     1      70.962  48.777   8.322  1.00  0.00    -0.023 C 
HETATM   19  C7  UNL     1      71.845  47.860   7.961  1.00  0.00     0.001 C 
BRANCH  19  20
HETATM   20  C6  UNL     1      72.626  47.952   6.724  1.00  0.00     0.141 C 
BRANCH  20  21
HETATM   21  C5  UNL     1      72.437  49.300   6.112  1.00  0.00     0.040 C 
BRANCH  21  22
HETATM   22  C3  UNL     1      71.714  49.262   4.792  1.00  0.00    -0.016 C 
HETATM   23  C4  UNL     1      72.643  49.184   3.617  1.00  0.00     0.010 C 
BRANCH  22  24
HETATM   24  C2  UNL     1      70.875  50.515   4.647  1.00  0.00    -0.000 C 
HETATM   25  C1  UNL     1      70.928  51.083   3.265  1.00  0.00     0.005 C 
ENDBRANCH  22  24
ENDBRANCH  21  22
ENDBRANCH  20  21
BRANCH  20  26
HETATM   26  O1  UNL     1      72.123  47.001   5.808  1.00  0.00    -0.392 OA
ATOM     27  H1  UNL     1      72.799  46.851   5.158  1.00  0.00     0.210 HD
ENDBRANCH  20  26
ENDBRANCH  19  20
ENDBRANCH  16  18
ENDBRANCH   1  16
BRANCH   8  28
HETATM   28  O3  UNL     1      67.761  49.407   9.496  1.00  0.00    -0.389 OA
ATOM     29  H3  UNL     1      66.904  49.303   9.891  1.00  0.00     0.210 HD
ENDBRANCH   8  28
BRANCH   6  30
HETATM   30  O2  UNL     1      67.211  51.103  13.714  1.00  0.00    -0.390 OA
HETATM   31  C17 UNL     1      66.170  50.218  13.680  1.00  0.00     0.202 C 
ENDBRANCH   6  30
TORSDOF 9
ENDMDL
MODEL 3
REMARK VINA RESULT: -7.322006050      3.389      8.693
REMARK  9 active torsions:
REMARK  status: ('A' for Active; 'I' for Inactive)
REMARK    1  A    between atoms: C2_2  and  C3_3 
REMARK    2  A    between atoms: C3_3  and  C5_5 
REMARK    3  A    between atoms: C5_5  and  C6_6 
REMARK    4  A    between atoms: C6_6  and  O1_7 
REMARK    5  A    between atoms: C6_6  and  C7_9 
REMARK    6  A    between atoms: C8_10  and  C9_11 
REMARK    7  A    between atoms: C9_11  and  C11_13 
REMARK    8  A    between atoms: C16_18  and  O2_19 
REMARK    9  A    between atoms: C19_22  and  O3_23 
ROOT
HETATM    1  C11 UNL     1      67.162  50.432  10.607  1.00  0.00    -0.006 C 
HETATM    2  C12 UNL     1      67.868  51.694  10.105  1.00  0.00     0.019 C 
HETATM    3  C13 UNL     1      67.604  50.044  11.962  1.00  0.00     0.013 C 
HETATM    4  C14 UNL     1      67.261  50.900  13.116  1.00  0.00     0.010 C 
HETATM    5  C15 UNL     1      65.802  51.231  13.344  1.00  0.00     0.044 C 
HETATM    6  C16 UNL     1      65.034  49.991  12.984  1.00  0.00     0.130 C 
HETATM    7  C18 UNL     1      64.935  49.706  11.534  1.00  0.00     0.071 C 
HETATM    8  C19 UNL     1      65.657  50.585  10.570  1.00  0.00     0.069 C 
HETATM    9  C20 UNL     1      65.113  51.981  10.458  1.00  0.00     0.053 C 
HETATM   10  C21 UNL     1      64.479  52.573  11.647  1.00  0.00     0.011 C 
HETATM   11  C22 UNL     1      63.017  52.307  11.883  1.00  0.00     0.020 C 
HETATM   12  C23 UNL     1      64.655  54.014  12.029  1.00  0.00     0.128 C 
HETATM   13  C24 UNL     1      65.735  54.846  11.536  1.00  0.00     0.040 C 
HETATM   14  O4  UNL     1      64.704  53.501  13.362  1.00  0.00    -0.379 OA
HETATM   15  C25 UNL     1      65.438  52.487  12.783  1.00  0.00     0.139 C 
ENDROOT
BRANCH   1  16
HETATM   16  C9  UNL     1      67.690  49.394   9.627  1.00  0.00     0.015 C 
HETATM   17  C10 UNL     1      67.299  47.980   9.844  1.00  0.00     0.015 C 
BRANCH  16  18
HETATM   18  C8  UNL     1      69.180  49.361   9.576  1.00  0.00    -0.023 C 
HETATM   19  C7  UNL     1      69.923  48.392  10.086  1.00  0.00     0.001 C 
BRANCH  19  20
HETATM   20  C6  UNL     1      71.387  48.395  10.017  1.00  0.00     0.141 C 
BRANCH  20  21
HETATM   21  C5  UNL     1      71.922  49.583  10.743  1.00  0.00     0.040 C 
BRANCH  21  22
HETATM   22  C3  UNL     1      71.571  49.597  12.208  1.00  0.00    -0.016 C 
HETATM   23  C4  UNL     1      71.095  50.937  12.684  1.00  0.00     0.010 C 
BRANCH  22  24
HETATM   24  C2  UNL     1      72.794  49.216  13.016  1.00  0.00    -0.000 C 
HETATM   25  C1  UNL     1      73.079  50.188  14.116  1.00  0.00     0.005 C 
ENDBRANCH  22  24
ENDBRANCH  21  22
ENDBRANCH  20  21
BRANCH  20  26
HETATM   26  O1  UNL     1      71.769  48.523   8.662  1.00  0.00    -0.392 OA
ATOM     27  H1  UNL     1      72.109  47.682   8.384  1.00  0.00     0.210 HD
ENDBRANCH  20  26
ENDBRANCH  19  20
ENDBRANCH  16  18
ENDBRANCH   1  16
BRANCH   8  28
HETATM   28  O3  UNL     1      65.296  49.994   9.318  1.00  0.00    -0.389 OA
ATOM     29  H3  UNL     1      64.899  50.713   8.843  1.00  0.00     0.210 HD
ENDBRANCH   8  28
BRANCH   6  30
HETATM   30  O2  UNL     1      63.808  49.903  13.648  1.00  0.00    -0.390 OA
HETATM   31  C17 UNL     1      63.091  48.767  13.399  1.00  0.00     0.202 C 
ENDBRANCH   6  30
TORSDOF 9
ENDMDL
MODEL 4
REMARK VINA RESULT: -7.222420023      2.199      7.717
REMARK  9 active torsions:
REMARK  status: ('A' for Active; 'I' for Inactive)
REMARK    1  A    between atoms: C2_2  and  C3_3 
REMARK    2  A    between atoms: C3_3  and  C5_5 
REMARK    3  A    between atoms: C5_5  and  C6_6 
REMARK    4  A    between atoms: C6_6  and  O1_7 
REMARK    5  A    between atoms: C6_6  and  C7_9 
REMARK    6  A    between atoms: C8_10  and  C9_11 
REMARK    7  A    between atoms: C9_11  and  C11_13 
REMARK    8  A    between atoms: C16_18  and  O2_19 
REMARK    9  A    between atoms: C19_22  and  O3_23 
ROOT
HETATM    1  C11 UNL     1      69.696  50.190   9.939  1.00  0.00    -0.006 C 
HETATM    2  C12 UNL     1      70.322  51.148   8.921  1.00  0.00     0.019 C 
HETATM    3  C13 UNL     1      70.429  50.180  11.221  1.00  0.00     0.013 C 
HETATM    4  C14 UNL     1      70.409  51.379  12.083  1.00  0.00     0.010 C 
HETATM    5  C15 UNL     1      69.062  51.935  12.494  1.00  0.00     0.044 C 
HETATM    6  C16 UNL     1      68.174  50.745  12.721  1.00  0.00     0.130 C 
HETATM    7  C18 UNL     1      67.721  50.050  11.495  1.00  0.00     0.071 C 
HETATM    8  C19 UNL     1      68.234  50.504  10.170  1.00  0.00     0.069 C 
HETATM    9  C20 UNL     1      67.746  51.856   9.733  1.00  0.00     0.053 C 
HETATM   10  C21 UNL     1      67.441  52.850  10.773  1.00  0.00     0.011 C 
HETATM   11  C22 UNL     1      66.065  52.845  11.384  1.00  0.00     0.020 C 
HETATM   12  C23 UNL     1      67.770  54.307  10.626  1.00  0.00     0.128 C 
HETATM   13  C24 UNL     1      68.740  54.816   9.677  1.00  0.00     0.040 C 
HETATM   14  O4  UNL     1      68.109  54.219  12.011  1.00  0.00    -0.379 OA
HETATM   15  C25 UNL     1      68.636  52.997  11.649  1.00  0.00     0.139 C 
ENDROOT
BRANCH   1  16
HETATM   16  C9  UNL     1      69.929  48.849   9.256  1.00  0.00     0.015 C 
HETATM   17  C10 UNL     1      70.384  47.718  10.099  1.00  0.00     0.015 C 
BRANCH  16  18
HETATM   18  C8  UNL     1      70.943  48.930   8.167  1.00  0.00    -0.023 C 
HETATM   19  C7  UNL     1      71.504  47.878   7.591  1.00  0.00     0.001 C 
BRANCH  19  20
HETATM   20  C6  UNL     1      72.499  47.997   6.521  1.00  0.00     0.141 C 
BRANCH  20  21
HETATM   21  C5  UNL     1      73.293  49.245   6.710  1.00  0.00     0.040 C 
BRANCH  21  22
HETATM   22  C3  UNL     1      74.555  49.036   7.505  1.00  0.00    -0.016 C 
HETATM   23  C4  UNL     1      74.882  47.588   7.716  1.00  0.00     0.010 C 
BRANCH  22  24
HETATM   24  C2  UNL     1      74.402  49.689   8.863  1.00  0.00    -0.000 C 
HETATM   25  C1  UNL     1      74.174  48.692   9.955  1.00  0.00     0.005 C 
ENDBRANCH  22  24
ENDBRANCH  21  22
ENDBRANCH  20  21
BRANCH  20  26
HETATM   26  O1  UNL     1      71.817  48.116   5.289  1.00  0.00    -0.392 OA
ATOM     27  H1  UNL     1      71.358  47.298   5.140  1.00  0.00     0.210 HD
ENDBRANCH  20  26
ENDBRANCH  19  20
ENDBRANCH  16  18
ENDBRANCH   1  16
BRANCH   8  28
HETATM   28  O3  UNL     1      67.561  49.610   9.281  1.00  0.00    -0.389 OA
ATOM     29  H3  UNL     1      66.659  49.645   9.577  1.00  0.00     0.210 HD
ENDBRANCH   8  28
BRANCH   6  30
HETATM   30  O2  UNL     1      67.138  51.009  13.620  1.00  0.00    -0.390 OA
HETATM   31  C17 UNL     1      66.072  50.157  13.547  1.00  0.00     0.202 C 
ENDBRANCH   6  30
TORSDOF 9
ENDMDL
MODEL 5
REMARK VINA RESULT: -7.077464450      2.359      7.910
REMARK  9 active torsions:
REMARK  status: ('A' for Active; 'I' for Inactive)
REMARK    1  A    between atoms: C2_2  and  C3_3 
REMARK    2  A    between atoms: C3_3  and  C5_5 
REMARK    3  A    between atoms: C5_5  and  C6_6 
REMARK    4  A    between atoms: C6_6  and  O1_7 
REMARK    5  A    between atoms: C6_6  and  C7_9 
REMARK    6  A    between atoms: C8_10  and  C9_11 
REMARK    7  A    between atoms: C9_11  and  C11_13 
REMARK    8  A    between atoms: C16_18  and  O2_19 
REMARK    9  A    between atoms: C19_22  and  O3_23 
ROOT
HETATM    1  C11 UNL     1      69.572  50.338   9.454  1.00  0.00    -0.006 C 
HETATM    2  C12 UNL     1      68.392  50.224   8.485  1.00  0.00     0.019 C 
HETATM    3  C13 UNL     1      70.121  51.708   9.508  1.00  0.00     0.013 C 
HETATM    4  C14 UNL     1      69.315  52.796  10.096  1.00  0.00     0.010 C 
HETATM    5  C15 UNL     1      68.793  52.611  11.505  1.00  0.00     0.044 C 
HETATM    6  C16 UNL     1      69.877  51.892  12.258  1.00  0.00     0.130 C 
HETATM    7  C18 UNL     1      70.033  50.457  11.927  1.00  0.00     0.071 C 
HETATM    8  C19 UNL     1      69.198  49.866  10.842  1.00  0.00     0.069 C 
HETATM    9  C20 UNL     1      67.733  49.761  11.159  1.00  0.00     0.053 C 
HETATM   10  C21 UNL     1      67.147  50.764  12.062  1.00  0.00     0.011 C 
HETATM   11  C22 UNL     1      67.214  50.515  13.545  1.00  0.00     0.020 C 
HETATM   12  C23 UNL     1      65.781  51.348  11.851  1.00  0.00     0.128 C 
HETATM   13  C24 UNL     1      65.080  51.305  10.582  1.00  0.00     0.040 C 
HETATM   14  O4  UNL     1      66.395  52.563  12.283  1.00  0.00    -0.379 OA
HETATM   15  C25 UNL     1      67.459  52.118  11.527  1.00  0.00     0.139 C 
ENDROOT
BRANCH   1  16
HETATM   16  C9  UNL     1      70.598  49.448   8.766  1.00  0.00     0.015 C 
HETATM   17  C10 UNL     1      72.032  49.778   8.956  1.00  0.00     0.015 C 
BRANCH  16  18
HETATM   18  C8  UNL     1      70.421  49.408   7.287  1.00  0.00    -0.023 C 
HETATM   19  C7  UNL     1      71.313  49.851   6.416  1.00  0.00     0.001 C 
BRANCH  19  20
HETATM   20  C6  UNL     1      71.104  49.794   4.966  1.00  0.00     0.141 C 
BRANCH  20  21
HETATM   21  C5  UNL     1      72.258  49.105   4.319  1.00  0.00     0.040 C 
BRANCH  21  22
HETATM   22  C3  UNL     1      73.175  48.423   5.301  1.00  0.00    -0.016 C 
HETATM   23  C4  UNL     1      74.626  48.689   5.031  1.00  0.00     0.010 C 
BRANCH  22  24
HETATM   24  C2  UNL     1      72.950  46.927   5.236  1.00  0.00    -0.000 C 
HETATM   25  C1  UNL     1      72.565  46.347   6.559  1.00  0.00     0.005 C 
ENDBRANCH  22  24
ENDBRANCH  21  22
ENDBRANCH  20  21
BRANCH  20  26
HETATM   26  O1  UNL     1      71.071  51.116   4.469  1.00  0.00    -0.392 OA
ATOM     27  H1  UNL     1      71.945  51.325   4.165  1.00  0.00     0.210 HD
ENDBRANCH  20  26
ENDBRANCH  19  20
ENDBRANCH  16  18
ENDBRANCH   1  16
BRANCH   8  28
HETATM   28  O3  UNL     1      69.634  48.504  10.856  1.00  0.00    -0.389 OA
ATOM     29  H3  UNL     1      68.926  48.044  10.420  1.00  0.00     0.210 HD
ENDBRANCH   8  28
BRANCH   6  30
HETATM   30  O2  UNL     1      69.835  52.140  13.631  1.00  0.00    -0.390 OA
HETATM   31  C17 UNL     1      70.860  51.595  14.353  1.00  0.00     0.202 C 
ENDBRANCH   6  30
TORSDOF 9
ENDMDL
