MODEL 1
REMARK VINA RESULT: -10.236923849      0.000      0.000
REMARK  9 active torsions:
REMARK  status: ('A' for Active; 'I' for Inactive)
REMARK    1  A    between atoms: N1_6  and  C6_7 
REMARK    2  A    between atoms: C6_7  and  C7_8 
REMARK    3  A    between atoms: C7_8  and  C8_9 
REMARK    4  A    between atoms: C8_9  and  C9_10 
REMARK    5  A    between atoms: C16_17  and  C17_18 
REMARK    6  A    between atoms: C17_18  and  N2_19 
REMARK    7  A    between atoms: N2_19  and  C18_21 
REMARK    8  A    between atoms: C21_24  and  N3_25 
REMARK    9  A    between atoms: N3_25  and  C22_27 
ROOT
HETATM    1  N2  UNL     1      16.782 -39.195   8.886  1.00  0.00    -0.393 N 
ATOM      2  H2  UNL     1      16.294 -38.321   8.691  1.00  0.00     0.159 HD
ENDROOT
BRANCH   1   3
HETATM    3  C17 UNL     1      18.149 -39.235   9.162  1.00  0.00     0.097 C 
BRANCH   3   4
HETATM    4  C16 UNL     1      18.596 -39.869  10.429  1.00  0.00     0.013 A 
HETATM    5  C15 UNL     1      19.573 -40.882  10.347  1.00  0.00     0.015 A 
HETATM    6  C14 UNL     1      20.227 -41.230  11.497  1.00  0.00     0.002 A 
HETATM    7  C13 UNL     1      19.980 -40.642  12.742  1.00  0.00     0.010 A 
HETATM    8  C12 UNL     1      19.016 -39.666  12.791  1.00  0.00    -0.024 A 
HETATM    9  C11 UNL     1      18.716 -39.008  14.071  1.00  0.00     0.044 C 
HETATM   10  C35 UNL     1      18.360 -39.311  11.654  1.00  0.00     0.087 A 
HETATM   11  C10 UNL     1      17.425 -38.293  14.171  1.00  0.00     0.037 C 
HETATM   12  C9  UNL     1      16.558 -38.328  12.909  1.00  0.00     0.129 C 
HETATM   13  O1  UNL     1      17.372 -38.326  11.766  1.00  0.00    -0.344 OA
BRANCH  12  14
HETATM   14  C8  UNL     1      15.560 -39.368  13.118  1.00  0.00     0.034 C 
BRANCH  14  15
HETATM   15  C7  UNL     1      14.530 -39.342  14.184  1.00  0.00     0.033 C 
BRANCH  15  16
HETATM   16  C6  UNL     1      13.338 -40.210  13.684  1.00  0.00     0.272 C 
BRANCH  16  17
HETATM   17  N1  UNL     1      12.204 -39.379  13.337  1.00  0.00     0.088 N 
HETATM   18  C5  UNL     1      12.008 -39.456  11.883  1.00  0.00     0.272 C 
HETATM   19  C4  UNL     1      10.679 -38.807  11.542  1.00  0.00     0.031 C 
HETATM   20  C3  UNL     1      10.707 -37.384  11.990  1.00  0.00     0.007 C 
HETATM   21  C2  UNL     1      12.132 -37.083  12.415  1.00  0.00     0.010 C 
HETATM   22  C1  UNL     1      12.202 -35.626  12.815  1.00  0.00     0.011 C 
HETATM   23  C36 UNL     1      12.474 -37.952  13.591  1.00  0.00     0.276 C 
ENDBRANCH  16  17
ENDBRANCH  15  16
ENDBRANCH  14  15
ENDBRANCH  12  14
ENDBRANCH   3   4
ENDBRANCH   1   3
BRANCH   1  24
HETATM   24  C18 UNL     1      16.111 -40.449   8.893  1.00  0.00     0.083 C 
HETATM   25  C19 UNL     1      15.705 -40.762   7.446  1.00  0.00     0.027 C 
HETATM   26  C20 UNL     1      14.308 -41.222   7.423  1.00  0.00     0.027 C 
HETATM   27  C21 UNL     1      14.008 -41.472   8.888  1.00  0.00     0.079 C 
HETATM   28  C34 UNL     1      14.730 -40.425   9.602  1.00  0.00     0.049 C 
BRANCH  27  29
HETATM   29  N3  UNL     1      12.675 -41.830   9.101  1.00  0.00    -0.413 N 
ATOM     30  H3  UNL     1      11.984 -41.156   9.429  1.00  0.00     0.154 HD
BRANCH  29  31
HETATM   31  C22 UNL     1      12.323 -43.224   8.829  1.00  0.00     0.080 C 
HETATM   32  C23 UNL     1      10.839 -43.336   9.098  1.00  0.00     0.036 C 
HETATM   33  C24 UNL     1      10.317 -44.707   9.314  1.00  0.00     0.038 C 
HETATM   34  C25 UNL     1      10.902 -45.751   8.378  1.00  0.00     0.123 C 
HETATM   35  C33 UNL     1      10.544 -45.242  10.704  1.00  0.00    -0.044 A 
HETATM   36  N4  UNL     1      12.291 -45.970   8.619  1.00  0.00    -0.412 N 
HETATM   37  C26 UNL     1      12.803 -45.502   9.848  1.00  0.00     0.112 C 
ATOM     38  H4  UNL     1      12.885 -46.442   7.937  1.00  0.00     0.153 HD
HETATM   39  C27 UNL     1      13.102 -44.012   9.857  1.00  0.00     0.054 C 
HETATM   40  C28 UNL     1      11.827 -45.681  10.945  1.00  0.00    -0.028 A 
HETATM   41  C29 UNL     1      12.151 -46.190  12.168  1.00  0.00     0.033 A 
HETATM   42  C30 UNL     1      11.208 -46.279  13.196  1.00  0.00     0.034 A 
HETATM   43 CL1  UNL     1      11.600 -46.925  14.771  1.00  0.00    -0.084 Cl
HETATM   44  C31 UNL     1       9.944 -45.821  12.896  1.00  0.00     0.024 A 
HETATM   45  C32 UNL     1       9.568 -45.297  11.671  1.00  0.00     0.010 A 
ENDBRANCH  29  31
ENDBRANCH  27  29
ENDBRANCH   1  24
TORSDOF 9
ENDMDL
MODEL 2
REMARK VINA RESULT: -10.122276540      1.197      1.780
REMARK  9 active torsions:
REMARK  status: ('A' for Active; 'I' for Inactive)
REMARK    1  A    between atoms: N1_6  and  C6_7 
REMARK    2  A    between atoms: C6_7  and  C7_8 
REMARK    3  A    between atoms: C7_8  and  C8_9 
REMARK    4  A    between atoms: C8_9  and  C9_10 
REMARK    5  A    between atoms: C16_17  and  C17_18 
REMARK    6  A    between atoms: C17_18  and  N2_19 
REMARK    7  A    between atoms: N2_19  and  C18_21 
REMARK    8  A    between atoms: C21_24  and  N3_25 
REMARK    9  A    between atoms: N3_25  and  C22_27 
ROOT
HETATM    1  N2  UNL     1      16.745 -39.240   9.029  1.00  0.00    -0.393 N 
ATOM      2  H2  UNL     1      16.263 -38.356   8.866  1.00  0.00     0.159 HD
ENDROOT
BRANCH   1   3
HETATM    3  C17 UNL     1      18.113 -39.299   9.297  1.00  0.00     0.097 C 
BRANCH   3   4
HETATM    4  C16 UNL     1      18.560 -39.965  10.547  1.00  0.00     0.013 A 
HETATM    5  C15 UNL     1      19.416 -41.078  10.429  1.00  0.00     0.015 A 
HETATM    6  C14 UNL     1      20.093 -41.483  11.548  1.00  0.00     0.002 A 
HETATM    7  C13 UNL     1      19.982 -40.858  12.794  1.00  0.00     0.010 A 
HETATM    8  C12 UNL     1      19.133 -39.782  12.879  1.00  0.00    -0.024 A 
HETATM    9  C11 UNL     1      18.979 -39.082  14.162  1.00  0.00     0.044 C 
HETATM   10  C35 UNL     1      18.455 -39.371  11.773  1.00  0.00     0.087 A 
HETATM   11  C10 UNL     1      17.779 -38.229  14.321  1.00  0.00     0.037 C 
HETATM   12  C9  UNL     1      16.844 -38.184  13.109  1.00  0.00     0.129 C 
HETATM   13  O1  UNL     1      17.588 -38.283  11.923  1.00  0.00    -0.344 OA
BRANCH  12  14
HETATM   14  C8  UNL     1      15.753 -39.107  13.391  1.00  0.00     0.034 C 
BRANCH  14  15
HETATM   15  C7  UNL     1      14.342 -38.887  12.992  1.00  0.00     0.033 C 
BRANCH  15  16
HETATM   16  C6  UNL     1      13.465 -39.195  14.241  1.00  0.00     0.272 C 
BRANCH  16  17
HETATM   17  N1  UNL     1      12.871 -40.512  14.143  1.00  0.00     0.088 N 
HETATM   18  C5  UNL     1      12.384 -40.693  12.769  1.00  0.00     0.272 C 
HETATM   19  C4  UNL     1      12.000 -42.150  12.583  1.00  0.00     0.031 C 
HETATM   20  C3  UNL     1      10.934 -42.498  13.567  1.00  0.00     0.007 C 
HETATM   21  C2  UNL     1      10.495 -41.202  14.221  1.00  0.00     0.010 C 
HETATM   22  C1  UNL     1       9.369 -41.519  15.179  1.00  0.00     0.011 C 
HETATM   23  C36 UNL     1      11.661 -40.630  14.976  1.00  0.00     0.276 C 
ENDBRANCH  16  17
ENDBRANCH  15  16
ENDBRANCH  14  15
ENDBRANCH  12  14
ENDBRANCH   3   4
ENDBRANCH   1   3
BRANCH   1  24
HETATM   24  C18 UNL     1      16.065 -40.488   8.997  1.00  0.00     0.083 C 
HETATM   25  C19 UNL     1      15.731 -40.793   7.529  1.00  0.00     0.027 C 
HETATM   26  C20 UNL     1      14.334 -41.242   7.434  1.00  0.00     0.027 C 
HETATM   27  C21 UNL     1      13.956 -41.493   8.880  1.00  0.00     0.079 C 
HETATM   28  C34 UNL     1      14.649 -40.455   9.634  1.00  0.00     0.049 C 
BRANCH  27  29
HETATM   29  N3  UNL     1      12.612 -41.841   9.023  1.00  0.00    -0.413 N 
ATOM     30  H3  UNL     1      11.907 -41.158   9.302  1.00  0.00     0.154 HD
BRANCH  29  31
HETATM   31  C22 UNL     1      12.266 -43.236   8.752  1.00  0.00     0.080 C 
HETATM   32  C23 UNL     1      10.802 -43.377   9.104  1.00  0.00     0.036 C 
HETATM   33  C24 UNL     1      10.315 -44.759   9.330  1.00  0.00     0.038 C 
HETATM   34  C25 UNL     1      10.861 -45.781   8.348  1.00  0.00     0.123 C 
HETATM   35  C33 UNL     1      10.630 -45.309  10.698  1.00  0.00    -0.044 A 
HETATM   36  N4  UNL     1      12.266 -45.980   8.505  1.00  0.00    -0.412 N 
HETATM   37  C26 UNL     1      12.840 -45.520   9.710  1.00  0.00     0.112 C 
ATOM     38  H4  UNL     1      12.826 -46.433   7.783  1.00  0.00     0.153 HD
HETATM   39  C27 UNL     1      13.116 -44.025   9.723  1.00  0.00     0.054 C 
HETATM   40  C28 UNL     1      11.932 -45.730  10.859  1.00  0.00    -0.028 A 
HETATM   41  C29 UNL     1      12.334 -46.250  12.053  1.00  0.00     0.033 A 
HETATM   42  C30 UNL     1      11.453 -46.367  13.133  1.00  0.00     0.034 A 
HETATM   43 CL1  UNL     1      11.946 -47.028  14.673  1.00  0.00    -0.084 Cl
HETATM   44  C31 UNL     1      10.166 -45.927  12.912  1.00  0.00     0.024 A 
HETATM   45  C32 UNL     1       9.713 -45.393  11.718  1.00  0.00     0.010 A 
ENDBRANCH  29  31
ENDBRANCH  27  29
ENDBRANCH   1  24
TORSDOF 9
ENDMDL
MODEL 3
REMARK VINA RESULT: -10.026291094      2.545      6.368
REMARK  9 active torsions:
REMARK  status: ('A' for Active; 'I' for Inactive)
REMARK    1  A    between atoms: N1_6  and  C6_7 
REMARK    2  A    between atoms: C6_7  and  C7_8 
REMARK    3  A    between atoms: C7_8  and  C8_9 
REMARK    4  A    between atoms: C8_9  and  C9_10 
REMARK    5  A    between atoms: C16_17  and  C17_18 
REMARK    6  A    between atoms: C17_18  and  N2_19 
REMARK    7  A    between atoms: N2_19  and  C18_21 
REMARK    8  A    between atoms: C21_24  and  N3_25 
REMARK    9  A    between atoms: N3_25  and  C22_27 
ROOT
HETATM    1  N2  UNL     1      15.954 -37.862  12.815  1.00  0.00    -0.393 N 
ATOM      2  H2  UNL     1      16.420 -37.151  12.251  1.00  0.00     0.159 HD
ENDROOT
BRANCH   1   3
HETATM    3  C17 UNL     1      16.584 -38.479  13.897  1.00  0.00     0.097 C 
BRANCH   3   4
HETATM    4  C16 UNL     1      18.019 -38.839  13.768  1.00  0.00     0.013 A 
HETATM    5  C15 UNL     1      18.884 -38.475  14.819  1.00  0.00     0.015 A 
HETATM    6  C14 UNL     1      20.110 -39.082  14.874  1.00  0.00     0.002 A 
HETATM    7  C13 UNL     1      20.549 -40.035  13.949  1.00  0.00     0.010 A 
HETATM    8  C12 UNL     1      19.687 -40.361  12.932  1.00  0.00    -0.024 A 
HETATM    9  C11 UNL     1      20.090 -41.361  11.933  1.00  0.00     0.044 C 
HETATM   10  C35 UNL     1      18.465 -39.765  12.868  1.00  0.00     0.087 A 
HETATM   11  C10 UNL     1      19.342 -41.375  10.656  1.00  0.00     0.037 C 
HETATM   12  C9  UNL     1      18.226 -40.332  10.542  1.00  0.00     0.129 C 
HETATM   13  O1  UNL     1      17.636 -40.120  11.798  1.00  0.00    -0.344 OA
BRANCH  12  14
HETATM   14  C8  UNL     1      18.769 -39.224   9.769  1.00  0.00     0.034 C 
BRANCH  14  15
HETATM   15  C7  UNL     1      19.127 -39.297   8.332  1.00  0.00     0.033 C 
BRANCH  15  16
HETATM   16  C6  UNL     1      20.643 -38.960   8.225  1.00  0.00     0.272 C 
BRANCH  16  17
HETATM   17  N1  UNL     1      21.340 -39.959   7.441  1.00  0.00     0.088 N 
HETATM   18  C5  UNL     1      20.350 -40.925   6.947  1.00  0.00     0.272 C 
HETATM   19  C4  UNL     1      21.021 -41.818   5.919  1.00  0.00     0.031 C 
HETATM   20  C3  UNL     1      22.163 -42.526   6.567  1.00  0.00     0.007 C 
HETATM   21  C2  UNL     1      22.072 -42.243   8.054  1.00  0.00     0.010 C 
HETATM   22  C1  UNL     1      23.184 -43.002   8.743  1.00  0.00     0.011 C 
HETATM   23  C36 UNL     1      22.252 -40.767   8.271  1.00  0.00     0.276 C 
ENDBRANCH  16  17
ENDBRANCH  15  16
ENDBRANCH  14  15
ENDBRANCH  12  14
ENDBRANCH   3   4
ENDBRANCH   1   3
BRANCH   1  24
HETATM   24  C18 UNL     1      14.623 -38.285  12.548  1.00  0.00     0.083 C 
HETATM   25  C19 UNL     1      13.978 -38.653  13.892  1.00  0.00     0.027 C 
HETATM   26  C20 UNL     1      13.277 -39.938  13.757  1.00  0.00     0.027 C 
HETATM   27  C21 UNL     1      13.253 -40.158  12.258  1.00  0.00     0.079 C 
HETATM   28  C34 UNL     1      14.527 -39.631  11.782  1.00  0.00     0.049 C 
BRANCH  27  29
HETATM   29  N3  UNL     1      12.705 -41.395  11.913  1.00  0.00    -0.413 N 
ATOM     30  H3  UNL     1      12.490 -42.102  12.615  1.00  0.00     0.154 HD
BRANCH  29  31
HETATM   31  C22 UNL     1      12.456 -41.624  10.489  1.00  0.00     0.080 C 
HETATM   32  C23 UNL     1      11.410 -42.715  10.422  1.00  0.00     0.036 C 
HETATM   33  C24 UNL     1      11.294 -43.426   9.127  1.00  0.00     0.038 C 
HETATM   34  C25 UNL     1      11.389 -42.524   7.908  1.00  0.00     0.123 C 
HETATM   35  C33 UNL     1      12.332 -44.498   8.915  1.00  0.00    -0.044 A 
HETATM   36  N4  UNL     1      12.688 -41.951   7.764  1.00  0.00    -0.412 N 
HETATM   37  C26 UNL     1      13.731 -42.555   8.498  1.00  0.00     0.112 C 
ATOM     38  H4  UNL     1      12.855 -41.146   7.160  1.00  0.00     0.153 HD
HETATM   39  C27 UNL     1      13.777 -42.131   9.957  1.00  0.00     0.054 C 
HETATM   40  C28 UNL     1      13.575 -44.025   8.555  1.00  0.00    -0.028 A 
HETATM   41  C29 UNL     1      14.595 -44.902   8.332  1.00  0.00     0.033 A 
HETATM   42  C30 UNL     1      14.414 -46.282   8.462  1.00  0.00     0.034 A 
HETATM   43 CL1  UNL     1      15.706 -47.424   8.184  1.00  0.00    -0.084 Cl
HETATM   44  C31 UNL     1      13.151 -46.694   8.826  1.00  0.00     0.024 A 
HETATM   45  C32 UNL     1      12.085 -45.842   9.062  1.00  0.00     0.010 A 
ENDBRANCH  29  31
ENDBRANCH  27  29
ENDBRANCH   1  24
TORSDOF 9
ENDMDL
MODEL 4
REMARK VINA RESULT: -10.005667225      1.264      1.816
REMARK  9 active torsions:
REMARK  status: ('A' for Active; 'I' for Inactive)
REMARK    1  A    between atoms: N1_6  and  C6_7 
REMARK    2  A    between atoms: C6_7  and  C7_8 
REMARK    3  A    between atoms: C7_8  and  C8_9 
REMARK    4  A    between atoms: C8_9  and  C9_10 
REMARK    5  A    between atoms: C16_17  and  C17_18 
REMARK    6  A    between atoms: C17_18  and  N2_19 
REMARK    7  A    between atoms: N2_19  and  C18_21 
REMARK    8  A    between atoms: C21_24  and  N3_25 
REMARK    9  A    between atoms: N3_25  and  C22_27 
ROOT
HETATM    1  N2  UNL     1      15.509 -39.398   9.094  1.00  0.00    -0.393 N 
ATOM      2  H2  UNL     1      15.370 -38.425   9.368  1.00  0.00     0.159 HD
ENDROOT
BRANCH   1   3
HETATM    3  C17 UNL     1      16.765 -39.899   8.750  1.00  0.00     0.097 C 
BRANCH   3   4
HETATM    4  C16 UNL     1      17.569 -40.573   9.800  1.00  0.00     0.013 A 
HETATM    5  C15 UNL     1      18.234 -41.766   9.454  1.00  0.00     0.015 A 
HETATM    6  C14 UNL     1      19.228 -42.206  10.286  1.00  0.00     0.002 A 
HETATM    7  C13 UNL     1      19.616 -41.542  11.454  1.00  0.00     0.010 A 
HETATM    8  C12 UNL     1      18.944 -40.388  11.769  1.00  0.00    -0.024 A 
HETATM    9  C11 UNL     1      19.311 -39.643  12.982  1.00  0.00     0.044 C 
HETATM   10  C35 UNL     1      17.954 -39.941  10.949  1.00  0.00     0.087 A 
HETATM   11  C10 UNL     1      18.320 -38.675  13.502  1.00  0.00     0.037 C 
HETATM   12  C9  UNL     1      17.023 -38.571  12.694  1.00  0.00     0.129 C 
HETATM   13  O1  UNL     1      17.288 -38.770  11.330  1.00  0.00    -0.344 OA
BRANCH  12  14
HETATM   14  C8  UNL     1      16.031 -39.377  13.393  1.00  0.00     0.034 C 
BRANCH  14  15
HETATM   15  C7  UNL     1      14.639 -38.946  13.664  1.00  0.00     0.033 C 
BRANCH  15  16
HETATM   16  C6  UNL     1      14.162 -38.142  12.418  1.00  0.00     0.272 C 
BRANCH  16  17
HETATM   17  N1  UNL     1      12.825 -38.540  12.027  1.00  0.00     0.088 N 
HETATM   18  C5  UNL     1      11.909 -37.436  12.342  1.00  0.00     0.272 C 
HETATM   19  C4  UNL     1      10.563 -37.731  11.705  1.00  0.00     0.031 C 
HETATM   20  C3  UNL     1      10.041 -39.017  12.255  1.00  0.00     0.007 C 
HETATM   21  C2  UNL     1      10.958 -39.415  13.396  1.00  0.00     0.010 C 
HETATM   22  C1  UNL     1      10.413 -40.684  14.012  1.00  0.00     0.011 C 
HETATM   23  C36 UNL     1      12.330 -39.665  12.841  1.00  0.00     0.276 C 
ENDBRANCH  16  17
ENDBRANCH  15  16
ENDBRANCH  14  15
ENDBRANCH  12  14
ENDBRANCH   3   4
ENDBRANCH   1   3
BRANCH   1  24
HETATM   24  C18 UNL     1      14.434 -40.327   9.040  1.00  0.00     0.083 C 
HETATM   25  C19 UNL     1      14.552 -41.241  10.269  1.00  0.00     0.027 C 
HETATM   26  C20 UNL     1      14.374 -42.639   9.851  1.00  0.00     0.027 C 
HETATM   27  C21 UNL     1      13.844 -42.509   8.437  1.00  0.00     0.079 C 
HETATM   28  C34 UNL     1      14.541 -41.355   7.881  1.00  0.00     0.049 C 
BRANCH  27  29
HETATM   29  N3  UNL     1      13.696 -43.748   7.811  1.00  0.00    -0.413 N 
ATOM     30  H3  UNL     1      14.368 -44.084   7.122  1.00  0.00     0.154 HD
BRANCH  29  31
HETATM   31  C22 UNL     1      12.526 -44.537   8.195  1.00  0.00     0.080 C 
HETATM   32  C23 UNL     1      11.619 -43.592   8.951  1.00  0.00     0.036 C 
HETATM   33  C24 UNL     1      10.587 -44.224   9.808  1.00  0.00     0.038 C 
HETATM   34  C25 UNL     1       9.911 -45.432   9.183  1.00  0.00     0.123 C 
HETATM   35  C33 UNL     1      11.100 -44.697  11.144  1.00  0.00    -0.044 A 
HETATM   36  N4  UNL     1      10.812 -46.528   9.023  1.00  0.00    -0.412 N 
HETATM   37  C26 UNL     1      12.014 -46.473   9.760  1.00  0.00     0.112 C 
ATOM     38  H4  UNL     1      10.597 -47.313   8.408  1.00  0.00     0.153 HD
HETATM   39  C27 UNL     1      13.078 -45.590   9.128  1.00  0.00     0.054 C 
HETATM   40  C28 UNL     1      11.803 -45.881  11.100  1.00  0.00    -0.028 A 
HETATM   41  C29 UNL     1      12.313 -46.410  12.248  1.00  0.00     0.033 A 
HETATM   42  C30 UNL     1      12.142 -45.778  13.483  1.00  0.00     0.034 A 
HETATM   43 CL1  UNL     1      12.788 -46.436  14.967  1.00  0.00    -0.084 Cl
HETATM   44  C31 UNL     1      11.433 -44.597  13.463  1.00  0.00     0.024 A 
HETATM   45  C32 UNL     1      10.897 -44.022  12.324  1.00  0.00     0.010 A 
ENDBRANCH  29  31
ENDBRANCH  27  29
ENDBRANCH   1  24
TORSDOF 9
ENDMDL
MODEL 5
REMARK VINA RESULT: -9.744296586      2.507      6.318
REMARK  9 active torsions:
REMARK  status: ('A' for Active; 'I' for Inactive)
REMARK    1  A    between atoms: N1_6  and  C6_7 
REMARK    2  A    between atoms: C6_7  and  C7_8 
REMARK    3  A    between atoms: C7_8  and  C8_9 
REMARK    4  A    between atoms: C8_9  and  C9_10 
REMARK    5  A    between atoms: C16_17  and  C17_18 
REMARK    6  A    between atoms: C17_18  and  N2_19 
REMARK    7  A    between atoms: N2_19  and  C18_21 
REMARK    8  A    between atoms: C21_24  and  N3_25 
REMARK    9  A    between atoms: N3_25  and  C22_27 
ROOT
HETATM    1  N2  UNL     1      14.840 -36.936  12.285  1.00  0.00    -0.393 N 
ATOM      2  H2  UNL     1      15.017 -36.100  12.840  1.00  0.00     0.159 HD
ENDROOT
BRANCH   1   3
HETATM    3  C17 UNL     1      15.647 -37.292  11.204  1.00  0.00     0.097 C 
BRANCH   3   4
HETATM    4  C16 UNL     1      16.774 -38.230  11.441  1.00  0.00     0.013 A 
HETATM    5  C15 UNL     1      17.484 -38.110  12.653  1.00  0.00     0.015 A 
HETATM    6  C14 UNL     1      18.283 -39.155  13.030  1.00  0.00     0.002 A 
HETATM    7  C13 UNL     1      18.435 -40.328  12.283  1.00  0.00     0.010 A 
HETATM    8  C12 UNL     1      17.738 -40.411  11.103  1.00  0.00    -0.024 A 
HETATM    9  C11 UNL     1      17.853 -41.621  10.277  1.00  0.00     0.044 C 
HETATM   10  C35 UNL     1      16.940 -39.378  10.718  1.00  0.00     0.087 A 
HETATM   11  C10 UNL     1      17.445 -41.508   8.859  1.00  0.00     0.037 C 
HETATM   12  C9  UNL     1      16.944 -40.125   8.432  1.00  0.00     0.129 C 
HETATM   13  O1  UNL     1      16.270 -39.507   9.497  1.00  0.00    -0.344 OA
BRANCH  12  14
HETATM   14  C8  UNL     1      18.058 -39.466   7.764  1.00  0.00     0.034 C 
BRANCH  14  15
HETATM   15  C7  UNL     1      19.301 -40.150   7.333  1.00  0.00     0.033 C 
BRANCH  15  16
HETATM   16  C6  UNL     1      20.477 -39.477   8.101  1.00  0.00     0.272 C 
BRANCH  16  17
HETATM   17  N1  UNL     1      21.478 -40.456   8.473  1.00  0.00     0.088 N 
HETATM   18  C5  UNL     1      21.371 -41.592   7.548  1.00  0.00     0.272 C 
HETATM   19  C4  UNL     1      22.571 -42.498   7.758  1.00  0.00     0.031 C 
HETATM   20  C3  UNL     1      22.576 -42.973   9.173  1.00  0.00     0.007 C 
HETATM   21  C2  UNL     1      21.258 -42.541   9.788  1.00  0.00     0.010 C 
HETATM   22  C1  UNL     1      21.211 -43.067  11.206  1.00  0.00     0.011 C 
HETATM   23  C36 UNL     1      21.206 -41.040   9.798  1.00  0.00     0.276 C 
ENDBRANCH  16  17
ENDBRANCH  15  16
ENDBRANCH  14  15
ENDBRANCH  12  14
ENDBRANCH   3   4
ENDBRANCH   1   3
BRANCH   1  24
HETATM   24  C18 UNL     1      13.756 -37.813  12.564  1.00  0.00     0.083 C 
HETATM   25  C19 UNL     1      14.100 -38.577  13.851  1.00  0.00     0.027 C 
HETATM   26  C20 UNL     1      13.810 -40.005  13.659  1.00  0.00     0.027 C 
HETATM   27  C21 UNL     1      13.007 -40.021  12.374  1.00  0.00     0.079 C 
HETATM   28  C34 UNL     1      13.602 -38.976  11.548  1.00  0.00     0.049 C 
BRANCH  27  29
HETATM   29  N3  UNL     1      12.706 -41.317  11.952  1.00  0.00    -0.413 N 
ATOM     30  H3  UNL     1      12.619 -42.089  12.612  1.00  0.00     0.154 HD
BRANCH  29  31
HETATM   31  C22 UNL     1      12.522 -41.509  10.514  1.00  0.00     0.080 C 
HETATM   32  C23 UNL     1      11.472 -42.589  10.370  1.00  0.00     0.036 C 
HETATM   33  C24 UNL     1      11.411 -43.268   9.054  1.00  0.00     0.038 C 
HETATM   34  C25 UNL     1      11.570 -42.337   7.864  1.00  0.00     0.123 C 
HETATM   35  C33 UNL     1      12.450 -44.343   8.865  1.00  0.00    -0.044 A 
HETATM   36  N4  UNL     1      12.879 -41.773   7.795  1.00  0.00    -0.412 N 
HETATM   37  C26 UNL     1      13.882 -42.403   8.562  1.00  0.00     0.112 C 
ATOM     38  H4  UNL     1      13.080 -40.955   7.219  1.00  0.00     0.153 HD
HETATM   39  C27 UNL     1      13.862 -42.015  10.031  1.00  0.00     0.054 C 
HETATM   40  C28 UNL     1      13.712 -43.873   8.575  1.00  0.00    -0.028 A 
HETATM   41  C29 UNL     1      14.735 -44.752   8.378  1.00  0.00     0.033 A 
HETATM   42  C30 UNL     1      14.537 -46.134   8.466  1.00  0.00     0.034 A 
HETATM   43 CL1  UNL     1      15.833 -47.280   8.220  1.00  0.00    -0.084 Cl
HETATM   44  C31 UNL     1      13.255 -46.543   8.761  1.00  0.00     0.024 A 
HETATM   45  C32 UNL     1      12.186 -45.688   8.968  1.00  0.00     0.010 A 
ENDBRANCH  29  31
ENDBRANCH  27  29
ENDBRANCH   1  24
TORSDOF 9
ENDMDL
