MODEL 1
REMARK VINA RESULT: -6.039282353      0.000      0.000
REMARK  13 active torsions:
REMARK  status: ('A' for Active; 'I' for Inactive)
REMARK    1  A    between atoms: N1_2  and  C2_5 
REMARK    2  A    between atoms: C2_5  and  N2_6 
REMARK    3  A    between atoms: C7_14  and  C8_15 
REMARK    4  A    between atoms: C9_18  and  C10_19 
REMARK    5  A    between atoms: C10_19  and  N4_20 
REMARK    6  A    between atoms: C12_22  and  C13_23 
REMARK    7  A    between atoms: C14_26  and  S1_27 
REMARK    8  A    between atoms: C16_31  and  O5_32 
REMARK    9  A    between atoms: C17_37  and  S3_38 
REMARK   10  A    between atoms: S3_38  and  N8_39 
REMARK   11  A    between atoms: N9_44  and  C18_45 
REMARK   12  A    between atoms: C18_45  and  C19_46 
REMARK   13  A    between atoms: C19_46  and  S4_47 
ROOT
HETATM    1  N2  UNL     1      24.810  -9.396 -28.413  1.00  0.00    -0.258 N 
HETATM    2  C3  UNL     1      25.661 -10.214 -29.138  1.00  0.00     0.334 A 
HETATM    3  O1  UNL     1      26.224  -9.628 -30.134  1.00  0.00    -0.246 OA
HETATM    4  N3  UNL     1      25.908 -11.473 -28.878  1.00  0.00    -0.270 N 
HETATM    5  C4  UNL     1      26.812 -12.270 -29.679  1.00  0.00     0.164 C 
HETATM    6  C5  UNL     1      25.314 -12.046 -27.848  1.00  0.00     0.266 A 
HETATM    7  O2  UNL     1      25.540 -13.253 -27.577  1.00  0.00    -0.267 OA
HETATM    8  C6  UNL     1      24.441 -11.330 -27.053  1.00  0.00     0.096 A 
HETATM    9  C7  UNL     1      23.683 -11.647 -25.979  1.00  0.00     0.088 A 
HETATM   10  C9  UNL     1      22.953 -10.471 -25.608  1.00  0.00     0.074 A 
HETATM   11  N9  UNL     1      23.288  -9.491 -26.457  1.00  0.00    -0.308 N 
HETATM   12  C20 UNL     1      24.199  -9.964 -27.365  1.00  0.00     0.136 A 
ENDROOT
BRANCH  10  13
HETATM   13  C10 UNL     1      22.047 -10.605 -24.517  1.00  0.00     0.131 C 
BRANCH  13  14
HETATM   14  N4  UNL     1      20.810  -9.963 -24.268  1.00  0.00    -0.287 N 
HETATM   15  C11 UNL     1      19.762  -9.866 -25.214  1.00  0.00     0.101 A 
HETATM   16  C12 UNL     1      19.515 -10.235 -26.427  1.00  0.00     0.073 C 
HETATM   17  S2  UNL     1      18.457  -8.943 -24.253  1.00  0.00     0.006 SA
HETATM   18  N7  UNL     1      19.395  -8.834 -22.820  1.00  0.00    -0.299 N 
HETATM   19  C17 UNL     1      20.513  -9.372 -22.982  1.00  0.00     0.237 A 
ATOM     20  H7  UNL     1      19.083  -8.392 -21.955  1.00  0.00     0.176 HD
BRANCH  16  21
HETATM   21  C13 UNL     1      20.255 -10.954 -27.406  1.00  0.00     0.088 A 
HETATM   22  N5  UNL     1      20.833 -10.645 -28.539  1.00  0.00    -0.333 N 
HETATM   23  C14 UNL     1      21.423 -11.681 -29.140  1.00  0.00     0.146 A 
ATOM     24  H5  UNL     1      20.832  -9.702 -28.926  1.00  0.00     0.168 HD
HETATM   25  N6  UNL     1      21.214 -12.738 -28.341  1.00  0.00    -0.316 N 
HETATM   26  C16 UNL     1      20.510 -12.355 -27.272  1.00  0.00     0.169 A 
ATOM     27  H6  UNL     1      21.541 -13.687 -28.521  1.00  0.00     0.170 HD
BRANCH  23  28
HETATM   28  S1  UNL     1      22.298 -11.663 -30.685  1.00  0.00    -0.098 SA
HETATM   29  C15 UNL     1      22.547  -9.963 -31.287  1.00  0.00     0.099 C 
ENDBRANCH  23  28
BRANCH  26  30
HETATM   30  O5  UNL     1      20.098 -13.162 -26.222  1.00  0.00    -0.344 OA
ATOM     31  H5  UNL     1      19.293 -13.665 -26.187  1.00  0.00     0.219 HD
ENDBRANCH  26  30
ENDBRANCH  16  21
BRANCH  19  32
HETATM   32  S3  UNL     1      21.643  -9.424 -21.587  1.00  0.00     0.290 S 
HETATM   33  O6  UNL     1      22.751  -8.431 -21.800  1.00  0.00    -0.198 OA
HETATM   34  O7  UNL     1      22.157 -10.797 -21.341  1.00  0.00    -0.198 OA
BRANCH  32  35
HETATM   35  N8  UNL     1      20.808  -8.936 -20.154  1.00  0.00    -0.322 N 
ATOM     36  H82 UNL     1      19.837  -8.624 -20.129  1.00  0.00     0.169 HD
ATOM     37  H81 UNL     1      21.436  -9.011 -19.354  1.00  0.00     0.169 HD
ENDBRANCH  32  35
ENDBRANCH  19  32
ENDBRANCH  13  14
ENDBRANCH  10  13
BRANCH   9  38
HETATM   38  C8  UNL     1      23.523 -12.963 -25.330  1.00  0.00     0.212 C 
HETATM   39  O3  UNL     1      24.662 -13.280 -24.567  1.00  0.00    -0.644 OA
HETATM   40  O4  UNL     1      23.039 -14.011 -25.992  1.00  0.00    -0.644 OA
ENDBRANCH   9  38
BRANCH  11  41
HETATM   41  C18 UNL     1      22.783  -8.179 -26.465  1.00  0.00     0.089 C 
BRANCH  41  42
HETATM   42  C19 UNL     1      23.280  -7.209 -25.418  1.00  0.00     0.210 C 
BRANCH  42  43
HETATM   43  S4  UNL     1      23.368  -5.559 -26.081  1.00  0.00     0.106 S 
HETATM   44  O8  UNL     1      24.783  -5.114 -26.182  1.00  0.00    -0.595 OA
HETATM   45  O9  UNL     1      22.828  -5.643 -27.497  1.00  0.00    -0.595 OA
HETATM   46  O10 UNL     1      22.403  -4.549 -25.213  1.00  0.00    -0.595 OA
ENDBRANCH  42  43
ENDBRANCH  41  42
ENDBRANCH  11  41
BRANCH   1  47
HETATM   47  C2  UNL     1      24.645  -8.068 -28.878  1.00  0.00     0.367 C 
BRANCH  47  48
HETATM   48  N1  UNL     1      25.607  -7.131 -28.299  1.00  0.00    -0.063 N 
HETATM   49  C1  UNL     1      26.198  -6.388 -29.385  1.00  0.00     0.269 C 
ATOM     50  H12 UNL     1      26.300  -7.589 -27.707  1.00  0.00     0.278 HD
ATOM     51  H11 UNL     1      25.196  -6.531 -27.584  1.00  0.00     0.278 HD
ENDBRANCH  47  48
ENDBRANCH   1  47
TORSDOF 13
ENDMDL
MODEL 2
REMARK VINA RESULT: -5.908734307      2.682      5.548
REMARK  13 active torsions:
REMARK  status: ('A' for Active; 'I' for Inactive)
REMARK    1  A    between atoms: N1_2  and  C2_5 
REMARK    2  A    between atoms: C2_5  and  N2_6 
REMARK    3  A    between atoms: C7_14  and  C8_15 
REMARK    4  A    between atoms: C9_18  and  C10_19 
REMARK    5  A    between atoms: C10_19  and  N4_20 
REMARK    6  A    between atoms: C12_22  and  C13_23 
REMARK    7  A    between atoms: C14_26  and  S1_27 
REMARK    8  A    between atoms: C16_31  and  O5_32 
REMARK    9  A    between atoms: C17_37  and  S3_38 
REMARK   10  A    between atoms: S3_38  and  N8_39 
REMARK   11  A    between atoms: N9_44  and  C18_45 
REMARK   12  A    between atoms: C18_45  and  C19_46 
REMARK   13  A    between atoms: C19_46  and  S4_47 
ROOT
HETATM    1  N2  UNL     1      22.200  -7.963 -24.371  1.00  0.00    -0.258 N 
HETATM    2  C3  UNL     1      22.401  -6.773 -25.052  1.00  0.00     0.334 A 
HETATM    3  O1  UNL     1      21.855  -5.754 -24.492  1.00  0.00    -0.246 OA
HETATM    4  N3  UNL     1      23.075  -6.642 -26.167  1.00  0.00    -0.270 N 
HETATM    5  C4  UNL     1      23.245  -5.364 -26.826  1.00  0.00     0.164 C 
HETATM    6  C5  UNL     1      23.623  -7.708 -26.717  1.00  0.00     0.266 A 
HETATM    7  O2  UNL     1      24.279  -7.604 -27.785  1.00  0.00    -0.267 OA
HETATM    8  C6  UNL     1      23.488  -8.950 -26.129  1.00  0.00     0.096 A 
HETATM    9  C7  UNL     1      23.901 -10.192 -26.467  1.00  0.00     0.088 A 
HETATM   10  C9  UNL     1      23.419 -11.093 -25.461  1.00  0.00     0.074 A 
HETATM   11  N9  UNL     1      22.740 -10.376 -24.557  1.00  0.00    -0.308 N 
HETATM   12  C20 UNL     1      22.750  -9.054 -24.918  1.00  0.00     0.136 A 
ENDROOT
BRANCH  10  13
HETATM   13  C10 UNL     1      23.706 -12.474 -25.657  1.00  0.00     0.131 C 
BRANCH  13  14
HETATM   14  N4  UNL     1      23.018 -13.627 -25.204  1.00  0.00    -0.287 N 
HETATM   15  C11 UNL     1      21.757 -14.041 -25.695  1.00  0.00     0.101 A 
HETATM   16  C12 UNL     1      20.883 -13.659 -26.565  1.00  0.00     0.073 C 
HETATM   17  S2  UNL     1      21.453 -15.597 -24.712  1.00  0.00     0.006 SA
HETATM   18  N7  UNL     1      22.939 -15.512 -23.859  1.00  0.00    -0.299 N 
HETATM   19  C17 UNL     1      23.589 -14.500 -24.204  1.00  0.00     0.237 A 
ATOM     20  H7  UNL     1      23.249 -16.194 -23.166  1.00  0.00     0.176 HD
BRANCH  16  21
HETATM   21  C13 UNL     1      20.814 -12.568 -27.475  1.00  0.00     0.088 A 
HETATM   22  N5  UNL     1      21.173 -12.376 -28.718  1.00  0.00    -0.333 N 
HETATM   23  C14 UNL     1      20.908 -11.149 -29.172  1.00  0.00     0.146 A 
ATOM     24  H5  UNL     1      21.616 -13.098 -29.288  1.00  0.00     0.168 HD
HETATM   25  N6  UNL     1      20.335 -10.495 -28.149  1.00  0.00    -0.316 N 
HETATM   26  C16 UNL     1      20.252 -11.309 -27.092  1.00  0.00     0.169 A 
ATOM     27  H6  UNL     1      20.013  -9.528 -28.173  1.00  0.00     0.170 HD
BRANCH  23  28
HETATM   28  S1  UNL     1      21.251 -10.510 -30.792  1.00  0.00    -0.098 SA
HETATM   29  C15 UNL     1      20.475 -11.529 -32.085  1.00  0.00     0.099 C 
ENDBRANCH  23  28
BRANCH  26  30
HETATM   30  O5  UNL     1      19.720 -10.998 -25.850  1.00  0.00    -0.344 OA
ATOM     31  H5  UNL     1      18.798 -10.977 -25.627  1.00  0.00     0.219 HD
ENDBRANCH  26  30
ENDBRANCH  16  21
BRANCH  19  32
HETATM   32  S3  UNL     1      25.210 -14.241 -23.475  1.00  0.00     0.290 S 
HETATM   33  O6  UNL     1      25.202 -12.972 -22.669  1.00  0.00    -0.198 OA
HETATM   34  O7  UNL     1      26.286 -14.249 -24.500  1.00  0.00    -0.198 OA
BRANCH  32  35
HETATM   35  N8  UNL     1      25.556 -15.527 -22.373  1.00  0.00    -0.322 N 
ATOM     36  H82 UNL     1      24.876 -16.222 -22.065  1.00  0.00     0.169 HD
ATOM     37  H81 UNL     1      26.534 -15.475 -22.088  1.00  0.00     0.169 HD
ENDBRANCH  32  35
ENDBRANCH  19  32
ENDBRANCH  13  14
ENDBRANCH  10  13
BRANCH   9  38
HETATM   38  C8  UNL     1      24.629 -10.615 -27.680  1.00  0.00     0.212 C 
HETATM   39  O3  UNL     1      25.886  -9.988 -27.747  1.00  0.00    -0.644 OA
HETATM   40  O4  UNL     1      24.024 -10.687 -28.864  1.00  0.00    -0.644 OA
ENDBRANCH   9  38
BRANCH  11  41
HETATM   41  C18 UNL     1      22.079 -10.872 -23.419  1.00  0.00     0.089 C 
BRANCH  41  42
HETATM   42  C19 UNL     1      22.837 -10.924 -22.112  1.00  0.00     0.210 C 
BRANCH  42  43
HETATM   43  S4  UNL     1      21.728 -11.240 -20.755  1.00  0.00     0.106 S 
HETATM   44  O8  UNL     1      22.175 -10.510 -19.538  1.00  0.00    -0.595 OA
HETATM   45  O9  UNL     1      20.389 -10.651 -21.158  1.00  0.00    -0.595 OA
HETATM   46  O10 UNL     1      21.544 -12.860 -20.541  1.00  0.00    -0.595 OA
ENDBRANCH  42  43
ENDBRANCH  41  42
ENDBRANCH  11  41
BRANCH   1  47
HETATM   47  C2  UNL     1      21.407  -7.905 -23.199  1.00  0.00     0.367 C 
BRANCH  47  48
HETATM   48  N1  UNL     1      20.045  -7.433 -23.448  1.00  0.00    -0.063 N 
HETATM   49  C1  UNL     1      19.181  -8.588 -23.470  1.00  0.00     0.269 C 
ATOM     50  H12 UNL     1      19.970  -6.864 -24.291  1.00  0.00     0.278 HD
ATOM     51  H11 UNL     1      19.742  -6.723 -22.780  1.00  0.00     0.278 HD
ENDBRANCH  47  48
ENDBRANCH   1  47
TORSDOF 13
ENDMDL
MODEL 3
REMARK VINA RESULT: -5.763292009      2.479      5.210
REMARK  13 active torsions:
REMARK  status: ('A' for Active; 'I' for Inactive)
REMARK    1  A    between atoms: N1_2  and  C2_5 
REMARK    2  A    between atoms: C2_5  and  N2_6 
REMARK    3  A    between atoms: C7_14  and  C8_15 
REMARK    4  A    between atoms: C9_18  and  C10_19 
REMARK    5  A    between atoms: C10_19  and  N4_20 
REMARK    6  A    between atoms: C12_22  and  C13_23 
REMARK    7  A    between atoms: C14_26  and  S1_27 
REMARK    8  A    between atoms: C16_31  and  O5_32 
REMARK    9  A    between atoms: C17_37  and  S3_38 
REMARK   10  A    between atoms: S3_38  and  N8_39 
REMARK   11  A    between atoms: N9_44  and  C18_45 
REMARK   12  A    between atoms: C18_45  and  C19_46 
REMARK   13  A    between atoms: C19_46  and  S4_47 
ROOT
HETATM    1  N2  UNL     1      23.347  -8.883 -28.836  1.00  0.00    -0.258 N 
HETATM    2  C3  UNL     1      24.323  -7.899 -28.829  1.00  0.00     0.334 A 
HETATM    3  O1  UNL     1      24.960  -7.789 -29.939  1.00  0.00    -0.246 OA
HETATM    4  N3  UNL     1      24.610  -7.123 -27.814  1.00  0.00    -0.270 N 
HETATM    5  C4  UNL     1      25.644  -6.112 -27.877  1.00  0.00     0.164 C 
HETATM    6  C5  UNL     1      23.937  -7.261 -26.688  1.00  0.00     0.266 A 
HETATM    7  O2  UNL     1      24.193  -6.523 -25.702  1.00  0.00    -0.267 OA
HETATM    8  C6  UNL     1      22.942  -8.211 -26.575  1.00  0.00     0.096 A 
HETATM    9  C7  UNL     1      22.127  -8.594 -25.567  1.00  0.00     0.088 A 
HETATM   10  C9  UNL     1      21.317  -9.671 -26.056  1.00  0.00     0.074 A 
HETATM   11  N9  UNL     1      21.663  -9.903 -27.328  1.00  0.00    -0.308 N 
HETATM   12  C20 UNL     1      22.657  -9.035 -27.699  1.00  0.00     0.136 A 
ENDROOT
BRANCH  10  13
HETATM   13  C10 UNL     1      20.414 -10.258 -25.125  1.00  0.00     0.131 C 
BRANCH  13  14
HETATM   14  N4  UNL     1      20.335 -10.129 -23.716  1.00  0.00    -0.287 N 
HETATM   15  C11 UNL     1      21.227 -10.754 -22.813  1.00  0.00     0.101 A 
HETATM   16  C12 UNL     1      22.264 -11.523 -22.850  1.00  0.00     0.073 C 
HETATM   17  S2  UNL     1      20.584 -10.163 -21.165  1.00  0.00     0.006 SA
HETATM   18  N7  UNL     1      19.322  -9.217 -21.842  1.00  0.00    -0.299 N 
HETATM   19  C17 UNL     1      19.328  -9.303 -23.090  1.00  0.00     0.237 A 
ATOM     20  H7  UNL     1      18.660  -8.662 -21.301  1.00  0.00     0.176 HD
BRANCH  16  21
HETATM   21  C13 UNL     1      23.008 -12.118 -23.906  1.00  0.00     0.088 A 
HETATM   22  N5  UNL     1      22.893 -13.211 -24.617  1.00  0.00    -0.333 N 
HETATM   23  C14 UNL     1      23.861 -13.368 -25.522  1.00  0.00     0.146 A 
ATOM     24  H5  UNL     1      22.133 -13.881 -24.491  1.00  0.00     0.168 HD
HETATM   25  N6  UNL     1      24.664 -12.301 -25.389  1.00  0.00    -0.316 N 
HETATM   26  C16 UNL     1      24.194 -11.508 -24.423  1.00  0.00     0.169 A 
ATOM     27  H6  UNL     1      25.503 -12.122 -25.941  1.00  0.00     0.170 HD
BRANCH  23  28
HETATM   28  S1  UNL     1      24.052 -14.716 -26.661  1.00  0.00    -0.098 SA
HETATM   29  C15 UNL     1      22.644 -15.866 -26.569  1.00  0.00     0.099 C 
ENDBRANCH  23  28
BRANCH  26  30
HETATM   30  O5  UNL     1      24.748 -10.311 -23.993  1.00  0.00    -0.344 OA
ATOM     31  H5  UNL     1      25.674 -10.100 -23.973  1.00  0.00     0.219 HD
ENDBRANCH  26  30
ENDBRANCH  16  21
BRANCH  19  32
HETATM   32  S3  UNL     1      18.122  -8.345 -24.014  1.00  0.00     0.290 S 
HETATM   33  O6  UNL     1      16.795  -8.393 -23.310  1.00  0.00    -0.198 OA
HETATM   34  O7  UNL     1      18.025  -8.793 -25.428  1.00  0.00    -0.198 OA
BRANCH  32  35
HETATM   35  N8  UNL     1      18.609  -6.687 -24.045  1.00  0.00    -0.322 N 
ATOM     36  H82 UNL     1      18.414  -6.014 -23.303  1.00  0.00     0.169 HD
ATOM     37  H81 UNL     1      19.113  -6.498 -24.911  1.00  0.00     0.169 HD
ENDBRANCH  32  35
ENDBRANCH  19  32
ENDBRANCH  13  14
ENDBRANCH  10  13
BRANCH   9  38
HETATM   38  C8  UNL     1      22.098  -8.099 -24.177  1.00  0.00     0.212 C 
HETATM   39  O3  UNL     1      21.473  -6.840 -24.112  1.00  0.00    -0.644 OA
HETATM   40  O4  UNL     1      23.165  -8.186 -23.386  1.00  0.00    -0.644 OA
ENDBRANCH   9  38
BRANCH  11  41
HETATM   41  C18 UNL     1      21.133 -10.893 -28.175  1.00  0.00     0.089 C 
BRANCH  41  42
HETATM   42  C19 UNL     1      21.553 -12.328 -27.956  1.00  0.00     0.210 C 
BRANCH  42  43
HETATM   43  S4  UNL     1      21.489 -13.242 -29.484  1.00  0.00     0.106 S 
HETATM   44  O8  UNL     1      20.912 -12.401 -30.567  1.00  0.00    -0.595 OA
HETATM   45  O9  UNL     1      22.929 -13.529 -29.865  1.00  0.00    -0.595 OA
HETATM   46  O10 UNL     1      20.713 -14.673 -29.254  1.00  0.00    -0.595 OA
ENDBRANCH  42  43
ENDBRANCH  41  42
ENDBRANCH  11  41
BRANCH   1  47
HETATM   47  C2  UNL     1      23.214  -9.646 -30.022  1.00  0.00     0.367 C 
BRANCH  47  48
HETATM   48  N1  UNL     1      24.192 -10.728 -30.124  1.00  0.00    -0.063 N 
HETATM   49  C1  UNL     1      24.478 -10.925 -31.524  1.00  0.00     0.269 C 
ATOM     50  H12 UNL     1      23.890 -11.582 -29.656  1.00  0.00     0.278 HD
ATOM     51  H11 UNL     1      25.031 -10.560 -29.568  1.00  0.00     0.278 HD
ENDBRANCH  47  48
ENDBRANCH   1  47
TORSDOF 13
ENDMDL
MODEL 4
REMARK VINA RESULT: -5.761345070      2.654      5.399
REMARK  13 active torsions:
REMARK  status: ('A' for Active; 'I' for Inactive)
REMARK    1  A    between atoms: N1_2  and  C2_5 
REMARK    2  A    between atoms: C2_5  and  N2_6 
REMARK    3  A    between atoms: C7_14  and  C8_15 
REMARK    4  A    between atoms: C9_18  and  C10_19 
REMARK    5  A    between atoms: C10_19  and  N4_20 
REMARK    6  A    between atoms: C12_22  and  C13_23 
REMARK    7  A    between atoms: C14_26  and  S1_27 
REMARK    8  A    between atoms: C16_31  and  O5_32 
REMARK    9  A    between atoms: C17_37  and  S3_38 
REMARK   10  A    between atoms: S3_38  and  N8_39 
REMARK   11  A    between atoms: N9_44  and  C18_45 
REMARK   12  A    between atoms: C18_45  and  C19_46 
REMARK   13  A    between atoms: C19_46  and  S4_47 
ROOT
HETATM    1  N2  UNL     1      24.838 -10.639 -27.784  1.00  0.00    -0.258 N 
HETATM    2  C3  UNL     1      25.770  -9.626 -27.942  1.00  0.00     0.334 A 
HETATM    3  O1  UNL     1      26.657  -9.871 -28.839  1.00  0.00    -0.246 OA
HETATM    4  N3  UNL     1      25.792  -8.503 -27.269  1.00  0.00    -0.270 N 
HETATM    5  C4  UNL     1      26.797  -7.486 -27.488  1.00  0.00     0.164 C 
HETATM    6  C5  UNL     1      24.866  -8.283 -26.355  1.00  0.00     0.266 A 
HETATM    7  O2  UNL     1      24.865  -7.209 -25.700  1.00  0.00    -0.267 OA
HETATM    8  C6  UNL     1      23.886  -9.222 -26.107  1.00  0.00     0.096 A 
HETATM    9  C7  UNL     1      22.854  -9.287 -25.236  1.00  0.00     0.088 A 
HETATM   10  C9  UNL     1      22.201 -10.547 -25.436  1.00  0.00     0.074 A 
HETATM   11  N9  UNL     1      22.850 -11.198 -26.411  1.00  0.00    -0.308 N 
HETATM   12  C20 UNL     1      23.893 -10.430 -26.859  1.00  0.00     0.136 A 
ENDROOT
BRANCH  10  13
HETATM   13  C10 UNL     1      21.105 -10.838 -24.575  1.00  0.00     0.131 C 
BRANCH  13  14
HETATM   14  N4  UNL     1      20.932 -10.582 -23.192  1.00  0.00    -0.287 N 
HETATM   15  C11 UNL     1      21.732 -11.154 -22.174  1.00  0.00     0.101 A 
HETATM   16  C12 UNL     1      22.737 -11.958 -22.069  1.00  0.00     0.073 C 
HETATM   17  S2  UNL     1      20.998 -10.399 -20.636  1.00  0.00     0.006 SA
HETATM   18  N7  UNL     1      19.826  -9.474 -21.483  1.00  0.00    -0.299 N 
HETATM   19  C17 UNL     1      19.917  -9.671 -22.716  1.00  0.00     0.237 A 
ATOM     20  H7  UNL     1      19.150  -8.851 -21.043  1.00  0.00     0.176 HD
BRANCH  16  21
HETATM   21  C13 UNL     1      23.530 -12.669 -23.011  1.00  0.00     0.088 A 
HETATM   22  N5  UNL     1      23.451 -13.841 -23.589  1.00  0.00    -0.333 N 
HETATM   23  C14 UNL     1      24.459 -14.097 -24.426  1.00  0.00     0.146 A 
ATOM     24  H5  UNL     1      22.690 -14.498 -23.415  1.00  0.00     0.168 HD
HETATM   25  N6  UNL     1      25.251 -13.013 -24.389  1.00  0.00    -0.316 N 
HETATM   26  C16 UNL     1      24.734 -12.114 -23.547  1.00  0.00     0.169 A 
ATOM     27  H6  UNL     1      26.113 -12.894 -24.921  1.00  0.00     0.170 HD
BRANCH  23  28
HETATM   28  S1  UNL     1      24.707 -15.571 -25.383  1.00  0.00    -0.098 SA
HETATM   29  C15 UNL     1      23.121 -16.345 -25.830  1.00  0.00     0.099 C 
ENDBRANCH  23  28
BRANCH  26  30
HETATM   30  O5  UNL     1      25.264 -10.869 -23.242  1.00  0.00    -0.344 OA
ATOM     31  H5  UNL     1      25.833 -10.352 -23.799  1.00  0.00     0.219 HD
ENDBRANCH  26  30
ENDBRANCH  16  21
BRANCH  19  32
HETATM   32  S3  UNL     1      18.819  -8.758 -23.806  1.00  0.00     0.290 S 
HETATM   33  O6  UNL     1      17.402  -8.900 -23.327  1.00  0.00    -0.198 OA
HETATM   34  O7  UNL     1      18.978  -9.171 -25.225  1.00  0.00    -0.198 OA
BRANCH  32  35
HETATM   35  N8  UNL     1      19.203  -7.074 -23.727  1.00  0.00    -0.322 N 
ATOM     36  H82 UNL     1      19.057  -6.486 -22.906  1.00  0.00     0.169 HD
ATOM     37  H81 UNL     1      19.591  -6.773 -24.621  1.00  0.00     0.169 HD
ENDBRANCH  32  35
ENDBRANCH  19  32
ENDBRANCH  13  14
ENDBRANCH  10  13
BRANCH   9  38
HETATM   38  C8  UNL     1      22.481  -8.317 -24.188  1.00  0.00     0.212 C 
HETATM   39  O3  UNL     1      21.956  -7.145 -24.762  1.00  0.00    -0.644 OA
HETATM   40  O4  UNL     1      23.280  -8.071 -23.152  1.00  0.00    -0.644 OA
ENDBRANCH   9  38
BRANCH  11  41
HETATM   41  C18 UNL     1      22.554 -12.481 -26.904  1.00  0.00     0.089 C 
BRANCH  41  42
HETATM   42  C19 UNL     1      21.393 -12.636 -27.859  1.00  0.00     0.210 C 
BRANCH  42  43
HETATM   43  S4  UNL     1      21.723 -13.924 -29.044  1.00  0.00     0.106 S 
HETATM   44  O8  UNL     1      21.740 -13.367 -30.424  1.00  0.00    -0.595 OA
HETATM   45  O9  UNL     1      23.126 -14.421 -28.749  1.00  0.00    -0.595 OA
HETATM   46  O10 UNL     1      20.671 -15.170 -28.833  1.00  0.00    -0.595 OA
ENDBRANCH  42  43
ENDBRANCH  41  42
ENDBRANCH  11  41
BRANCH   1  47
HETATM   47  C2  UNL     1      25.007 -11.798 -28.581  1.00  0.00     0.367 C 
BRANCH  47  48
HETATM   48  N1  UNL     1      24.388 -11.684 -29.902  1.00  0.00    -0.063 N 
HETATM   49  C1  UNL     1      25.200 -12.433 -30.829  1.00  0.00     0.269 C 
ATOM     50  H12 UNL     1      24.245 -10.716 -30.191  1.00  0.00     0.278 HD
ATOM     51  H11 UNL     1      23.409 -11.972 -29.908  1.00  0.00     0.278 HD
ENDBRANCH  47  48
ENDBRANCH   1  47
TORSDOF 13
ENDMDL
MODEL 5
REMARK VINA RESULT: -5.718906219      1.831      4.420
REMARK  13 active torsions:
REMARK  status: ('A' for Active; 'I' for Inactive)
REMARK    1  A    between atoms: N1_2  and  C2_5 
REMARK    2  A    between atoms: C2_5  and  N2_6 
REMARK    3  A    between atoms: C7_14  and  C8_15 
REMARK    4  A    between atoms: C9_18  and  C10_19 
REMARK    5  A    between atoms: C10_19  and  N4_20 
REMARK    6  A    between atoms: C12_22  and  C13_23 
REMARK    7  A    between atoms: C14_26  and  S1_27 
REMARK    8  A    between atoms: C16_31  and  O5_32 
REMARK    9  A    between atoms: C17_37  and  S3_38 
REMARK   10  A    between atoms: S3_38  and  N8_39 
REMARK   11  A    between atoms: N9_44  and  C18_45 
REMARK   12  A    between atoms: C18_45  and  C19_46 
REMARK   13  A    between atoms: C19_46  and  S4_47 
ROOT
HETATM    1  N2  UNL     1      25.378 -10.798 -27.777  1.00  0.00    -0.258 N 
HETATM    2  C3  UNL     1      26.084  -9.684 -28.201  1.00  0.00     0.334 A 
HETATM    3  O1  UNL     1      26.920  -9.926 -29.146  1.00  0.00    -0.246 OA
HETATM    4  N3  UNL     1      25.950  -8.473 -27.721  1.00  0.00    -0.270 N 
HETATM    5  C4  UNL     1      26.722  -7.352 -28.214  1.00  0.00     0.164 C 
HETATM    6  C5  UNL     1      25.082  -8.257 -26.751  1.00  0.00     0.266 A 
HETATM    7  O2  UNL     1      24.934  -7.101 -26.278  1.00  0.00    -0.267 OA
HETATM    8  C6  UNL     1      24.322  -9.293 -26.245  1.00  0.00     0.096 A 
HETATM    9  C7  UNL     1      23.400  -9.379 -25.260  1.00  0.00     0.088 A 
HETATM   10  C9  UNL     1      22.984 -10.748 -25.182  1.00  0.00     0.074 A 
HETATM   11  N9  UNL     1      23.656 -11.439 -26.111  1.00  0.00    -0.308 N 
HETATM   12  C20 UNL     1      24.493 -10.594 -26.793  1.00  0.00     0.136 A 
ENDROOT
BRANCH  10  13
HETATM   13  C10 UNL     1      22.041 -11.067 -24.163  1.00  0.00     0.131 C 
BRANCH  13  14
HETATM   14  N4  UNL     1      20.896 -10.361 -23.719  1.00  0.00    -0.287 N 
HETATM   15  C11 UNL     1      19.865  -9.904 -24.575  1.00  0.00     0.101 A 
HETATM   16  C12 UNL     1      19.569  -9.926 -25.832  1.00  0.00     0.073 C 
HETATM   17  S2  UNL     1      18.692  -9.098 -23.371  1.00  0.00     0.006 SA
HETATM   18  N7  UNL     1      19.641  -9.465 -21.989  1.00  0.00    -0.299 N 
HETATM   19  C17 UNL     1      20.681 -10.077 -22.318  1.00  0.00     0.237 A 
ATOM     20  H7  UNL     1      19.391  -9.217 -21.031  1.00  0.00     0.176 HD
BRANCH  16  21
HETATM   21  C13 UNL     1      20.208 -10.463 -26.983  1.00  0.00     0.088 A 
HETATM   22  N5  UNL     1      20.786  -9.955 -28.042  1.00  0.00    -0.333 N 
HETATM   23  C14 UNL     1      21.254 -10.872 -28.892  1.00  0.00     0.146 A 
ATOM     24  H5  UNL     1      20.870  -8.951 -28.203  1.00  0.00     0.168 HD
HETATM   25  N6  UNL     1      20.958 -12.062 -28.346  1.00  0.00    -0.316 N 
HETATM   26  C16 UNL     1      20.323 -11.874 -27.186  1.00  0.00     0.169 A 
ATOM     27  H6  UNL     1      21.183 -12.970 -28.754  1.00  0.00     0.170 HD
BRANCH  23  28
HETATM   28  S1  UNL     1      22.087 -10.577 -30.431  1.00  0.00    -0.098 SA
HETATM   29  C15 UNL     1      23.233  -9.168 -30.306  1.00  0.00     0.099 C 
ENDBRANCH  23  28
BRANCH  26  30
HETATM   30  O5  UNL     1      19.858 -12.861 -26.330  1.00  0.00    -0.344 OA
ATOM     31  H5  UNL     1      20.203 -13.061 -25.468  1.00  0.00     0.219 HD
ENDBRANCH  26  30
ENDBRANCH  16  21
BRANCH  19  32
HETATM   32  S3  UNL     1      21.800 -10.613 -21.020  1.00  0.00     0.290 S 
HETATM   33  O6  UNL     1      21.853 -12.114 -20.989  1.00  0.00    -0.198 OA
HETATM   34  O7  UNL     1      21.435 -10.035 -19.700  1.00  0.00    -0.198 OA
BRANCH  32  35
HETATM   35  N8  UNL     1      23.401 -10.067 -21.381  1.00  0.00    -0.322 N 
ATOM     36  H82 UNL     1      23.627  -9.367 -22.087  1.00  0.00     0.169 HD
ATOM     37  H81 UNL     1      24.067 -10.553 -20.780  1.00  0.00     0.169 HD
ENDBRANCH  32  35
ENDBRANCH  19  32
ENDBRANCH  13  14
ENDBRANCH  10  13
BRANCH   9  38
HETATM   38  C8  UNL     1      22.942  -8.318 -24.342  1.00  0.00     0.212 C 
HETATM   39  O3  UNL     1      22.181  -7.359 -25.033  1.00  0.00    -0.644 OA
HETATM   40  O4  UNL     1      23.761  -7.777 -23.442  1.00  0.00    -0.644 OA
ENDBRANCH   9  38
BRANCH  11  41
HETATM   41  C18 UNL     1      23.568 -12.820 -26.357  1.00  0.00     0.089 C 
BRANCH  41  42
HETATM   42  C19 UNL     1      24.304 -13.765 -25.436  1.00  0.00     0.210 C 
BRANCH  42  43
HETATM   43  S4  UNL     1      23.156 -14.782 -24.530  1.00  0.00     0.106 S 
HETATM   44  O8  UNL     1      21.786 -14.648 -25.095  1.00  0.00    -0.595 OA
HETATM   45  O9  UNL     1      23.592 -16.218 -24.760  1.00  0.00    -0.595 OA
HETATM   46  O10 UNL     1      23.258 -14.455 -22.922  1.00  0.00    -0.595 OA
ENDBRANCH  42  43
ENDBRANCH  41  42
ENDBRANCH  11  41
BRANCH   1  47
HETATM   47  C2  UNL     1      25.693 -12.032 -28.397  1.00  0.00     0.367 C 
BRANCH  47  48
HETATM   48  N1  UNL     1      25.195 -12.132 -29.769  1.00  0.00    -0.063 N 
HETATM   49  C1  UNL     1      24.568 -13.423 -29.910  1.00  0.00     0.269 C 
ATOM     50  H12 UNL     1      25.919 -11.963 -30.467  1.00  0.00     0.278 HD
ATOM     51  H11 UNL     1      24.579 -11.361 -30.025  1.00  0.00     0.278 HD
ENDBRANCH  47  48
ENDBRANCH   1  47
TORSDOF 13
ENDMDL
