MODEL 1
REMARK VINA RESULT: -8.609839280      0.000      0.000
REMARK  11 active torsions:
REMARK  status: ('A' for Active; 'I' for Inactive)
REMARK    1  A    between atoms: N1_2  and  C1_4 
REMARK    2  A    between atoms: C4_7  and  C5_8 
REMARK    3  A    between atoms: C5_8  and  C6_9 
REMARK    4  A    between atoms: C7_10  and  C8_11 
REMARK    5  A    between atoms: C11_14  and  O3_15 
REMARK    6  A    between atoms: O3_15  and  C12_16 
REMARK    7  A    between atoms: C13_18  and  C14_19 
REMARK    8  A    between atoms: C14_19  and  O5_20 
REMARK    9  A    between atoms: C15_22  and  O6_23 
REMARK   10  A    between atoms: C16_25  and  O7_26 
REMARK   11  A    between atoms: C17_28  and  O8_29 
ROOT
HETATM    1  C8  UNL     1     -66.854 -12.846  49.876  1.00  0.00    -0.035 A 
HETATM    2  C9  UNL     1     -68.078 -12.293  49.421  1.00  0.00     0.014 A 
HETATM    3  C10 UNL     1     -69.256 -12.873  49.760  1.00  0.00     0.039 A 
HETATM    4  C11 UNL     1     -69.344 -14.039  50.566  1.00  0.00     0.089 A 
HETATM    5  C18 UNL     1     -68.171 -14.577  51.006  1.00  0.00     0.045 A 
HETATM    6 BR1  UNL     1     -68.080 -16.155  52.111  1.00  0.00    -0.048 Br
HETATM    7  C19 UNL     1     -66.964 -13.969  50.648  1.00  0.00     0.033 A 
ENDROOT
BRANCH   4   8
HETATM    8  O3  UNL     1     -70.549 -14.522  50.836  1.00  0.00    -0.316 OA
BRANCH   8   9
HETATM    9  C12 UNL     1     -71.626 -15.154  50.369  1.00  0.00     0.298 C 
HETATM   10  O4  UNL     1     -72.752 -14.330  50.534  1.00  0.00    -0.348 OA
HETATM   11  C13 UNL     1     -73.866 -14.717  49.859  1.00  0.00     0.179 C 
HETATM   12  C15 UNL     1     -73.835 -16.118  49.296  1.00  0.00     0.180 C 
HETATM   13  C16 UNL     1     -72.588 -16.450  48.548  1.00  0.00     0.183 C 
HETATM   14  C17 UNL     1     -71.466 -15.525  48.890  1.00  0.00     0.205 C 
BRANCH  11  15
HETATM   15  C14 UNL     1     -74.313 -13.714  48.809  1.00  0.00     0.198 C 
BRANCH  15  16
HETATM   16  O5  UNL     1     -75.025 -12.669  49.361  1.00  0.00    -0.398 OA
ATOM     17  H5  UNL     1     -75.952 -12.724  49.161  1.00  0.00     0.209 HD
ENDBRANCH  15  16
ENDBRANCH  11  15
BRANCH  12  18
HETATM   18  O6  UNL     1     -74.130 -17.041  50.313  1.00  0.00    -0.390 OA
ATOM     19  H6  UNL     1     -73.393 -17.104  50.909  1.00  0.00     0.210 HD
ENDBRANCH  12  18
BRANCH  13  20
HETATM   20  O7  UNL     1     -72.800 -16.521  47.160  1.00  0.00    -0.390 OA
ATOM     21  H7  UNL     1     -72.958 -17.409  46.864  1.00  0.00     0.210 HD
ENDBRANCH  13  20
BRANCH  14  22
HETATM   22  O8  UNL     1     -70.271 -16.247  48.806  1.00  0.00    -0.388 OA
ATOM     23  H8  UNL     1     -69.582 -15.635  49.037  1.00  0.00     0.210 HD
ENDBRANCH  14  22
ENDBRANCH   8   9
ENDBRANCH   4   8
BRANCH   1  24
HETATM   24  C7  UNL     1     -65.612 -12.262  49.423  1.00  0.00     0.007 C 
HETATM   25  C6  UNL     1     -64.790 -12.711  48.567  1.00  0.00    -0.021 C 
BRANCH  25  26
HETATM   26  C5  UNL     1     -64.773 -13.916  47.772  1.00  0.00     0.065 C 
BRANCH  26  27
HETATM   27  C4  UNL     1     -66.007 -13.859  46.883  1.00  0.00    -0.055 A 
HETATM   28  C3  UNL     1     -66.092 -12.930  45.880  1.00  0.00     0.010 A 
HETATM   29  C2  UNL     1     -67.234 -12.927  45.110  1.00  0.00     0.036 A 
HETATM   30  C1  UNL     1     -68.278 -13.826  45.322  1.00  0.00     0.102 A 
HETATM   31  C21 UNL     1     -68.140 -14.741  46.344  1.00  0.00     0.036 A 
HETATM   32  C20 UNL     1     -66.995 -14.774  47.146  1.00  0.00     0.010 A 
BRANCH  30  33
HETATM   33  N1  UNL     1     -69.440 -13.781  44.494  1.00  0.00    -0.116 N 
HETATM   34  O1  UNL     1     -69.267 -13.599  43.274  1.00  0.00    -0.532 OA
HETATM   35  O2  UNL     1     -70.670 -13.934  45.065  1.00  0.00    -0.532 OA
ENDBRANCH  30  33
ENDBRANCH  26  27
ENDBRANCH  25  26
ENDBRANCH   1  24
TORSDOF 11
ENDMDL
MODEL 2
REMARK VINA RESULT: -8.400917818      3.485      5.581
REMARK  11 active torsions:
REMARK  status: ('A' for Active; 'I' for Inactive)
REMARK    1  A    between atoms: N1_2  and  C1_4 
REMARK    2  A    between atoms: C4_7  and  C5_8 
REMARK    3  A    between atoms: C5_8  and  C6_9 
REMARK    4  A    between atoms: C7_10  and  C8_11 
REMARK    5  A    between atoms: C11_14  and  O3_15 
REMARK    6  A    between atoms: O3_15  and  C12_16 
REMARK    7  A    between atoms: C13_18  and  C14_19 
REMARK    8  A    between atoms: C14_19  and  O5_20 
REMARK    9  A    between atoms: C15_22  and  O6_23 
REMARK   10  A    between atoms: C16_25  and  O7_26 
REMARK   11  A    between atoms: C17_28  and  O8_29 
ROOT
HETATM    1  C8  UNL     1     -69.513 -14.681  46.337  1.00  0.00    -0.035 A 
HETATM    2  C9  UNL     1     -68.584 -14.363  47.360  1.00  0.00     0.014 A 
HETATM    3  C10 UNL     1     -69.018 -14.093  48.615  1.00  0.00     0.039 A 
HETATM    4  C11 UNL     1     -70.390 -14.108  48.983  1.00  0.00     0.089 A 
HETATM    5  C18 UNL     1     -71.289 -14.412  48.004  1.00  0.00     0.045 A 
HETATM    6 BR1  UNL     1     -73.193 -14.486  48.303  1.00  0.00    -0.048 Br
HETATM    7  C19 UNL     1     -70.827 -14.687  46.714  1.00  0.00     0.033 A 
ENDROOT
BRANCH   4   8
HETATM    8  O3  UNL     1     -70.703 -13.830  50.240  1.00  0.00    -0.316 OA
BRANCH   8   9
HETATM    9  C12 UNL     1     -70.386 -13.981  51.527  1.00  0.00     0.298 C 
HETATM   10  O4  UNL     1     -69.889 -15.278  51.731  1.00  0.00    -0.348 OA
HETATM   11  C13 UNL     1     -69.270 -15.489  52.923  1.00  0.00     0.179 C 
HETATM   12  C15 UNL     1     -69.480 -14.417  53.966  1.00  0.00     0.180 C 
HETATM   13  C16 UNL     1     -69.270 -13.028  53.467  1.00  0.00     0.183 C 
HETATM   14  C17 UNL     1     -69.346 -12.948  51.977  1.00  0.00     0.205 C 
BRANCH  11  15
HETATM   15  C14 UNL     1     -67.798 -15.837  52.783  1.00  0.00     0.198 C 
BRANCH  15  16
HETATM   16  O5  UNL     1     -67.064 -15.434  53.880  1.00  0.00    -0.398 OA
ATOM     17  H5  UNL     1     -66.811 -14.520  53.824  1.00  0.00     0.209 HD
ENDBRANCH  15  16
ENDBRANCH  11  15
BRANCH  12  18
HETATM   18  O6  UNL     1     -70.729 -14.598  54.582  1.00  0.00    -0.390 OA
ATOM     19  H6  UNL     1     -71.394 -14.123  54.099  1.00  0.00     0.210 HD
ENDBRANCH  12  18
BRANCH  13  20
HETATM   20  O7  UNL     1     -68.081 -12.457  53.958  1.00  0.00    -0.390 OA
ATOM     21  H7  UNL     1     -68.187 -11.540  54.181  1.00  0.00     0.210 HD
ENDBRANCH  13  20
BRANCH  14  22
HETATM   22  O8  UNL     1     -69.878 -11.700  51.638  1.00  0.00    -0.388 OA
ATOM     23  H8  UNL     1     -69.740 -11.605  50.703  1.00  0.00     0.210 HD
ENDBRANCH  14  22
ENDBRANCH   8   9
ENDBRANCH   4   8
BRANCH   1  24
HETATM   24  C7  UNL     1     -69.030 -14.872  44.988  1.00  0.00     0.007 C 
HETATM   25  C6  UNL     1     -68.332 -14.087  44.277  1.00  0.00    -0.021 C 
BRANCH  25  26
HETATM   26  C5  UNL     1     -67.793 -12.770  44.523  1.00  0.00     0.065 C 
BRANCH  26  27
HETATM   27  C4  UNL     1     -66.288 -12.944  44.674  1.00  0.00    -0.055 A 
HETATM   28  C3  UNL     1     -65.720 -12.973  45.920  1.00  0.00     0.010 A 
HETATM   29  C2  UNL     1     -64.353 -13.132  45.992  1.00  0.00     0.036 A 
HETATM   30  C1  UNL     1     -63.557 -13.261  44.856  1.00  0.00     0.102 A 
HETATM   31  C21 UNL     1     -64.181 -13.225  43.627  1.00  0.00     0.036 A 
HETATM   32  C20 UNL     1     -65.566 -13.065  43.514  1.00  0.00     0.010 A 
BRANCH  30  33
HETATM   33  N1  UNL     1     -62.145 -13.424  44.986  1.00  0.00    -0.116 N 
HETATM   34  O1  UNL     1     -61.518 -13.807  43.979  1.00  0.00    -0.532 OA
HETATM   35  O2  UNL     1     -61.551 -13.160  46.185  1.00  0.00    -0.532 OA
ENDBRANCH  30  33
ENDBRANCH  26  27
ENDBRANCH  25  26
ENDBRANCH   1  24
TORSDOF 11
ENDMDL
MODEL 3
REMARK VINA RESULT: -8.285726519      3.481      5.343
REMARK  11 active torsions:
REMARK  status: ('A' for Active; 'I' for Inactive)
REMARK    1  A    between atoms: N1_2  and  C1_4 
REMARK    2  A    between atoms: C4_7  and  C5_8 
REMARK    3  A    between atoms: C5_8  and  C6_9 
REMARK    4  A    between atoms: C7_10  and  C8_11 
REMARK    5  A    between atoms: C11_14  and  O3_15 
REMARK    6  A    between atoms: O3_15  and  C12_16 
REMARK    7  A    between atoms: C13_18  and  C14_19 
REMARK    8  A    between atoms: C14_19  and  O5_20 
REMARK    9  A    between atoms: C15_22  and  O6_23 
REMARK   10  A    between atoms: C16_25  and  O7_26 
REMARK   11  A    between atoms: C17_28  and  O8_29 
ROOT
HETATM    1  C8  UNL     1     -68.760 -14.739  46.098  1.00  0.00    -0.035 A 
HETATM    2  C9  UNL     1     -70.041 -15.024  46.634  1.00  0.00     0.014 A 
HETATM    3  C10 UNL     1     -70.181 -15.313  47.951  1.00  0.00     0.039 A 
HETATM    4  C11 UNL     1     -69.088 -15.351  48.858  1.00  0.00     0.089 A 
HETATM    5  C18 UNL     1     -67.853 -15.079  48.349  1.00  0.00     0.045 A 
HETATM    6 BR1  UNL     1     -66.246 -15.077  49.416  1.00  0.00    -0.048 Br
HETATM    7  C19 UNL     1     -67.724 -14.784  46.988  1.00  0.00     0.033 A 
ENDROOT
BRANCH   4   8
HETATM    8  O3  UNL     1     -69.338 -15.643  50.126  1.00  0.00    -0.316 OA
BRANCH   8   9
HETATM    9  C12 UNL     1     -69.807 -15.212  51.298  1.00  0.00     0.298 C 
HETATM   10  O4  UNL     1     -69.355 -16.064  52.319  1.00  0.00    -0.348 OA
HETATM   11  C13 UNL     1     -69.517 -15.600  53.585  1.00  0.00     0.179 C 
HETATM   12  C15 UNL     1     -70.429 -14.405  53.731  1.00  0.00     0.180 C 
HETATM   13  C16 UNL     1     -70.152 -13.303  52.765  1.00  0.00     0.183 C 
HETATM   14  C17 UNL     1     -69.364 -13.773  51.587  1.00  0.00     0.205 C 
BRANCH  11  15
HETATM   15  C14 UNL     1     -68.205 -15.382  54.319  1.00  0.00     0.198 C 
BRANCH  15  16
HETATM   16  O5  UNL     1     -68.298 -14.374  55.257  1.00  0.00    -0.398 OA
ATOM     17  H5  UNL     1     -67.514 -13.838  55.285  1.00  0.00     0.209 HD
ENDBRANCH  15  16
ENDBRANCH  11  15
BRANCH  12  18
HETATM   18  O6  UNL     1     -71.767 -14.829  53.714  1.00  0.00    -0.390 OA
ATOM     19  H6  UNL     1     -72.231 -14.392  53.011  1.00  0.00     0.210 HD
ENDBRANCH  12  18
BRANCH  13  20
HETATM   20  O7  UNL     1     -69.553 -12.189  53.382  1.00  0.00    -0.390 OA
ATOM     21  H7  UNL     1     -68.742 -11.935  52.958  1.00  0.00     0.210 HD
ENDBRANCH  13  20
BRANCH  14  22
HETATM   22  O8  UNL     1     -69.758 -13.022  50.476  1.00  0.00    -0.388 OA
ATOM     23  H8  UNL     1     -70.684 -12.846  50.598  1.00  0.00     0.210 HD
ENDBRANCH  14  22
ENDBRANCH   8   9
ENDBRANCH   4   8
BRANCH   1  24
HETATM   24  C7  UNL     1     -68.628 -14.528  44.674  1.00  0.00     0.007 C 
HETATM   25  C6  UNL     1     -68.032 -13.590  44.063  1.00  0.00    -0.021 C 
BRANCH  25  26
HETATM   26  C5  UNL     1     -67.307 -12.430  44.529  1.00  0.00     0.065 C 
BRANCH  26  27
HETATM   27  C4  UNL     1     -65.830 -12.793  44.462  1.00  0.00    -0.055 A 
HETATM   28  C3  UNL     1     -65.219 -12.973  43.250  1.00  0.00     0.010 A 
HETATM   29  C2  UNL     1     -63.881 -13.301  43.254  1.00  0.00     0.036 A 
HETATM   30  C1  UNL     1     -63.155 -13.450  44.433  1.00  0.00     0.102 A 
HETATM   31  C21 UNL     1     -63.819 -13.258  45.626  1.00  0.00     0.036 A 
HETATM   32  C20 UNL     1     -65.177 -12.923  45.661  1.00  0.00     0.010 A 
BRANCH  30  33
HETATM   33  N1  UNL     1     -61.769 -13.792  44.383  1.00  0.00    -0.116 N 
HETATM   34  O1  UNL     1     -61.159 -13.868  45.467  1.00  0.00    -0.532 OA
HETATM   35  O2  UNL     1     -61.181 -14.014  43.172  1.00  0.00    -0.532 OA
ENDBRANCH  30  33
ENDBRANCH  26  27
ENDBRANCH  25  26
ENDBRANCH   1  24
TORSDOF 11
ENDMDL
MODEL 4
REMARK VINA RESULT: -8.258135439      3.548      5.287
REMARK  11 active torsions:
REMARK  status: ('A' for Active; 'I' for Inactive)
REMARK    1  A    between atoms: N1_2  and  C1_4 
REMARK    2  A    between atoms: C4_7  and  C5_8 
REMARK    3  A    between atoms: C5_8  and  C6_9 
REMARK    4  A    between atoms: C7_10  and  C8_11 
REMARK    5  A    between atoms: C11_14  and  O3_15 
REMARK    6  A    between atoms: O3_15  and  C12_16 
REMARK    7  A    between atoms: C13_18  and  C14_19 
REMARK    8  A    between atoms: C14_19  and  O5_20 
REMARK    9  A    between atoms: C15_22  and  O6_23 
REMARK   10  A    between atoms: C16_25  and  O7_26 
REMARK   11  A    between atoms: C17_28  and  O8_29 
ROOT
HETATM    1  C8  UNL     1     -69.242 -14.487  45.737  1.00  0.00    -0.035 A 
HETATM    2  C9  UNL     1     -68.332 -14.368  46.819  1.00  0.00     0.014 A 
HETATM    3  C10 UNL     1     -68.794 -14.260  48.089  1.00  0.00     0.039 A 
HETATM    4  C11 UNL     1     -70.176 -14.258  48.416  1.00  0.00     0.089 A 
HETATM    5  C18 UNL     1     -71.056 -14.371  47.380  1.00  0.00     0.045 A 
HETATM    6 BR1  UNL     1     -72.971 -14.390  47.617  1.00  0.00    -0.048 Br
HETATM    7  C19 UNL     1     -70.566 -14.480  46.076  1.00  0.00     0.033 A 
ENDROOT
BRANCH   4   8
HETATM    8  O3  UNL     1     -70.517 -14.148  49.692  1.00  0.00    -0.316 OA
BRANCH   8   9
HETATM    9  C12 UNL     1     -70.325 -14.583  50.938  1.00  0.00     0.298 C 
HETATM   10  O4  UNL     1     -69.252 -13.883  51.512  1.00  0.00    -0.348 OA
HETATM   11  C13 UNL     1     -69.116 -14.017  52.857  1.00  0.00     0.179 C 
HETATM   12  C15 UNL     1     -69.922 -15.128  53.487  1.00  0.00     0.180 C 
HETATM   13  C16 UNL     1     -71.352 -15.161  53.066  1.00  0.00     0.183 C 
HETATM   14  C17 UNL     1     -71.582 -14.406  51.798  1.00  0.00     0.205 C 
BRANCH  11  15
HETATM   15  C14 UNL     1     -69.297 -12.712  53.614  1.00  0.00     0.198 C 
BRANCH  15  16
HETATM   16  O5  UNL     1     -69.388 -11.629  52.764  1.00  0.00    -0.398 OA
ATOM     17  H5  UNL     1     -68.894 -11.761  51.963  1.00  0.00     0.209 HD
ENDBRANCH  15  16
ENDBRANCH  11  15
BRANCH  12  18
HETATM   18  O6  UNL     1     -69.263 -16.353  53.298  1.00  0.00    -0.390 OA
ATOM     19  H6  UNL     1     -69.446 -16.682  52.426  1.00  0.00     0.210 HD
ENDBRANCH  12  18
BRANCH  13  20
HETATM   20  O7  UNL     1     -72.221 -14.739  54.088  1.00  0.00    -0.390 OA
ATOM     21  H7  UNL     1     -72.398 -13.807  54.048  1.00  0.00     0.210 HD
ENDBRANCH  13  20
BRANCH  14  22
HETATM   22  O8  UNL     1     -72.614 -15.040  51.099  1.00  0.00    -0.388 OA
ATOM     23  H8  UNL     1     -72.445 -15.971  51.176  1.00  0.00     0.210 HD
ENDBRANCH  14  22
ENDBRANCH   8   9
ENDBRANCH   4   8
BRANCH   1  24
HETATM   24  C7  UNL     1     -68.724 -14.506  44.388  1.00  0.00     0.007 C 
HETATM   25  C6  UNL     1     -67.915 -13.699  43.837  1.00  0.00    -0.021 C 
BRANCH  25  26
HETATM   26  C5  UNL     1     -67.249 -12.511  44.315  1.00  0.00     0.065 C 
BRANCH  26  27
HETATM   27  C4  UNL     1     -65.764 -12.843  44.364  1.00  0.00    -0.055 A 
HETATM   28  C3  UNL     1     -65.049 -12.981  43.204  1.00  0.00     0.010 A 
HETATM   29  C2  UNL     1     -63.710 -13.284  43.314  1.00  0.00     0.036 A 
HETATM   30  C1  UNL     1     -63.082 -13.448  44.547  1.00  0.00     0.102 A 
HETATM   31  C21 UNL     1     -63.848 -13.298  45.683  1.00  0.00     0.036 A 
HETATM   32  C20 UNL     1     -65.210 -12.990  45.611  1.00  0.00     0.010 A 
BRANCH  30  33
HETATM   33  N1  UNL     1     -61.690 -13.761  44.605  1.00  0.00    -0.116 N 
HETATM   34  O1  UNL     1     -61.137 -13.704  45.720  1.00  0.00    -0.532 OA
HETATM   35  O2  UNL     1     -61.034 -14.101  43.458  1.00  0.00    -0.532 OA
ENDBRANCH  30  33
ENDBRANCH  26  27
ENDBRANCH  25  26
ENDBRANCH   1  24
TORSDOF 11
ENDMDL
MODEL 5
REMARK VINA RESULT: -8.249612919      4.010      5.406
REMARK  11 active torsions:
REMARK  status: ('A' for Active; 'I' for Inactive)
REMARK    1  A    between atoms: N1_2  and  C1_4 
REMARK    2  A    between atoms: C4_7  and  C5_8 
REMARK    3  A    between atoms: C5_8  and  C6_9 
REMARK    4  A    between atoms: C7_10  and  C8_11 
REMARK    5  A    between atoms: C11_14  and  O3_15 
REMARK    6  A    between atoms: O3_15  and  C12_16 
REMARK    7  A    between atoms: C13_18  and  C14_19 
REMARK    8  A    between atoms: C14_19  and  O5_20 
REMARK    9  A    between atoms: C15_22  and  O6_23 
REMARK   10  A    between atoms: C16_25  and  O7_26 
REMARK   11  A    between atoms: C17_28  and  O8_29 
ROOT
HETATM    1  C8  UNL     1     -67.282 -13.487  44.803  1.00  0.00    -0.035 A 
HETATM    2  C9  UNL     1     -68.669 -13.624  44.540  1.00  0.00     0.014 A 
HETATM    3  C10 UNL     1     -69.498 -14.119  45.492  1.00  0.00     0.039 A 
HETATM    4  C11 UNL     1     -69.050 -14.523  46.778  1.00  0.00     0.089 A 
HETATM    5  C18 UNL     1     -67.718 -14.395  47.037  1.00  0.00     0.045 A 
HETATM    6 BR1  UNL     1     -66.916 -14.886  48.722  1.00  0.00    -0.048 Br
HETATM    7  C19 UNL     1     -66.875 -13.885  46.046  1.00  0.00     0.033 A 
ENDROOT
BRANCH   4   8
HETATM    8  O3  UNL     1     -69.947 -14.992  47.634  1.00  0.00    -0.316 OA
BRANCH   8   9
HETATM    9  C12 UNL     1     -71.120 -14.795  48.238  1.00  0.00     0.298 C 
HETATM   10  O4  UNL     1     -72.081 -15.648  47.670  1.00  0.00    -0.348 OA
HETATM   11  C13 UNL     1     -73.245 -15.762  48.361  1.00  0.00     0.179 C 
HETATM   12  C15 UNL     1     -73.464 -14.735  49.446  1.00  0.00     0.180 C 
HETATM   13  C16 UNL     1     -72.295 -14.544  50.353  1.00  0.00     0.183 C 
HETATM   14  C17 UNL     1     -71.027 -15.048  49.747  1.00  0.00     0.205 C 
BRANCH  11  15
HETATM   15  C14 UNL     1     -73.505 -17.167  48.876  1.00  0.00     0.198 C 
BRANCH  15  16
HETATM   16  O5  UNL     1     -74.149 -17.161  50.097  1.00  0.00    -0.398 OA
ATOM     17  H5  UNL     1     -74.083 -17.999  50.540  1.00  0.00     0.209 HD
ENDBRANCH  15  16
ENDBRANCH  11  15
BRANCH  12  18
HETATM   18  O6  UNL     1     -73.920 -13.536  48.874  1.00  0.00    -0.390 OA
ATOM     19  H6  UNL     1     -73.336 -12.826  49.115  1.00  0.00     0.210 HD
ENDBRANCH  12  18
BRANCH  13  20
HETATM   20  O7  UNL     1     -72.515 -15.089  51.631  1.00  0.00    -0.390 OA
ATOM     21  H7  UNL     1     -71.801 -14.906  52.229  1.00  0.00     0.210 HD
ENDBRANCH  13  20
BRANCH  14  22
HETATM   22  O8  UNL     1     -69.980 -14.242  50.204  1.00  0.00    -0.388 OA
ATOM     23  H8  UNL     1     -70.369 -13.398  50.401  1.00  0.00     0.210 HD
ENDBRANCH  14  22
ENDBRANCH   8   9
ENDBRANCH   4   8
BRANCH   1  24
HETATM   24  C7  UNL     1     -66.409 -13.046  43.739  1.00  0.00     0.007 C 
HETATM   25  C6  UNL     1     -65.141 -13.016  43.714  1.00  0.00    -0.021 C 
BRANCH  25  26
HETATM   26  C5  UNL     1     -64.139 -13.378  44.689  1.00  0.00     0.065 C 
BRANCH  26  27
HETATM   27  C4  UNL     1     -63.171 -12.205  44.764  1.00  0.00    -0.055 A 
HETATM   28  C3  UNL     1     -62.869 -11.637  45.973  1.00  0.00     0.010 A 
HETATM   29  C2  UNL     1     -61.987 -10.578  45.976  1.00  0.00     0.036 A 
HETATM   30  C1  UNL     1     -61.411 -10.085  44.807  1.00  0.00     0.102 A 
HETATM   31  C21 UNL     1     -61.750 -10.694  43.618  1.00  0.00     0.036 A 
HETATM   32  C20 UNL     1     -62.641 -11.771  43.575  1.00  0.00     0.010 A 
BRANCH  30  33
HETATM   33  N1  UNL     1     -60.503  -8.985  44.865  1.00  0.00    -0.116 N 
HETATM   34  O1  UNL     1     -59.314  -9.209  44.567  1.00  0.00    -0.532 OA
HETATM   35  O2  UNL     1     -60.966  -7.758  45.240  1.00  0.00    -0.532 OA
ENDBRANCH  30  33
ENDBRANCH  26  27
ENDBRANCH  25  26
ENDBRANCH   1  24
TORSDOF 11
ENDMDL
