MODEL 1
REMARK VINA RESULT: -8.258984512      0.000      0.000
REMARK  8 active torsions:
REMARK  status: ('A' for Active; 'I' for Inactive)
REMARK    1  A    between atoms: O1_2  and  C2_3 
REMARK    2  A    between atoms: C2_3  and  C3_4 
REMARK    3  A    between atoms: C3_4  and  O2_6 
REMARK    4  A    between atoms: C3_4  and  C5_8 
REMARK    5  A    between atoms: C5_8  and  O3_10 
REMARK    6  A    between atoms: C5_8  and  C7_12 
REMARK    7  A    between atoms: C8_13  and  C9_14 
REMARK    8  A    between atoms: C11_16  and  C12_17 
ROOT
HETATM    1  C9  UNL     1      68.123  53.584  10.502  1.00  0.00    -0.062 C 
HETATM    2  C10 UNL     1      67.856  54.861   9.736  1.00  0.00     0.048 C 
HETATM    3  C11 UNL     1      69.248  52.963  10.364  1.00  0.00     0.007 C 
ENDROOT
BRANCH   1   4
HETATM    4  C8  UNL     1      67.085  53.080  11.389  1.00  0.00     0.006 C 
HETATM    5  C7  UNL     1      66.328  52.050  11.031  1.00  0.00     0.014 C 
BRANCH   5   6
HETATM    6  C5  UNL     1      65.275  51.551  11.947  1.00  0.00     0.104 C 
HETATM    7  C6  UNL     1      65.812  50.585  12.963  1.00  0.00     0.053 C 
BRANCH   6   8
HETATM    8  C3  UNL     1      64.173  50.978  11.112  1.00  0.00     0.109 C 
HETATM    9  C4  UNL     1      63.179  52.115  10.849  1.00  0.00     0.051 C 
BRANCH   8  10
HETATM   10  C2  UNL     1      63.464  49.830  11.768  1.00  0.00     0.207 C 
BRANCH  10  11
HETATM   11  O1  UNL     1      62.667  49.112  10.913  1.00  0.00    -0.393 OA
HETATM   12  C1  UNL     1      63.046  47.781  10.946  1.00  0.00     0.201 C 
ENDBRANCH  10  11
ENDBRANCH   8  10
BRANCH   8  13
HETATM   13  O2  UNL     1      64.667  50.587   9.878  1.00  0.00    -0.385 OA
ATOM     14  H2  UNL     1      65.231  51.265   9.524  1.00  0.00     0.210 HD
ENDBRANCH   8  13
ENDBRANCH   6   8
BRANCH   6  15
HETATM   15  O3  UNL     1      64.763  52.676  12.635  1.00  0.00    -0.383 OA
ATOM     16  H3  UNL     1      65.449  53.012  13.199  1.00  0.00     0.211 HD
ENDBRANCH   6  15
ENDBRANCH   5   6
ENDBRANCH   1   4
BRANCH   3  17
HETATM   17  C12 UNL     1      69.584  51.748  11.051  1.00  0.00     0.004 C 
HETATM   18  C13 UNL     1      70.202  50.738  10.387  1.00  0.00    -0.067 C 
HETATM   19  C14 UNL     1      70.603  50.701   8.973  1.00  0.00     0.011 C 
HETATM   20  C24 UNL     1      70.561  49.472  11.078  1.00  0.00    -0.016 C 
HETATM   21  C15 UNL     1      69.476  50.299   8.050  1.00  0.00     0.015 C 
HETATM   22  C16 UNL     1      71.715  49.662   8.973  1.00  0.00     0.015 C 
HETATM   23  C17 UNL     1      71.163  48.672   9.980  1.00  0.00     0.006 C 
HETATM   24  C18 UNL     1      72.178  47.665  10.365  1.00  0.00    -0.043 C 
HETATM   25  C19 UNL     1      72.854  47.144   9.118  1.00  0.00     0.015 C 
HETATM   26  C20 UNL     1      71.611  46.515  11.123  1.00  0.00     0.015 C 
HETATM   27  C21 UNL     1      73.221  48.336  11.223  1.00  0.00     0.009 C 
HETATM   28  C22 UNL     1      72.647  48.999  12.434  1.00  0.00     0.002 C 
HETATM   29  C23 UNL     1      71.379  49.708  12.273  1.00  0.00     0.014 C 
HETATM   30  C25 UNL     1      69.222  48.818  11.453  1.00  0.00     0.020 C 
ENDBRANCH   3  17
TORSDOF 8
ENDMDL
MODEL 2
REMARK VINA RESULT: -8.083931717      3.525      7.595
REMARK  8 active torsions:
REMARK  status: ('A' for Active; 'I' for Inactive)
REMARK    1  A    between atoms: O1_2  and  C2_3 
REMARK    2  A    between atoms: C2_3  and  C3_4 
REMARK    3  A    between atoms: C3_4  and  O2_6 
REMARK    4  A    between atoms: C3_4  and  C5_8 
REMARK    5  A    between atoms: C5_8  and  O3_10 
REMARK    6  A    between atoms: C5_8  and  C7_12 
REMARK    7  A    between atoms: C8_13  and  C9_14 
REMARK    8  A    between atoms: C11_16  and  C12_17 
ROOT
HETATM    1  C9  UNL     1      74.677  47.407   9.446  1.00  0.00    -0.062 C 
HETATM    2  C10 UNL     1      76.108  46.981   9.694  1.00  0.00     0.048 C 
HETATM    3  C11 UNL     1      74.009  48.017  10.368  1.00  0.00     0.007 C 
ENDROOT
BRANCH   1   4
HETATM    4  C8  UNL     1      74.083  47.111   8.151  1.00  0.00     0.006 C 
HETATM    5  C7  UNL     1      73.865  48.080   7.268  1.00  0.00     0.014 C 
BRANCH   5   6
HETATM    6  C5  UNL     1      73.259  47.760   5.954  1.00  0.00     0.104 C 
HETATM    7  C6  UNL     1      74.159  48.117   4.807  1.00  0.00     0.053 C 
BRANCH   6   8
HETATM    8  C3  UNL     1      71.923  48.432   5.888  1.00  0.00     0.109 C 
HETATM    9  C4  UNL     1      72.081  49.797   6.566  1.00  0.00     0.051 C 
BRANCH   8  10
HETATM   10  C2  UNL     1      70.832  47.655   6.565  1.00  0.00     0.207 C 
BRANCH  10  11
HETATM   11  O1  UNL     1      69.943  48.440   7.256  1.00  0.00    -0.393 OA
HETATM   12  C1  UNL     1      68.685  48.305   6.694  1.00  0.00     0.201 C 
ENDBRANCH  10  11
ENDBRANCH   8  10
BRANCH   8  13
HETATM   13  O2  UNL     1      71.581  48.679   4.569  1.00  0.00    -0.385 OA
ATOM     14  H2  UNL     1      72.353  48.633   4.018  1.00  0.00     0.210 HD
ENDBRANCH   8  13
ENDBRANCH   6   8
BRANCH   6  15
HETATM   15  O3  UNL     1      73.047  46.362   5.929  1.00  0.00    -0.383 OA
ATOM     16  H3  UNL     1      73.895  45.937   5.889  1.00  0.00     0.211 HD
ENDBRANCH   6  15
ENDBRANCH   5   6
ENDBRANCH   1   4
BRANCH   3  17
HETATM   17  C12 UNL     1      72.650  48.457  10.218  1.00  0.00     0.004 C 
HETATM   18  C13 UNL     1      71.968  48.941  11.286  1.00  0.00    -0.067 C 
HETATM   19  C14 UNL     1      72.446  49.093  12.668  1.00  0.00     0.011 C 
HETATM   20  C24 UNL     1      70.562  49.404  11.153  1.00  0.00    -0.016 C 
HETATM   21  C15 UNL     1      72.332  47.820  13.474  1.00  0.00     0.015 C 
HETATM   22  C16 UNL     1      71.533  50.179  13.217  1.00  0.00     0.015 C 
HETATM   23  C17 UNL     1      70.226  49.800  12.545  1.00  0.00     0.006 C 
HETATM   24  C18 UNL     1      69.203  50.857  12.712  1.00  0.00    -0.043 C 
HETATM   25  C19 UNL     1      69.185  51.304  14.156  1.00  0.00     0.015 C 
HETATM   26  C20 UNL     1      67.833  50.419  12.325  1.00  0.00     0.015 C 
HETATM   27  C21 UNL     1      69.587  52.038  11.857  1.00  0.00     0.009 C 
HETATM   28  C22 UNL     1      69.756  51.687  10.414  1.00  0.00     0.002 C 
HETATM   29  C23 UNL     1      70.410  50.417  10.104  1.00  0.00     0.014 C 
HETATM   30  C25 UNL     1      69.748  48.144  10.818  1.00  0.00     0.020 C 
ENDBRANCH   3  17
TORSDOF 8
ENDMDL
MODEL 3
REMARK VINA RESULT: -8.082560320      4.245      8.477
REMARK  8 active torsions:
REMARK  status: ('A' for Active; 'I' for Inactive)
REMARK    1  A    between atoms: O1_2  and  C2_3 
REMARK    2  A    between atoms: C2_3  and  C3_4 
REMARK    3  A    between atoms: C3_4  and  O2_6 
REMARK    4  A    between atoms: C3_4  and  C5_8 
REMARK    5  A    between atoms: C5_8  and  O3_10 
REMARK    6  A    between atoms: C5_8  and  C7_12 
REMARK    7  A    between atoms: C8_13  and  C9_14 
REMARK    8  A    between atoms: C11_16  and  C12_17 
ROOT
HETATM    1  C9  UNL     1      74.407  47.243   9.194  1.00  0.00    -0.062 C 
HETATM    2  C10 UNL     1      75.863  46.863   9.353  1.00  0.00     0.048 C 
HETATM    3  C11 UNL     1      73.863  48.092  10.001  1.00  0.00     0.007 C 
ENDROOT
BRANCH   1   4
HETATM    4  C8  UNL     1      73.646  46.627   8.117  1.00  0.00     0.006 C 
HETATM    5  C7  UNL     1      73.760  47.068   6.869  1.00  0.00     0.014 C 
BRANCH   5   6
HETATM    6  C5  UNL     1      72.977  46.429   5.785  1.00  0.00     0.104 C 
HETATM    7  C6  UNL     1      73.027  44.931   5.850  1.00  0.00     0.053 C 
BRANCH   6   8
HETATM    8  C3  UNL     1      73.465  46.980   4.481  1.00  0.00     0.109 C 
HETATM    9  C4  UNL     1      74.406  48.143   4.815  1.00  0.00     0.051 C 
BRANCH   8  10
HETATM   10  C2  UNL     1      72.360  47.466   3.589  1.00  0.00     0.207 C 
BRANCH  10  11
HETATM   11  O1  UNL     1      71.953  48.747   3.863  1.00  0.00    -0.393 OA
HETATM   12  C1  UNL     1      71.536  49.353   2.690  1.00  0.00     0.201 C 
ENDBRANCH  10  11
ENDBRANCH   8  10
BRANCH   8  13
HETATM   13  O2  UNL     1      74.225  46.030   3.819  1.00  0.00    -0.385 OA
ATOM     14  H2  UNL     1      74.903  45.697   4.395  1.00  0.00     0.210 HD
ENDBRANCH   8  13
ENDBRANCH   6   8
BRANCH   6  15
HETATM   15  O3  UNL     1      71.633  46.834   5.955  1.00  0.00    -0.383 OA
ATOM     16  H3  UNL     1      71.074  46.119   5.676  1.00  0.00     0.211 HD
ENDBRANCH   6  15
ENDBRANCH   5   6
ENDBRANCH   1   4
BRANCH   3  17
HETATM   17  C12 UNL     1      72.490  48.509   9.923  1.00  0.00     0.004 C 
HETATM   18  C13 UNL     1      71.846  48.943  11.035  1.00  0.00    -0.067 C 
HETATM   19  C14 UNL     1      72.379  49.057  12.401  1.00  0.00     0.011 C 
HETATM   20  C24 UNL     1      70.426  49.381  10.978  1.00  0.00    -0.016 C 
HETATM   21  C15 UNL     1      72.323  47.755  13.166  1.00  0.00     0.015 C 
HETATM   22  C16 UNL     1      71.469  50.105  13.024  1.00  0.00     0.015 C 
HETATM   23  C17 UNL     1      70.143  49.722  12.395  1.00  0.00     0.006 C 
HETATM   24  C18 UNL     1      69.108  50.752  12.641  1.00  0.00    -0.043 C 
HETATM   25  C19 UNL     1      69.142  51.149  14.099  1.00  0.00     0.015 C 
HETATM   26  C20 UNL     1      67.731  50.300  12.297  1.00  0.00     0.015 C 
HETATM   27  C21 UNL     1      69.433  51.969  11.813  1.00  0.00     0.009 C 
HETATM   28  C22 UNL     1      69.547  51.671  10.352  1.00  0.00     0.002 C 
HETATM   29  C23 UNL     1      70.211  50.426   9.971  1.00  0.00     0.014 C 
HETATM   30  C25 UNL     1      69.623  48.116  10.633  1.00  0.00     0.020 C 
ENDBRANCH   3  17
TORSDOF 8
ENDMDL
MODEL 4
REMARK VINA RESULT: -7.904417609      0.989      1.707
REMARK  8 active torsions:
REMARK  status: ('A' for Active; 'I' for Inactive)
REMARK    1  A    between atoms: O1_2  and  C2_3 
REMARK    2  A    between atoms: C2_3  and  C3_4 
REMARK    3  A    between atoms: C3_4  and  O2_6 
REMARK    4  A    between atoms: C3_4  and  C5_8 
REMARK    5  A    between atoms: C5_8  and  O3_10 
REMARK    6  A    between atoms: C5_8  and  C7_12 
REMARK    7  A    between atoms: C8_13  and  C9_14 
REMARK    8  A    between atoms: C11_16  and  C12_17 
ROOT
HETATM    1  C9  UNL     1      68.330  53.267  10.240  1.00  0.00    -0.062 C 
HETATM    2  C10 UNL     1      68.184  54.655   9.655  1.00  0.00     0.048 C 
HETATM    3  C11 UNL     1      69.492  52.823  10.585  1.00  0.00     0.007 C 
ENDROOT
BRANCH   1   4
HETATM    4  C8  UNL     1      67.131  52.456  10.399  1.00  0.00     0.006 C 
HETATM    5  C7  UNL     1      66.401  52.535  11.505  1.00  0.00     0.014 C 
BRANCH   5   6
HETATM    6  C5  UNL     1      65.184  51.702  11.649  1.00  0.00     0.104 C 
HETATM    7  C6  UNL     1      63.922  52.508  11.541  1.00  0.00     0.053 C 
BRANCH   6   8
HETATM    8  C3  UNL     1      65.294  50.948  12.938  1.00  0.00     0.109 C 
HETATM    9  C4  UNL     1      66.786  50.687  13.172  1.00  0.00     0.051 C 
BRANCH   8  10
HETATM   10  C2  UNL     1      64.549  49.645  12.930  1.00  0.00     0.207 C 
BRANCH  10  11
HETATM   11  O1  UNL     1      63.347  49.692  13.590  1.00  0.00    -0.393 OA
HETATM   12  C1  UNL     1      62.611  48.562  13.279  1.00  0.00     0.201 C 
ENDBRANCH  10  11
ENDBRANCH   8  10
BRANCH   8  13
HETATM   13  O2  UNL     1      64.857  51.737  13.989  1.00  0.00    -0.385 OA
ATOM     14  H2  UNL     1      65.598  52.025  14.509  1.00  0.00     0.210 HD
ENDBRANCH   8  13
ENDBRANCH   6   8
BRANCH   6  15
HETATM   15  O3  UNL     1      65.201  50.764  10.591  1.00  0.00    -0.383 OA
ATOM     16  H3  UNL     1      64.744  51.148   9.852  1.00  0.00     0.211 HD
ENDBRANCH   6  15
ENDBRANCH   5   6
ENDBRANCH   1   4
BRANCH   3  17
HETATM   17  C12 UNL     1      69.720  51.521  11.148  1.00  0.00     0.004 C 
HETATM   18  C13 UNL     1      70.315  50.553  10.406  1.00  0.00    -0.067 C 
HETATM   19  C14 UNL     1      70.792  50.645   9.018  1.00  0.00     0.011 C 
HETATM   20  C24 UNL     1      70.563  49.199  10.968  1.00  0.00    -0.016 C 
HETATM   21  C15 UNL     1      69.696  50.417   8.002  1.00  0.00     0.015 C 
HETATM   22  C16 UNL     1      71.841  49.545   8.956  1.00  0.00     0.015 C 
HETATM   23  C17 UNL     1      71.178  48.487   9.818  1.00  0.00     0.006 C 
HETATM   24  C18 UNL     1      72.111  47.383  10.137  1.00  0.00    -0.043 C 
HETATM   25  C19 UNL     1      72.825  46.959   8.874  1.00  0.00     0.015 C 
HETATM   26  C20 UNL     1      71.438  46.194  10.732  1.00  0.00     0.015 C 
HETATM   27  C21 UNL     1      73.141  47.889  11.114  1.00  0.00     0.009 C 
HETATM   28  C22 UNL     1      72.539  48.450  12.362  1.00  0.00     0.002 C 
HETATM   29  C23 UNL     1      71.325  49.252  12.220  1.00  0.00     0.014 C 
HETATM   30  C25 UNL     1      69.170  48.593  11.200  1.00  0.00     0.020 C 
ENDBRANCH   3  17
TORSDOF 8
ENDMDL
MODEL 5
REMARK VINA RESULT: -7.863237206      2.638      4.898
REMARK  8 active torsions:
REMARK  status: ('A' for Active; 'I' for Inactive)
REMARK    1  A    between atoms: O1_2  and  C2_3 
REMARK    2  A    between atoms: C2_3  and  C3_4 
REMARK    3  A    between atoms: C3_4  and  O2_6 
REMARK    4  A    between atoms: C3_4  and  C5_8 
REMARK    5  A    between atoms: C5_8  and  O3_10 
REMARK    6  A    between atoms: C5_8  and  C7_12 
REMARK    7  A    between atoms: C8_13  and  C9_14 
REMARK    8  A    between atoms: C11_16  and  C12_17 
ROOT
HETATM    1  C9  UNL     1      64.837  49.183  11.140  1.00  0.00    -0.062 C 
HETATM    2  C10 UNL     1      63.644  49.699  11.915  1.00  0.00     0.048 C 
HETATM    3  C11 UNL     1      65.988  49.758  11.254  1.00  0.00     0.007 C 
ENDROOT
BRANCH   1   4
HETATM    4  C8  UNL     1      64.649  48.032  10.269  1.00  0.00     0.006 C 
HETATM    5  C7  UNL     1      63.749  47.100  10.563  1.00  0.00     0.014 C 
BRANCH   5   6
HETATM    6  C5  UNL     1      63.572  45.934   9.665  1.00  0.00     0.104 C 
HETATM    7  C6  UNL     1      63.056  46.328   8.312  1.00  0.00     0.053 C 
BRANCH   6   8
HETATM    8  C3  UNL     1      62.695  44.944  10.366  1.00  0.00     0.109 C 
HETATM    9  C4  UNL     1      61.255  45.447  10.222  1.00  0.00     0.051 C 
BRANCH   8  10
HETATM   10  C2  UNL     1      63.029  44.779  11.820  1.00  0.00     0.207 C 
BRANCH  10  11
HETATM   11  O1  UNL     1      63.997  43.836  12.060  1.00  0.00    -0.393 OA
HETATM   12  C1  UNL     1      63.934  43.447  13.387  1.00  0.00     0.201 C 
ENDBRANCH  10  11
ENDBRANCH   8  10
BRANCH   8  13
HETATM   13  O2  UNL     1      62.756  43.718   9.724  1.00  0.00    -0.385 OA
ATOM     14  H2  UNL     1      62.632  43.834   8.789  1.00  0.00     0.210 HD
ENDBRANCH   8  13
ENDBRANCH   6   8
BRANCH   6  15
HETATM   15  O3  UNL     1      64.847  45.347   9.497  1.00  0.00    -0.383 OA
ATOM     16  H3  UNL     1      64.960  44.690  10.174  1.00  0.00     0.211 HD
ENDBRANCH   6  15
ENDBRANCH   5   6
ENDBRANCH   1   4
BRANCH   3  17
HETATM   17  C12 UNL     1      67.171  49.335  10.558  1.00  0.00     0.004 C 
HETATM   18  C13 UNL     1      68.396  49.563  11.094  1.00  0.00    -0.067 C 
HETATM   19  C14 UNL     1      68.715  50.224  12.368  1.00  0.00     0.011 C 
HETATM   20  C24 UNL     1      69.633  49.132  10.392  1.00  0.00    -0.016 C 
HETATM   21  C15 UNL     1      68.745  51.731  12.258  1.00  0.00     0.015 C 
HETATM   22  C16 UNL     1      70.091  49.665  12.696  1.00  0.00     0.015 C 
HETATM   23  C17 UNL     1      70.700  49.613  11.307  1.00  0.00     0.006 C 
HETATM   24  C18 UNL     1      71.975  48.860  11.302  1.00  0.00    -0.043 C 
HETATM   25  C19 UNL     1      72.828  49.324  12.461  1.00  0.00     0.015 C 
HETATM   26  C20 UNL     1      72.750  49.020  10.039  1.00  0.00     0.015 C 
HETATM   27  C21 UNL     1      71.672  47.396  11.495  1.00  0.00     0.009 C 
HETATM   28  C22 UNL     1      70.731  46.851  10.469  1.00  0.00     0.002 C 
HETATM   29  C23 UNL     1      69.613  47.702  10.064  1.00  0.00     0.014 C 
HETATM   30  C25 UNL     1      69.695  49.985   9.115  1.00  0.00     0.020 C 
ENDBRANCH   3  17
TORSDOF 8
ENDMDL
