MODEL 1
REMARK VINA RESULT: -7.278395337      0.000      0.000
REMARK  6 active torsions:
REMARK  status: ('A' for Active; 'I' for Inactive)
REMARK    1  A    between atoms: C2_2  and  S1_4 
REMARK    2  A    between atoms: S1_4  and  C4_5 
REMARK    3  A    between atoms: C4_5  and  C5_6 
REMARK    4  A    between atoms: C8_13  and  O1_14 
REMARK    5  A    between atoms: O1_14  and  C9_15 
REMARK    6  A    between atoms: C14_23  and  N4_24 
ROOT
HETATM    1  C5  UNL     1       3.034  21.530  32.164  1.00  0.00     0.083 C 
HETATM    2  S2  UNL     1       4.557  22.001  33.068  1.00  0.00    -0.141 SA
HETATM    3  C6  UNL     1       4.510  23.745  32.528  1.00  0.00     0.199 C 
HETATM    4  N1  UNL     1       3.714  23.683  31.349  1.00  0.00    -0.348 N 
HETATM    5  C7  UNL     1       3.590  24.718  30.347  1.00  0.00     0.145 A 
HETATM    6  N2  UNL     1       3.865  26.019  30.627  1.00  0.00    -0.306 N 
ATOM      7  H2  UNL     1       4.167  26.263  31.570  1.00  0.00     0.171 HD
HETATM    8  C8  UNL     1       3.756  26.994  29.710  1.00  0.00     0.227 A 
HETATM    9  N3  UNL     1       3.355  26.644  28.472  1.00  0.00    -0.306 N 
ATOM     10  H3  UNL     1       3.268  27.377  27.768  1.00  0.00     0.171 HD
HETATM   11  C14 UNL     1       3.064  25.383  28.115  1.00  0.00     0.140 A 
HETATM   12  C15 UNL     1       3.183  24.397  29.071  1.00  0.00     0.157 A 
HETATM   13  O3  UNL     1       2.903  23.067  28.790  1.00  0.00    -0.342 OA
HETATM   14  C16 UNL     1       3.304  22.027  29.700  1.00  0.00     0.202 C 
HETATM   15  C17 UNL     1       2.961  22.514  31.107  1.00  0.00     0.125 C 
ENDROOT
BRANCH   8  16
HETATM   16  O1  UNL     1       4.048  28.319  30.040  1.00  0.00    -0.316 OA
BRANCH  16  17
HETATM   17  C9  UNL     1       4.821  29.070  29.150  1.00  0.00     0.136 C 
HETATM   18  C10 UNL     1       3.947  29.968  28.268  1.00  0.00     0.059 C 
HETATM   19  C11 UNL     1       4.830  30.495  27.180  1.00  0.00     0.170 C 
HETATM   20  O2  UNL     1       6.087  30.865  27.630  1.00  0.00    -0.391 OA
HETATM   21  C12 UNL     1       6.119  31.186  28.972  1.00  0.00     0.170 C 
HETATM   22  C13 UNL     1       5.781  30.003  29.865  1.00  0.00     0.059 C 
ENDBRANCH  16  17
ENDBRANCH   8  16
BRANCH  11  23
HETATM   23  N4  UNL     1       2.690  25.130  26.919  1.00  0.00    -0.383 N 
ATOM     24  H42 UNL     1       3.060  25.638  26.115  1.00  0.00     0.157 HD
ATOM     25  H41 UNL     1       2.001  24.399  26.746  1.00  0.00     0.157 HD
ENDBRANCH  11  23
BRANCH   1  26
HETATM   26  C4  UNL     1       3.012  20.087  31.844  1.00  0.00     0.091 C 
BRANCH  26  27
HETATM   27  S1  UNL     1       1.566  19.241  32.466  1.00  0.00    -0.164 SA
BRANCH  27  28
HETATM   28  C2  UNL     1       0.421  18.757  31.154  1.00  0.00     0.039 C 
HETATM   29  C1  UNL     1       0.819  19.313  29.818  1.00  0.00     0.021 C 
HETATM   30  C3  UNL     1       0.231  17.258  31.128  1.00  0.00     0.021 C 
ENDBRANCH  27  28
ENDBRANCH  26  27
ENDBRANCH   1  26
TORSDOF 6
ENDMDL
MODEL 2
REMARK VINA RESULT: -7.107027236      1.152      1.755
REMARK  6 active torsions:
REMARK  status: ('A' for Active; 'I' for Inactive)
REMARK    1  A    between atoms: C2_2  and  S1_4 
REMARK    2  A    between atoms: S1_4  and  C4_5 
REMARK    3  A    between atoms: C4_5  and  C5_6 
REMARK    4  A    between atoms: C8_13  and  O1_14 
REMARK    5  A    between atoms: O1_14  and  C9_15 
REMARK    6  A    between atoms: C14_23  and  N4_24 
ROOT
HETATM    1  C5  UNL     1       2.985  21.561  32.140  1.00  0.00     0.083 C 
HETATM    2  S2  UNL     1       4.501  22.026  33.058  1.00  0.00    -0.141 SA
HETATM    3  C6  UNL     1       4.469  23.770  32.515  1.00  0.00     0.199 C 
HETATM    4  N1  UNL     1       3.684  23.710  31.328  1.00  0.00    -0.348 N 
HETATM    5  C7  UNL     1       3.574  24.743  30.323  1.00  0.00     0.145 A 
HETATM    6  N2  UNL     1       3.853  26.043  30.605  1.00  0.00    -0.306 N 
ATOM      7  H2  UNL     1       4.147  26.288  31.550  1.00  0.00     0.171 HD
HETATM    8  C8  UNL     1       3.757  27.018  29.685  1.00  0.00     0.227 A 
HETATM    9  N3  UNL     1       3.367  26.667  28.443  1.00  0.00    -0.306 N 
ATOM     10  H3  UNL     1       3.290  27.399  27.737  1.00  0.00     0.171 HD
HETATM   11  C14 UNL     1       3.074  25.407  28.086  1.00  0.00     0.140 A 
HETATM   12  C15 UNL     1       3.179  24.422  29.044  1.00  0.00     0.157 A 
HETATM   13  O3  UNL     1       2.896  23.093  28.762  1.00  0.00    -0.342 OA
HETATM   14  C16 UNL     1       3.283  22.053  29.678  1.00  0.00     0.202 C 
HETATM   15  C17 UNL     1       2.928  22.544  31.081  1.00  0.00     0.125 C 
ENDROOT
BRANCH   8  16
HETATM   16  O1  UNL     1       4.052  28.342  30.016  1.00  0.00    -0.316 OA
BRANCH  16  17
HETATM   17  C9  UNL     1       4.825  29.092  29.125  1.00  0.00     0.136 C 
HETATM   18  C10 UNL     1       3.951  29.998  28.250  1.00  0.00     0.059 C 
HETATM   19  C11 UNL     1       4.831  30.525  27.160  1.00  0.00     0.170 C 
HETATM   20  O2  UNL     1       6.092  30.887  27.606  1.00  0.00    -0.391 OA
HETATM   21  C12 UNL     1       6.132  31.203  28.949  1.00  0.00     0.170 C 
HETATM   22  C13 UNL     1       5.793  30.018  29.839  1.00  0.00     0.059 C 
ENDBRANCH  16  17
ENDBRANCH   8  16
BRANCH  11  23
HETATM   23  N4  UNL     1       2.711  25.154  26.886  1.00  0.00    -0.383 N 
ATOM     24  H42 UNL     1       2.137  25.800  26.343  1.00  0.00     0.157 HD
ATOM     25  H41 UNL     1       2.997  24.281  26.442  1.00  0.00     0.157 HD
ENDBRANCH  11  23
BRANCH   1  26
HETATM   26  C4  UNL     1       2.960  20.118  31.822  1.00  0.00     0.091 C 
BRANCH  26  27
HETATM   27  S1  UNL     1       1.956  19.158  32.946  1.00  0.00    -0.164 SA
BRANCH  27  28
HETATM   28  C2  UNL     1       2.860  18.642  34.424  1.00  0.00     0.039 C 
HETATM   29  C1  UNL     1       4.289  18.298  34.125  1.00  0.00     0.021 C 
HETATM   30  C3  UNL     1       2.726  19.668  35.525  1.00  0.00     0.021 C 
ENDBRANCH  27  28
ENDBRANCH  26  27
ENDBRANCH   1  26
TORSDOF 6
ENDMDL
MODEL 3
REMARK VINA RESULT: -7.091235291      3.383      4.288
REMARK  6 active torsions:
REMARK  status: ('A' for Active; 'I' for Inactive)
REMARK    1  A    between atoms: C2_2  and  S1_4 
REMARK    2  A    between atoms: S1_4  and  C4_5 
REMARK    3  A    between atoms: C4_5  and  C5_6 
REMARK    4  A    between atoms: C8_13  and  O1_14 
REMARK    5  A    between atoms: O1_14  and  C9_15 
REMARK    6  A    between atoms: C14_23  and  N4_24 
ROOT
HETATM    1  C5  UNL     1       2.524  22.416  34.631  1.00  0.00     0.083 C 
HETATM    2  S2  UNL     1       4.203  21.749  34.326  1.00  0.00    -0.141 SA
HETATM    3  C6  UNL     1       4.469  22.720  32.802  1.00  0.00     0.199 C 
HETATM    4  N1  UNL     1       3.139  23.020  32.390  1.00  0.00    -0.348 N 
HETATM    5  C7  UNL     1       2.738  23.514  31.092  1.00  0.00     0.145 A 
HETATM    6  N2  UNL     1       3.610  24.158  30.274  1.00  0.00    -0.306 N 
ATOM      7  H2  UNL     1       4.571  24.293  30.590  1.00  0.00     0.171 HD
HETATM    8  C8  UNL     1       3.257  24.625  29.065  1.00  0.00     0.227 A 
HETATM    9  N3  UNL     1       1.982  24.434  28.672  1.00  0.00    -0.306 N 
ATOM     10  H3  UNL     1       1.702  24.785  27.755  1.00  0.00     0.171 HD
HETATM   11  C14 UNL     1       1.060  23.808  29.420  1.00  0.00     0.140 A 
HETATM   12  C15 UNL     1       1.443  23.337  30.658  1.00  0.00     0.157 A 
HETATM   13  O3  UNL     1       0.556  22.678  31.497  1.00  0.00    -0.342 OA
HETATM   14  C16 UNL     1       1.037  21.949  32.641  1.00  0.00     0.202 C 
HETATM   15  C17 UNL     1       2.090  22.827  33.315  1.00  0.00     0.125 C 
ENDROOT
BRANCH   8  16
HETATM   16  O1  UNL     1       4.185  25.283  28.255  1.00  0.00    -0.316 OA
BRANCH  16  17
HETATM   17  C9  UNL     1       3.750  26.375  27.499  1.00  0.00     0.136 C 
HETATM   18  C10 UNL     1       4.816  27.474  27.436  1.00  0.00     0.059 C 
HETATM   19  C11 UNL     1       4.152  28.688  26.864  1.00  0.00     0.170 C 
HETATM   20  O2  UNL     1       3.298  28.397  25.812  1.00  0.00    -0.391 OA
HETATM   21  C12 UNL     1       3.607  27.219  25.162  1.00  0.00     0.170 C 
HETATM   22  C13 UNL     1       3.459  25.999  26.058  1.00  0.00     0.059 C 
ENDBRANCH  16  17
ENDBRANCH   8  16
BRANCH  11  23
HETATM   23  N4  UNL     1      -0.131  23.666  28.976  1.00  0.00    -0.383 N 
ATOM     24  H42 UNL     1      -0.950  23.767  29.575  1.00  0.00     0.157 HD
ATOM     25  H41 UNL     1      -0.283  23.444  27.992  1.00  0.00     0.157 HD
ENDBRANCH  11  23
BRANCH   1  26
HETATM   26  C4  UNL     1       1.702  21.482  35.430  1.00  0.00     0.091 C 
BRANCH  26  27
HETATM   27  S1  UNL     1       0.173  22.200  36.013  1.00  0.00    -0.164 SA
BRANCH  27  28
HETATM   28  C2  UNL     1       0.031  22.175  37.815  1.00  0.00     0.039 C 
HETATM   29  C1  UNL     1       0.367  23.502  38.430  1.00  0.00     0.021 C 
HETATM   30  C3  UNL     1      -1.323  21.659  38.244  1.00  0.00     0.021 C 
ENDBRANCH  27  28
ENDBRANCH  26  27
ENDBRANCH   1  26
TORSDOF 6
ENDMDL
MODEL 4
REMARK VINA RESULT: -6.764286061      4.550      9.045
REMARK  6 active torsions:
REMARK  status: ('A' for Active; 'I' for Inactive)
REMARK    1  A    between atoms: C2_2  and  S1_4 
REMARK    2  A    between atoms: S1_4  and  C4_5 
REMARK    3  A    between atoms: C4_5  and  C5_6 
REMARK    4  A    between atoms: C8_13  and  O1_14 
REMARK    5  A    between atoms: O1_14  and  C9_15 
REMARK    6  A    between atoms: C14_23  and  N4_24 
ROOT
HETATM    1  C5  UNL     1       2.633  24.684  29.803  1.00  0.00     0.083 C 
HETATM    2  S2  UNL     1       1.162  23.730  29.272  1.00  0.00    -0.141 SA
HETATM    3  C6  UNL     1       0.951  22.886  30.877  1.00  0.00     0.199 C 
HETATM    4  N1  UNL     1       2.251  22.980  31.450  1.00  0.00    -0.348 N 
HETATM    5  C7  UNL     1       2.741  22.230  32.585  1.00  0.00     0.145 A 
HETATM    6  N2  UNL     1       1.894  21.680  33.495  1.00  0.00    -0.306 N 
ATOM      7  H2  UNL     1       0.890  21.804  33.367  1.00  0.00     0.171 HD
HETATM    8  C8  UNL     1       2.330  20.980  34.555  1.00  0.00     0.227 A 
HETATM    9  N3  UNL     1       3.662  20.831  34.699  1.00  0.00    -0.306 N 
ATOM     10  H3  UNL     1       4.004  20.301  35.502  1.00  0.00     0.171 HD
HETATM   11  C14 UNL     1       4.562  21.342  33.846  1.00  0.00     0.140 A 
HETATM   12  C15 UNL     1       4.095  22.057  32.764  1.00  0.00     0.157 A 
HETATM   13  O3  UNL     1       4.955  22.620  31.832  1.00  0.00    -0.342 OA
HETATM   14  C16 UNL     1       4.452  23.106  30.574  1.00  0.00     0.202 C 
HETATM   15  C17 UNL     1       3.172  23.884  30.880  1.00  0.00     0.125 C 
ENDROOT
BRANCH   8  16
HETATM   16  O1  UNL     1       1.426  20.432  35.468  1.00  0.00    -0.316 OA
BRANCH  16  17
HETATM   17  C9  UNL     1       1.283  21.051  36.713  1.00  0.00     0.136 C 
HETATM   18  C10 UNL     1       0.022  21.921  36.765  1.00  0.00     0.059 C 
HETATM   19  C11 UNL     1       0.120  22.748  38.009  1.00  0.00     0.170 C 
HETATM   20  O2  UNL     1       0.598  22.038  39.099  1.00  0.00    -0.391 OA
HETATM   21  C12 UNL     1       0.387  20.677  39.004  1.00  0.00     0.170 C 
HETATM   22  C13 UNL     1       1.138  20.047  37.842  1.00  0.00     0.059 C 
ENDBRANCH  16  17
ENDBRANCH   8  16
BRANCH  11  23
HETATM   23  N4  UNL     1       5.811  21.156  34.051  1.00  0.00    -0.383 N 
ATOM     24  H42 UNL     1       6.224  21.217  34.983  1.00  0.00     0.157 HD
ATOM     25  H41 UNL     1       6.428  20.941  33.269  1.00  0.00     0.157 HD
ENDBRANCH  11  23
BRANCH   1  26
HETATM   26  C4  UNL     1       3.484  25.062  28.655  1.00  0.00     0.091 C 
BRANCH  26  27
HETATM   27  S1  UNL     1       3.881  26.804  28.605  1.00  0.00    -0.164 SA
BRANCH  27  28
HETATM   28  C2  UNL     1       3.928  27.462  26.922  1.00  0.00     0.039 C 
HETATM   29  C1  UNL     1       4.161  28.943  26.897  1.00  0.00     0.021 C 
HETATM   30  C3  UNL     1       4.920  26.701  26.072  1.00  0.00     0.021 C 
ENDBRANCH  27  28
ENDBRANCH  26  27
ENDBRANCH   1  26
TORSDOF 6
ENDMDL
MODEL 5
REMARK VINA RESULT: -6.761745996      2.605      3.463
REMARK  6 active torsions:
REMARK  status: ('A' for Active; 'I' for Inactive)
REMARK    1  A    between atoms: C2_2  and  S1_4 
REMARK    2  A    between atoms: S1_4  and  C4_5 
REMARK    3  A    between atoms: C4_5  and  C5_6 
REMARK    4  A    between atoms: C8_13  and  O1_14 
REMARK    5  A    between atoms: O1_14  and  C9_15 
REMARK    6  A    between atoms: C14_23  and  N4_24 
ROOT
HETATM    1  C5  UNL     1       2.506  22.575  34.745  1.00  0.00     0.083 C 
HETATM    2  S2  UNL     1       4.160  21.852  34.430  1.00  0.00    -0.141 SA
HETATM    3  C6  UNL     1       4.420  22.763  32.869  1.00  0.00     0.199 C 
HETATM    4  N1  UNL     1       3.090  23.084  32.473  1.00  0.00    -0.348 N 
HETATM    5  C7  UNL     1       2.676  23.545  31.166  1.00  0.00     0.145 A 
HETATM    6  N2  UNL     1       3.549  24.136  30.309  1.00  0.00    -0.306 N 
ATOM      7  H2  UNL     1       4.519  24.254  30.601  1.00  0.00     0.171 HD
HETATM    8  C8  UNL     1       3.183  24.570  29.091  1.00  0.00     0.227 A 
HETATM    9  N3  UNL     1       1.895  24.402  28.730  1.00  0.00    -0.306 N 
ATOM     10  H3  UNL     1       1.606  24.729  27.808  1.00  0.00     0.171 HD
HETATM   11  C14 UNL     1       0.973  23.828  29.518  1.00  0.00     0.140 A 
HETATM   12  C15 UNL     1       1.368  23.389  30.764  1.00  0.00     0.157 A 
HETATM   13  O3  UNL     1       0.482  22.784  31.643  1.00  0.00    -0.342 OA
HETATM   14  C16 UNL     1       0.966  22.082  32.802  1.00  0.00     0.202 C 
HETATM   15  C17 UNL     1       2.056  22.953  33.424  1.00  0.00     0.125 C 
ENDROOT
BRANCH   8  16
HETATM   16  O1  UNL     1       4.112  25.174  28.241  1.00  0.00    -0.316 OA
BRANCH  16  17
HETATM   17  C9  UNL     1       3.711  26.296  27.510  1.00  0.00     0.136 C 
HETATM   18  C10 UNL     1       4.840  27.327  27.402  1.00  0.00     0.059 C 
HETATM   19  C11 UNL     1       4.227  28.583  26.866  1.00  0.00     0.170 C 
HETATM   20  O2  UNL     1       3.309  28.353  25.853  1.00  0.00    -0.391 OA
HETATM   21  C12 UNL     1       3.514  27.162  25.185  1.00  0.00     0.170 C 
HETATM   22  C13 UNL     1       3.332  25.948  26.083  1.00  0.00     0.059 C 
ENDBRANCH  16  17
ENDBRANCH   8  16
BRANCH  11  23
HETATM   23  N4  UNL     1      -0.231  23.703  29.103  1.00  0.00    -0.383 N 
ATOM     24  H42 UNL     1      -0.939  24.419  29.267  1.00  0.00     0.157 HD
ATOM     25  H41 UNL     1      -0.506  22.867  28.589  1.00  0.00     0.157 HD
ENDBRANCH  11  23
BRANCH   1  26
HETATM   26  C4  UNL     1       1.676  21.693  35.593  1.00  0.00     0.091 C 
BRANCH  26  27
HETATM   27  S1  UNL     1       2.392  20.077  35.854  1.00  0.00    -0.164 SA
BRANCH  27  28
HETATM   28  C2  UNL     1       1.623  18.798  34.833  1.00  0.00     0.039 C 
HETATM   29  C1  UNL     1       0.137  18.978  34.721  1.00  0.00     0.021 C 
HETATM   30  C3  UNL     1       2.301  18.701  33.486  1.00  0.00     0.021 C 
ENDBRANCH  27  28
ENDBRANCH  26  27
ENDBRANCH   1  26
TORSDOF 6
ENDMDL
