MODEL 1
REMARK VINA RESULT: -8.394272787      0.000      0.000
REMARK  5 active torsions:
REMARK  status: ('A' for Active; 'I' for Inactive)
REMARK    1  A    between atoms: C3_9  and  C4_10 
REMARK    2  A    between atoms: C7_15  and  N5_16 
REMARK    3  A    between atoms: C13_24  and  C14_25 
REMARK    4  A    between atoms: C14_25  and  N7_26 
REMARK    5  A    between atoms: N7_26  and  C15_29 
ROOT
HETATM    1  C4  UNL     1       3.385  23.948  30.415  1.00  0.00     0.137 A 
HETATM    2  N4  UNL     1       2.590  23.130  29.731  1.00  0.00    -0.343 N 
ATOM      3  H4  UNL     1       2.192  22.334  30.231  1.00  0.00     0.167 HD
HETATM    4  C5  UNL     1       2.272  23.267  28.449  1.00  0.00     0.021 A 
HETATM    5  C6  UNL     1       2.791  24.338  27.735  1.00  0.00     0.009 A 
HETATM    6  C7  UNL     1       3.622  25.205  28.425  1.00  0.00     0.113 A 
HETATM    7  N6  UNL     1       3.900  24.990  29.747  1.00  0.00    -0.326 N 
ATOM      8  H6  UNL     1       4.514  25.640  30.237  1.00  0.00     0.169 HD
HETATM    9  C12 UNL     1       2.507  24.575  26.295  1.00  0.00     0.050 C 
HETATM   10  C13 UNL     1       1.616  23.537  25.725  1.00  0.00     0.016 C 
HETATM   11  C18 UNL     1       1.848  22.164  26.333  1.00  0.00     0.013 C 
HETATM   12  C19 UNL     1       1.366  22.265  27.771  1.00  0.00     0.058 C 
ENDROOT
BRANCH   1  13
HETATM   13  C3  UNL     1       3.723  23.784  31.813  1.00  0.00     0.113 A 
HETATM   14  N3  UNL     1       4.834  24.073  32.487  1.00  0.00    -0.294 N 
HETATM   15  N2  UNL     1       4.713  23.758  33.763  1.00  0.00    -0.284 N 
ATOM     16  H3  UNL     1       5.670  24.484  32.072  1.00  0.00     0.187 HD
HETATM   17  C2  UNL     1       3.466  23.225  33.999  1.00  0.00     0.140 A 
ATOM     18  H2  UNL     1       5.436  23.890  34.470  1.00  0.00     0.188 HD
HETATM   19  N1  UNL     1       2.794  22.752  35.000  1.00  0.00    -0.344 N 
HETATM   20  C20 UNL     1       2.859  23.247  32.770  1.00  0.00     0.083 A 
HETATM   21  C1  UNL     1       1.560  22.311  34.826  1.00  0.00     0.140 A 
ATOM     22  H1  UNL     1       3.219  22.721  35.927  1.00  0.00     0.167 HD
HETATM   23  S1  UNL     1       1.326  22.572  33.150  1.00  0.00    -0.079 SA
ENDBRANCH   1  13
BRANCH   6  24
HETATM   24  N5  UNL     1       4.220  26.345  27.855  1.00  0.00    -0.367 N 
HETATM   25  C8  UNL     1       3.949  27.715  28.206  1.00  0.00     0.124 C 
HETATM   26  C9  UNL     1       3.826  28.373  26.847  1.00  0.00     0.021 C 
HETATM   27  C10 UNL     1       4.660  27.538  25.916  1.00  0.00     0.021 C 
HETATM   28  C11 UNL     1       5.223  26.423  26.794  1.00  0.00     0.124 C 
ENDBRANCH   6  24
BRANCH  10  29
HETATM   29  C14 UNL     1       1.689  23.370  24.228  1.00  0.00     0.237 C 
BRANCH  29  30
HETATM   30  N7  UNL     1       3.002  23.083  23.772  1.00  0.00    -0.067 N 
ATOM     31  H72 UNL     1       3.675  23.718  24.202  1.00  0.00     0.277 HD
ATOM     32  H71 UNL     1       3.327  22.198  24.158  1.00  0.00     0.277 HD
BRANCH  30  33
HETATM   33  C15 UNL     1       3.148  23.090  22.341  1.00  0.00     0.233 C 
HETATM   34  C16 UNL     1       4.512  22.661  21.841  1.00  0.00     0.202 C 
HETATM   35  O1  UNL     1       4.905  24.012  21.694  1.00  0.00    -0.387 OA
HETATM   36  C17 UNL     1       3.553  24.370  21.694  1.00  0.00     0.202 C 
ENDBRANCH  30  33
ENDBRANCH  29  30
ENDBRANCH  10  29
TORSDOF 5
ENDMDL
MODEL 2
REMARK VINA RESULT: -8.080456459      2.584      3.254
REMARK  5 active torsions:
REMARK  status: ('A' for Active; 'I' for Inactive)
REMARK    1  A    between atoms: C3_9  and  C4_10 
REMARK    2  A    between atoms: C7_15  and  N5_16 
REMARK    3  A    between atoms: C13_24  and  C14_25 
REMARK    4  A    between atoms: C14_25  and  N7_26 
REMARK    5  A    between atoms: N7_26  and  C15_29 
ROOT
HETATM    1  C4  UNL     1       3.438  25.229  29.040  1.00  0.00     0.137 A 
HETATM    2  N4  UNL     1       2.909  24.706  27.937  1.00  0.00    -0.343 N 
ATOM      3  H4  UNL     1       2.509  23.770  28.006  1.00  0.00     0.167 HD
HETATM    4  C5  UNL     1       2.860  25.306  26.753  1.00  0.00     0.021 A 
HETATM    5  C6  UNL     1       3.392  26.581  26.619  1.00  0.00     0.009 A 
HETATM    6  C7  UNL     1       3.949  27.148  27.753  1.00  0.00     0.113 A 
HETATM    7  N6  UNL     1       3.959  26.461  28.935  1.00  0.00    -0.326 N 
ATOM      8  H6  UNL     1       4.373  26.896  29.760  1.00  0.00     0.169 HD
HETATM    9  C12 UNL     1       3.398  27.334  25.337  1.00  0.00     0.050 C 
HETATM   10  C13 UNL     1       2.777  26.562  24.235  1.00  0.00     0.016 C 
HETATM   11  C18 UNL     1       3.032  25.068  24.347  1.00  0.00     0.013 C 
HETATM   12  C19 UNL     1       2.245  24.607  25.563  1.00  0.00     0.058 C 
ENDROOT
BRANCH   1  13
HETATM   13  C3  UNL     1       3.484  24.562  30.323  1.00  0.00     0.113 A 
HETATM   14  N3  UNL     1       4.358  24.644  31.325  1.00  0.00    -0.294 N 
HETATM   15  N2  UNL     1       4.015  23.853  32.323  1.00  0.00    -0.284 N 
ATOM     16  H3  UNL     1       5.185  25.241  31.320  1.00  0.00     0.187 HD
HETATM   17  C2  UNL     1       2.852  23.184  32.014  1.00  0.00     0.140 A 
ATOM     18  H2  UNL     1       4.535  23.752  33.195  1.00  0.00     0.188 HD
HETATM   19  N1  UNL     1       2.065  22.316  32.566  1.00  0.00    -0.344 N 
HETATM   20  C20 UNL     1       2.533  23.638  30.761  1.00  0.00     0.083 A 
HETATM   21  C1  UNL     1       0.988  21.891  31.925  1.00  0.00     0.140 A 
ATOM     22  H1  UNL     1       2.276  21.959  33.497  1.00  0.00     0.167 HD
HETATM   23  S1  UNL     1       1.087  22.763  30.456  1.00  0.00    -0.079 SA
ENDBRANCH   1  13
BRANCH   6  24
HETATM   24  N5  UNL     1       4.517  28.435  27.793  1.00  0.00    -0.367 N 
HETATM   25  C8  UNL     1       4.468  29.356  28.900  1.00  0.00     0.124 C 
HETATM   26  C9  UNL     1       4.116  30.659  28.214  1.00  0.00     0.021 C 
HETATM   27  C10 UNL     1       4.638  30.532  26.810  1.00  0.00     0.021 C 
HETATM   28  C11 UNL     1       5.266  29.141  26.754  1.00  0.00     0.124 C 
ENDBRANCH   6  24
BRANCH  10  29
HETATM   29  C14 UNL     1       3.189  26.971  22.843  1.00  0.00     0.237 C 
BRANCH  29  30
HETATM   30  N7  UNL     1       2.101  27.447  22.067  1.00  0.00    -0.067 N 
ATOM     31  H72 UNL     1       1.254  26.921  22.281  1.00  0.00     0.277 HD
ATOM     32  H71 UNL     1       1.816  28.373  22.384  1.00  0.00     0.277 HD
BRANCH  30  33
HETATM   33  C15 UNL     1       2.342  27.454  20.649  1.00  0.00     0.233 C 
HETATM   34  C16 UNL     1       3.536  28.279  20.213  1.00  0.00     0.202 C 
HETATM   35  O1  UNL     1       2.690  29.362  19.879  1.00  0.00    -0.387 OA
HETATM   36  C17 UNL     1       1.618  28.466  19.830  1.00  0.00     0.202 C 
ENDBRANCH  30  33
ENDBRANCH  29  30
ENDBRANCH  10  29
TORSDOF 5
ENDMDL
MODEL 3
REMARK VINA RESULT: -8.073112434      1.542      1.804
REMARK  5 active torsions:
REMARK  status: ('A' for Active; 'I' for Inactive)
REMARK    1  A    between atoms: C3_9  and  C4_10 
REMARK    2  A    between atoms: C7_15  and  N5_16 
REMARK    3  A    between atoms: C13_24  and  C14_25 
REMARK    4  A    between atoms: C14_25  and  N7_26 
REMARK    5  A    between atoms: N7_26  and  C15_29 
ROOT
HETATM    1  C4  UNL     1       3.380  23.961  30.444  1.00  0.00     0.137 A 
HETATM    2  N4  UNL     1       2.582  23.149  29.755  1.00  0.00    -0.343 N 
ATOM      3  H4  UNL     1       2.182  22.352  30.251  1.00  0.00     0.167 HD
HETATM    4  C5  UNL     1       2.264  23.295  28.474  1.00  0.00     0.021 A 
HETATM    5  C6  UNL     1       2.787  24.368  27.766  1.00  0.00     0.009 A 
HETATM    6  C7  UNL     1       3.620  25.229  28.460  1.00  0.00     0.113 A 
HETATM    7  N6  UNL     1       3.897  25.006  29.781  1.00  0.00    -0.326 N 
ATOM      8  H6  UNL     1       4.513  25.652  30.275  1.00  0.00     0.169 HD
HETATM    9  C12 UNL     1       2.504  24.614  26.327  1.00  0.00     0.050 C 
HETATM   10  C13 UNL     1       1.610  23.582  25.751  1.00  0.00     0.016 C 
HETATM   11  C18 UNL     1       1.838  22.205  26.351  1.00  0.00     0.013 C 
HETATM   12  C19 UNL     1       1.356  22.299  27.790  1.00  0.00     0.058 C 
ENDROOT
BRANCH   1  13
HETATM   13  C3  UNL     1       3.716  23.789  31.840  1.00  0.00     0.113 A 
HETATM   14  N3  UNL     1       4.824  24.081  32.519  1.00  0.00    -0.294 N 
HETATM   15  N2  UNL     1       4.704  23.755  33.792  1.00  0.00    -0.284 N 
ATOM     16  H3  UNL     1       5.657  24.503  32.108  1.00  0.00     0.187 HD
HETATM   17  C2  UNL     1       3.461  23.209  34.021  1.00  0.00     0.140 A 
ATOM     18  H2  UNL     1       5.425  23.887  34.501  1.00  0.00     0.188 HD
HETATM   19  N1  UNL     1       2.792  22.724  35.018  1.00  0.00    -0.344 N 
HETATM   20  C20 UNL     1       2.855  23.237  32.792  1.00  0.00     0.083 A 
HETATM   21  C1  UNL     1       1.561  22.273  34.838  1.00  0.00     0.140 A 
ATOM     22  H1  UNL     1       3.215  22.688  35.945  1.00  0.00     0.167 HD
HETATM   23  S1  UNL     1       1.328  22.547  33.164  1.00  0.00    -0.079 SA
ENDBRANCH   1  13
BRANCH   6  24
HETATM   24  N5  UNL     1       4.221  26.370  27.897  1.00  0.00    -0.367 N 
HETATM   25  C8  UNL     1       3.961  27.739  28.261  1.00  0.00     0.124 C 
HETATM   26  C9  UNL     1       3.834  28.409  26.909  1.00  0.00     0.021 C 
HETATM   27  C10 UNL     1       4.657  27.578  25.966  1.00  0.00     0.021 C 
HETATM   28  C11 UNL     1       5.218  26.452  26.830  1.00  0.00     0.124 C 
ENDBRANCH   6  24
BRANCH  10  29
HETATM   29  C14 UNL     1       1.683  23.422  24.253  1.00  0.00     0.237 C 
BRANCH  29  30
HETATM   30  N7  UNL     1       2.287  22.200  23.861  1.00  0.00    -0.067 N 
ATOM     31  H72 UNL     1       3.263  22.351  23.604  1.00  0.00     0.277 HD
ATOM     32  H71 UNL     1       2.411  21.589  24.668  1.00  0.00     0.277 HD
BRANCH  30  33
HETATM   33  C15 UNL     1       1.593  21.506  22.809  1.00  0.00     0.233 C 
HETATM   34  C16 UNL     1       0.091  21.695  22.809  1.00  0.00     0.202 C 
HETATM   35  O1  UNL     1      -0.085  20.460  23.476  1.00  0.00    -0.387 OA
HETATM   36  C17 UNL     1       1.198  20.091  23.059  1.00  0.00     0.202 C 
ENDBRANCH  30  33
ENDBRANCH  29  30
ENDBRANCH  10  29
TORSDOF 5
ENDMDL
MODEL 4
REMARK VINA RESULT: -8.061654231      3.576      6.507
REMARK  5 active torsions:
REMARK  status: ('A' for Active; 'I' for Inactive)
REMARK    1  A    between atoms: C3_9  and  C4_10 
REMARK    2  A    between atoms: C7_15  and  N5_16 
REMARK    3  A    between atoms: C13_24  and  C14_25 
REMARK    4  A    between atoms: C14_25  and  N7_26 
REMARK    5  A    between atoms: N7_26  and  C15_29 
ROOT
HETATM    1  C4  UNL     1       2.274  24.416  28.019  1.00  0.00     0.137 A 
HETATM    2  N4  UNL     1       2.725  25.241  28.961  1.00  0.00    -0.343 N 
ATOM      3  H4  UNL     1       2.560  24.977  29.933  1.00  0.00     0.167 HD
HETATM    4  C5  UNL     1       3.372  26.378  28.736  1.00  0.00     0.021 A 
HETATM    5  C6  UNL     1       3.616  26.770  27.427  1.00  0.00     0.009 A 
HETATM    6  C7  UNL     1       3.157  25.929  26.427  1.00  0.00     0.113 A 
HETATM    7  N6  UNL     1       2.497  24.774  26.745  1.00  0.00    -0.326 N 
ATOM      8  H6  UNL     1       2.167  24.167  25.995  1.00  0.00     0.169 HD
HETATM    9  C12 UNL     1       4.320  28.029  27.068  1.00  0.00     0.050 C 
HETATM   10  C13 UNL     1       4.720  28.805  28.266  1.00  0.00     0.016 C 
HETATM   11  C18 UNL     1       3.723  28.681  29.406  1.00  0.00     0.013 C 
HETATM   12  C19 UNL     1       3.827  27.244  29.888  1.00  0.00     0.058 C 
ENDROOT
BRANCH   1  13
HETATM   13  C3  UNL     1       1.569  23.180  28.280  1.00  0.00     0.113 A 
HETATM   14  N3  UNL     1       0.564  22.590  27.637  1.00  0.00    -0.294 N 
HETATM   15  N2  UNL     1       0.223  21.458  28.223  1.00  0.00    -0.284 N 
ATOM     16  H3  UNL     1       0.115  22.964  26.801  1.00  0.00     0.187 HD
HETATM   17  C2  UNL     1       1.019  21.240  29.324  1.00  0.00     0.140 A 
ATOM     18  H2  UNL     1      -0.522  20.836  27.906  1.00  0.00     0.188 HD
HETATM   19  N1  UNL     1       1.155  20.347  30.252  1.00  0.00    -0.344 N 
HETATM   20  C20 UNL     1       1.856  22.325  29.347  1.00  0.00     0.083 A 
HETATM   21  C1  UNL     1       2.081  20.493  31.187  1.00  0.00     0.140 A 
ATOM     22  H1  UNL     1       0.547  19.529  30.264  1.00  0.00     0.167 HD
HETATM   23  S1  UNL     1       2.804  21.977  30.735  1.00  0.00    -0.079 SA
ENDBRANCH   1  13
BRANCH   6  24
HETATM   24  N5  UNL     1       3.332  26.170  25.052  1.00  0.00    -0.367 N 
HETATM   25  C8  UNL     1       3.094  27.414  24.366  1.00  0.00     0.124 C 
HETATM   26  C9  UNL     1       2.338  26.958  23.135  1.00  0.00     0.021 C 
HETATM   27  C10 UNL     1       2.781  25.544  22.888  1.00  0.00     0.021 C 
HETATM   28  C11 UNL     1       3.777  25.248  24.007  1.00  0.00     0.124 C 
ENDBRANCH   6  24
BRANCH  10  29
HETATM   29  C14 UNL     1       4.943  30.279  28.040  1.00  0.00     0.237 C 
BRANCH  29  30
HETATM   30  N7  UNL     1       6.151  30.746  28.620  1.00  0.00    -0.067 N 
ATOM     31  H72 UNL     1       6.896  30.061  28.490  1.00  0.00     0.277 HD
ATOM     32  H71 UNL     1       6.530  31.521  28.077  1.00  0.00     0.277 HD
BRANCH  30  33
HETATM   33  C15 UNL     1       6.041  31.111  30.007  1.00  0.00     0.233 C 
HETATM   34  C16 UNL     1       7.103  32.073  30.495  1.00  0.00     0.202 C 
HETATM   35  O1  UNL     1       7.853  31.003  31.036  1.00  0.00    -0.387 OA
HETATM   36  C17 UNL     1       6.693  30.222  31.010  1.00  0.00     0.202 C 
ENDBRANCH  30  33
ENDBRANCH  29  30
ENDBRANCH  10  29
TORSDOF 5
ENDMDL
MODEL 5
REMARK VINA RESULT: -7.936805471      1.303      3.544
REMARK  5 active torsions:
REMARK  status: ('A' for Active; 'I' for Inactive)
REMARK    1  A    between atoms: C3_9  and  C4_10 
REMARK    2  A    between atoms: C7_15  and  N5_16 
REMARK    3  A    between atoms: C13_24  and  C14_25 
REMARK    4  A    between atoms: C14_25  and  N7_26 
REMARK    5  A    between atoms: N7_26  and  C15_29 
ROOT
HETATM    1  C4  UNL     1       3.601  24.356  30.110  1.00  0.00     0.137 A 
HETATM    2  N4  UNL     1       4.159  25.379  29.467  1.00  0.00    -0.343 N 
ATOM      3  H4  UNL     1       4.807  25.967  29.992  1.00  0.00     0.167 HD
HETATM    4  C5  UNL     1       3.940  25.694  28.195  1.00  0.00     0.021 A 
HETATM    5  C6  UNL     1       3.067  24.918  27.447  1.00  0.00     0.009 A 
HETATM    6  C7  UNL     1       2.472  23.846  28.093  1.00  0.00     0.113 A 
HETATM    7  N6  UNL     1       2.753  23.591  29.407  1.00  0.00    -0.326 N 
ATOM      8  H6  UNL     1       2.306  22.797  29.865  1.00  0.00     0.169 HD
HETATM    9  C12 UNL     1       2.744  25.192  26.022  1.00  0.00     0.050 C 
HETATM   10  C13 UNL     1       3.458  26.385  25.509  1.00  0.00     0.016 C 
HETATM   11  C18 UNL     1       3.637  27.462  26.565  1.00  0.00     0.013 C 
HETATM   12  C19 UNL     1       4.621  26.891  27.573  1.00  0.00     0.058 C 
ENDROOT
BRANCH   1  13
HETATM   13  C3  UNL     1       3.850  24.026  31.496  1.00  0.00     0.113 A 
HETATM   14  N3  UNL     1       4.901  24.261  32.279  1.00  0.00    -0.294 N 
HETATM   15  N2  UNL     1       4.707  23.782  33.493  1.00  0.00    -0.284 N 
ATOM     16  H3  UNL     1       5.746  24.747  31.980  1.00  0.00     0.187 HD
HETATM   17  C2  UNL     1       3.470  23.186  33.571  1.00  0.00     0.140 A 
ATOM     18  H2  UNL     1       5.376  23.846  34.261  1.00  0.00     0.188 HD
HETATM   19  N1  UNL     1       2.751  22.569  34.455  1.00  0.00    -0.344 N 
HETATM   20  C20 UNL     1       2.945  23.346  32.315  1.00  0.00     0.083 A 
HETATM   21  C1  UNL     1       1.549  22.116  34.139  1.00  0.00     0.140 A 
ATOM     22  H1  UNL     1       3.113  22.433  35.398  1.00  0.00     0.167 HD
HETATM   23  S1  UNL     1       1.419  22.581  32.497  1.00  0.00    -0.079 SA
ENDBRANCH   1  13
BRANCH   6  24
HETATM   24  N5  UNL     1       1.575  22.953  27.478  1.00  0.00    -0.367 N 
HETATM   25  C8  UNL     1       0.241  22.642  27.922  1.00  0.00     0.124 C 
HETATM   26  C9  UNL     1       0.210  21.132  27.802  1.00  0.00     0.021 C 
HETATM   27  C10 UNL     1       1.202  20.792  26.726  1.00  0.00     0.021 C 
HETATM   28  C11 UNL     1       1.769  22.137  26.279  1.00  0.00     0.124 C 
ENDBRANCH   6  24
BRANCH  10  29
HETATM   29  C14 UNL     1       2.833  27.050  24.309  1.00  0.00     0.237 C 
BRANCH  29  30
HETATM   30  N7  UNL     1       2.236  26.122  23.417  1.00  0.00    -0.067 N 
ATOM     31  H72 UNL     1       2.038  25.244  23.896  1.00  0.00     0.277 HD
ATOM     32  H71 UNL     1       1.286  26.412  23.185  1.00  0.00     0.277 HD
BRANCH  30  33
HETATM   33  C15 UNL     1       2.993  25.881  22.218  1.00  0.00     0.233 C 
HETATM   34  C16 UNL     1       2.223  25.192  21.110  1.00  0.00     0.202 C 
HETATM   35  O1  UNL     1       2.773  23.942  21.477  1.00  0.00    -0.387 OA
HETATM   36  C17 UNL     1       3.793  24.626  22.146  1.00  0.00     0.202 C 
ENDBRANCH  30  33
ENDBRANCH  29  30
ENDBRANCH  10  29
TORSDOF 5
ENDMDL
