MODEL 1
REMARK VINA RESULT: -7.754320524      0.000      0.000
REMARK  7 active torsions:
REMARK  status: ('A' for Active; 'I' for Inactive)
REMARK    1  A    between atoms: C2_2  and  C4_4 
REMARK    2  A    between atoms: N2_10  and  C7_11 
REMARK    3  A    between atoms: C7_11  and  C8_12 
REMARK    4  A    between atoms: C8_12  and  C9_13 
REMARK    5  A    between atoms: C9_13  and  C10_14 
REMARK    6  A    between atoms: C10_14  and  N3_15 
REMARK    7  A    between atoms: N3_15  and  C12_17 
ROOT
HETATM    1  C4  UNL     1      -3.452 -15.504   8.690  1.00  0.00     0.180 C 
HETATM    2  N1  UNL     1      -4.532 -15.344   9.627  1.00  0.00    -0.343 N 
ATOM      3  H1  UNL     1      -4.522 -15.953  10.445  1.00  0.00     0.163 HD
HETATM    4  C5  UNL     1      -5.604 -14.431   9.529  1.00  0.00     0.257 C 
HETATM    5  O1  UNL     1      -6.802 -14.883   9.627  1.00  0.00    -0.267 OA
HETATM    6  C6  UNL     1      -5.499 -12.966   9.317  1.00  0.00     0.160 C 
HETATM    7  N2  UNL     1      -5.687 -12.512   8.001  1.00  0.00    -0.383 N 
HETATM    8  C13 UNL     1      -5.410 -13.395   6.924  1.00  0.00     0.153 C 
HETATM    9  C14 UNL     1      -3.982 -13.246   6.435  1.00  0.00     0.053 C 
HETATM   10  C15 UNL     1      -3.571 -14.397   5.552  1.00  0.00     0.038 C 
HETATM   11  C16 UNL     1      -3.374 -14.021   4.113  1.00  0.00    -0.011 C 
HETATM   12  C17 UNL     1      -2.073 -13.357   3.828  1.00  0.00     0.009 C 
HETATM   13  C18 UNL     1      -2.022 -11.901   4.186  1.00  0.00    -0.013 C 
HETATM   14  C19 UNL     1      -3.212 -11.133   3.595  1.00  0.00     0.010 C 
HETATM   15  C20 UNL     1      -4.348 -11.825   4.365  1.00  0.00    -0.007 C 
HETATM   16  C21 UNL     1      -4.526 -13.162   3.676  1.00  0.00     0.010 C 
HETATM   17  C22 UNL     1      -3.799 -11.930   5.732  1.00  0.00     0.020 C 
HETATM   18  C23 UNL     1      -2.299 -11.700   5.666  1.00  0.00     0.012 C 
HETATM   19  N4  UNL     1      -3.160 -13.176   7.646  1.00  0.00    -0.348 N 
ATOM     20  H4  UNL     1      -2.898 -12.249   7.982  1.00  0.00     0.163 HD
HETATM   21  C24 UNL     1      -2.706 -14.282   8.382  1.00  0.00     0.241 C 
HETATM   22  O3  UNL     1      -1.504 -14.185   8.819  1.00  0.00    -0.271 OA
ENDROOT
BRANCH   7  23
HETATM   23  C7  UNL     1      -6.717 -11.543   7.764  1.00  0.00     0.122 C 
BRANCH  23  24
HETATM   24  C8  UNL     1      -7.463 -11.749   6.489  1.00  0.00     0.021 C 
BRANCH  24  25
HETATM   25  C9  UNL     1      -7.567 -10.523   5.664  1.00  0.00     0.021 C 
BRANCH  25  26
HETATM   26  C10 UNL     1      -6.592  -9.444   6.073  1.00  0.00     0.124 C 
BRANCH  26  27
HETATM   27  N3  UNL     1      -7.226  -8.141   6.011  1.00  0.00    -0.364 N 
HETATM   28  C11 UNL     1      -7.032  -7.351   4.814  1.00  0.00     0.152 C 
BRANCH  27  29
HETATM   29  C12 UNL     1      -8.011  -7.674   7.107  1.00  0.00     0.350 C 
HETATM   30  O2  UNL     1      -7.932  -8.261   8.206  1.00  0.00    -0.284 OA
ENDBRANCH  27  29
ENDBRANCH  26  27
ENDBRANCH  25  26
ENDBRANCH  24  25
ENDBRANCH  23  24
ENDBRANCH   7  23
BRANCH   1  31
HETATM   31  C2  UNL     1      -2.486 -16.575   9.199  1.00  0.00     0.009 C 
HETATM   32  C1  UNL     1      -2.937 -17.200  10.490  1.00  0.00     0.012 C 
HETATM   33  C3  UNL     1      -2.522 -17.679   8.134  1.00  0.00     0.012 C 
ENDBRANCH   1  31
TORSDOF 7
ENDMDL
MODEL 2
REMARK VINA RESULT: -7.560988272      1.257      1.465
REMARK  7 active torsions:
REMARK  status: ('A' for Active; 'I' for Inactive)
REMARK    1  A    between atoms: C2_2  and  C4_4 
REMARK    2  A    between atoms: N2_10  and  C7_11 
REMARK    3  A    between atoms: C7_11  and  C8_12 
REMARK    4  A    between atoms: C8_12  and  C9_13 
REMARK    5  A    between atoms: C9_13  and  C10_14 
REMARK    6  A    between atoms: C10_14  and  N3_15 
REMARK    7  A    between atoms: N3_15  and  C12_17 
ROOT
HETATM    1  C4  UNL     1      -3.650 -15.374   8.598  1.00  0.00     0.180 C 
HETATM    2  N1  UNL     1      -4.808 -15.295   9.447  1.00  0.00    -0.343 N 
ATOM      3  H1  UNL     1      -4.807 -15.885  10.279  1.00  0.00     0.163 HD
HETATM    4  C5  UNL     1      -5.946 -14.483   9.247  1.00  0.00     0.257 C 
HETATM    5  O1  UNL     1      -7.103 -15.039   9.268  1.00  0.00    -0.267 OA
HETATM    6  C6  UNL     1      -5.954 -13.018   9.008  1.00  0.00     0.160 C 
HETATM    7  N2  UNL     1      -6.081 -12.607   7.671  1.00  0.00    -0.383 N 
HETATM    8  C13 UNL     1      -5.646 -13.481   6.640  1.00  0.00     0.153 C 
HETATM    9  C14 UNL     1      -4.204 -13.213   6.254  1.00  0.00     0.053 C 
HETATM   10  C15 UNL     1      -3.626 -14.339   5.433  1.00  0.00     0.038 C 
HETATM   11  C16 UNL     1      -3.354 -13.973   4.003  1.00  0.00    -0.011 C 
HETATM   12  C17 UNL     1      -2.100 -13.200   3.799  1.00  0.00     0.009 C 
HETATM   13  C18 UNL     1      -2.204 -11.739   4.124  1.00  0.00    -0.013 C 
HETATM   14  C19 UNL     1      -3.408 -11.092   3.427  1.00  0.00     0.010 C 
HETATM   15  C20 UNL     1      -4.534 -11.869   4.128  1.00  0.00    -0.007 C 
HETATM   16  C21 UNL     1      -4.541 -13.229   3.461  1.00  0.00     0.010 C 
HETATM   17  C22 UNL     1      -4.084 -11.899   5.534  1.00  0.00     0.020 C 
HETATM   18  C23 UNL     1      -2.609 -11.537   5.574  1.00  0.00     0.012 C 
HETATM   19  N4  UNL     1      -3.486 -13.048   7.521  1.00  0.00    -0.348 N 
ATOM     20  H4  UNL     1      -3.332 -12.096   7.852  1.00  0.00     0.163 HD
HETATM   21  C24 UNL     1      -2.993 -14.095   8.315  1.00  0.00     0.241 C 
HETATM   22  O3  UNL     1      -1.841 -13.883   8.838  1.00  0.00    -0.271 OA
ENDROOT
BRANCH   7  23
HETATM   23  C7  UNL     1      -7.171 -11.739   7.334  1.00  0.00     0.122 C 
BRANCH  23  24
HETATM   24  C8  UNL     1      -7.016 -10.345   7.841  1.00  0.00     0.021 C 
BRANCH  24  25
HETATM   25  C9  UNL     1      -7.373  -9.312   6.840  1.00  0.00     0.021 C 
BRANCH  25  26
HETATM   26  C10 UNL     1      -7.711  -9.886   5.485  1.00  0.00     0.124 C 
BRANCH  26  27
HETATM   27  N3  UNL     1      -7.030  -9.147   4.439  1.00  0.00    -0.364 N 
HETATM   28  C11 UNL     1      -5.880  -8.352   4.812  1.00  0.00     0.152 C 
BRANCH  27  29
HETATM   29  C12 UNL     1      -7.497  -9.216   3.094  1.00  0.00     0.350 C 
HETATM   30  O2  UNL     1      -8.723  -9.321   2.880  1.00  0.00    -0.284 OA
ENDBRANCH  27  29
ENDBRANCH  26  27
ENDBRANCH  25  26
ENDBRANCH  24  25
ENDBRANCH  23  24
ENDBRANCH   7  23
BRANCH   1  31
HETATM   31  C2  UNL     1      -2.635 -16.345   9.203  1.00  0.00     0.009 C 
HETATM   32  C1  UNL     1      -3.059 -16.865  10.548  1.00  0.00     0.012 C 
HETATM   33  C3  UNL     1      -2.615 -17.544   8.247  1.00  0.00     0.012 C 
ENDBRANCH   1  31
TORSDOF 7
ENDMDL
MODEL 3
REMARK VINA RESULT: -7.097639910      3.355      4.798
REMARK  7 active torsions:
REMARK  status: ('A' for Active; 'I' for Inactive)
REMARK    1  A    between atoms: C2_2  and  C4_4 
REMARK    2  A    between atoms: N2_10  and  C7_11 
REMARK    3  A    between atoms: C7_11  and  C8_12 
REMARK    4  A    between atoms: C8_12  and  C9_13 
REMARK    5  A    between atoms: C9_13  and  C10_14 
REMARK    6  A    between atoms: C10_14  and  N3_15 
REMARK    7  A    between atoms: N3_15  and  C12_17 
ROOT
HETATM    1  C4  UNL     1      -3.202 -15.499  10.577  1.00  0.00     0.180 C 
HETATM    2  N1  UNL     1      -3.696 -16.078  11.798  1.00  0.00    -0.343 N 
ATOM      3  H1  UNL     1      -3.010 -16.533  12.400  1.00  0.00     0.163 HD
HETATM    4  C5  UNL     1      -5.034 -16.079  12.249  1.00  0.00     0.257 C 
HETATM    5  O1  UNL     1      -5.566 -17.201  12.579  1.00  0.00    -0.267 OA
HETATM    6  C6  UNL     1      -5.921 -14.897  12.387  1.00  0.00     0.160 C 
HETATM    7  N2  UNL     1      -6.831 -14.676  11.340  1.00  0.00    -0.383 N 
HETATM    8  C13 UNL     1      -6.521 -15.169  10.045  1.00  0.00     0.153 C 
HETATM    9  C14 UNL     1      -5.797 -14.130   9.211  1.00  0.00     0.053 C 
HETATM   10  C15 UNL     1      -5.156 -14.739   7.990  1.00  0.00     0.038 C 
HETATM   11  C16 UNL     1      -5.796 -14.328   6.697  1.00  0.00    -0.011 C 
HETATM   12  C17 UNL     1      -5.392 -12.979   6.217  1.00  0.00     0.009 C 
HETATM   13  C18 UNL     1      -6.091 -11.838   6.894  1.00  0.00    -0.013 C 
HETATM   14  C19 UNL     1      -7.614 -12.027   6.888  1.00  0.00     0.010 C 
HETATM   15  C20 UNL     1      -7.700 -13.290   7.760  1.00  0.00    -0.007 C 
HETATM   16  C21 UNL     1      -7.288 -14.424   6.845  1.00  0.00     0.010 C 
HETATM   17  C22 UNL     1      -6.728 -13.011   8.836  1.00  0.00     0.020 C 
HETATM   18  C23 UNL     1      -5.838 -11.862   8.392  1.00  0.00     0.012 C 
HETATM   19  N4  UNL     1      -4.796 -13.541  10.106  1.00  0.00    -0.348 N 
ATOM     20  H4  UNL     1      -5.038 -12.665  10.570  1.00  0.00     0.163 HD
HETATM   21  C24 UNL     1      -3.531 -14.086  10.377  1.00  0.00     0.241 C 
HETATM   22  O3  UNL     1      -2.578 -13.231  10.453  1.00  0.00    -0.271 OA
ENDROOT
BRANCH   7  23
HETATM   23  C7  UNL     1      -8.226 -14.609  11.664  1.00  0.00     0.122 C 
BRANCH  23  24
HETATM   24  C8  UNL     1      -9.129 -15.017  10.549  1.00  0.00     0.021 C 
BRANCH  24  25
HETATM   25  C9  UNL     1     -10.107 -13.970  10.170  1.00  0.00     0.021 C 
BRANCH  25  26
HETATM   26  C10 UNL     1     -10.509 -13.083  11.325  1.00  0.00     0.124 C 
BRANCH  26  27
HETATM   27  N3  UNL     1     -11.882 -12.645  11.170  1.00  0.00    -0.364 N 
HETATM   28  C11 UNL     1     -12.723 -13.368  10.241  1.00  0.00     0.152 C 
BRANCH  27  29
HETATM   29  C12 UNL     1     -12.367 -11.532  11.919  1.00  0.00     0.350 C 
HETATM   30  O2  UNL     1     -11.573 -10.892  12.640  1.00  0.00    -0.284 OA
ENDBRANCH  27  29
ENDBRANCH  26  27
ENDBRANCH  25  26
ENDBRANCH  24  25
ENDBRANCH  23  24
ENDBRANCH   7  23
BRANCH   1  31
HETATM   31  C2  UNL     1      -1.687 -15.686  10.498  1.00  0.00     0.009 C 
HETATM   32  C1  UNL     1      -1.152 -16.572  11.587  1.00  0.00     0.012 C 
HETATM   33  C3  UNL     1      -1.447 -16.418   9.171  1.00  0.00     0.012 C 
ENDBRANCH   1  31
TORSDOF 7
ENDMDL
MODEL 4
REMARK VINA RESULT: -6.904512024      2.134      7.113
REMARK  7 active torsions:
REMARK  status: ('A' for Active; 'I' for Inactive)
REMARK    1  A    between atoms: C2_2  and  C4_4 
REMARK    2  A    between atoms: N2_10  and  C7_11 
REMARK    3  A    between atoms: C7_11  and  C8_12 
REMARK    4  A    between atoms: C8_12  and  C9_13 
REMARK    5  A    between atoms: C9_13  and  C10_14 
REMARK    6  A    between atoms: C10_14  and  N3_15 
REMARK    7  A    between atoms: N3_15  and  C12_17 
ROOT
HETATM    1  C4  UNL     1      -6.798 -10.206   4.903  1.00  0.00     0.180 C 
HETATM    2  N1  UNL     1      -5.601 -10.109   4.111  1.00  0.00    -0.343 N 
ATOM      3  H1  UNL     1      -5.543  -9.325   3.461  1.00  0.00     0.163 HD
HETATM    4  C5  UNL     1      -4.497 -10.989   4.140  1.00  0.00     0.257 C 
HETATM    5  O1  UNL     1      -4.091 -11.497   3.032  1.00  0.00    -0.267 OA
HETATM    6  C6  UNL     1      -3.732 -11.406   5.342  1.00  0.00     0.160 C 
HETATM    7  N2  UNL     1      -4.068 -12.655   5.890  1.00  0.00    -0.383 N 
HETATM    8  C13 UNL     1      -5.375 -13.168   5.681  1.00  0.00     0.153 C 
HETATM    9  C14 UNL     1      -6.313 -12.777   6.807  1.00  0.00     0.053 C 
HETATM   10  C15 UNL     1      -7.757 -13.003   6.436  1.00  0.00     0.038 C 
HETATM   11  C16 UNL     1      -8.416 -14.114   7.198  1.00  0.00    -0.011 C 
HETATM   12  C17 UNL     1      -8.843 -13.742   8.573  1.00  0.00     0.009 C 
HETATM   13  C18 UNL     1      -7.742 -13.734   9.591  1.00  0.00    -0.013 C 
HETATM   14  C19 UNL     1      -6.940 -15.042   9.563  1.00  0.00     0.010 C 
HETATM   15  C20 UNL     1      -6.351 -14.930   8.148  1.00  0.00    -0.007 C 
HETATM   16  C21 UNL     1      -7.491 -15.298   7.222  1.00  0.00     0.010 C 
HETATM   17  C22 UNL     1      -5.956 -13.509   8.070  1.00  0.00     0.020 C 
HETATM   18  C23 UNL     1      -6.648 -12.757   9.195  1.00  0.00     0.012 C 
HETATM   19  N4  UNL     1      -6.039 -11.361   7.068  1.00  0.00    -0.348 N 
ATOM     20  H4  UNL     1      -5.401 -11.140   7.833  1.00  0.00     0.163 HD
HETATM   21  C24 UNL     1      -6.584 -10.285   6.350  1.00  0.00     0.241 C 
HETATM   22  O3  UNL     1      -6.923  -9.274   7.064  1.00  0.00    -0.271 OA
ENDROOT
BRANCH   7  23
HETATM   23  C7  UNL     1      -3.027 -13.634   6.021  1.00  0.00     0.122 C 
BRANCH  23  24
HETATM   24  C8  UNL     1      -3.494 -15.041   5.866  1.00  0.00     0.021 C 
BRANCH  24  25
HETATM   25  C9  UNL     1      -3.128 -15.912   7.008  1.00  0.00     0.021 C 
BRANCH  25  26
HETATM   26  C10 UNL     1      -2.196 -15.245   7.992  1.00  0.00     0.124 C 
BRANCH  26  27
HETATM   27  N3  UNL     1      -2.789 -15.226   9.316  1.00  0.00    -0.364 N 
HETATM   28  C11 UNL     1      -3.296 -16.472   9.847  1.00  0.00     0.152 C 
BRANCH  27  29
HETATM   29  C12 UNL     1      -2.861 -14.005  10.050  1.00  0.00     0.350 C 
HETATM   30  O2  UNL     1      -2.794 -12.920   9.435  1.00  0.00    -0.284 OA
ENDBRANCH  27  29
ENDBRANCH  26  27
ENDBRANCH  25  26
ENDBRANCH  24  25
ENDBRANCH  23  24
ENDBRANCH   7  23
BRANCH   1  31
HETATM   31  C2  UNL     1      -7.718  -9.027   4.587  1.00  0.00     0.009 C 
HETATM   32  C1  UNL     1      -6.963  -7.770   4.262  1.00  0.00     0.012 C 
HETATM   33  C3  UNL     1      -8.467  -9.439   3.314  1.00  0.00     0.012 C 
ENDBRANCH   1  31
TORSDOF 7
ENDMDL
MODEL 5
REMARK VINA RESULT: -6.898941888      3.135      5.882
REMARK  7 active torsions:
REMARK  status: ('A' for Active; 'I' for Inactive)
REMARK    1  A    between atoms: C2_2  and  C4_4 
REMARK    2  A    between atoms: N2_10  and  C7_11 
REMARK    3  A    between atoms: C7_11  and  C8_12 
REMARK    4  A    between atoms: C8_12  and  C9_13 
REMARK    5  A    between atoms: C9_13  and  C10_14 
REMARK    6  A    between atoms: C10_14  and  N3_15 
REMARK    7  A    between atoms: N3_15  and  C12_17 
ROOT
HETATM    1  C4  UNL     1      -4.710 -11.931   5.363  1.00  0.00     0.180 C 
HETATM    2  N1  UNL     1      -5.993 -11.280   5.356  1.00  0.00    -0.343 N 
ATOM      3  H1  UNL     1      -6.226 -10.737   4.524  1.00  0.00     0.163 HD
HETATM    4  C5  UNL     1      -6.962 -11.316   6.381  1.00  0.00     0.257 C 
HETATM    5  O1  UNL     1      -7.424 -10.202   6.824  1.00  0.00    -0.267 OA
HETATM    6  C6  UNL     1      -7.522 -12.530   7.025  1.00  0.00     0.160 C 
HETATM    7  N2  UNL     1      -6.967 -12.890   8.264  1.00  0.00    -0.383 N 
HETATM    8  C13 UNL     1      -5.637 -12.492   8.562  1.00  0.00     0.153 C 
HETATM    9  C14 UNL     1      -4.634 -13.556   8.161  1.00  0.00     0.053 C 
HETATM   10  C15 UNL     1      -3.225 -13.018   8.139  1.00  0.00     0.038 C 
HETATM   11  C16 UNL     1      -2.344 -13.573   9.219  1.00  0.00    -0.011 C 
HETATM   12  C17 UNL     1      -1.813 -14.933   8.934  1.00  0.00     0.009 C 
HETATM   13  C18 UNL     1      -2.780 -16.050   9.188  1.00  0.00    -0.013 C 
HETATM   14  C19 UNL     1      -3.404 -15.948  10.587  1.00  0.00     0.010 C 
HETATM   15  C20 UNL     1      -4.162 -14.623  10.413  1.00  0.00    -0.007 C 
HETATM   16  C21 UNL     1      -3.099 -13.549  10.518  1.00  0.00     0.010 C 
HETATM   17  C22 UNL     1      -4.744 -14.753   9.062  1.00  0.00     0.020 C 
HETATM   18  C23 UNL     1      -4.030 -15.884   8.340  1.00  0.00     0.012 C 
HETATM   19  N4  UNL     1      -5.057 -14.009   6.832  1.00  0.00    -0.348 N 
ATOM     20  H4  UNL     1      -5.625 -14.855   6.784  1.00  0.00     0.163 HD
HETATM   21  C24 UNL     1      -4.742 -13.373   5.621  1.00  0.00     0.241 C 
HETATM   22  O3  UNL     1      -4.457 -14.163   4.652  1.00  0.00    -0.271 OA
ENDROOT
BRANCH   7  23
HETATM   23  C7  UNL     1      -7.849 -13.009   9.388  1.00  0.00     0.122 C 
BRANCH  23  24
HETATM   24  C8  UNL     1      -8.625 -14.282   9.419  1.00  0.00     0.021 C 
BRANCH  24  25
HETATM   25  C9  UNL     1     -10.012 -14.114   9.913  1.00  0.00     0.021 C 
BRANCH  25  26
HETATM   26  C10 UNL     1     -10.100 -13.284  11.172  1.00  0.00     0.124 C 
BRANCH  26  27
HETATM   27  N3  UNL     1     -11.395 -12.635  11.259  1.00  0.00    -0.364 N 
HETATM   28  C11 UNL     1     -12.480 -13.185  10.476  1.00  0.00     0.152 C 
BRANCH  27  29
HETATM   29  C12 UNL     1     -11.568 -11.494  12.096  1.00  0.00     0.350 C 
HETATM   30  O2  UNL     1     -12.667 -10.901  12.097  1.00  0.00    -0.284 OA
ENDBRANCH  27  29
ENDBRANCH  26  27
ENDBRANCH  25  26
ENDBRANCH  24  25
ENDBRANCH  23  24
ENDBRANCH   7  23
BRANCH   1  31
HETATM   31  C2  UNL     1      -3.992 -11.666   4.039  1.00  0.00     0.009 C 
HETATM   32  C1  UNL     1      -4.517 -10.453   3.326  1.00  0.00     0.012 C 
HETATM   33  C3  UNL     1      -2.541 -11.361   4.429  1.00  0.00     0.012 C 
ENDBRANCH   1  31
TORSDOF 7
ENDMDL
