MODEL 1
REMARK VINA RESULT: -6.305653883      0.000      0.000
REMARK  4 active torsions:
REMARK  status: ('A' for Active; 'I' for Inactive)
REMARK    1  A    between atoms: C2_2  and  N1_5 
REMARK    2  A    between atoms: C8_12  and  C9_13 
REMARK    3  A    between atoms: C9_13  and  S1_14 
REMARK    4  A    between atoms: S1_14  and  C10_15 
ROOT
HETATM    1  N1  UNL     1      22.149  -8.484  -1.015  1.00  0.00    -0.368 N 
ATOM      2  H1  UNL     1      22.630  -9.174  -1.592  1.00  0.00     0.161 HD
HETATM    3  C5  UNL     1      22.280  -7.274  -1.383  1.00  0.00     0.104 A 
HETATM    4  C6  UNL     1      23.045  -7.019  -2.505  1.00  0.00     0.065 A 
HETATM    5  C7  UNL     1      23.180  -5.704  -2.894  1.00  0.00     0.093 A 
HETATM    6  N2  UNL     1      22.590  -4.686  -2.213  1.00  0.00    -0.355 N 
ATOM      7  H2  UNL     1      22.706  -3.722  -2.524  1.00  0.00     0.166 HD
HETATM    8  C8  UNL     1      21.855  -4.963  -1.128  1.00  0.00     0.092 A 
HETATM    9  N6  UNL     1      21.715  -6.247  -0.736  1.00  0.00    -0.332 N 
ATOM     10  H6  UNL     1      21.153  -6.444   0.091  1.00  0.00     0.168 HD
ENDROOT
BRANCH   8  11
HETATM   11  C9  UNL     1      21.221  -3.833  -0.406  1.00  0.00     0.158 C 
BRANCH  11  12
HETATM   12  S1  UNL     1      21.733  -3.749   1.303  1.00  0.00    -0.096 SA
BRANCH  12  13
HETATM   13  C10 UNL     1      23.063  -2.592   1.594  1.00  0.00     0.130 A 
HETATM   14  N3  UNL     1      23.111  -1.278   1.447  1.00  0.00    -0.286 N 
HETATM   15  N4  UNL     1      24.171  -0.638   1.716  1.00  0.00    -0.279 N 
ATOM     16  H3  UNL     1      22.288  -0.775   1.114  1.00  0.00     0.188 HD
HETATM   17  C11 UNL     1      25.241  -1.311   2.151  1.00  0.00     0.159 A 
ATOM     18  H4  UNL     1      24.208   0.375   1.603  1.00  0.00     0.189 HD
HETATM   19  N5  UNL     1      26.418  -0.836   2.479  1.00  0.00    -0.379 N 
HETATM   20  S2  UNL     1      24.641  -2.925   2.152  1.00  0.00    -0.027 SA
ATOM     21  H52 UNL     1      26.773   0.120   2.478  1.00  0.00     0.158 HD
ATOM     22  H51 UNL     1      27.234  -1.351   2.811  1.00  0.00     0.158 HD
ENDBRANCH  12  13
ENDBRANCH  11  12
ENDBRANCH   8  11
BRANCH   1  23
HETATM   23  C2  UNL     1      21.423  -9.008   0.091  1.00  0.00     0.021 C 
HETATM   24  C1  UNL     1      20.014  -8.539   0.234  1.00  0.00     0.037 C 
HETATM   25  C3  UNL     1      21.416 -10.539  -0.037  1.00  0.00     0.037 C 
HETATM   26  C4  UNL     1      22.172  -8.683   1.371  1.00  0.00     0.037 C 
ENDBRANCH   1  23
TORSDOF 4
ENDMDL
MODEL 2
REMARK VINA RESULT: -6.287048230      3.436      5.144
REMARK  4 active torsions:
REMARK  status: ('A' for Active; 'I' for Inactive)
REMARK    1  A    between atoms: C2_2  and  N1_5 
REMARK    2  A    between atoms: C8_12  and  C9_13 
REMARK    3  A    between atoms: C9_13  and  S1_14 
REMARK    4  A    between atoms: S1_14  and  C10_15 
ROOT
HETATM    1  N1  UNL     1      20.852  -8.415   1.000  1.00  0.00    -0.368 N 
ATOM      2  H1  UNL     1      20.400  -9.125   1.575  1.00  0.00     0.161 HD
HETATM    3  C5  UNL     1      20.669  -7.212   1.370  1.00  0.00     0.104 A 
HETATM    4  C6  UNL     1      19.892  -6.992   2.491  1.00  0.00     0.065 A 
HETATM    5  C7  UNL     1      19.700  -5.684   2.882  1.00  0.00     0.093 A 
HETATM    6  N2  UNL     1      20.247  -4.641   2.203  1.00  0.00    -0.355 N 
ATOM      7  H2  UNL     1      20.089  -3.683   2.515  1.00  0.00     0.166 HD
HETATM    8  C8  UNL     1      20.996  -4.885   1.118  1.00  0.00     0.092 A 
HETATM    9  N6  UNL     1      21.190  -6.161   0.726  1.00  0.00    -0.332 N 
ATOM     10  H6  UNL     1      21.762  -6.333  -0.102  1.00  0.00     0.168 HD
ENDROOT
BRANCH   8  11
HETATM   11  C9  UNL     1      21.581  -3.728   0.400  1.00  0.00     0.158 C 
BRANCH  11  12
HETATM   12  S1  UNL     1      21.071  -3.664  -1.311  1.00  0.00    -0.096 SA
BRANCH  12  13
HETATM   13  C10 UNL     1      19.755  -2.496  -1.620  1.00  0.00     0.130 A 
HETATM   14  N3  UNL     1      19.747  -1.173  -1.577  1.00  0.00    -0.286 N 
HETATM   15  N4  UNL     1      18.689  -0.526  -1.838  1.00  0.00    -0.279 N 
ATOM     16  H3  UNL     1      20.600  -0.670  -1.332  1.00  0.00     0.188 HD
HETATM   17  C11 UNL     1      17.580  -1.201  -2.158  1.00  0.00     0.159 A 
ATOM     18  H4  UNL     1      18.683   0.493  -1.805  1.00  0.00     0.189 HD
HETATM   19  N5  UNL     1      16.398  -0.720  -2.458  1.00  0.00    -0.379 N 
HETATM   20  S2  UNL     1      18.139  -2.826  -2.062  1.00  0.00    -0.027 SA
ATOM     21  H52 UNL     1      16.067   0.244  -2.514  1.00  0.00     0.158 HD
ATOM     22  H51 UNL     1      15.552  -1.235  -2.701  1.00  0.00     0.158 HD
ENDBRANCH  12  13
ENDBRANCH  11  12
ENDBRANCH   8  11
BRANCH   1  23
HETATM   23  C2  UNL     1      21.601  -8.906  -0.105  1.00  0.00     0.021 C 
HETATM   24  C1  UNL     1      23.021  -8.456  -0.188  1.00  0.00     0.037 C 
HETATM   25  C3  UNL     1      21.579 -10.440  -0.041  1.00  0.00     0.037 C 
HETATM   26  C4  UNL     1      20.896  -8.515  -1.392  1.00  0.00     0.037 C 
ENDBRANCH   1  23
TORSDOF 4
ENDMDL
MODEL 3
REMARK VINA RESULT: -6.260419097      4.369      5.676
REMARK  4 active torsions:
REMARK  status: ('A' for Active; 'I' for Inactive)
REMARK    1  A    between atoms: C2_2  and  N1_5 
REMARK    2  A    between atoms: C8_12  and  C9_13 
REMARK    3  A    between atoms: C9_13  and  S1_14 
REMARK    4  A    between atoms: S1_14  and  C10_15 
ROOT
HETATM    1  N1  UNL     1      22.088  -6.667   0.135  1.00  0.00    -0.368 N 
ATOM      2  H1  UNL     1      22.670  -6.919   0.933  1.00  0.00     0.161 HD
HETATM    3  C5  UNL     1      21.769  -5.439   0.054  1.00  0.00     0.104 A 
HETATM    4  C6  UNL     1      22.235  -4.585   1.036  1.00  0.00     0.065 A 
HETATM    5  C7  UNL     1      21.882  -3.256   0.939  1.00  0.00     0.093 A 
HETATM    6  N2  UNL     1      21.110  -2.787  -0.077  1.00  0.00    -0.355 N 
ATOM      7  H2  UNL     1      20.865  -1.798  -0.125  1.00  0.00     0.166 HD
HETATM    8  C8  UNL     1      20.673  -3.639  -1.015  1.00  0.00     0.092 A 
HETATM    9  N6  UNL     1      21.010  -4.943  -0.930  1.00  0.00    -0.332 N 
ATOM     10  H6  UNL     1      20.671  -5.580  -1.650  1.00  0.00     0.168 HD
ENDROOT
BRANCH   8  11
HETATM   11  C9  UNL     1      19.834  -3.099  -2.112  1.00  0.00     0.158 C 
BRANCH  11  12
HETATM   12  S1  UNL     1      18.204  -2.632  -1.551  1.00  0.00    -0.096 SA
BRANCH  12  13
HETATM   13  C10 UNL     1      17.630  -1.083  -2.235  1.00  0.00     0.130 A 
HETATM   14  N3  UNL     1      16.427  -0.712  -2.640  1.00  0.00    -0.286 N 
HETATM   15  N4  UNL     1      16.233   0.454  -3.098  1.00  0.00    -0.279 N 
ATOM     16  H3  UNL     1      15.649  -1.368  -2.583  1.00  0.00     0.188 HD
HETATM   17  C11 UNL     1      17.264   1.303  -3.165  1.00  0.00     0.159 A 
ATOM     18  H4  UNL     1      15.305   0.741  -3.410  1.00  0.00     0.189 HD
HETATM   19  N5  UNL     1      17.267   2.538  -3.603  1.00  0.00    -0.379 N 
HETATM   20  S2  UNL     1      18.537   0.332  -2.533  1.00  0.00    -0.027 SA
ATOM     21  H52 UNL     1      16.512   3.114  -3.978  1.00  0.00     0.158 HD
ATOM     22  H51 UNL     1      18.054   3.186  -3.655  1.00  0.00     0.158 HD
ENDBRANCH  12  13
ENDBRANCH  11  12
ENDBRANCH   8  11
BRANCH   1  23
HETATM   23  C2  UNL     1      21.745  -7.738  -0.736  1.00  0.00     0.021 C 
HETATM   24  C1  UNL     1      20.303  -7.848  -1.105  1.00  0.00     0.037 C 
HETATM   25  C3  UNL     1      22.566  -7.577  -2.024  1.00  0.00     0.037 C 
HETATM   26  C4  UNL     1      22.181  -9.048  -0.104  1.00  0.00     0.037 C 
ENDBRANCH   1  23
TORSDOF 4
ENDMDL
MODEL 4
REMARK VINA RESULT: -6.248509126      2.421      7.145
REMARK  4 active torsions:
REMARK  status: ('A' for Active; 'I' for Inactive)
REMARK    1  A    between atoms: C2_2  and  N1_5 
REMARK    2  A    between atoms: C8_12  and  C9_13 
REMARK    3  A    between atoms: C9_13  and  S1_14 
REMARK    4  A    between atoms: S1_14  and  C10_15 
ROOT
HETATM    1  N1  UNL     1      22.419  -1.476   0.964  1.00  0.00    -0.368 N 
ATOM      2  H1  UNL     1      22.118  -0.502   0.941  1.00  0.00     0.161 HD
HETATM    3  C5  UNL     1      21.786  -2.265   0.192  1.00  0.00     0.104 A 
HETATM    4  C6  UNL     1      20.775  -1.734  -0.586  1.00  0.00     0.065 A 
HETATM    5  C7  UNL     1      20.097  -2.597  -1.418  1.00  0.00     0.093 A 
HETATM    6  N2  UNL     1      20.398  -3.922  -1.484  1.00  0.00    -0.355 N 
ATOM      7  H2  UNL     1      19.880  -4.538  -2.110  1.00  0.00     0.166 HD
HETATM    8  C8  UNL     1      21.383  -4.408  -0.717  1.00  0.00     0.092 A 
HETATM    9  N6  UNL     1      22.055  -3.573   0.102  1.00  0.00    -0.332 N 
ATOM     10  H6  UNL     1      22.802  -3.956   0.681  1.00  0.00     0.168 HD
ENDROOT
BRANCH   8  11
HETATM   11  C9  UNL     1      21.692  -5.856  -0.812  1.00  0.00     0.158 C 
BRANCH  11  12
HETATM   12  S1  UNL     1      22.008  -6.587   0.786  1.00  0.00    -0.096 SA
BRANCH  12  13
HETATM   13  C10 UNL     1      21.925  -8.372   0.783  1.00  0.00     0.130 A 
HETATM   14  N3  UNL     1      22.351  -9.258   1.669  1.00  0.00    -0.286 N 
HETATM   15  N4  UNL     1      22.187 -10.499   1.470  1.00  0.00    -0.279 N 
ATOM     16  H3  UNL     1      22.815  -8.939   2.520  1.00  0.00     0.188 HD
HETATM   17  C11 UNL     1      21.577 -10.899   0.350  1.00  0.00     0.159 A 
ATOM     18  H4  UNL     1      22.515 -11.181   2.153  1.00  0.00     0.189 HD
HETATM   19  N5  UNL     1      21.316 -12.125  -0.035  1.00  0.00    -0.379 N 
HETATM   20  S2  UNL     1      21.250  -9.390  -0.410  1.00  0.00    -0.027 SA
ATOM     21  H52 UNL     1      21.511 -13.020   0.415  1.00  0.00     0.158 HD
ATOM     22  H51 UNL     1      20.851 -12.430  -0.891  1.00  0.00     0.158 HD
ENDBRANCH  12  13
ENDBRANCH  11  12
ENDBRANCH   8  11
BRANCH   1  23
HETATM   23  C2  UNL     1      23.489  -1.767   1.856  1.00  0.00     0.021 C 
HETATM   24  C1  UNL     1      24.713  -2.359   1.242  1.00  0.00     0.037 C 
HETATM   25  C3  UNL     1      23.881  -0.458   2.558  1.00  0.00     0.037 C 
HETATM   26  C4  UNL     1      22.989  -2.707   2.938  1.00  0.00     0.037 C 
ENDBRANCH   1  23
TORSDOF 4
ENDMDL
MODEL 5
REMARK VINA RESULT: -6.241950043      2.953      7.363
REMARK  4 active torsions:
REMARK  status: ('A' for Active; 'I' for Inactive)
REMARK    1  A    between atoms: C2_2  and  N1_5 
REMARK    2  A    between atoms: C8_12  and  C9_13 
REMARK    3  A    between atoms: C9_13  and  S1_14 
REMARK    4  A    between atoms: S1_14  and  C10_15 
ROOT
HETATM    1  N1  UNL     1      20.577  -1.502  -0.865  1.00  0.00    -0.368 N 
ATOM      2  H1  UNL     1      20.876  -0.527  -0.848  1.00  0.00     0.161 HD
HETATM    3  C5  UNL     1      21.236  -2.291  -0.115  1.00  0.00     0.104 A 
HETATM    4  C6  UNL     1      22.268  -1.758   0.634  1.00  0.00     0.065 A 
HETATM    5  C7  UNL     1      22.974  -2.622   1.442  1.00  0.00     0.093 A 
HETATM    6  N2  UNL     1      22.680  -3.948   1.513  1.00  0.00    -0.355 N 
ATOM      7  H2  UNL     1      23.219  -4.564   2.122  1.00  0.00     0.166 HD
HETATM    8  C8  UNL     1      21.673  -4.435   0.776  1.00  0.00     0.092 A 
HETATM    9  N6  UNL     1      20.974  -3.600  -0.021  1.00  0.00    -0.332 N 
ATOM     10  H6  UNL     1      20.211  -3.984  -0.577  1.00  0.00     0.168 HD
ENDROOT
BRANCH   8  11
HETATM   11  C9  UNL     1      21.373  -5.884   0.876  1.00  0.00     0.158 C 
BRANCH  11  12
HETATM   12  S1  UNL     1      20.884  -6.584  -0.693  1.00  0.00    -0.096 SA
BRANCH  12  13
HETATM   13  C10 UNL     1      20.959  -8.369  -0.732  1.00  0.00     0.130 A 
HETATM   14  N3  UNL     1      20.581  -9.229  -1.664  1.00  0.00    -0.286 N 
HETATM   15  N4  UNL     1      20.728 -10.476  -1.489  1.00  0.00    -0.279 N 
ATOM     16  H3  UNL     1      20.168  -8.886  -2.531  1.00  0.00     0.188 HD
HETATM   17  C11 UNL     1      21.272 -10.908  -0.347  1.00  0.00     0.159 A 
ATOM     18  H4  UNL     1      20.437 -11.138  -2.207  1.00  0.00     0.189 HD
HETATM   19  N5  UNL     1      21.506 -12.145   0.020  1.00  0.00    -0.379 N 
HETATM   20  S2  UNL     1      21.562  -9.421   0.470  1.00  0.00    -0.027 SA
ATOM     21  H52 UNL     1      21.334 -13.027  -0.464  1.00  0.00     0.158 HD
ATOM     22  H51 UNL     1      21.921 -12.475   0.892  1.00  0.00     0.158 HD
ENDBRANCH  12  13
ENDBRANCH  11  12
ENDBRANCH   8  11
BRANCH   1  23
HETATM   23  C2  UNL     1      19.482  -1.793  -1.724  1.00  0.00     0.021 C 
HETATM   24  C1  UNL     1      18.259  -2.340  -1.067  1.00  0.00     0.037 C 
HETATM   25  C3  UNL     1      19.103  -0.497  -2.456  1.00  0.00     0.037 C 
HETATM   26  C4  UNL     1      19.937  -2.776  -2.789  1.00  0.00     0.037 C 
ENDBRANCH   1  23
TORSDOF 4
ENDMDL
