MODEL 1
REMARK VINA RESULT: -7.070452686      0.000      0.000
REMARK  2 active torsions:
REMARK  status: ('A' for Active; 'I' for Inactive)
REMARK    1  A    between atoms: C3_6  and  N2_7 
REMARK    2  A    between atoms: C5_13  and  C6_14 
ROOT
HETATM    1  N2  UNL     1      12.156 -14.711 -37.832  1.00  0.00    -0.126 N 
ATOM      2  H2  UNL     1      11.636 -14.748 -38.709  1.00  0.00     0.197 HD
HETATM    3  C4  UNL     1      13.486 -14.276 -37.826  1.00  0.00     0.196 C 
HETATM    4  N3  UNL     1      14.602 -13.901 -37.838  1.00  0.00    -0.171 NA
ENDROOT
BRANCH   1   5
HETATM    5  C3  UNL     1      11.522 -15.107 -36.610  1.00  0.00     0.693 C 
HETATM    6  N1  UNL     1      10.752 -16.139 -36.686  1.00  0.00    -0.164 N 
HETATM    7  S1  UNL     1       9.955 -16.662 -35.221  1.00  0.00    -0.032 SA
ATOM      8  H1  UNL     1      10.612 -16.631 -37.569  1.00  0.00     0.192 HD
HETATM    9  C2  UNL     1      10.798 -15.971 -33.785  1.00  0.00     0.094 C 
HETATM   10  C1  UNL     1       9.727 -15.527 -32.806  1.00  0.00     0.026 C 
HETATM   11  C5  UNL     1      11.807 -14.933 -34.093  1.00  0.00     0.164 C 
HETATM   12  N4  UNL     1      11.752 -14.385 -35.414  1.00  0.00    -0.214 N 
ATOM     13  H4  UNL     1      11.891 -13.378 -35.504  1.00  0.00     0.178 HD
BRANCH  11  14
HETATM   14  C6  UNL     1      11.637 -13.825 -33.117  1.00  0.00     0.035 A 
HETATM   15  C7  UNL     1      11.877 -13.871 -31.738  1.00  0.00     0.041 A 
HETATM   16  C8  UNL     1      11.602 -12.647 -31.180  1.00  0.00    -0.007 A 
HETATM   17  C9  UNL     1      11.688 -12.223 -29.885  1.00  0.00     0.014 A 
HETATM   18  C13 UNL     1      11.191 -11.856 -32.237  1.00  0.00     0.042 A 
HETATM   19  C10 UNL     1      11.337 -10.901 -29.615  1.00  0.00     0.001 A 
HETATM   20  C11 UNL     1      10.918 -10.070 -30.649  1.00  0.00     0.002 A 
HETATM   21  C12 UNL     1      10.852 -10.551 -31.930  1.00  0.00     0.030 A 
HETATM   22  N5  UNL     1      11.221 -12.580 -33.382  1.00  0.00    -0.357 N 
ATOM     23  H5  UNL     1      10.964 -12.230 -34.306  1.00  0.00     0.166 HD
ENDBRANCH  11  14
ENDBRANCH   1   5
TORSDOF 2
ENDMDL
MODEL 2
REMARK VINA RESULT: -6.837616338      0.629      1.326
REMARK  2 active torsions:
REMARK  status: ('A' for Active; 'I' for Inactive)
REMARK    1  A    between atoms: C3_6  and  N2_7 
REMARK    2  A    between atoms: C5_13  and  C6_14 
ROOT
HETATM    1  N2  UNL     1      12.240 -14.711 -37.615  1.00  0.00    -0.126 N 
ATOM      2  H2  UNL     1      11.737 -14.746 -38.502  1.00  0.00     0.197 HD
HETATM    3  C4  UNL     1      13.570 -14.276 -37.584  1.00  0.00     0.196 C 
HETATM    4  N3  UNL     1      14.686 -13.901 -37.576  1.00  0.00    -0.171 NA
ENDROOT
BRANCH   1   5
HETATM    5  C3  UNL     1      11.584 -15.108 -36.405  1.00  0.00     0.693 C 
HETATM    6  N1  UNL     1      10.808 -16.134 -36.498  1.00  0.00    -0.164 N 
HETATM    7  S1  UNL     1       9.985 -16.658 -35.049  1.00  0.00    -0.032 SA
ATOM      8  H1  UNL     1      10.679 -16.621 -37.386  1.00  0.00     0.192 HD
HETATM    9  C2  UNL     1      10.810 -15.981 -33.597  1.00  0.00     0.094 C 
HETATM   10  C1  UNL     1       9.726 -15.533 -32.632  1.00  0.00     0.026 C 
HETATM   11  C5  UNL     1      11.831 -14.949 -33.883  1.00  0.00     0.164 C 
HETATM   12  N4  UNL     1      11.801 -14.394 -35.202  1.00  0.00    -0.214 N 
ATOM     13  H4  UNL     1      11.949 -13.388 -35.284  1.00  0.00     0.178 HD
BRANCH  11  14
HETATM   14  C6  UNL     1      11.654 -13.844 -32.904  1.00  0.00     0.035 A 
HETATM   15  C7  UNL     1      11.230 -12.537 -33.175  1.00  0.00     0.041 A 
HETATM   16  C8  UNL     1      11.195 -11.813 -32.009  1.00  0.00    -0.007 A 
HETATM   17  C9  UNL     1      10.847 -10.512 -31.784  1.00  0.00     0.014 A 
HETATM   18  C13 UNL     1      11.602 -12.696 -31.026  1.00  0.00     0.042 A 
HETATM   19  C10 UNL     1      10.909 -10.046 -30.471  1.00  0.00     0.001 A 
HETATM   20  C11 UNL     1      11.314 -10.901 -29.451  1.00  0.00     0.002 A 
HETATM   21  C12 UNL     1      11.650 -12.198 -29.737  1.00  0.00     0.030 A 
HETATM   22  N5  UNL     1      11.870 -13.901 -31.584  1.00  0.00    -0.357 N 
ATOM     23  H5  UNL     1      12.188 -14.726 -31.076  1.00  0.00     0.166 HD
ENDBRANCH  11  14
ENDBRANCH   1   5
TORSDOF 2
ENDMDL
MODEL 3
REMARK VINA RESULT: -6.469796949      1.175      1.180
REMARK  2 active torsions:
REMARK  status: ('A' for Active; 'I' for Inactive)
REMARK    1  A    between atoms: C3_6  and  N2_7 
REMARK    2  A    between atoms: C5_13  and  C6_14 
ROOT
HETATM    1  N2  UNL     1      11.129 -15.811 -37.778  1.00  0.00    -0.126 N 
ATOM      2  H2  UNL     1      11.255 -16.599 -38.414  1.00  0.00     0.197 HD
HETATM    3  C4  UNL     1      11.369 -14.507 -38.226  1.00  0.00     0.196 C 
HETATM    4  N3  UNL     1      11.568 -13.416 -38.622  1.00  0.00    -0.171 NA
ENDROOT
BRANCH   1   5
HETATM    5  C3  UNL     1      10.708 -16.042 -36.428  1.00  0.00     0.693 C 
HETATM    6  N1  UNL     1       9.932 -17.057 -36.249  1.00  0.00    -0.164 N 
HETATM    7  S1  UNL     1       9.391 -17.381 -34.620  1.00  0.00    -0.032 SA
ATOM      8  H1  UNL     1       9.645 -17.648 -37.030  1.00  0.00     0.192 HD
HETATM    9  C2  UNL     1      10.466 -16.544 -33.439  1.00  0.00     0.094 C 
HETATM   10  C1  UNL     1       9.576 -15.960 -32.357  1.00  0.00     0.026 C 
HETATM   11  C5  UNL     1      11.412 -15.575 -34.034  1.00  0.00     0.164 C 
HETATM   12  N4  UNL     1      11.138 -15.188 -35.384  1.00  0.00    -0.214 N 
ATOM     13  H4  UNL     1      11.264 -14.203 -35.618  1.00  0.00     0.178 HD
BRANCH  11  14
HETATM   14  C6  UNL     1      11.413 -14.354 -33.186  1.00  0.00     0.035 A 
HETATM   15  C7  UNL     1      11.820 -14.256 -31.849  1.00  0.00     0.041 A 
HETATM   16  C8  UNL     1      11.669 -12.962 -31.415  1.00  0.00    -0.007 A 
HETATM   17  C9  UNL     1      11.934 -12.398 -30.200  1.00  0.00     0.014 A 
HETATM   18  C13 UNL     1      11.165 -12.275 -32.504  1.00  0.00     0.042 A 
HETATM   19  C10 UNL     1      11.676 -11.036 -30.052  1.00  0.00     0.001 A 
HETATM   20  C11 UNL     1      11.168 -10.306 -31.122  1.00  0.00     0.002 A 
HETATM   21  C12 UNL     1      10.922 -10.926 -32.318  1.00  0.00     0.030 A 
HETATM   22  N5  UNL     1      11.021 -13.126 -33.548  1.00  0.00    -0.357 N 
ATOM     23  H5  UNL     1      10.667 -12.871 -34.470  1.00  0.00     0.166 HD
ENDBRANCH  11  14
ENDBRANCH   1   5
TORSDOF 2
ENDMDL
MODEL 4
REMARK VINA RESULT: -6.307832333      2.381      3.983
REMARK  2 active torsions:
REMARK  status: ('A' for Active; 'I' for Inactive)
REMARK    1  A    between atoms: C3_6  and  N2_7 
REMARK    2  A    between atoms: C5_13  and  C6_14 
ROOT
HETATM    1  N2  UNL     1      11.225 -14.275 -34.378  1.00  0.00    -0.126 N 
ATOM      2  H2  UNL     1      10.259 -14.110 -34.661  1.00  0.00     0.197 HD
HETATM    3  C4  UNL     1      12.191 -14.591 -35.340  1.00  0.00     0.196 C 
HETATM    4  N3  UNL     1      12.990 -14.849 -36.164  1.00  0.00    -0.171 NA
ENDROOT
BRANCH   1   5
HETATM    5  C3  UNL     1      11.589 -14.183 -32.995  1.00  0.00     0.693 C 
HETATM    6  N1  UNL     1      12.029 -15.270 -32.457  1.00  0.00    -0.164 N 
HETATM    7  S1  UNL     1      12.487 -15.209 -30.773  1.00  0.00    -0.032 SA
ATOM      8  H1  UNL     1      12.105 -16.133 -32.996  1.00  0.00     0.192 HD
HETATM    9  C2  UNL     1      12.758 -13.499 -30.272  1.00  0.00     0.094 C 
HETATM   10  C1  UNL     1      12.148 -13.332 -28.893  1.00  0.00     0.026 C 
HETATM   11  C5  UNL     1      12.320 -12.484 -31.256  1.00  0.00     0.164 C 
HETATM   12  N4  UNL     1      11.461 -12.958 -32.298  1.00  0.00    -0.214 N 
ATOM     13  H4  UNL     1      10.680 -12.357 -32.563  1.00  0.00     0.178 HD
BRANCH  11  14
HETATM   14  C6  UNL     1      11.613 -11.404 -30.518  1.00  0.00     0.035 A 
HETATM   15  C7  UNL     1      10.795 -10.407 -31.062  1.00  0.00     0.041 A 
HETATM   16  C8  UNL     1      10.327  -9.595 -30.057  1.00  0.00    -0.007 A 
HETATM   17  C9  UNL     1       9.506  -8.506 -30.108  1.00  0.00     0.014 A 
HETATM   18  C13 UNL     1      10.870 -10.113 -28.897  1.00  0.00     0.042 A 
HETATM   19  C10 UNL     1       9.198  -7.874 -28.904  1.00  0.00     0.001 A 
HETATM   20  C11 UNL     1       9.724  -8.361 -27.712  1.00  0.00     0.002 A 
HETATM   21  C12 UNL     1      10.542  -9.460 -27.722  1.00  0.00     0.030 A 
HETATM   22  N5  UNL     1      11.634 -11.191 -29.196  1.00  0.00    -0.357 N 
ATOM     23  H5  UNL     1      12.147 -11.755 -28.518  1.00  0.00     0.166 HD
ENDBRANCH  11  14
ENDBRANCH   1   5
TORSDOF 2
ENDMDL
MODEL 5
REMARK VINA RESULT: -6.134208256      2.709      4.146
REMARK  2 active torsions:
REMARK  status: ('A' for Active; 'I' for Inactive)
REMARK    1  A    between atoms: C3_6  and  N2_7 
REMARK    2  A    between atoms: C5_13  and  C6_14 
ROOT
HETATM    1  N2  UNL     1       8.910 -18.890 -32.643  1.00  0.00    -0.126 N 
ATOM      2  H2  UNL     1       8.888 -19.842 -32.276  1.00  0.00     0.197 HD
HETATM    3  C4  UNL     1       7.716 -18.240 -32.973  1.00  0.00     0.196 C 
HETATM    4  N3  UNL     1       6.701 -17.707 -33.238  1.00  0.00    -0.171 NA
ENDROOT
BRANCH   1   5
HETATM    5  C3  UNL     1      10.166 -18.222 -32.821  1.00  0.00     0.693 C 
HETATM    6  N1  UNL     1      11.179 -18.986 -33.051  1.00  0.00    -0.164 N 
HETATM    7  S1  UNL     1      12.733 -18.219 -33.275  1.00  0.00    -0.032 SA
ATOM      8  H1  UNL     1      11.077 -20.000 -33.101  1.00  0.00     0.192 HD
HETATM    9  C2  UNL     1      12.505 -16.475 -33.671  1.00  0.00     0.094 C 
HETATM   10  C1  UNL     1      13.555 -15.698 -32.899  1.00  0.00     0.026 C 
HETATM   11  C5  UNL     1      11.125 -15.971 -33.495  1.00  0.00     0.164 C 
HETATM   12  N4  UNL     1      10.247 -16.812 -32.739  1.00  0.00    -0.214 N 
ATOM     13  H4  UNL     1       9.621 -16.351 -32.079  1.00  0.00     0.178 HD
BRANCH  11  14
HETATM   14  C6  UNL     1      11.203 -14.647 -32.823  1.00  0.00     0.035 A 
HETATM   15  C7  UNL     1      11.473 -14.403 -31.471  1.00  0.00     0.041 A 
HETATM   16  C8  UNL     1      11.457 -13.050 -31.234  1.00  0.00    -0.007 A 
HETATM   17  C9  UNL     1      11.664 -12.349 -30.081  1.00  0.00     0.014 A 
HETATM   18  C13 UNL     1      11.175 -12.476 -32.460  1.00  0.00     0.042 A 
HETATM   19  C10 UNL     1      11.583 -10.959 -30.149  1.00  0.00     0.001 A 
HETATM   20  C11 UNL     1      11.301 -10.339 -31.362  1.00  0.00     0.002 A 
HETATM   21  C12 UNL     1      11.103 -11.095 -32.487  1.00  0.00     0.030 A 
HETATM   22  N5  UNL     1      11.027 -13.448 -33.392  1.00  0.00    -0.357 N 
ATOM     23  H5  UNL     1      10.815 -13.290 -34.377  1.00  0.00     0.166 HD
ENDBRANCH  11  14
ENDBRANCH   1   5
TORSDOF 2
ENDMDL
