MODEL 1
REMARK VINA RESULT: -4.486713248      0.000      0.000
REMARK  4 active torsions:
REMARK  status: ('A' for Active; 'I' for Inactive)
REMARK    1  A    between atoms: C4_4  and  N1_5 
REMARK    2  A    between atoms: C5_10  and  N3_11 
REMARK    3  A    between atoms: C6_12  and  C7_13 
REMARK    4  A    between atoms: C12_23  and  O1_24 
ROOT
HETATM    1  C1  UNL     1       7.472 -19.776 -29.010  1.00  0.00     0.051 C 
HETATM    2  C2  UNL     1       7.461 -19.160 -27.653  1.00  0.00    -0.021 A 
HETATM    3  C3  UNL     1       6.576 -18.146 -27.412  1.00  0.00     0.057 A 
HETATM    4  C4  UNL     1       6.548 -17.564 -26.137  1.00  0.00     0.100 A 
HETATM    5  N2  UNL     1       7.401 -18.039 -25.207  1.00  0.00    -0.326 N 
ATOM      6  H2  UNL     1       7.371 -17.606 -24.285  1.00  0.00     0.169 HD
HETATM    7  C5  UNL     1       8.289 -19.034 -25.387  1.00  0.00     0.151 A 
HETATM    8  C12 UNL     1       8.302 -19.591 -26.648  1.00  0.00     0.116 A 
ENDROOT
BRANCH   7   9
HETATM    9  N3  UNL     1       9.103 -19.519 -24.344  1.00  0.00    -0.257 N 
HETATM   10  C6  UNL     1       8.868 -20.388 -23.412  1.00  0.00     0.114 A 
HETATM   11  N4  UNL     1      10.001 -20.510 -22.646  1.00  0.00    -0.286 N 
HETATM   12  N5  UNL     1      10.919 -19.711 -23.114  1.00  0.00    -0.274 N 
ATOM     13  H4  UNL     1      10.107 -21.126 -21.839  1.00  0.00     0.188 HD
HETATM   14  C11 UNL     1      10.403 -19.083 -24.162  1.00  0.00     0.200 A 
ATOM     15  H5  UNL     1      11.862 -19.592 -22.743  1.00  0.00     0.189 HD
HETATM   16  S1  UNL     1      11.123 -17.981 -25.117  1.00  0.00    -0.039 SA
BRANCH  10  17
HETATM   17  C7  UNL     1       7.696 -21.180 -23.076  1.00  0.00     0.009 C 
HETATM   18  C8  UNL     1       8.135 -22.142 -21.947  1.00  0.00     0.023 C 
HETATM   19  C9  UNL     1       7.050 -21.978 -24.126  1.00  0.00     0.023 C 
HETATM   20  C10 UNL     1       6.625 -20.309 -22.399  1.00  0.00     0.023 C 
ENDBRANCH  10  17
ENDBRANCH   7   9
BRANCH   8  21
HETATM   21  O1  UNL     1       9.182 -20.610 -26.914  1.00  0.00    -0.357 OA
ATOM     22  H1  UNL     1       9.867 -20.468 -27.556  1.00  0.00     0.218 HD
ENDBRANCH   8  21
BRANCH   4  23
HETATM   23  N1  UNL     1       5.754 -16.668 -25.905  1.00  0.00    -0.385 N 
ATOM     24  H12 UNL     1       4.746 -16.784 -26.010  1.00  0.00     0.157 HD
ATOM     25  H11 UNL     1       6.100 -15.757 -25.604  1.00  0.00     0.157 HD
ENDBRANCH   4  23
TORSDOF 4
ENDMDL
MODEL 2
REMARK VINA RESULT: -4.423689375      2.620      3.688
REMARK  4 active torsions:
REMARK  status: ('A' for Active; 'I' for Inactive)
REMARK    1  A    between atoms: C4_4  and  N1_5 
REMARK    2  A    between atoms: C5_10  and  N3_11 
REMARK    3  A    between atoms: C6_12  and  C7_13 
REMARK    4  A    between atoms: C12_23  and  O1_24 
ROOT
HETATM    1  C1  UNL     1       6.361 -17.734 -29.222  1.00  0.00     0.051 C 
HETATM    2  C2  UNL     1       6.814 -18.071 -27.843  1.00  0.00    -0.021 A 
HETATM    3  C3  UNL     1       6.218 -17.430 -26.793  1.00  0.00     0.057 A 
HETATM    4  C4  UNL     1       6.626 -17.745 -25.489  1.00  0.00     0.100 A 
HETATM    5  N2  UNL     1       7.594 -18.671 -25.339  1.00  0.00    -0.326 N 
ATOM      6  H2  UNL     1       7.883 -18.889 -24.385  1.00  0.00     0.169 HD
HETATM    7  C5  UNL     1       8.213 -19.334 -26.332  1.00  0.00     0.151 A 
HETATM    8  C12 UNL     1       7.798 -19.008 -27.605  1.00  0.00     0.116 A 
ENDROOT
BRANCH   7   9
HETATM    9  N3  UNL     1       9.172 -20.338 -26.089  1.00  0.00    -0.257 N 
HETATM   10  C6  UNL     1      10.461 -20.276 -25.969  1.00  0.00     0.114 A 
HETATM   11  N4  UNL     1      10.930 -21.544 -25.731  1.00  0.00    -0.286 N 
HETATM   12  N5  UNL     1       9.923 -22.373 -25.710  1.00  0.00    -0.274 N 
ATOM     13  H4  UNL     1      11.908 -21.798 -25.593  1.00  0.00     0.188 HD
HETATM   14  C11 UNL     1       8.822 -21.666 -25.926  1.00  0.00     0.200 A 
ATOM     15  H5  UNL     1       9.973 -23.380 -25.554  1.00  0.00     0.189 HD
HETATM   16  S1  UNL     1       7.289 -22.205 -25.996  1.00  0.00    -0.039 SA
BRANCH  10  17
HETATM   17  C7  UNL     1      11.406 -19.174 -26.046  1.00  0.00     0.009 C 
HETATM   18  C8  UNL     1      12.786 -19.762 -25.668  1.00  0.00     0.023 C 
HETATM   19  C9  UNL     1      11.179 -17.981 -25.221  1.00  0.00     0.023 C 
HETATM   20  C10 UNL     1      11.603 -18.725 -27.504  1.00  0.00     0.023 C 
ENDBRANCH  10  17
ENDBRANCH   7   9
BRANCH   8  21
HETATM   21  O1  UNL     1       8.382 -19.639 -28.675  1.00  0.00    -0.357 OA
ATOM     22  H1  UNL     1       7.892 -20.311 -29.134  1.00  0.00     0.218 HD
ENDBRANCH   8  21
BRANCH   4  23
HETATM   23  N1  UNL     1       6.093 -17.190 -24.544  1.00  0.00    -0.385 N 
ATOM     24  H12 UNL     1       6.072 -16.176 -24.440  1.00  0.00     0.157 HD
ATOM     25  H11 UNL     1       5.655 -17.753 -23.815  1.00  0.00     0.157 HD
ENDBRANCH   4  23
TORSDOF 4
ENDMDL
MODEL 3
REMARK VINA RESULT: -4.354253787      9.506     11.306
REMARK  4 active torsions:
REMARK  status: ('A' for Active; 'I' for Inactive)
REMARK    1  A    between atoms: C4_4  and  N1_5 
REMARK    2  A    between atoms: C5_10  and  N3_11 
REMARK    3  A    between atoms: C6_12  and  C7_13 
REMARK    4  A    between atoms: C12_23  and  O1_24 
ROOT
HETATM    1  C1  UNL     1      13.328 -14.889 -30.050  1.00  0.00     0.051 C 
HETATM    2  C2  UNL     1      12.459 -14.520 -31.204  1.00  0.00    -0.021 A 
HETATM    3  C3  UNL     1      12.084 -13.212 -31.337  1.00  0.00     0.057 A 
HETATM    4  C4  UNL     1      11.275 -12.849 -32.423  1.00  0.00     0.100 A 
HETATM    5  N2  UNL     1      10.907 -13.817 -33.286  1.00  0.00    -0.326 N 
ATOM      6  H2  UNL     1      10.318 -13.539 -34.071  1.00  0.00     0.169 HD
HETATM    7  C5  UNL     1      11.247 -15.116 -33.206  1.00  0.00     0.151 A 
HETATM    8  C12 UNL     1      12.041 -15.452 -32.130  1.00  0.00     0.116 A 
ENDROOT
BRANCH   7   9
HETATM    9  N3  UNL     1      10.875 -16.057 -34.187  1.00  0.00    -0.257 N 
HETATM   10  C6  UNL     1      11.402 -16.347 -35.335  1.00  0.00     0.114 A 
HETATM   11  N4  UNL     1      10.657 -17.349 -35.907  1.00  0.00    -0.286 N 
HETATM   12  N5  UNL     1       9.679 -17.663 -35.103  1.00  0.00    -0.274 N 
ATOM     13  H4  UNL     1      10.840 -17.779 -36.814  1.00  0.00     0.188 HD
HETATM   14  C11 UNL     1       9.780 -16.888 -34.032  1.00  0.00     0.200 A 
ATOM     15  H5  UNL     1       8.967 -18.374 -35.269  1.00  0.00     0.189 HD
HETATM   16  S1  UNL     1       8.818 -16.869 -32.721  1.00  0.00    -0.039 SA
BRANCH  10  17
HETATM   17  C7  UNL     1      12.551 -15.820 -36.053  1.00  0.00     0.009 C 
HETATM   18  C8  UNL     1      12.755 -16.744 -37.277  1.00  0.00     0.023 C 
HETATM   19  C9  UNL     1      13.836 -15.702 -35.353  1.00  0.00     0.023 C 
HETATM   20  C10 UNL     1      12.219 -14.460 -36.691  1.00  0.00     0.023 C 
ENDBRANCH  10  17
ENDBRANCH   7   9
BRANCH   8  21
HETATM   21  O1  UNL     1      12.430 -16.759 -31.975  1.00  0.00    -0.357 OA
ATOM     22  H1  UNL     1      12.822 -17.210 -32.714  1.00  0.00     0.218 HD
ENDBRANCH   8  21
BRANCH   4  23
HETATM   23  N1  UNL     1      10.946 -11.684 -32.561  1.00  0.00    -0.385 N 
ATOM     24  H12 UNL     1      11.623 -10.928 -32.663  1.00  0.00     0.157 HD
ATOM     25  H11 UNL     1       9.955 -11.440 -32.565  1.00  0.00     0.157 HD
ENDBRANCH   4  23
TORSDOF 4
ENDMDL
MODEL 4
REMARK VINA RESULT: -4.328589327      8.355     10.144
REMARK  4 active torsions:
REMARK  status: ('A' for Active; 'I' for Inactive)
REMARK    1  A    between atoms: C4_4  and  N1_5 
REMARK    2  A    between atoms: C5_10  and  N3_11 
REMARK    3  A    between atoms: C6_12  and  C7_13 
REMARK    4  A    between atoms: C12_23  and  O1_24 
ROOT
HETATM    1  C1  UNL     1      15.347 -16.553 -21.455  1.00  0.00     0.051 C 
HETATM    2  C2  UNL     1      15.184 -15.579 -22.573  1.00  0.00    -0.021 A 
HETATM    3  C3  UNL     1      14.049 -14.819 -22.605  1.00  0.00     0.057 A 
HETATM    4  C4  UNL     1      13.886 -13.892 -23.644  1.00  0.00     0.100 A 
HETATM    5  N2  UNL     1      14.868 -13.798 -24.564  1.00  0.00    -0.326 N 
ATOM      6  H2  UNL     1      14.736 -13.121 -25.315  1.00  0.00     0.169 HD
HETATM    7  C5  UNL     1      16.004 -14.517 -24.581  1.00  0.00     0.151 A 
HETATM    8  C12 UNL     1      16.143 -15.424 -23.552  1.00  0.00     0.116 A 
ENDROOT
BRANCH   7   9
HETATM    9  N3  UNL     1      17.013 -14.315 -25.544  1.00  0.00    -0.257 N 
HETATM   10  C6  UNL     1      17.207 -14.858 -26.704  1.00  0.00     0.114 A 
HETATM   11  N4  UNL     1      18.339 -14.306 -27.251  1.00  0.00    -0.286 N 
HETATM   12  N5  UNL     1      18.830 -13.430 -26.419  1.00  0.00    -0.274 N 
ATOM     13  H4  UNL     1      18.733 -14.542 -28.162  1.00  0.00     0.188 HD
HETATM   14  C11 UNL     1      18.039 -13.407 -25.354  1.00  0.00     0.200 A 
ATOM     15  H5  UNL     1      19.667 -12.865 -26.561  1.00  0.00     0.189 HD
HETATM   16  S1  UNL     1      18.190 -12.488 -24.020  1.00  0.00    -0.039 SA
BRANCH  10  17
HETATM   17  C7  UNL     1      16.484 -15.875 -27.450  1.00  0.00     0.009 C 
HETATM   18  C8  UNL     1      17.142 -15.935 -28.848  1.00  0.00     0.023 C 
HETATM   19  C9  UNL     1      15.035 -15.727 -27.635  1.00  0.00     0.023 C 
HETATM   20  C10 UNL     1      16.758 -17.274 -26.872  1.00  0.00     0.023 C 
ENDBRANCH  10  17
ENDBRANCH   7   9
BRANCH   8  21
HETATM   21  O1  UNL     1      17.274 -16.199 -23.499  1.00  0.00    -0.357 OA
ATOM     22  H1  UNL     1      17.240 -17.084 -23.843  1.00  0.00     0.218 HD
ENDBRANCH   8  21
BRANCH   4  23
HETATM   23  N1  UNL     1      12.885 -13.197 -23.676  1.00  0.00    -0.385 N 
ATOM     24  H12 UNL     1      11.969 -13.537 -23.384  1.00  0.00     0.157 HD
ATOM     25  H11 UNL     1      12.950 -12.239 -24.020  1.00  0.00     0.157 HD
ENDBRANCH   4  23
TORSDOF 4
ENDMDL
MODEL 5
REMARK VINA RESULT: -4.325743230      8.895     10.575
REMARK  4 active torsions:
REMARK  status: ('A' for Active; 'I' for Inactive)
REMARK    1  A    between atoms: C4_4  and  N1_5 
REMARK    2  A    between atoms: C5_10  and  N3_11 
REMARK    3  A    between atoms: C6_12  and  C7_13 
REMARK    4  A    between atoms: C12_23  and  O1_24 
ROOT
HETATM    1  C1  UNL     1      11.615 -12.417 -30.729  1.00  0.00     0.051 C 
HETATM    2  C2  UNL     1      12.045 -13.674 -31.405  1.00  0.00    -0.021 A 
HETATM    3  C3  UNL     1      13.109 -14.355 -30.883  1.00  0.00     0.057 A 
HETATM    4  C4  UNL     1      13.519 -15.544 -31.502  1.00  0.00     0.100 A 
HETATM    5  N2  UNL     1      12.835 -15.957 -32.589  1.00  0.00    -0.326 N 
ATOM      6  H2  UNL     1      13.145 -16.823 -33.030  1.00  0.00     0.169 HD
HETATM    7  C5  UNL     1      11.783 -15.330 -33.143  1.00  0.00     0.151 A 
HETATM    8  C12 UNL     1      11.398 -14.162 -32.520  1.00  0.00     0.116 A 
ENDROOT
BRANCH   7   9
HETATM    9  N3  UNL     1      11.079 -15.861 -34.243  1.00  0.00    -0.257 N 
HETATM   10  C6  UNL     1      10.090 -16.696 -34.301  1.00  0.00     0.114 A 
HETATM   11  N4  UNL     1       9.766 -16.885 -35.622  1.00  0.00    -0.286 N 
HETATM   12  N5  UNL     1      10.562 -16.164 -36.362  1.00  0.00    -0.274 N 
ATOM     13  H4  UNL     1       9.023 -17.491 -35.969  1.00  0.00     0.188 HD
HETATM   14  C11 UNL     1      11.386 -15.518 -35.547  1.00  0.00     0.200 A 
ATOM     15  H5  UNL     1      10.553 -16.106 -37.380  1.00  0.00     0.189 HD
HETATM   16  S1  UNL     1      12.573 -14.480 -35.948  1.00  0.00    -0.039 SA
BRANCH  10  17
HETATM   17  C7  UNL     1       9.340 -17.408 -33.279  1.00  0.00     0.009 C 
HETATM   18  C8  UNL     1       8.143 -18.067 -34.003  1.00  0.00     0.023 C 
HETATM   19  C9  UNL     1       8.819 -16.660 -32.127  1.00  0.00     0.023 C 
HETATM   20  C10 UNL     1      10.141 -18.612 -32.754  1.00  0.00     0.023 C 
ENDBRANCH  10  17
ENDBRANCH   7   9
BRANCH   8  21
HETATM   21  O1  UNL     1      10.332 -13.460 -33.026  1.00  0.00    -0.357 OA
ATOM     22  H1  UNL     1       9.460 -13.829 -32.943  1.00  0.00     0.218 HD
ENDBRANCH   8  21
BRANCH   4  23
HETATM   23  N1  UNL     1      14.457 -16.169 -31.038  1.00  0.00    -0.385 N 
ATOM     24  H12 UNL     1      15.303 -15.716 -30.692  1.00  0.00     0.157 HD
ATOM     25  H11 UNL     1      14.411 -17.187 -30.999  1.00  0.00     0.157 HD
ENDBRANCH   4  23
TORSDOF 4
ENDMDL
