MODEL 1
REMARK VINA RESULT: -5.467154827      0.000      0.000
REMARK  4 active torsions:
REMARK  status: ('A' for Active; 'I' for Inactive)
REMARK    1  A    between atoms: C2_2  and  O1_3 
REMARK    2  A    between atoms: C6_11  and  O2_12 
REMARK    3  A    between atoms: C8_15  and  C9_16 
REMARK    4  A    between atoms: N2_22  and  O4_24 
ROOT
HETATM    1  C1  UNL     1      16.658 -15.184 -22.427  1.00  0.00     0.047 C 
HETATM    2  C2  UNL     1      16.191 -13.738 -22.285  1.00  0.00     0.066 C 
HETATM    3  C3  UNL     1      15.781 -13.493 -20.877  1.00  0.00     0.044 C 
HETATM    4  C4  UNL     1      14.310 -13.631 -20.609  1.00  0.00     0.058 C 
HETATM    5  C5  UNL     1      13.557 -14.281 -21.685  1.00  0.00     0.015 C 
HETATM    6  N1  UNL     1      12.668 -15.140 -21.419  1.00  0.00    -0.403 N 
ATOM      7  H11 UNL     1      12.144 -15.593 -22.168  1.00  0.00     0.155 HD
ATOM      8  H12 UNL     1      12.481 -15.379 -20.445  1.00  0.00     0.155 HD
HETATM    9  C6  UNL     1      13.826 -13.936 -23.090  1.00  0.00     0.108 C 
HETATM   10  C7  UNL     1      13.702 -15.151 -23.945  1.00  0.00     0.060 C 
HETATM   11  C8  UNL     1      14.862 -15.158 -24.901  1.00  0.00     0.072 C 
HETATM   12  C13 UNL     1      15.627 -13.893 -24.639  1.00  0.00     0.029 C 
HETATM   13  N2  UNL     1      16.481 -13.432 -25.454  1.00  0.00    -0.276 N 
ATOM     14  H2  UNL     1      16.626 -13.970 -26.308  1.00  0.00     0.193 HD
HETATM   15  C14 UNL     1      15.193 -13.345 -23.318  1.00  0.00     0.108 C 
ENDROOT
BRANCH  11  16
HETATM   16  C9  UNL     1      14.386 -15.141 -26.321  1.00  0.00    -0.024 A 
HETATM   17  C10 UNL     1      14.759 -16.012 -27.321  1.00  0.00     0.034 A 
HETATM   18  C11 UNL     1      14.077 -15.628 -28.474  1.00  0.00     0.142 A 
HETATM   19  O3  UNL     1      13.335 -14.586 -28.185  1.00  0.00    -0.334 OA
HETATM   20  C12 UNL     1      13.496 -14.270 -26.908  1.00  0.00     0.149 A 
ENDBRANCH  11  16
BRANCH   9  21
HETATM   21  O2  UNL     1      12.858 -13.007 -23.515  1.00  0.00    -0.383 OA
ATOM     22  H2  UNL     1      13.239 -12.467 -24.198  1.00  0.00     0.211 HD
ENDBRANCH   9  21
BRANCH  13  23
HETATM   23  O4  UNL     1      17.225 -12.307 -25.323  1.00  0.00    -0.290 OA
ATOM     24  H4  UNL     1      17.702 -12.013 -24.555  1.00  0.00     0.244 HD
ENDBRANCH  13  23
BRANCH   2  25
HETATM   25  O1  UNL     1      17.349 -12.956 -22.512  1.00  0.00    -0.389 OA
ATOM     26  H1  UNL     1      17.330 -12.289 -21.836  1.00  0.00     0.210 HD
ENDBRANCH   2  25
TORSDOF 4
ENDMDL
MODEL 2
REMARK VINA RESULT: -4.954018973      8.350     10.516
REMARK  4 active torsions:
REMARK  status: ('A' for Active; 'I' for Inactive)
REMARK    1  A    between atoms: C2_2  and  O1_3 
REMARK    2  A    between atoms: C6_11  and  O2_12 
REMARK    3  A    between atoms: C8_15  and  C9_16 
REMARK    4  A    between atoms: N2_22  and  O4_24 
ROOT
HETATM    1  C1  UNL     1       6.354 -20.751 -26.880  1.00  0.00     0.047 C 
HETATM    2  C2  UNL     1       7.092 -19.420 -26.996  1.00  0.00     0.066 C 
HETATM    3  C3  UNL     1       7.895 -19.415 -28.248  1.00  0.00     0.044 C 
HETATM    4  C4  UNL     1       9.336 -19.805 -28.081  1.00  0.00     0.058 C 
HETATM    5  C5  UNL     1       9.651 -20.423 -26.790  1.00  0.00     0.015 C 
HETATM    6  N1  UNL     1      10.410 -21.432 -26.729  1.00  0.00    -0.403 N 
ATOM      7  H11 UNL     1      10.629 -21.863 -25.831  1.00  0.00     0.155 HD
ATOM      8  H12 UNL     1      10.801 -21.815 -27.590  1.00  0.00     0.155 HD
HETATM    9  C6  UNL     1       9.087 -19.871 -25.548  1.00  0.00     0.108 C 
HETATM   10  C7  UNL     1       8.763 -20.976 -24.601  1.00  0.00     0.060 C 
HETATM   11  C8  UNL     1       7.410 -20.690 -24.011  1.00  0.00     0.072 C 
HETATM   12  C13 UNL     1       6.980 -19.367 -24.573  1.00  0.00     0.029 C 
HETATM   13  N2  UNL     1       6.037 -18.685 -24.070  1.00  0.00    -0.276 N 
ATOM     14  H2  UNL     1       5.579 -19.087 -23.251  1.00  0.00     0.193 HD
HETATM   15  C14 UNL     1       7.837 -19.058 -25.758  1.00  0.00     0.108 C 
ENDROOT
BRANCH  11  16
HETATM   16  C9  UNL     1       7.491 -20.570 -22.521  1.00  0.00    -0.024 A 
HETATM   17  C10 UNL     1       6.429 -20.490 -21.646  1.00  0.00     0.034 A 
HETATM   18  C11 UNL     1       6.961 -20.390 -20.362  1.00  0.00     0.142 A 
HETATM   19  O3  UNL     1       8.269 -20.409 -20.458  1.00  0.00    -0.334 OA
HETATM   20  C12 UNL     1       8.618 -20.515 -21.732  1.00  0.00     0.149 A 
ENDBRANCH  11  16
BRANCH   9  21
HETATM   21  O2  UNL     1      10.058 -19.053 -24.942  1.00  0.00    -0.383 OA
ATOM     22  H2  UNL     1      10.917 -19.408 -25.141  1.00  0.00     0.211 HD
ENDBRANCH   9  21
BRANCH  13  23
HETATM   23  O4  UNL     1       5.568 -17.487 -24.490  1.00  0.00    -0.290 OA
ATOM     24  H4  UNL     1       5.239 -16.773 -23.956  1.00  0.00     0.244 HD
ENDBRANCH  13  23
BRANCH   2  25
HETATM   25  O1  UNL     1       6.074 -18.451 -27.164  1.00  0.00    -0.389 OA
ATOM     26  H1  UNL     1       6.287 -17.763 -26.545  1.00  0.00     0.210 HD
ENDBRANCH   2  25
TORSDOF 4
ENDMDL
MODEL 3
REMARK VINA RESULT: -4.754872326      7.988      9.745
REMARK  4 active torsions:
REMARK  status: ('A' for Active; 'I' for Inactive)
REMARK    1  A    between atoms: C2_2  and  O1_3 
REMARK    2  A    between atoms: C6_11  and  O2_12 
REMARK    3  A    between atoms: C8_15  and  C9_16 
REMARK    4  A    between atoms: N2_22  and  O4_24 
ROOT
HETATM    1  C1  UNL     1       6.637 -19.706 -23.716  1.00  0.00     0.047 C 
HETATM    2  C2  UNL     1       7.555 -20.873 -24.068  1.00  0.00     0.066 C 
HETATM    3  C3  UNL     1       8.555 -21.054 -22.982  1.00  0.00     0.044 C 
HETATM    4  C4  UNL     1       9.881 -20.390 -23.221  1.00  0.00     0.058 C 
HETATM    5  C5  UNL     1       9.884 -19.422 -24.320  1.00  0.00     0.015 C 
HETATM    6  N1  UNL     1      10.480 -18.313 -24.199  1.00  0.00    -0.403 N 
ATOM      7  H11 UNL     1      10.482 -17.639 -24.964  1.00  0.00     0.155 HD
ATOM      8  H12 UNL     1      10.959 -18.098 -23.324  1.00  0.00     0.155 HD
HETATM    9  C6  UNL     1       9.193 -19.732 -25.582  1.00  0.00     0.108 C 
HETATM   10  C7  UNL     1       8.567 -18.497 -26.137  1.00  0.00     0.060 C 
HETATM   11  C8  UNL     1       7.183 -18.857 -26.602  1.00  0.00     0.072 C 
HETATM   12  C13 UNL     1       7.036 -20.333 -26.375  1.00  0.00     0.029 C 
HETATM   13  N2  UNL     1       6.120 -21.019 -26.921  1.00  0.00    -0.276 N 
ATOM     14  H2  UNL     1       5.479 -20.511 -27.529  1.00  0.00     0.193 HD
HETATM   15  C14 UNL     1       8.117 -20.777 -25.444  1.00  0.00     0.108 C 
ENDROOT
BRANCH  11  16
HETATM   16  C9  UNL     1       7.022 -18.582 -28.065  1.00  0.00    -0.024 A 
HETATM   17  C10 UNL     1       7.671 -19.224 -29.096  1.00  0.00     0.034 A 
HETATM   18  C11 UNL     1       7.221 -18.651 -30.285  1.00  0.00     0.142 A 
HETATM   19  O3  UNL     1       6.350 -17.717 -29.985  1.00  0.00    -0.334 OA
HETATM   20  C12 UNL     1       6.208 -17.650 -28.670  1.00  0.00     0.149 A 
ENDBRANCH  11  16
BRANCH   9  21
HETATM   21  O2  UNL     1      10.146 -20.188 -26.512  1.00  0.00    -0.383 OA
ATOM     22  H2  UNL     1       9.808 -20.973 -26.929  1.00  0.00     0.211 HD
ENDBRANCH   9  21
BRANCH  13  23
HETATM   23  O4  UNL     1       5.893 -22.348 -26.790  1.00  0.00    -0.290 OA
ATOM     24  H4  UNL     1       5.264 -22.776 -26.221  1.00  0.00     0.244 HD
ENDBRANCH  13  23
BRANCH   2  25
HETATM   25  O1  UNL     1       6.719 -22.015 -24.043  1.00  0.00    -0.389 OA
ATOM     26  H1  UNL     1       7.242 -22.692 -23.629  1.00  0.00     0.210 HD
ENDBRANCH   2  25
TORSDOF 4
ENDMDL
MODEL 4
REMARK VINA RESULT: -4.720656944      8.690     10.169
REMARK  4 active torsions:
REMARK  status: ('A' for Active; 'I' for Inactive)
REMARK    1  A    between atoms: C2_2  and  O1_3 
REMARK    2  A    between atoms: C6_11  and  O2_12 
REMARK    3  A    between atoms: C8_15  and  C9_16 
REMARK    4  A    between atoms: N2_22  and  O4_24 
ROOT
HETATM    1  C1  UNL     1       8.583 -18.406 -25.510  1.00  0.00     0.047 C 
HETATM    2  C2  UNL     1       7.104 -18.750 -25.354  1.00  0.00     0.066 C 
HETATM    3  C3  UNL     1       6.892 -19.418 -24.043  1.00  0.00     0.044 C 
HETATM    4  C4  UNL     1       6.882 -20.919 -24.087  1.00  0.00     0.058 C 
HETATM    5  C5  UNL     1       7.384 -21.492 -25.338  1.00  0.00     0.015 C 
HETATM    6  N1  UNL     1       8.153 -22.495 -25.322  1.00  0.00    -0.403 N 
ATOM      7  H11 UNL     1       8.504 -22.894 -26.192  1.00  0.00     0.155 HD
ATOM      8  H12 UNL     1       8.423 -22.902 -24.426  1.00  0.00     0.155 HD
HETATM    9  C6  UNL     1       6.995 -20.904 -26.630  1.00  0.00     0.108 C 
HETATM   10  C7  UNL     1       8.140 -20.966 -27.583  1.00  0.00     0.060 C 
HETATM   11  C8  UNL     1       8.223 -19.639 -28.284  1.00  0.00     0.072 C 
HETATM   12  C13 UNL     1       7.066 -18.827 -27.779  1.00  0.00     0.029 C 
HETATM   13  N2  UNL     1       6.658 -17.781 -28.368  1.00  0.00    -0.276 N 
ATOM     14  H2  UNL     1       7.162 -17.515 -29.214  1.00  0.00     0.193 HD
HETATM   15  C14 UNL     1       6.547 -19.470 -26.534  1.00  0.00     0.108 C 
ENDROOT
BRANCH  11  16
HETATM   16  C9  UNL     1       8.075 -19.807 -29.765  1.00  0.00    -0.024 A 
HETATM   17  C10 UNL     1       7.186 -20.637 -30.411  1.00  0.00     0.034 A 
HETATM   18  C11 UNL     1       7.394 -20.475 -31.780  1.00  0.00     0.142 A 
HETATM   19  O3  UNL     1       8.355 -19.598 -31.948  1.00  0.00    -0.334 OA
HETATM   20  C12 UNL     1       8.783 -19.179 -30.766  1.00  0.00     0.149 A 
ENDBRANCH  11  16
BRANCH   9  21
HETATM   21  O2  UNL     1       5.943 -21.669 -27.168  1.00  0.00    -0.383 OA
ATOM     22  H2  UNL     1       5.557 -21.184 -27.889  1.00  0.00     0.211 HD
ENDBRANCH   9  21
BRANCH  13  23
HETATM   23  O4  UNL     1       5.632 -16.976 -28.005  1.00  0.00    -0.290 OA
ATOM     24  H4  UNL     1       4.731 -17.014 -28.304  1.00  0.00     0.244 HD
ENDBRANCH  13  23
BRANCH   2  25
HETATM   25  O1  UNL     1       6.444 -17.500 -25.284  1.00  0.00    -0.389 OA
ATOM     26  H1  UNL     1       6.248 -17.276 -26.187  1.00  0.00     0.210 HD
ENDBRANCH   2  25
TORSDOF 4
ENDMDL
MODEL 5
REMARK VINA RESULT: -4.694952102      2.417      3.187
REMARK  4 active torsions:
REMARK  status: ('A' for Active; 'I' for Inactive)
REMARK    1  A    between atoms: C2_2  and  O1_3 
REMARK    2  A    between atoms: C6_11  and  O2_12 
REMARK    3  A    between atoms: C8_15  and  C9_16 
REMARK    4  A    between atoms: N2_22  and  O4_24 
ROOT
HETATM    1  C1  UNL     1      15.168 -13.320 -22.702  1.00  0.00     0.047 C 
HETATM    2  C2  UNL     1      13.900 -14.096 -23.045  1.00  0.00     0.066 C 
HETATM    3  C3  UNL     1      13.293 -14.619 -21.792  1.00  0.00     0.044 C 
HETATM    4  C4  UNL     1      13.654 -16.038 -21.454  1.00  0.00     0.058 C 
HETATM    5  C5  UNL     1      14.777 -16.577 -22.225  1.00  0.00     0.015 C 
HETATM    6  N1  UNL     1      15.671 -17.270 -21.661  1.00  0.00    -0.403 N 
ATOM      7  H11 UNL     1      16.452 -17.645 -22.197  1.00  0.00     0.155 HD
ATOM      8  H12 UNL     1      15.603 -17.449 -20.659  1.00  0.00     0.155 HD
HETATM    9  C6  UNL     1      14.873 -16.318 -23.671  1.00  0.00     0.108 C 
HETATM   10  C7  UNL     1      16.301 -16.133 -24.061  1.00  0.00     0.060 C 
HETATM   11  C8  UNL     1      16.372 -14.953 -24.989  1.00  0.00     0.072 C 
HETATM   12  C13 UNL     1      14.957 -14.495 -25.192  1.00  0.00     0.029 C 
HETATM   13  N2  UNL     1      14.619 -13.721 -26.137  1.00  0.00    -0.276 N 
ATOM     14  H2  UNL     1      15.368 -13.420 -26.762  1.00  0.00     0.193 HD
HETATM   15  C14 UNL     1      14.108 -15.103 -24.123  1.00  0.00     0.108 C 
ENDROOT
BRANCH  11  16
HETATM   16  C9  UNL     1      16.938 -15.350 -26.317  1.00  0.00    -0.024 A 
HETATM   17  C10 UNL     1      17.932 -14.696 -27.013  1.00  0.00     0.034 A 
HETATM   18  C11 UNL     1      18.144 -15.408 -28.192  1.00  0.00     0.142 A 
HETATM   19  O3  UNL     1      17.324 -16.432 -28.206  1.00  0.00    -0.334 OA
HETATM   20  C12 UNL     1      16.591 -16.426 -27.102  1.00  0.00     0.149 A 
ENDBRANCH  11  16
BRANCH   9  21
HETATM   21  O2  UNL     1      14.380 -17.442 -24.359  1.00  0.00    -0.383 OA
ATOM     22  H2  UNL     1      14.937 -17.602 -25.113  1.00  0.00     0.211 HD
ENDBRANCH   9  21
BRANCH  13  23
HETATM   23  O4  UNL     1      13.382 -13.247 -26.415  1.00  0.00    -0.290 OA
ATOM     24  H4  UNL     1      13.151 -12.385 -26.741  1.00  0.00     0.244 HD
ENDBRANCH  13  23
BRANCH   2  25
HETATM   25  O1  UNL     1      13.004 -13.126 -23.554  1.00  0.00    -0.389 OA
ATOM     26  H1  UNL     1      12.680 -13.494 -24.368  1.00  0.00     0.210 HD
ENDBRANCH   2  25
TORSDOF 4
ENDMDL
