MODEL 1
REMARK VINA RESULT: -5.823391348      0.000      0.000
REMARK  5 active torsions:
REMARK  status: ('A' for Active; 'I' for Inactive)
REMARK    1  A    between atoms: C2_2  and  C3_3 
REMARK    2  A    between atoms: C3_3  and  N1_4 
REMARK    3  A    between atoms: C5_6  and  C6_7 
REMARK    4  A    between atoms: C8_11  and  N3_12 
REMARK    5  A    between atoms: C9_17  and  N5_18 
ROOT
HETATM    1  C6  UNL     1      16.811  23.124  65.295  1.00  0.00     0.054 A 
HETATM    2  C7  UNL     1      17.319  24.159  66.030  1.00  0.00     0.123 A 
HETATM    3  N2  UNL     1      16.482  24.927  66.783  1.00  0.00    -0.201 N 
ATOM      4  H2  UNL     1      16.881  25.695  67.324  1.00  0.00     0.183 HD
HETATM    5  C8  UNL     1      15.166  24.721  66.847  1.00  0.00     0.678 A 
HETATM    6  N4  UNL     1      14.667  23.723  66.142  1.00  0.00    -0.164 N 
ATOM      7  H4  UNL     1      13.660  23.566  66.192  1.00  0.00     0.187 HD
HETATM    8  C9  UNL     1      15.409  22.873  65.340  1.00  0.00     0.204 A 
ENDROOT
BRANCH   1   9
HETATM    9  C5  UNL     1      17.603  22.257  64.469  1.00  0.00     0.102 C 
HETATM   10  N1  UNL     1      18.183  21.158  64.696  1.00  0.00    -0.393 N 
HETATM   11  C4  UNL     1      18.276  20.348  65.878  1.00  0.00     0.148 C 
BRANCH  10  12
HETATM   12  C3  UNL     1      18.913  20.580  63.540  1.00  0.00     0.121 C 
BRANCH  12  13
HETATM   13  C2  UNL     1      19.593  19.304  63.937  1.00  0.00     0.015 C 
HETATM   14  C1  UNL     1      21.015  19.296  63.389  1.00  0.00     0.006 C 
ENDBRANCH  12  13
ENDBRANCH  10  12
ENDBRANCH   1   9
BRANCH   8  15
HETATM   15  N5  UNL     1      14.890  21.992  64.728  1.00  0.00    -0.410 NA
HETATM   16  C10 UNL     1      14.114  21.037  64.211  1.00  0.00     0.231 C 
ENDBRANCH   8  15
BRANCH   5  17
HETATM   17  N3  UNL     1      14.402  25.481  67.581  1.00  0.00    -0.234 N 
ATOM     18  H32 UNL     1      14.113  26.406  67.265  1.00  0.00     0.174 HD
ATOM     19  H31 UNL     1      14.071  25.168  68.494  1.00  0.00     0.174 HD
ENDBRANCH   5  17
TORSDOF 5
ENDMDL
MODEL 2
REMARK VINA RESULT: -5.694179407      3.124      3.790
REMARK  5 active torsions:
REMARK  status: ('A' for Active; 'I' for Inactive)
REMARK    1  A    between atoms: C2_2  and  C3_3 
REMARK    2  A    between atoms: C3_3  and  N1_4 
REMARK    3  A    between atoms: C5_6  and  C6_7 
REMARK    4  A    between atoms: C8_11  and  N3_12 
REMARK    5  A    between atoms: C9_17  and  N5_18 
ROOT
HETATM    1  C6  UNL     1      17.000  20.418  64.317  1.00  0.00     0.054 A 
HETATM    2  C7  UNL     1      15.782  19.944  64.720  1.00  0.00     0.123 A 
HETATM    3  N2  UNL     1      14.643  20.461  64.179  1.00  0.00    -0.201 N 
ATOM      4  H2  UNL     1      13.745  20.093  64.494  1.00  0.00     0.183 HD
HETATM    5  C8  UNL     1      14.648  21.424  63.256  1.00  0.00     0.678 A 
HETATM    6  N4  UNL     1      15.819  21.887  62.860  1.00  0.00    -0.164 N 
ATOM      7  H4  UNL     1      15.822  22.624  62.154  1.00  0.00     0.187 HD
HETATM    8  C9  UNL     1      17.044  21.447  63.332  1.00  0.00     0.204 A 
ENDROOT
BRANCH   1   9
HETATM    9  C5  UNL     1      18.257  19.945  64.823  1.00  0.00     0.102 C 
HETATM   10  N1  UNL     1      18.679  19.728  65.994  1.00  0.00    -0.393 N 
HETATM   11  C4  UNL     1      18.057  19.874  67.279  1.00  0.00     0.148 C 
BRANCH  10  12
HETATM   12  C3  UNL     1      20.074  19.231  66.079  1.00  0.00     0.121 C 
BRANCH  12  13
HETATM   13  C2  UNL     1      20.662  19.086  64.707  1.00  0.00     0.015 C 
HETATM   14  C1  UNL     1      21.983  19.844  64.639  1.00  0.00     0.006 C 
ENDBRANCH  12  13
ENDBRANCH  10  12
ENDBRANCH   1   9
BRANCH   8  15
HETATM   15  N5  UNL     1      18.065  21.913  62.929  1.00  0.00    -0.410 NA
HETATM   16  C10 UNL     1      19.160  22.622  62.652  1.00  0.00     0.231 C 
ENDBRANCH   8  15
BRANCH   5  17
HETATM   17  N3  UNL     1      13.534  21.890  62.765  1.00  0.00    -0.234 N 
ATOM     18  H32 UNL     1      12.630  21.608  63.143  1.00  0.00     0.174 HD
ATOM     19  H31 UNL     1      13.537  22.550  61.988  1.00  0.00     0.174 HD
ENDBRANCH   5  17
TORSDOF 5
ENDMDL
MODEL 3
REMARK VINA RESULT: -5.506662529      2.267      4.186
REMARK  5 active torsions:
REMARK  status: ('A' for Active; 'I' for Inactive)
REMARK    1  A    between atoms: C2_2  and  C3_3 
REMARK    2  A    between atoms: C3_3  and  N1_4 
REMARK    3  A    between atoms: C5_6  and  C6_7 
REMARK    4  A    between atoms: C8_11  and  N3_12 
REMARK    5  A    between atoms: C9_17  and  N5_18 
ROOT
HETATM    1  C6  UNL     1      17.729  25.084  65.929  1.00  0.00     0.054 A 
HETATM    2  C7  UNL     1      19.016  25.444  65.644  1.00  0.00     0.123 A 
HETATM    3  N2  UNL     1      19.435  26.714  65.908  1.00  0.00    -0.201 N 
ATOM      4  H2  UNL     1      20.400  26.963  65.688  1.00  0.00     0.183 HD
HETATM    5  C8  UNL     1      18.644  27.647  66.439  1.00  0.00     0.678 A 
HETATM    6  N4  UNL     1      17.399  27.307  66.718  1.00  0.00    -0.164 N 
ATOM      7  H4  UNL     1      16.794  28.021  67.125  1.00  0.00     0.187 HD
HETATM    8  C9  UNL     1      16.854  26.053  66.499  1.00  0.00     0.204 A 
ENDROOT
BRANCH   1   9
HETATM    9  C5  UNL     1      17.187  23.775  65.691  1.00  0.00     0.102 C 
HETATM   10  N1  UNL     1      17.447  22.887  64.832  1.00  0.00    -0.393 N 
HETATM   11  C4  UNL     1      18.393  22.845  63.752  1.00  0.00     0.148 C 
BRANCH  10  12
HETATM   12  C3  UNL     1      16.635  21.650  64.938  1.00  0.00     0.121 C 
BRANCH  12  13
HETATM   13  C2  UNL     1      15.173  21.982  64.917  1.00  0.00     0.015 C 
HETATM   14  C1  UNL     1      14.622  21.757  63.513  1.00  0.00     0.006 C 
ENDBRANCH  12  13
ENDBRANCH  10  12
ENDBRANCH   1   9
BRANCH   8  15
HETATM   15  N5  UNL     1      15.718  25.817  66.774  1.00  0.00    -0.410 NA
HETATM   16  C10 UNL     1      14.527  25.581  67.327  1.00  0.00     0.231 C 
ENDBRANCH   8  15
BRANCH   5  17
HETATM   17  N3  UNL     1      19.086  28.850  66.675  1.00  0.00    -0.234 N 
ATOM     18  H32 UNL     1      20.025  29.134  66.394  1.00  0.00     0.174 HD
ATOM     19  H31 UNL     1      18.504  29.542  67.146  1.00  0.00     0.174 HD
ENDBRANCH   5  17
TORSDOF 5
ENDMDL
MODEL 4
REMARK VINA RESULT: -5.315190100      1.798      3.061
REMARK  5 active torsions:
REMARK  status: ('A' for Active; 'I' for Inactive)
REMARK    1  A    between atoms: C2_2  and  C3_3 
REMARK    2  A    between atoms: C3_3  and  N1_4 
REMARK    3  A    between atoms: C5_6  and  C6_7 
REMARK    4  A    between atoms: C8_11  and  N3_12 
REMARK    5  A    between atoms: C9_17  and  N5_18 
ROOT
HETATM    1  C6  UNL     1      17.564  23.983  65.483  1.00  0.00     0.054 A 
HETATM    2  C7  UNL     1      16.434  23.955  66.252  1.00  0.00     0.123 A 
HETATM    3  N2  UNL     1      16.127  25.024  67.039  1.00  0.00    -0.201 N 
ATOM      4  H2  UNL     1      15.280  24.983  67.606  1.00  0.00     0.183 HD
HETATM    5  C8  UNL     1      16.882  26.122  67.104  1.00  0.00     0.678 A 
HETATM    6  N4  UNL     1      17.974  26.159  66.363  1.00  0.00    -0.164 N 
ATOM      7  H4  UNL     1      18.551  26.999  66.412  1.00  0.00     0.187 HD
HETATM    8  C9  UNL     1      18.394  25.141  65.524  1.00  0.00     0.204 A 
ENDROOT
BRANCH   1   9
HETATM    9  C5  UNL     1      17.979  22.913  64.621  1.00  0.00     0.102 C 
HETATM   10  N1  UNL     1      18.124  21.672  64.810  1.00  0.00    -0.393 N 
HETATM   11  C4  UNL     1      17.928  20.850  65.970  1.00  0.00     0.148 C 
BRANCH  10  12
HETATM   12  C3  UNL     1      18.583  20.904  63.626  1.00  0.00     0.121 C 
BRANCH  12  13
HETATM   13  C2  UNL     1      19.081  19.552  64.043  1.00  0.00     0.015 C 
HETATM   14  C1  UNL     1      20.491  19.343  63.503  1.00  0.00     0.006 C 
ENDBRANCH  12  13
ENDBRANCH  10  12
ENDBRANCH   1   9
BRANCH   8  15
HETATM   15  N5  UNL     1      19.396  25.242  64.885  1.00  0.00    -0.410 NA
HETATM   16  C10 UNL     1      20.512  25.601  64.249  1.00  0.00     0.231 C 
ENDBRANCH   8  15
BRANCH   5  17
HETATM   17  N3  UNL     1      16.550  27.122  67.871  1.00  0.00    -0.234 N 
ATOM     18  H32 UNL     1      16.624  27.059  68.886  1.00  0.00     0.174 HD
ATOM     19  H31 UNL     1      16.206  27.997  67.475  1.00  0.00     0.174 HD
ENDBRANCH   5  17
TORSDOF 5
ENDMDL
MODEL 5
REMARK VINA RESULT: -5.299040707      1.987      5.736
REMARK  5 active torsions:
REMARK  status: ('A' for Active; 'I' for Inactive)
REMARK    1  A    between atoms: C2_2  and  C3_3 
REMARK    2  A    between atoms: C3_3  and  N1_4 
REMARK    3  A    between atoms: C5_6  and  C6_7 
REMARK    4  A    between atoms: C8_11  and  N3_12 
REMARK    5  A    between atoms: C9_17  and  N5_18 
ROOT
HETATM    1  C6  UNL     1      18.444  20.901  64.287  1.00  0.00     0.054 A 
HETATM    2  C7  UNL     1      19.188  21.239  63.190  1.00  0.00     0.123 A 
HETATM    3  N2  UNL     1      20.458  20.762  63.064  1.00  0.00    -0.201 N 
ATOM      4  H2  UNL     1      20.996  21.026  62.238  1.00  0.00     0.183 HD
HETATM    5  C8  UNL     1      21.032  19.968  63.969  1.00  0.00     0.678 A 
HETATM    6  N4  UNL     1      20.321  19.636  65.030  1.00  0.00    -0.164 N 
ATOM      7  H4  UNL     1      20.760  19.027  65.722  1.00  0.00     0.187 HD
HETATM    8  C9  UNL     1      19.024  20.052  65.275  1.00  0.00     0.204 A 
ENDROOT
BRANCH   1   9
HETATM    9  C5  UNL     1      17.100  21.348  64.518  1.00  0.00     0.102 C 
HETATM   10  N1  UNL     1      16.626  22.373  65.083  1.00  0.00    -0.393 N 
HETATM   11  C4  UNL     1      17.257  23.496  65.718  1.00  0.00     0.148 C 
BRANCH  10  12
HETATM   12  C3  UNL     1      15.145  22.452  65.108  1.00  0.00     0.121 C 
BRANCH  12  13
HETATM   13  C2  UNL     1      14.547  21.256  64.429  1.00  0.00     0.015 C 
HETATM   14  C1  UNL     1      13.856  21.696  63.142  1.00  0.00     0.006 C 
ENDBRANCH  12  13
ENDBRANCH  10  12
ENDBRANCH   1   9
BRANCH   8  15
HETATM   15  N5  UNL     1      18.442  19.714  66.259  1.00  0.00    -0.410 NA
HETATM   16  C10 UNL     1      17.923  19.526  67.473  1.00  0.00     0.231 C 
ENDBRANCH   8  15
BRANCH   5  17
HETATM   17  N3  UNL     1      22.251  19.535  63.807  1.00  0.00    -0.234 N 
ATOM     18  H32 UNL     1      22.975  19.718  64.502  1.00  0.00     0.174 HD
ATOM     19  H31 UNL     1      22.514  19.000  62.980  1.00  0.00     0.174 HD
ENDBRANCH   5  17
TORSDOF 5
ENDMDL
