MODEL 1
REMARK VINA RESULT: -7.319962088      0.000      0.000
REMARK  6 active torsions:
REMARK  status: ('A' for Active; 'I' for Inactive)
REMARK    1  A    between atoms: N1_1  and  C1_5 
REMARK    2  A    between atoms: C1_5  and  C2_6 
REMARK    3  A    between atoms: N2_10  and  C6_11 
REMARK    4  A    between atoms: C6_11  and  C7_12 
REMARK    5  A    between atoms: C8_13  and  C9_14 
REMARK    6  A    between atoms: N5_18  and  O1_19 
ROOT
HETATM    1  C2  UNL     1      18.873  26.891  65.414  1.00  0.00    -0.017 A 
HETATM    2  C3  UNL     1      17.879  27.507  66.138  1.00  0.00     0.011 A 
HETATM    3  C4  UNL     1      16.898  26.738  66.694  1.00  0.00     0.018 A 
HETATM    4  C5  UNL     1      16.918  25.370  66.521  1.00  0.00     0.090 A 
HETATM    5  N2  UNL     1      17.888  24.754  65.813  1.00  0.00    -0.362 N 
HETATM    6  C10 UNL     1      18.853  25.519  65.268  1.00  0.00     0.099 A 
ENDROOT
BRANCH   5   7
HETATM    7  C6  UNL     1      17.907  23.303  65.631  1.00  0.00     0.155 C 
BRANCH   7   8
HETATM    8  C7  UNL     1      16.599  22.852  65.093  1.00  0.00    -0.003 C 
HETATM    9  C8  UNL     1      16.463  22.005  64.117  1.00  0.00     0.051 C 
BRANCH   9  10
HETATM   10  C9  UNL     1      15.143  21.617  63.651  1.00  0.00     0.162 A 
HETATM   11  N3  UNL     1      14.591  21.266  62.453  1.00  0.00    -0.264 N 
HETATM   12  N4  UNL     1      13.422  21.111  63.048  1.00  0.00     0.010 NA
ATOM     13  H3  UNL     1      14.936  21.167  61.498  1.00  0.00     0.186 HD
HETATM   14  N5  UNL     1      13.930  21.447  64.220  1.00  0.00    -0.129 N 
BRANCH  14  15
HETATM   15  O1  UNL     1      13.388  21.559  65.479  1.00  0.00    -0.268 OA
ATOM     16  H1  UNL     1      13.103  20.967  66.165  1.00  0.00     0.246 HD
ENDBRANCH  14  15
ENDBRANCH   9  10
ENDBRANCH   7   8
ENDBRANCH   5   7
BRANCH   1  17
HETATM   17  C1  UNL     1      19.967  27.662  64.785  1.00  0.00     0.269 C 
BRANCH  17  18
HETATM   18  N1  UNL     1      20.105  28.919  65.490  1.00  0.00    -0.075 N 
ATOM     19  H13 UNL     1      19.206  29.314  65.766  1.00  0.00     0.274 HD
ATOM     20  H12 UNL     1      20.498  28.803  66.424  1.00  0.00     0.274 HD
ATOM     21  H11 UNL     1      20.652  29.555  64.910  1.00  0.00     0.274 HD
ENDBRANCH  17  18
ENDBRANCH   1  17
TORSDOF 6
ENDMDL
MODEL 2
REMARK VINA RESULT: -7.149747982      1.453      2.553
REMARK  6 active torsions:
REMARK  status: ('A' for Active; 'I' for Inactive)
REMARK    1  A    between atoms: N1_1  and  C1_5 
REMARK    2  A    between atoms: C1_5  and  C2_6 
REMARK    3  A    between atoms: N2_10  and  C6_11 
REMARK    4  A    between atoms: C6_11  and  C7_12 
REMARK    5  A    between atoms: C8_13  and  C9_14 
REMARK    6  A    between atoms: N5_18  and  O1_19 
ROOT
HETATM    1  C2  UNL     1      16.404  26.194  67.477  1.00  0.00    -0.017 A 
HETATM    2  C3  UNL     1      17.174  27.307  67.230  1.00  0.00     0.011 A 
HETATM    3  C4  UNL     1      18.213  27.206  66.351  1.00  0.00     0.018 A 
HETATM    4  C5  UNL     1      18.472  26.002  65.730  1.00  0.00     0.090 A 
HETATM    5  N2  UNL     1      17.724  24.903  65.964  1.00  0.00    -0.362 N 
HETATM    6  C10 UNL     1      16.701  25.011  66.832  1.00  0.00     0.099 A 
ENDROOT
BRANCH   5   7
HETATM    7  C6  UNL     1      18.000  23.627  65.305  1.00  0.00     0.155 C 
BRANCH   7   8
HETATM    8  C7  UNL     1      16.720  22.956  64.965  1.00  0.00    -0.003 C 
HETATM    9  C8  UNL     1      16.499  22.324  63.852  1.00  0.00     0.051 C 
BRANCH   9  10
HETATM   10  C9  UNL     1      15.215  21.694  63.600  1.00  0.00     0.162 A 
HETATM   11  N3  UNL     1      14.646  21.008  62.566  1.00  0.00    -0.264 N 
HETATM   12  N4  UNL     1      13.540  20.873  63.275  1.00  0.00     0.010 NA
ATOM     13  H3  UNL     1      14.949  20.720  61.635  1.00  0.00     0.186 HD
HETATM   14  N5  UNL     1      14.066  21.534  64.290  1.00  0.00    -0.129 N 
BRANCH  14  15
HETATM   15  O1  UNL     1      13.584  21.885  65.530  1.00  0.00    -0.268 OA
ATOM     16  H1  UNL     1      13.311  21.434  66.320  1.00  0.00     0.246 HD
ENDBRANCH  14  15
ENDBRANCH   9  10
ENDBRANCH   7   8
ENDBRANCH   5   7
BRANCH   1  17
HETATM   17  C1  UNL     1      15.263  26.232  68.417  1.00  0.00     0.269 C 
BRANCH  17  18
HETATM   18  N1  UNL     1      15.688  26.907  69.625  1.00  0.00    -0.075 N 
ATOM     19  H13 UNL     1      14.903  27.243  70.183  1.00  0.00     0.274 HD
ATOM     20  H12 UNL     1      16.084  26.266  70.313  1.00  0.00     0.274 HD
ATOM     21  H11 UNL     1      16.334  27.653  69.366  1.00  0.00     0.274 HD
ENDBRANCH  17  18
ENDBRANCH   1  17
TORSDOF 6
ENDMDL
MODEL 3
REMARK VINA RESULT: -7.029341282      2.197      2.661
REMARK  6 active torsions:
REMARK  status: ('A' for Active; 'I' for Inactive)
REMARK    1  A    between atoms: N1_1  and  C1_5 
REMARK    2  A    between atoms: C1_5  and  C2_6 
REMARK    3  A    between atoms: N2_10  and  C6_11 
REMARK    4  A    between atoms: C6_11  and  C7_12 
REMARK    5  A    between atoms: C8_13  and  C9_14 
REMARK    6  A    between atoms: N5_18  and  O1_19 
ROOT
HETATM    1  C2  UNL     1      17.462  27.133  67.419  1.00  0.00    -0.017 A 
HETATM    2  C3  UNL     1      16.281  26.884  68.077  1.00  0.00     0.011 A 
HETATM    3  C4  UNL     1      15.620  25.717  67.824  1.00  0.00     0.018 A 
HETATM    4  C5  UNL     1      16.143  24.815  66.921  1.00  0.00     0.090 A 
HETATM    5  N2  UNL     1      17.302  25.048  66.269  1.00  0.00    -0.362 N 
HETATM    6  C10 UNL     1      17.947  26.201  66.524  1.00  0.00     0.099 A 
ENDROOT
BRANCH   5   7
HETATM    7  C6  UNL     1      17.854  24.090  65.312  1.00  0.00     0.155 C 
BRANCH   7   8
HETATM    8  C7  UNL     1      17.260  22.750  65.550  1.00  0.00    -0.003 C 
HETATM    9  C8  UNL     1      17.840  21.629  65.247  1.00  0.00     0.051 C 
BRANCH   9  10
HETATM   10  C9  UNL     1      17.187  20.360  65.514  1.00  0.00     0.162 A 
HETATM   11  N3  UNL     1      17.429  19.283  66.318  1.00  0.00    -0.264 N 
HETATM   12  N4  UNL     1      16.333  18.706  65.860  1.00  0.00     0.010 NA
ATOM     13  H3  UNL     1      18.153  19.030  66.991  1.00  0.00     0.186 HD
HETATM   14  N5  UNL     1      16.075  19.734  65.072  1.00  0.00    -0.129 N 
BRANCH  14  15
HETATM   15  O1  UNL     1      15.061  20.002  64.181  1.00  0.00    -0.268 OA
ATOM     16  H1  UNL     1      14.925  19.927  63.244  1.00  0.00     0.246 HD
ENDBRANCH  14  15
ENDBRANCH   9  10
ENDBRANCH   7   8
ENDBRANCH   5   7
BRANCH   1  17
HETATM   17  C1  UNL     1      18.230  28.377  67.645  1.00  0.00     0.269 C 
BRANCH  17  18
HETATM   18  N1  UNL     1      19.129  28.569  66.527  1.00  0.00    -0.075 N 
ATOM     19  H13 UNL     1      19.665  27.730  66.306  1.00  0.00     0.274 HD
ATOM     20  H12 UNL     1      18.635  28.657  65.638  1.00  0.00     0.274 HD
ATOM     21  H11 UNL     1      19.723  29.374  66.726  1.00  0.00     0.274 HD
ENDBRANCH  17  18
ENDBRANCH   1  17
TORSDOF 6
ENDMDL
MODEL 4
REMARK VINA RESULT: -7.024160662      3.446      6.005
REMARK  6 active torsions:
REMARK  status: ('A' for Active; 'I' for Inactive)
REMARK    1  A    between atoms: N1_1  and  C1_5 
REMARK    2  A    between atoms: C1_5  and  C2_6 
REMARK    3  A    between atoms: N2_10  and  C6_11 
REMARK    4  A    between atoms: C6_11  and  C7_12 
REMARK    5  A    between atoms: C8_13  and  C9_14 
REMARK    6  A    between atoms: N5_18  and  O1_19 
ROOT
HETATM    1  C2  UNL     1      19.495  19.700  64.443  1.00  0.00    -0.017 A 
HETATM    2  C3  UNL     1      19.435  19.289  65.753  1.00  0.00     0.011 A 
HETATM    3  C4  UNL     1      18.546  19.896  66.593  1.00  0.00     0.018 A 
HETATM    4  C5  UNL     1      17.732  20.903  66.119  1.00  0.00     0.090 A 
HETATM    5  N2  UNL     1      17.782  21.315  64.835  1.00  0.00    -0.362 N 
HETATM    6  C10 UNL     1      18.660  20.711  64.013  1.00  0.00     0.099 A 
ENDROOT
BRANCH   5   7
HETATM    7  C6  UNL     1      16.917  22.383  64.334  1.00  0.00     0.155 C 
BRANCH   7   8
HETATM    8  C7  UNL     1      16.342  23.135  65.477  1.00  0.00    -0.003 C 
HETATM    9  C8  UNL     1      16.706  24.334  65.821  1.00  0.00     0.051 C 
BRANCH   9  10
HETATM   10  C9  UNL     1      16.090  24.999  66.956  1.00  0.00     0.162 A 
HETATM   11  N3  UNL     1      16.532  25.713  68.032  1.00  0.00    -0.264 N 
HETATM   12  N4  UNL     1      15.284  25.864  68.434  1.00  0.00     0.010 NA
ATOM     13  H3  UNL     1      17.446  26.006  68.380  1.00  0.00     0.186 HD
HETATM   14  N5  UNL     1      14.828  25.177  67.402  1.00  0.00    -0.129 N 
BRANCH  14  15
HETATM   15  O1  UNL     1      13.562  24.820  66.999  1.00  0.00    -0.268 OA
ATOM     16  H1  UNL     1      12.672  25.076  67.207  1.00  0.00     0.246 HD
ENDBRANCH  14  15
ENDBRANCH   9  10
ENDBRANCH   7   8
ENDBRANCH   5   7
BRANCH   1  17
HETATM   17  C1  UNL     1      20.433  19.087  63.479  1.00  0.00     0.269 C 
BRANCH  17  18
HETATM   18  N1  UNL     1      21.607  19.928  63.383  1.00  0.00    -0.075 N 
ATOM     19  H13 UNL     1      21.415  20.818  62.921  1.00  0.00     0.274 HD
ATOM     20  H12 UNL     1      21.897  20.301  64.288  1.00  0.00     0.274 HD
ATOM     21  H11 UNL     1      22.346  19.399  62.922  1.00  0.00     0.274 HD
ENDBRANCH  17  18
ENDBRANCH   1  17
TORSDOF 6
ENDMDL
MODEL 5
REMARK VINA RESULT: -6.963467193      2.323      3.506
REMARK  6 active torsions:
REMARK  status: ('A' for Active; 'I' for Inactive)
REMARK    1  A    between atoms: N1_1  and  C1_5 
REMARK    2  A    between atoms: C1_5  and  C2_6 
REMARK    3  A    between atoms: N2_10  and  C6_11 
REMARK    4  A    between atoms: C6_11  and  C7_12 
REMARK    5  A    between atoms: C8_13  and  C9_14 
REMARK    6  A    between atoms: N5_18  and  O1_19 
ROOT
HETATM    1  C2  UNL     1      16.257  26.029  67.275  1.00  0.00    -0.017 A 
HETATM    2  C3  UNL     1      16.901  27.243  67.288  1.00  0.00     0.011 A 
HETATM    3  C4  UNL     1      18.042  27.391  66.552  1.00  0.00     0.018 A 
HETATM    4  C5  UNL     1      18.525  26.330  65.816  1.00  0.00     0.090 A 
HETATM    5  N2  UNL     1      17.902  25.133  65.795  1.00  0.00    -0.362 N 
HETATM    6  C10 UNL     1      16.778  24.995  66.523  1.00  0.00     0.099 A 
ENDROOT
BRANCH   5   7
HETATM    7  C6  UNL     1      18.416  24.009  65.014  1.00  0.00     0.155 C 
BRANCH   7   8
HETATM    8  C7  UNL     1      17.715  22.763  65.415  1.00  0.00    -0.003 C 
HETATM    9  C8  UNL     1      17.979  21.587  64.930  1.00  0.00     0.051 C 
BRANCH   9  10
HETATM   10  C9  UNL     1      17.244  20.418  65.378  1.00  0.00     0.162 A 
HETATM   11  N3  UNL     1      17.390  19.487  66.366  1.00  0.00    -0.264 N 
HETATM   12  N4  UNL     1      16.282  18.894  65.960  1.00  0.00     0.010 NA
ATOM     13  H3  UNL     1      18.071  19.320  67.108  1.00  0.00     0.186 HD
HETATM   14  N5  UNL     1      16.116  19.781  64.995  1.00  0.00    -0.129 N 
BRANCH  14  15
HETATM   15  O1  UNL     1      15.157  19.939  64.022  1.00  0.00    -0.268 OA
ATOM     16  H1  UNL     1      14.260  19.658  63.881  1.00  0.00     0.246 HD
ENDBRANCH  14  15
ENDBRANCH   9  10
ENDBRANCH   7   8
ENDBRANCH   5   7
BRANCH   1  17
HETATM   17  C1  UNL     1      15.018  25.799  68.048  1.00  0.00     0.269 C 
BRANCH  17  18
HETATM   18  N1  UNL     1      14.109  25.020  67.235  1.00  0.00    -0.075 N 
ATOM     19  H13 UNL     1      13.130  25.245  67.415  1.00  0.00     0.274 HD
ATOM     20  H12 UNL     1      14.135  25.289  66.251  1.00  0.00     0.274 HD
ATOM     21  H11 UNL     1      14.316  24.031  67.376  1.00  0.00     0.274 HD
ENDBRANCH  17  18
ENDBRANCH   1  17
TORSDOF 6
ENDMDL
