MODEL 1
REMARK VINA RESULT: -11.120906164      0.000      0.000
REMARK  3 active torsions:
REMARK  status: ('A' for Active; 'I' for Inactive)
REMARK    1  A    between atoms: C4_4  and  C5_5 
REMARK    2  A    between atoms: C9_9  and  N1_10 
REMARK    3  A    between atoms: N1_10  and  C10_12 
ROOT
HETATM    1  N1  UNL     1     -11.427   0.642 -17.896  1.00  0.00    -0.355 N 
ATOM      2  H1  UNL     1     -11.101   0.223 -17.025  1.00  0.00     0.166 HD
ENDROOT
BRANCH   1   3
HETATM    3  C9  UNL     1     -11.501   2.070 -18.014  1.00  0.00     0.033 A 
HETATM    4  C8  UNL     1     -10.651   2.708 -18.892  1.00  0.00     0.029 A 
HETATM    5  C7  UNL     1     -10.739   4.080 -18.991  1.00  0.00     0.003 A 
HETATM    6  C6  UNL     1     -11.656   4.773 -18.225  1.00  0.00     0.012 A 
HETATM    7  C5  UNL     1     -12.514   4.155 -17.343  1.00  0.00    -0.024 A 
HETATM    8  C19 UNL     1     -12.419   2.783 -17.251  1.00  0.00     0.041 A 
BRANCH   7   9
HETATM    9  C4  UNL     1     -13.462   4.947 -16.560  1.00  0.00    -0.026 A 
HETATM   10  C3  UNL     1     -14.194   4.419 -15.529  1.00  0.00     0.012 A 
HETATM   11  C2  UNL     1     -15.064   5.234 -14.841  1.00  0.00     0.001 A 
HETATM   12  C1  UNL     1     -15.227   6.567 -15.152  1.00  0.00     0.000 A 
HETATM   13  C21 UNL     1     -14.496   7.109 -16.189  1.00  0.00     0.001 A 
HETATM   14  C20 UNL     1     -13.630   6.280 -16.865  1.00  0.00     0.012 A 
ENDBRANCH   7   9
ENDBRANCH   1   3
BRANCH   1  15
HETATM   15  C10 UNL     1     -11.768  -0.118 -18.880  1.00  0.00     0.046 A 
HETATM   16  C11 UNL     1     -13.052  -0.154 -19.357  1.00  0.00     0.047 A 
HETATM   17  C12 UNL     1     -13.385  -0.987 -20.422  1.00  0.00     0.090 A 
HETATM   18  N2  UNL     1     -12.452  -1.769 -21.000  1.00  0.00    -0.365 N 
HETATM   19  C13 UNL     1     -11.202  -1.721 -20.522  1.00  0.00     0.044 A 
ATOM     20  H2  UNL     1     -12.691  -2.381 -21.781  1.00  0.00     0.165 HD
HETATM   21  C14 UNL     1     -10.235  -2.521 -21.109  1.00  0.00     0.030 A 
HETATM   22  C18 UNL     1     -10.819  -0.916 -19.472  1.00  0.00     0.017 A 
HETATM   23  C15 UNL     1      -8.935  -2.527 -20.676  1.00  0.00     0.002 A 
HETATM   24  C16 UNL     1      -8.576  -1.723 -19.634  1.00  0.00     0.001 A 
HETATM   25  C17 UNL     1      -9.494  -0.921 -19.028  1.00  0.00     0.016 A 
ENDBRANCH   1  15
TORSDOF 3
ENDMDL
MODEL 2
REMARK VINA RESULT: -10.997662817      1.554      7.984
REMARK  3 active torsions:
REMARK  status: ('A' for Active; 'I' for Inactive)
REMARK    1  A    between atoms: C4_4  and  C5_5 
REMARK    2  A    between atoms: C9_9  and  N1_10 
REMARK    3  A    between atoms: N1_10  and  C10_12 
ROOT
HETATM    1  N1  UNL     1     -12.405   2.632 -16.749  1.00  0.00    -0.355 N 
ATOM      2  H1  UNL     1     -12.237   2.367 -15.779  1.00  0.00     0.166 HD
ENDROOT
BRANCH   1   3
HETATM    3  C9  UNL     1     -12.673   1.617 -17.727  1.00  0.00     0.033 A 
HETATM    4  C8  UNL     1     -13.972   1.427 -18.146  1.00  0.00     0.029 A 
HETATM    5  C7  UNL     1     -14.208   0.447 -19.087  1.00  0.00     0.003 A 
HETATM    6  C6  UNL     1     -13.161  -0.308 -19.580  1.00  0.00     0.012 A 
HETATM    7  C5  UNL     1     -11.857  -0.134 -19.174  1.00  0.00    -0.024 A 
HETATM    8  C19 UNL     1     -11.631   0.848 -18.233  1.00  0.00     0.041 A 
BRANCH   7   9
HETATM    9  C4  UNL     1     -10.794  -0.967 -19.734  1.00  0.00    -0.026 A 
HETATM   10  C3  UNL     1     -10.943  -1.676 -20.897  1.00  0.00     0.012 A 
HETATM   11  C2  UNL     1      -9.892  -2.436 -21.356  1.00  0.00     0.001 A 
HETATM   12  C1  UNL     1      -8.689  -2.512 -20.686  1.00  0.00     0.000 A 
HETATM   13  C21 UNL     1      -8.528  -1.803 -19.515  1.00  0.00     0.001 A 
HETATM   14  C20 UNL     1      -9.590  -1.047 -19.070  1.00  0.00     0.012 A 
ENDBRANCH   7   9
ENDBRANCH   1   3
BRANCH   1  15
HETATM   15  C10 UNL     1     -12.374   3.876 -17.083  1.00  0.00     0.046 A 
HETATM   16  C11 UNL     1     -11.436   4.370 -17.952  1.00  0.00     0.047 A 
HETATM   17  C12 UNL     1     -11.432   5.720 -18.292  1.00  0.00     0.090 A 
HETATM   18  N2  UNL     1     -12.349   6.561 -17.773  1.00  0.00    -0.365 N 
HETATM   19  C13 UNL     1     -13.258   6.062 -16.926  1.00  0.00     0.044 A 
ATOM     20  H2  UNL     1     -12.350   7.552 -18.020  1.00  0.00     0.165 HD
HETATM   21  C14 UNL     1     -14.205   6.918 -16.388  1.00  0.00     0.030 A 
HETATM   22  C18 UNL     1     -13.307   4.737 -16.557  1.00  0.00     0.017 A 
HETATM   23  C15 UNL     1     -15.166   6.482 -15.515  1.00  0.00     0.002 A 
HETATM   24  C16 UNL     1     -15.198   5.165 -15.161  1.00  0.00     0.001 A 
HETATM   25  C17 UNL     1     -14.287   4.289 -15.666  1.00  0.00     0.016 A 
ENDBRANCH   1  15
TORSDOF 3
ENDMDL
MODEL 3
REMARK VINA RESULT: -10.768948747      0.940      2.174
REMARK  3 active torsions:
REMARK  status: ('A' for Active; 'I' for Inactive)
REMARK    1  A    between atoms: C4_4  and  C5_5 
REMARK    2  A    between atoms: C9_9  and  N1_10 
REMARK    3  A    between atoms: N1_10  and  C10_12 
ROOT
HETATM    1  N1  UNL     1     -11.257   0.176 -17.700  1.00  0.00    -0.355 N 
ATOM      2  H1  UNL     1     -11.647  -0.194 -16.833  1.00  0.00     0.166 HD
ENDROOT
BRANCH   1   3
HETATM    3  C9  UNL     1     -11.330   1.585 -17.966  1.00  0.00     0.033 A 
HETATM    4  C8  UNL     1     -10.527   2.115 -18.953  1.00  0.00     0.029 A 
HETATM    5  C7  UNL     1     -10.613   3.470 -19.194  1.00  0.00     0.003 A 
HETATM    6  C6  UNL     1     -11.482   4.251 -18.458  1.00  0.00     0.012 A 
HETATM    7  C5  UNL     1     -12.292   3.741 -17.468  1.00  0.00    -0.024 A 
HETATM    8  C19 UNL     1     -12.199   2.385 -17.235  1.00  0.00     0.041 A 
BRANCH   7   9
HETATM    9  C4  UNL     1     -13.190   4.623 -16.723  1.00  0.00    -0.026 A 
HETATM   10  C3  UNL     1     -13.965   4.183 -15.682  1.00  0.00     0.012 A 
HETATM   11  C2  UNL     1     -14.782   5.079 -15.032  1.00  0.00     0.001 A 
HETATM   12  C1  UNL     1     -14.852   6.409 -15.392  1.00  0.00     0.000 A 
HETATM   13  C21 UNL     1     -14.077   6.862 -16.439  1.00  0.00     0.001 A 
HETATM   14  C20 UNL     1     -13.264   5.952 -17.077  1.00  0.00     0.012 A 
ENDBRANCH   7   9
ENDBRANCH   1   3
BRANCH   1  15
HETATM   15  C10 UNL     1     -10.704  -0.625 -18.544  1.00  0.00     0.046 A 
HETATM   16  C11 UNL     1      -9.393  -1.007 -18.429  1.00  0.00     0.047 A 
HETATM   17  C12 UNL     1      -8.828  -1.875 -19.360  1.00  0.00     0.090 A 
HETATM   18  N2  UNL     1      -9.559  -2.351 -20.387  1.00  0.00    -0.365 N 
HETATM   19  C13 UNL     1     -10.838  -1.968 -20.484  1.00  0.00     0.044 A 
ATOM     20  H2  UNL     1      -9.149  -2.988 -21.072  1.00  0.00     0.165 HD
HETATM   21  C14 UNL     1     -11.599  -2.453 -21.536  1.00  0.00     0.030 A 
HETATM   22  C18 UNL     1     -11.446  -1.113 -19.592  1.00  0.00     0.017 A 
HETATM   23  C15 UNL     1     -12.914  -2.105 -21.702  1.00  0.00     0.002 A 
HETATM   24  C16 UNL     1     -13.498  -1.257 -20.808  1.00  0.00     0.001 A 
HETATM   25  C17 UNL     1     -12.788  -0.758 -19.760  1.00  0.00     0.016 A 
ENDBRANCH   1  15
TORSDOF 3
ENDMDL
MODEL 4
REMARK VINA RESULT: -10.673903432      0.783      2.436
REMARK  3 active torsions:
REMARK  status: ('A' for Active; 'I' for Inactive)
REMARK    1  A    between atoms: C4_4  and  C5_5 
REMARK    2  A    between atoms: C9_9  and  N1_10 
REMARK    3  A    between atoms: N1_10  and  C10_12 
ROOT
HETATM    1  N1  UNL     1     -11.193   0.466 -17.755  1.00  0.00    -0.355 N 
ATOM      2  H1  UNL     1     -11.349   0.100 -16.816  1.00  0.00     0.166 HD
ENDROOT
BRANCH   1   3
HETATM    3  C9  UNL     1     -11.324   1.875 -17.999  1.00  0.00     0.033 A 
HETATM    4  C8  UNL     1     -10.559   2.449 -18.991  1.00  0.00     0.029 A 
HETATM    5  C7  UNL     1     -10.700   3.803 -19.210  1.00  0.00     0.003 A 
HETATM    6  C6  UNL     1     -11.587   4.540 -18.449  1.00  0.00     0.012 A 
HETATM    7  C5  UNL     1     -12.361   3.985 -17.454  1.00  0.00    -0.024 A 
HETATM    8  C19 UNL     1     -12.212   2.630 -17.243  1.00  0.00     0.041 A 
BRANCH   7   9
HETATM    9  C4  UNL     1     -13.280   4.820 -16.683  1.00  0.00    -0.026 A 
HETATM   10  C3  UNL     1     -13.433   6.162 -16.915  1.00  0.00     0.012 A 
HETATM   11  C2  UNL     1     -14.322   6.877 -16.144  1.00  0.00     0.001 A 
HETATM   12  C1  UNL     1     -15.066   6.290 -15.143  1.00  0.00     0.000 A 
HETATM   13  C21 UNL     1     -14.919   4.941 -14.899  1.00  0.00     0.001 A 
HETATM   14  C20 UNL     1     -14.027   4.241 -15.681  1.00  0.00     0.012 A 
ENDBRANCH   7   9
ENDBRANCH   1   3
BRANCH   1  15
HETATM   15  C10 UNL     1     -10.879  -0.341 -18.709  1.00  0.00     0.046 A 
HETATM   16  C11 UNL     1      -9.578  -0.673 -18.979  1.00  0.00     0.047 A 
HETATM   17  C12 UNL     1      -9.275  -1.549 -20.019  1.00  0.00     0.090 A 
HETATM   18  N2  UNL     1     -10.256  -2.081 -20.775  1.00  0.00    -0.365 N 
HETATM   19  C13 UNL     1     -11.522  -1.745 -20.498  1.00  0.00     0.044 A 
ATOM     20  H2  UNL     1     -10.039  -2.723 -21.539  1.00  0.00     0.165 HD
HETATM   21  C14 UNL     1     -12.537  -2.288 -21.269  1.00  0.00     0.030 A 
HETATM   22  C18 UNL     1     -11.876  -0.885 -19.483  1.00  0.00     0.017 A 
HETATM   23  C15 UNL     1     -13.856  -1.991 -21.047  1.00  0.00     0.002 A 
HETATM   24  C16 UNL     1     -14.186  -1.137 -20.036  1.00  0.00     0.001 A 
HETATM   25  C17 UNL     1     -13.222  -0.582 -19.254  1.00  0.00     0.016 A 
ENDBRANCH   1  15
TORSDOF 3
ENDMDL
MODEL 5
REMARK VINA RESULT: -10.431821407      1.485      1.866
REMARK  3 active torsions:
REMARK  status: ('A' for Active; 'I' for Inactive)
REMARK    1  A    between atoms: C4_4  and  C5_5 
REMARK    2  A    between atoms: C9_9  and  N1_10 
REMARK    3  A    between atoms: N1_10  and  C10_12 
ROOT
HETATM    1  N1  UNL     1     -11.667   1.956 -17.503  1.00  0.00    -0.355 N 
ATOM      2  H1  UNL     1     -11.010   1.607 -16.806  1.00  0.00     0.166 HD
ENDROOT
BRANCH   1   3
HETATM    3  C9  UNL     1     -12.010   3.349 -17.523  1.00  0.00     0.033 A 
HETATM    4  C8  UNL     1     -11.122   4.243 -18.083  1.00  0.00     0.029 A 
HETATM    5  C7  UNL     1     -11.471   5.576 -18.092  1.00  0.00     0.003 A 
HETATM    6  C6  UNL     1     -12.676   5.982 -17.553  1.00  0.00     0.012 A 
HETATM    7  C5  UNL     1     -13.577   5.106 -16.990  1.00  0.00    -0.024 A 
HETATM    8  C19 UNL     1     -13.219   3.774 -16.985  1.00  0.00     0.041 A 
BRANCH   7   9
HETATM    9  C4  UNL     1     -14.836   5.600 -16.434  1.00  0.00    -0.026 A 
HETATM   10  C3  UNL     1     -15.026   5.797 -15.091  1.00  0.00     0.012 A 
HETATM   11  C2  UNL     1     -16.242   6.266 -14.650  1.00  0.00     0.001 A 
HETATM   12  C1  UNL     1     -17.281   6.546 -15.513  1.00  0.00     0.000 A 
HETATM   13  C21 UNL     1     -17.101   6.350 -16.866  1.00  0.00     0.001 A 
HETATM   14  C20 UNL     1     -15.878   5.881 -17.290  1.00  0.00     0.012 A 
ENDBRANCH   7   9
ENDBRANCH   1   3
BRANCH   1  15
HETATM   15  C10 UNL     1     -12.182   1.140 -18.358  1.00  0.00     0.046 A 
HETATM   16  C11 UNL     1     -13.484   0.724 -18.271  1.00  0.00     0.047 A 
HETATM   17  C12 UNL     1     -14.007  -0.159 -19.213  1.00  0.00     0.090 A 
HETATM   18  N2  UNL     1     -13.242  -0.617 -20.223  1.00  0.00    -0.365 N 
HETATM   19  C13 UNL     1     -11.971  -0.201 -20.294  1.00  0.00     0.044 A 
ATOM     20  H2  UNL     1     -13.620  -1.264 -20.916  1.00  0.00     0.165 HD
HETATM   21  C14 UNL     1     -11.176  -0.665 -21.329  1.00  0.00     0.030 A 
HETATM   22  C18 UNL     1     -11.404   0.671 -19.390  1.00  0.00     0.017 A 
HETATM   23  C15 UNL     1      -9.867  -0.285 -21.467  1.00  0.00     0.002 A 
HETATM   24  C16 UNL     1      -9.325   0.578 -20.562  1.00  0.00     0.001 A 
HETATM   25  C17 UNL     1     -10.069   1.060 -19.529  1.00  0.00     0.016 A 
ENDBRANCH   1  15
TORSDOF 3
ENDMDL
