MODEL 1
REMARK VINA RESULT: -8.659630454      0.000      0.000
REMARK  11 active torsions:
REMARK  status: ('A' for Active; 'I' for Inactive)
REMARK    1  A    between atoms: O1_2  and  C2_3 
REMARK    2  A    between atoms: C4_5  and  C5_6 
REMARK    3  A    between atoms: C6_11  and  O4_12 
REMARK    4  A    between atoms: C8_14  and  S1_15 
REMARK    5  A    between atoms: S1_15  and  N2_18 
REMARK    6  A    between atoms: N2_18  and  C9_20 
REMARK    7  A    between atoms: C12_23  and  N3_24 
REMARK    8  A    between atoms: N3_24  and  C13_26 
REMARK    9  A    between atoms: C14_29  and  N5_30 
REMARK   10  A    between atoms: C16_38  and  N8_39 
REMARK   11  A    between atoms: C17_44  and  N10_45 
ROOT
HETATM    1  C9  UNL     1     -31.574   7.829 -28.648  1.00  0.00     0.093 C 
HETATM    2  C10 UNL     1     -31.617   8.425 -30.067  1.00  0.00     0.028 C 
HETATM    3  C11 UNL     1     -30.985   7.493 -31.082  1.00  0.00     0.027 C 
HETATM    4  C12 UNL     1     -31.845   6.312 -31.351  1.00  0.00     0.083 C 
HETATM    5  C19 UNL     1     -32.549   5.970 -30.039  1.00  0.00     0.027 C 
HETATM    6  C20 UNL     1     -31.675   6.326 -28.855  1.00  0.00     0.028 C 
ENDROOT
BRANCH   4   7
HETATM    7  N3  UNL     1     -31.126   5.140 -31.837  1.00  0.00    -0.370 N 
ATOM      8  H3  UNL     1     -31.084   4.296 -31.265  1.00  0.00     0.161 HD
BRANCH   7   9
HETATM    9  C13 UNL     1     -30.496   5.167 -33.083  1.00  0.00     0.135 A 
HETATM   10  N4  UNL     1     -31.285   5.277 -34.198  1.00  0.00    -0.176 N 
HETATM   11  C14 UNL     1     -30.758   5.265 -35.437  1.00  0.00     0.679 A 
ATOM     12  H4  UNL     1     -32.294   5.370 -34.086  1.00  0.00     0.186 HD
HETATM   13  N6  UNL     1     -29.442   5.143 -35.613  1.00  0.00    -0.175 N 
HETATM   14  C15 UNL     1     -28.596   5.028 -34.554  1.00  0.00     0.154 A 
ATOM     15  H6  UNL     1     -29.062   5.134 -36.560  1.00  0.00     0.186 HD
HETATM   16  N7  UNL     1     -27.269   4.912 -34.751  1.00  0.00    -0.175 N 
HETATM   17  C18 UNL     1     -29.139   5.042 -33.280  1.00  0.00     0.097 A 
HETATM   18  C16 UNL     1     -26.418   4.804 -33.725  1.00  0.00     0.679 A 
ATOM     19  H7  UNL     1     -26.905   4.905 -35.704  1.00  0.00     0.186 HD
HETATM   20  N9  UNL     1     -26.930   4.816 -32.484  1.00  0.00    -0.176 N 
HETATM   21  C17 UNL     1     -28.254   4.931 -32.236  1.00  0.00     0.132 A 
ATOM     22  H9  UNL     1     -26.291   4.735 -31.693  1.00  0.00     0.186 HD
BRANCH  11  23
HETATM   23  N5  UNL     1     -31.512   5.369 -36.488  1.00  0.00    -0.234 N 
ATOM     24  H52 UNL     1     -32.021   6.241 -36.634  1.00  0.00     0.174 HD
ATOM     25  H51 UNL     1     -31.596   4.601 -37.155  1.00  0.00     0.174 HD
ENDBRANCH  11  23
BRANCH  18  26
HETATM   26  N8  UNL     1     -25.124   4.692 -33.921  1.00  0.00    -0.234 N 
ATOM     27  H82 UNL     1     -24.668   3.780 -33.909  1.00  0.00     0.174 HD
ATOM     28  H81 UNL     1     -24.541   5.512 -34.091  1.00  0.00     0.174 HD
ENDBRANCH  18  26
BRANCH  21  29
HETATM   29  N10 UNL     1     -28.618   4.938 -31.017  1.00  0.00    -0.384 N 
ATOM     30 2H10 UNL     1     -28.007   5.237 -30.257  1.00  0.00     0.157 HD
ATOM     31 1H10 UNL     1     -29.566   4.622 -30.812  1.00  0.00     0.157 HD
ENDBRANCH  21  29
ENDBRANCH   7   9
ENDBRANCH   4   7
BRANCH   1  32
HETATM   32  N2  UNL     1     -30.353   8.224 -28.058  1.00  0.00    -0.310 N 
ATOM     33  H2  UNL     1     -29.509   8.312 -28.625  1.00  0.00     0.172 HD
BRANCH  32  34
HETATM   34  S1  UNL     1     -30.311   8.547 -26.404  1.00  0.00     0.266 S 
HETATM   35  O5  UNL     1     -31.338   9.561 -25.967  1.00  0.00    -0.200 OA
HETATM   36  O6  UNL     1     -28.930   9.082 -26.037  1.00  0.00    -0.200 OA
BRANCH  34  37
HETATM   37  C8  UNL     1     -30.631   7.099 -25.490  1.00  0.00     0.163 A 
HETATM   38  C2  UNL     1     -31.516   7.067 -24.438  1.00  0.00     0.098 A 
HETATM   39  C3  UNL     1     -31.709   5.865 -23.797  1.00  0.00     0.075 A 
HETATM   40  C4  UNL     1     -31.031   4.705 -24.196  1.00  0.00     0.114 A 
HETATM   41  N1  UNL     1     -30.182   4.780 -25.219  1.00  0.00    -0.330 N 
HETATM   42  C6  UNL     1     -29.967   5.916 -25.864  1.00  0.00     0.169 A 
ATOM     43  H1  UNL     1     -29.685   3.940 -25.515  1.00  0.00     0.168 HD
BRANCH  38  44
HETATM   44  O1  UNL     1     -32.163   8.230 -24.073  1.00  0.00    -0.354 OA
HETATM   45  C1  UNL     1     -32.876   8.252 -22.852  1.00  0.00     0.210 C 
ENDBRANCH  38  44
BRANCH  40  46
HETATM   46  C5  UNL     1     -31.229   3.440 -23.525  1.00  0.00     0.227 C 
HETATM   47  O2  UNL     1     -30.447   3.069 -22.633  1.00  0.00    -0.643 OA
HETATM   48  O3  UNL     1     -32.292   2.640 -23.875  1.00  0.00    -0.643 OA
ENDBRANCH  40  46
BRANCH  42  49
HETATM   49  O4  UNL     1     -29.074   5.941 -26.922  1.00  0.00    -0.340 OA
HETATM   50  C7  UNL     1     -28.645   4.712 -27.470  1.00  0.00     0.211 C 
ENDBRANCH  42  49
ENDBRANCH  34  37
ENDBRANCH  32  34
ENDBRANCH   1  32
TORSDOF 11
ENDMDL
MODEL 2
REMARK VINA RESULT: -8.465486755      0.558      2.176
REMARK  11 active torsions:
REMARK  status: ('A' for Active; 'I' for Inactive)
REMARK    1  A    between atoms: O1_2  and  C2_3 
REMARK    2  A    between atoms: C4_5  and  C5_6 
REMARK    3  A    between atoms: C6_11  and  O4_12 
REMARK    4  A    between atoms: C8_14  and  S1_15 
REMARK    5  A    between atoms: S1_15  and  N2_18 
REMARK    6  A    between atoms: N2_18  and  C9_20 
REMARK    7  A    between atoms: C12_23  and  N3_24 
REMARK    8  A    between atoms: N3_24  and  C13_26 
REMARK    9  A    between atoms: C14_29  and  N5_30 
REMARK   10  A    between atoms: C16_38  and  N8_39 
REMARK   11  A    between atoms: C17_44  and  N10_45 
ROOT
HETATM    1  C9  UNL     1     -31.909   7.695 -28.481  1.00  0.00     0.093 C 
HETATM    2  C10 UNL     1     -32.017   8.290 -29.897  1.00  0.00     0.028 C 
HETATM    3  C11 UNL     1     -31.352   7.399 -30.927  1.00  0.00     0.027 C 
HETATM    4  C12 UNL     1     -32.145   6.169 -31.182  1.00  0.00     0.083 C 
HETATM    5  C19 UNL     1     -32.800   5.784 -29.857  1.00  0.00     0.027 C 
HETATM    6  C20 UNL     1     -31.925   6.189 -28.690  1.00  0.00     0.028 C 
ENDROOT
BRANCH   4   7
HETATM    7  N3  UNL     1     -31.368   5.042 -31.687  1.00  0.00    -0.370 N 
ATOM      8  H3  UNL     1     -31.293   4.189 -31.133  1.00  0.00     0.161 HD
BRANCH   7   9
HETATM    9  C13 UNL     1     -30.728   5.127 -32.924  1.00  0.00     0.135 A 
HETATM   10  N4  UNL     1     -31.509   5.261 -34.042  1.00  0.00    -0.176 N 
HETATM   11  C14 UNL     1     -30.971   5.304 -35.276  1.00  0.00     0.679 A 
ATOM     12  H4  UNL     1     -32.521   5.331 -33.937  1.00  0.00     0.186 HD
HETATM   13  N6  UNL     1     -29.651   5.215 -35.444  1.00  0.00    -0.175 N 
HETATM   14  C15 UNL     1     -28.812   5.079 -34.381  1.00  0.00     0.154 A 
ATOM     15  H6  UNL     1     -29.263   5.248 -36.386  1.00  0.00     0.186 HD
HETATM   16  N7  UNL     1     -27.482   4.996 -34.570  1.00  0.00    -0.175 N 
HETATM   17  C18 UNL     1     -29.367   5.036 -33.113  1.00  0.00     0.097 A 
HETATM   18  C16 UNL     1     -26.637   4.869 -33.539  1.00  0.00     0.679 A 
ATOM     19  H7  UNL     1     -27.109   5.030 -35.518  1.00  0.00     0.186 HD
HETATM   20  N9  UNL     1     -27.161   4.826 -32.304  1.00  0.00    -0.176 N 
HETATM   21  C17 UNL     1     -28.489   4.906 -32.065  1.00  0.00     0.132 A 
ATOM     22  H9  UNL     1     -26.527   4.729 -31.511  1.00  0.00     0.186 HD
BRANCH  11  23
HETATM   23  N5  UNL     1     -31.718   5.431 -36.329  1.00  0.00    -0.234 N 
ATOM     24  H52 UNL     1     -32.307   4.644 -36.602  1.00  0.00     0.174 HD
ATOM     25  H51 UNL     1     -31.721   6.294 -36.873  1.00  0.00     0.174 HD
ENDBRANCH  11  23
BRANCH  18  26
HETATM   26  N8  UNL     1     -25.340   4.789 -33.728  1.00  0.00    -0.234 N 
ATOM     27  H82 UNL     1     -24.819   5.568 -34.130  1.00  0.00     0.174 HD
ATOM     28  H81 UNL     1     -24.820   3.949 -33.478  1.00  0.00     0.174 HD
ENDBRANCH  18  26
BRANCH  21  29
HETATM   29  N10 UNL     1     -28.864   4.862 -30.850  1.00  0.00    -0.384 N 
ATOM     30 2H10 UNL     1     -29.269   5.663 -30.365  1.00  0.00     0.157 HD
ATOM     31 1H10 UNL     1     -28.741   3.978 -30.355  1.00  0.00     0.157 HD
ENDBRANCH  21  29
ENDBRANCH   7   9
ENDBRANCH   4   7
BRANCH   1  32
HETATM   32  N2  UNL     1     -30.702   8.161 -27.915  1.00  0.00    -0.310 N 
ATOM     33  H2  UNL     1     -29.915   8.417 -28.512  1.00  0.00     0.172 HD
BRANCH  32  34
HETATM   34  S1  UNL     1     -30.580   8.288 -26.238  1.00  0.00     0.266 S 
HETATM   35  O5  UNL     1     -31.637   9.175 -25.629  1.00  0.00    -0.200 OA
HETATM   36  O6  UNL     1     -29.214   8.865 -25.881  1.00  0.00    -0.200 OA
BRANCH  34  37
HETATM   37  C8  UNL     1     -30.761   6.724 -25.492  1.00  0.00     0.163 A 
HETATM   38  C2  UNL     1     -30.035   5.626 -25.886  1.00  0.00     0.098 A 
HETATM   39  C3  UNL     1     -30.242   4.444 -25.215  1.00  0.00     0.075 A 
HETATM   40  C4  UNL     1     -31.161   4.352 -24.160  1.00  0.00     0.114 A 
HETATM   41  N1  UNL     1     -31.844   5.439 -23.811  1.00  0.00    -0.330 N 
HETATM   42  C6  UNL     1     -31.676   6.597 -24.430  1.00  0.00     0.169 A 
ATOM     43  H1  UNL     1     -32.515   5.379 -23.045  1.00  0.00     0.168 HD
BRANCH  38  44
HETATM   44  O1  UNL     1     -29.140   5.756 -26.930  1.00  0.00    -0.354 OA
HETATM   45  C1  UNL     1     -28.455   4.604 -27.380  1.00  0.00     0.210 C 
ENDBRANCH  38  44
BRANCH  40  46
HETATM   46  C5  UNL     1     -31.383   3.111 -23.453  1.00  0.00     0.227 C 
HETATM   47  O2  UNL     1     -30.642   2.779 -22.512  1.00  0.00    -0.643 OA
HETATM   48  O3  UNL     1     -32.425   2.290 -23.823  1.00  0.00    -0.643 OA
ENDBRANCH  40  46
BRANCH  42  49
HETATM   49  O4  UNL     1     -32.411   7.699 -24.027  1.00  0.00    -0.340 OA
HETATM   50  C7  UNL     1     -32.563   7.938 -22.644  1.00  0.00     0.211 C 
ENDBRANCH  42  49
ENDBRANCH  34  37
ENDBRANCH  32  34
ENDBRANCH   1  32
TORSDOF 11
ENDMDL
MODEL 3
REMARK VINA RESULT: -8.461568033      5.210      9.258
REMARK  11 active torsions:
REMARK  status: ('A' for Active; 'I' for Inactive)
REMARK    1  A    between atoms: O1_2  and  C2_3 
REMARK    2  A    between atoms: C4_5  and  C5_6 
REMARK    3  A    between atoms: C6_11  and  O4_12 
REMARK    4  A    between atoms: C8_14  and  S1_15 
REMARK    5  A    between atoms: S1_15  and  N2_18 
REMARK    6  A    between atoms: N2_18  and  C9_20 
REMARK    7  A    between atoms: C12_23  and  N3_24 
REMARK    8  A    between atoms: N3_24  and  C13_26 
REMARK    9  A    between atoms: C14_29  and  N5_30 
REMARK   10  A    between atoms: C16_38  and  N8_39 
REMARK   11  A    between atoms: C17_44  and  N10_45 
ROOT
HETATM    1  C9  UNL     1     -32.620   9.837 -27.375  1.00  0.00     0.093 C 
HETATM    2  C10 UNL     1     -33.336   8.474 -27.347  1.00  0.00     0.028 C 
HETATM    3  C11 UNL     1     -34.485   8.469 -26.359  1.00  0.00     0.027 C 
HETATM    4  C12 UNL     1     -35.634   9.272 -26.850  1.00  0.00     0.083 C 
HETATM    5  C19 UNL     1     -35.049  10.442 -27.638  1.00  0.00     0.027 C 
HETATM    6  C20 UNL     1     -33.708  10.854 -27.070  1.00  0.00     0.028 C 
ENDROOT
BRANCH   4   7
HETATM    7  N3  UNL     1     -36.508   9.782 -25.799  1.00  0.00    -0.370 N 
ATOM      8  H3  UNL     1     -36.952  10.693 -25.906  1.00  0.00     0.161 HD
BRANCH   7   9
HETATM    9  C13 UNL     1     -36.739   9.026 -24.648  1.00  0.00     0.135 A 
HETATM   10  N4  UNL     1     -37.397   7.832 -24.786  1.00  0.00    -0.176 N 
HETATM   11  C14 UNL     1     -37.699   7.067 -23.720  1.00  0.00     0.679 A 
ATOM     12  H4  UNL     1     -37.664   7.516 -25.719  1.00  0.00     0.186 HD
HETATM   13  N6  UNL     1     -37.363   7.456 -22.490  1.00  0.00    -0.175 N 
HETATM   14  C15 UNL     1     -36.709   8.629 -22.274  1.00  0.00     0.154 A 
ATOM     15  H6  UNL     1     -37.601   6.862 -21.695  1.00  0.00     0.186 HD
HETATM   16  N7  UNL     1     -36.373   9.002 -21.025  1.00  0.00    -0.175 N 
HETATM   17  C18 UNL     1     -36.399   9.414 -23.371  1.00  0.00     0.097 A 
HETATM   18  C16 UNL     1     -35.725  10.149 -20.789  1.00  0.00     0.679 A 
ATOM     19  H7  UNL     1     -36.619   8.398 -20.241  1.00  0.00     0.186 HD
HETATM   20  N9  UNL     1     -35.417  10.920 -21.843  1.00  0.00    -0.176 N 
HETATM   21  C17 UNL     1     -35.733  10.588 -23.115  1.00  0.00     0.132 A 
ATOM     22  H9  UNL     1     -34.922  11.797 -21.677  1.00  0.00     0.186 HD
BRANCH  11  23
HETATM   23  N5  UNL     1     -38.322   5.938 -23.860  1.00  0.00    -0.234 N 
ATOM     24  H52 UNL     1     -39.339   5.931 -23.768  1.00  0.00     0.174 HD
ATOM     25  H51 UNL     1     -37.814   5.076 -24.059  1.00  0.00     0.174 HD
ENDBRANCH  11  23
BRANCH  18  26
HETATM   26  N8  UNL     1     -35.398  10.508 -19.569  1.00  0.00    -0.234 N 
ATOM     27  H82 UNL     1     -35.847  11.305 -19.118  1.00  0.00     0.174 HD
ATOM     28  H81 UNL     1     -34.687  10.003 -19.041  1.00  0.00     0.174 HD
ENDBRANCH  18  26
BRANCH  21  29
HETATM   29  N10 UNL     1     -35.381  11.397 -24.032  1.00  0.00    -0.384 N 
ATOM     30 2H10 UNL     1     -34.565  12.004 -23.953  1.00  0.00     0.157 HD
ATOM     31 1H10 UNL     1     -35.958  11.429 -24.872  1.00  0.00     0.157 HD
ENDBRANCH  21  29
ENDBRANCH   7   9
ENDBRANCH   4   7
BRANCH   1  32
HETATM   32  N2  UNL     1     -31.605   9.803 -26.393  1.00  0.00    -0.310 N 
ATOM     33  H2  UNL     1     -31.682  10.371 -25.549  1.00  0.00     0.172 HD
BRANCH  32  34
HETATM   34  S1  UNL     1     -30.265   8.809 -26.636  1.00  0.00     0.266 S 
HETATM   35  O5  UNL     1     -28.999   9.352 -26.022  1.00  0.00    -0.200 OA
HETATM   36  O6  UNL     1     -30.033   8.645 -28.135  1.00  0.00    -0.200 OA
BRANCH  34  37
HETATM   37  C8  UNL     1     -30.527   7.243 -25.917  1.00  0.00     0.163 A 
HETATM   38  C2  UNL     1     -30.048   6.082 -26.475  1.00  0.00     0.098 A 
HETATM   39  C3  UNL     1     -30.295   4.901 -25.814  1.00  0.00     0.075 A 
HETATM   40  C4  UNL     1     -31.010   4.873 -24.608  1.00  0.00     0.114 A 
HETATM   41  N1  UNL     1     -31.456   6.021 -24.102  1.00  0.00    -0.330 N 
HETATM   42  C6  UNL     1     -31.241   7.179 -24.706  1.00  0.00     0.169 A 
ATOM     43  H1  UNL     1     -31.977   6.008 -23.226  1.00  0.00     0.168 HD
BRANCH  38  44
HETATM   44  O1  UNL     1     -29.351   6.150 -27.665  1.00  0.00    -0.354 OA
HETATM   45  C1  UNL     1     -29.530   5.116 -28.614  1.00  0.00     0.210 C 
ENDBRANCH  38  44
BRANCH  40  46
HETATM   46  C5  UNL     1     -31.273   3.636 -23.910  1.00  0.00     0.227 C 
HETATM   47  O2  UNL     1     -30.645   3.346 -22.878  1.00  0.00    -0.643 OA
HETATM   48  O3  UNL     1     -32.229   2.769 -24.391  1.00  0.00    -0.643 OA
ENDBRANCH  40  46
BRANCH  42  49
HETATM   49  O4  UNL     1     -31.726   8.345 -24.138  1.00  0.00    -0.340 OA
HETATM   50  C7  UNL     1     -32.784   8.251 -23.207  1.00  0.00     0.211 C 
ENDBRANCH  42  49
ENDBRANCH  34  37
ENDBRANCH  32  34
ENDBRANCH   1  32
TORSDOF 11
ENDMDL
MODEL 4
REMARK VINA RESULT: -8.450790133      4.945      9.107
REMARK  11 active torsions:
REMARK  status: ('A' for Active; 'I' for Inactive)
REMARK    1  A    between atoms: O1_2  and  C2_3 
REMARK    2  A    between atoms: C4_5  and  C5_6 
REMARK    3  A    between atoms: C6_11  and  O4_12 
REMARK    4  A    between atoms: C8_14  and  S1_15 
REMARK    5  A    between atoms: S1_15  and  N2_18 
REMARK    6  A    between atoms: N2_18  and  C9_20 
REMARK    7  A    between atoms: C12_23  and  N3_24 
REMARK    8  A    between atoms: N3_24  and  C13_26 
REMARK    9  A    between atoms: C14_29  and  N5_30 
REMARK   10  A    between atoms: C16_38  and  N8_39 
REMARK   11  A    between atoms: C17_44  and  N10_45 
ROOT
HETATM    1  C9  UNL     1     -32.675   9.780 -27.283  1.00  0.00     0.093 C 
HETATM    2  C10 UNL     1     -33.376   8.411 -27.213  1.00  0.00     0.028 C 
HETATM    3  C11 UNL     1     -34.513   8.418 -26.211  1.00  0.00     0.027 C 
HETATM    4  C12 UNL     1     -35.676   9.196 -26.707  1.00  0.00     0.083 C 
HETATM    5  C19 UNL     1     -35.114  10.353 -27.532  1.00  0.00     0.027 C 
HETATM    6  C20 UNL     1     -33.770  10.793 -26.990  1.00  0.00     0.028 C 
ENDROOT
BRANCH   4   7
HETATM    7  N3  UNL     1     -36.544   9.723 -25.659  1.00  0.00    -0.370 N 
ATOM      8  H3  UNL     1     -36.983  10.635 -25.774  1.00  0.00     0.161 HD
BRANCH   7   9
HETATM    9  C13 UNL     1     -36.774   8.981 -24.498  1.00  0.00     0.135 A 
HETATM   10  N4  UNL     1     -37.398   7.769 -24.626  1.00  0.00    -0.176 N 
HETATM   11  C14 UNL     1     -37.698   7.014 -23.552  1.00  0.00     0.679 A 
ATOM     12  H4  UNL     1     -37.641   7.429 -25.557  1.00  0.00     0.186 HD
HETATM   13  N6  UNL     1     -37.393   7.433 -22.323  1.00  0.00    -0.175 N 
HETATM   14  C15 UNL     1     -36.773   8.626 -22.118  1.00  0.00     0.154 A 
ATOM     15  H6  UNL     1     -37.629   6.847 -21.522  1.00  0.00     0.186 HD
HETATM   16  N7  UNL     1     -36.468   9.030 -20.870  1.00  0.00    -0.175 N 
HETATM   17  C18 UNL     1     -36.465   9.401 -23.224  1.00  0.00     0.097 A 
HETATM   18  C16 UNL     1     -35.853  10.197 -20.644  1.00  0.00     0.679 A 
ATOM     19  H7  UNL     1     -36.711   8.433 -20.079  1.00  0.00     0.186 HD
HETATM   20  N9  UNL     1     -35.548  10.958 -21.707  1.00  0.00    -0.176 N 
HETATM   21  C17 UNL     1     -35.834  10.596 -22.978  1.00  0.00     0.132 A 
ATOM     22  H9  UNL     1     -35.080  11.850 -21.548  1.00  0.00     0.186 HD
BRANCH  11  23
HETATM   23  N5  UNL     1     -38.289   5.867 -23.681  1.00  0.00    -0.234 N 
ATOM     24  H52 UNL     1     -39.229   5.760 -23.298  1.00  0.00     0.174 HD
ATOM     25  H51 UNL     1     -37.832   5.088 -24.156  1.00  0.00     0.174 HD
ENDBRANCH  11  23
BRANCH  18  26
HETATM   26  N8  UNL     1     -35.556  10.586 -19.426  1.00  0.00    -0.234 N 
ATOM     27  H82 UNL     1     -34.632  10.415 -19.030  1.00  0.00     0.174 HD
ATOM     28  H81 UNL     1     -36.241  11.068 -18.843  1.00  0.00     0.174 HD
ENDBRANCH  18  26
BRANCH  21  29
HETATM   29  N10 UNL     1     -35.488  11.398 -23.903  1.00  0.00    -0.384 N 
ATOM     30 2H10 UNL     1     -34.664  11.250 -24.485  1.00  0.00     0.157 HD
ATOM     31 1H10 UNL     1     -36.072  12.221 -24.048  1.00  0.00     0.157 HD
ENDBRANCH  21  29
ENDBRANCH   7   9
ENDBRANCH   4   7
BRANCH   1  32
HETATM   32  N2  UNL     1     -31.649   9.782 -26.313  1.00  0.00    -0.310 N 
ATOM     33  H2  UNL     1     -31.696  10.408 -25.509  1.00  0.00     0.172 HD
BRANCH  32  34
HETATM   34  S1  UNL     1     -30.343   8.731 -26.503  1.00  0.00     0.266 S 
HETATM   35  O5  UNL     1     -29.043   9.296 -25.988  1.00  0.00    -0.200 OA
HETATM   36  O6  UNL     1     -30.169   8.417 -27.986  1.00  0.00    -0.200 OA
BRANCH  34  37
HETATM   37  C8  UNL     1     -30.617   7.251 -25.627  1.00  0.00     0.163 A 
HETATM   38  C2  UNL     1     -31.326   7.206 -24.450  1.00  0.00     0.098 A 
HETATM   39  C3  UNL     1     -31.500   5.980 -23.851  1.00  0.00     0.075 A 
HETATM   40  C4  UNL     1     -30.976   4.808 -24.414  1.00  0.00     0.114 A 
HETATM   41  N1  UNL     1     -30.295   4.897 -25.555  1.00  0.00    -0.330 N 
HETATM   42  C6  UNL     1     -30.104   6.056 -26.165  1.00  0.00     0.169 A 
ATOM     43  H1  UNL     1     -29.910   4.048 -25.970  1.00  0.00     0.168 HD
BRANCH  38  44
HETATM   44  O1  UNL     1     -31.825   8.381 -23.925  1.00  0.00    -0.354 OA
HETATM   45  C1  UNL     1     -32.878   8.308 -22.983  1.00  0.00     0.210 C 
ENDBRANCH  38  44
BRANCH  40  46
HETATM   46  C5  UNL     1     -31.154   3.519 -23.787  1.00  0.00     0.227 C 
HETATM   47  O2  UNL     1     -30.437   3.176 -22.831  1.00  0.00    -0.643 OA
HETATM   48  O3  UNL     1     -32.127   2.662 -24.251  1.00  0.00    -0.643 OA
ENDBRANCH  40  46
BRANCH  42  49
HETATM   49  O4  UNL     1     -29.389   6.093 -27.350  1.00  0.00    -0.340 OA
HETATM   50  C7  UNL     1     -29.562   5.040 -28.274  1.00  0.00     0.211 C 
ENDBRANCH  42  49
ENDBRANCH  34  37
ENDBRANCH  32  34
ENDBRANCH   1  32
TORSDOF 11
ENDMDL
MODEL 5
REMARK VINA RESULT: -8.317911477      0.926      2.425
REMARK  11 active torsions:
REMARK  status: ('A' for Active; 'I' for Inactive)
REMARK    1  A    between atoms: O1_2  and  C2_3 
REMARK    2  A    between atoms: C4_5  and  C5_6 
REMARK    3  A    between atoms: C6_11  and  O4_12 
REMARK    4  A    between atoms: C8_14  and  S1_15 
REMARK    5  A    between atoms: S1_15  and  N2_18 
REMARK    6  A    between atoms: N2_18  and  C9_20 
REMARK    7  A    between atoms: C12_23  and  N3_24 
REMARK    8  A    between atoms: N3_24  and  C13_26 
REMARK    9  A    between atoms: C14_29  and  N5_30 
REMARK   10  A    between atoms: C16_38  and  N8_39 
REMARK   11  A    between atoms: C17_44  and  N10_45 
ROOT
HETATM    1  C9  UNL     1     -31.756   8.226 -28.652  1.00  0.00     0.093 C 
HETATM    2  C10 UNL     1     -31.709   8.731 -30.106  1.00  0.00     0.028 C 
HETATM    3  C11 UNL     1     -31.301   7.630 -31.064  1.00  0.00     0.027 C 
HETATM    4  C12 UNL     1     -32.386   6.634 -31.250  1.00  0.00     0.083 C 
HETATM    5  C19 UNL     1     -33.116   6.522 -29.912  1.00  0.00     0.027 C 
HETATM    6  C20 UNL     1     -32.163   6.765 -28.761  1.00  0.00     0.028 C 
ENDROOT
BRANCH   4   7
HETATM    7  N3  UNL     1     -31.929   5.312 -31.666  1.00  0.00    -0.370 N 
ATOM      8  H3  UNL     1     -32.533   4.501 -31.533  1.00  0.00     0.161 HD
BRANCH   7   9
HETATM    9  C13 UNL     1     -30.669   5.154 -32.247  1.00  0.00     0.135 A 
HETATM   10  N4  UNL     1     -29.587   5.053 -31.413  1.00  0.00    -0.176 N 
HETATM   11  C14 UNL     1     -28.334   4.945 -31.895  1.00  0.00     0.679 A 
ATOM     12  H4  UNL     1     -29.734   5.061 -30.404  1.00  0.00     0.186 HD
HETATM   13  N6  UNL     1     -28.113   4.933 -33.210  1.00  0.00    -0.175 N 
HETATM   14  C15 UNL     1     -29.137   5.030 -34.099  1.00  0.00     0.154 A 
ATOM     15  H6  UNL     1     -27.156   4.851 -33.555  1.00  0.00     0.186 HD
HETATM   16  N7  UNL     1     -28.894   5.011 -35.424  1.00  0.00    -0.175 N 
HETATM   17  C18 UNL     1     -30.425   5.141 -33.602  1.00  0.00     0.097 A 
HETATM   18  C16 UNL     1     -29.887   5.099 -36.317  1.00  0.00     0.679 A 
ATOM     19  H7  UNL     1     -27.933   4.929 -35.753  1.00  0.00     0.186 HD
HETATM   20  N9  UNL     1     -31.140   5.206 -35.850  1.00  0.00    -0.176 N 
HETATM   21  C17 UNL     1     -31.434   5.229 -34.530  1.00  0.00     0.132 A 
ATOM     22  H9  UNL     1     -31.905   5.274 -36.520  1.00  0.00     0.186 HD
BRANCH  11  23
HETATM   23  N5  UNL     1     -27.315   4.850 -31.098  1.00  0.00    -0.234 N 
ATOM     24  H52 UNL     1     -27.485   4.613 -30.120  1.00  0.00     0.174 HD
ATOM     25  H51 UNL     1     -26.365   5.006 -31.437  1.00  0.00     0.174 HD
ENDBRANCH  11  23
BRANCH  18  26
HETATM   26  N8  UNL     1     -29.645   5.079 -37.608  1.00  0.00    -0.234 N 
ATOM     27  H82 UNL     1     -28.723   4.830 -37.966  1.00  0.00     0.174 HD
ATOM     28  H81 UNL     1     -30.371   5.311 -38.285  1.00  0.00     0.174 HD
ENDBRANCH  18  26
BRANCH  21  29
HETATM   29  N10 UNL     1     -32.661   5.327 -34.209  1.00  0.00    -0.384 N 
ATOM     30 2H10 UNL     1     -33.422   5.135 -34.862  1.00  0.00     0.157 HD
ATOM     31 1H10 UNL     1     -32.872   5.617 -33.255  1.00  0.00     0.157 HD
ENDBRANCH  21  29
ENDBRANCH   7   9
ENDBRANCH   4   7
BRANCH   1  32
HETATM   32  N2  UNL     1     -30.468   8.400 -28.100  1.00  0.00    -0.310 N 
ATOM     33  H2  UNL     1     -29.639   8.351 -28.692  1.00  0.00     0.172 HD
BRANCH  32  34
HETATM   34  S1  UNL     1     -30.321   8.693 -26.446  1.00  0.00     0.266 S 
HETATM   35  O5  UNL     1     -31.291   9.727 -25.933  1.00  0.00    -0.200 OA
HETATM   36  O6  UNL     1     -28.906   9.183 -26.151  1.00  0.00    -0.200 OA
BRANCH  34  37
HETATM   37  C8  UNL     1     -30.630   7.238 -25.537  1.00  0.00     0.163 A 
HETATM   38  C2  UNL     1     -31.454   7.212 -24.438  1.00  0.00     0.098 A 
HETATM   39  C3  UNL     1     -31.644   6.004 -23.806  1.00  0.00     0.075 A 
HETATM   40  C4  UNL     1     -31.022   4.834 -24.262  1.00  0.00     0.114 A 
HETATM   41  N1  UNL     1     -30.231   4.904 -25.330  1.00  0.00    -0.330 N 
HETATM   42  C6  UNL     1     -30.021   6.045 -25.968  1.00  0.00     0.169 A 
ATOM     43  H1  UNL     1     -29.775   4.056 -25.666  1.00  0.00     0.168 HD
BRANCH  38  44
HETATM   44  O1  UNL     1     -32.047   8.386 -24.018  1.00  0.00    -0.354 OA
HETATM   45  C1  UNL     1     -32.869   8.354 -22.868  1.00  0.00     0.210 C 
ENDBRANCH  38  44
BRANCH  40  46
HETATM   46  C5  UNL     1     -31.217   3.564 -23.600  1.00  0.00     0.227 C 
HETATM   47  O2  UNL     1     -30.493   3.230 -22.646  1.00  0.00    -0.643 OA
HETATM   48  O3  UNL     1     -32.213   2.716 -24.029  1.00  0.00    -0.643 OA
ENDBRANCH  40  46
BRANCH  42  49
HETATM   49  O4  UNL     1     -29.189   6.064 -27.074  1.00  0.00    -0.340 OA
HETATM   50  C7  UNL     1     -29.060   4.884 -27.841  1.00  0.00     0.211 C 
ENDBRANCH  42  49
ENDBRANCH  34  37
ENDBRANCH  32  34
ENDBRANCH   1  32
TORSDOF 11
ENDMDL
