MODEL 1
REMARK VINA RESULT: -7.687834098      0.000      0.000
REMARK  17 active torsions:
REMARK  status: ('A' for Active; 'I' for Inactive)
REMARK    1  A    between atoms: C10_10  and  O1_11 
REMARK    2  A    between atoms: C11_13  and  O2_14 
REMARK    3  A    between atoms: C13_17  and  O3_18 
REMARK    4  A    between atoms: C13_17  and  C14_20 
REMARK    5  A    between atoms: C14_20  and  C15_22 
REMARK    6  A    between atoms: C15_22  and  C16_23 
REMARK    7  A    between atoms: C16_23  and  C17_24 
REMARK    8  A    between atoms: C17_24  and  C18_25 
REMARK    9  A    between atoms: C18_25  and  O5_27 
REMARK   10  A    between atoms: C18_25  and  O6_29 
REMARK   11  A    between atoms: C21_32  and  O7_33 
REMARK   12  A    between atoms: O7_33  and  C22_34 
REMARK   13  A    between atoms: C22_34  and  C23_36 
REMARK   14  A    between atoms: C23_36  and  O9_37 
REMARK   15  A    between atoms: C23_36  and  O10_39 
REMARK   16  A    between atoms: C23_36  and  C24_41 
REMARK   17  A    between atoms: C24_41  and  O11_42 
ROOT
HETATM    1  C1  UNL     1     -31.150  10.964 -26.810  1.00  0.00     0.043 C 
HETATM    2  C2  UNL     1     -30.874   9.531 -27.024  1.00  0.00    -0.081 C 
HETATM    3  C3  UNL     1     -31.724   8.632 -27.498  1.00  0.00    -0.068 C 
HETATM    4  C4  UNL     1     -32.957   9.414 -27.736  1.00  0.00     0.035 C 
HETATM    5  C5  UNL     1     -33.957   8.679 -28.622  1.00  0.00     0.009 C 
HETATM    6  C6  UNL     1     -33.494   8.821 -30.016  1.00  0.00    -0.014 C 
HETATM    7  C7  UNL     1     -34.717   9.258 -30.851  1.00  0.00     0.010 C 
HETATM    8  C8  UNL     1     -32.843   7.707 -30.669  1.00  0.00     0.002 C 
HETATM    9  C9  UNL     1     -33.898   7.005 -31.555  1.00  0.00     0.039 C 
HETATM   10  C10 UNL     1     -33.063   5.909 -32.108  1.00  0.00     0.147 C 
HETATM   11  C11 UNL     1     -32.196   5.512 -30.934  1.00  0.00     0.154 C 
HETATM   12  C12 UNL     1     -32.253   6.576 -29.894  1.00  0.00     0.064 C 
HETATM   13  C13 UNL     1     -31.002   6.880 -29.140  1.00  0.00     0.134 C 
HETATM   14  C20 UNL     1     -31.347   7.188 -27.685  1.00  0.00     0.087 C 
HETATM   15  C21 UNL     1     -30.397   6.713 -26.658  1.00  0.00     0.144 C 
HETATM   16  C25 UNL     1     -29.813   7.841 -25.775  1.00  0.00     0.037 C 
HETATM   17  C26 UNL     1     -29.524   9.001 -26.663  1.00  0.00     0.036 C 
ENDROOT
BRANCH  13  18
HETATM   18  O3  UNL     1     -30.389   7.958 -29.767  1.00  0.00    -0.381 OA
ATOM     19  H3  UNL     1     -29.546   8.091 -29.348  1.00  0.00     0.211 HD
ENDBRANCH  13  18
BRANCH  13  20
HETATM   20  C14 UNL     1     -30.010   5.780 -29.139  1.00  0.00     0.162 C 
HETATM   21  O4  UNL     1     -30.477   4.669 -28.832  1.00  0.00    -0.295 OA
BRANCH  20  22
HETATM   22  C15 UNL     1     -28.591   5.786 -29.435  1.00  0.00     0.082 C 
BRANCH  22  23
HETATM   23  C16 UNL     1     -28.026   4.703 -30.264  1.00  0.00     0.013 C 
BRANCH  23  24
HETATM   24  C17 UNL     1     -27.334   5.390 -31.456  1.00  0.00     0.068 C 
BRANCH  24  25
HETATM   25  C18 UNL     1     -27.672   4.704 -32.749  1.00  0.00     0.155 C 
HETATM   26  C19 UNL     1     -26.451   4.803 -33.635  1.00  0.00     0.078 C 
BRANCH  25  27
HETATM   27  O5  UNL     1     -28.713   5.350 -33.424  1.00  0.00    -0.366 OA
ATOM     28  H5  UNL     1     -29.352   4.734 -33.762  1.00  0.00     0.213 HD
ENDBRANCH  25  27
BRANCH  25  29
HETATM   29  O6  UNL     1     -28.011   3.367 -32.601  1.00  0.00    -0.366 OA
ATOM     30  H6  UNL     1     -27.266   2.797 -32.452  1.00  0.00     0.213 HD
ENDBRANCH  25  29
ENDBRANCH  24  25
ENDBRANCH  23  24
ENDBRANCH  22  23
ENDBRANCH  20  22
ENDBRANCH  13  20
BRANCH  11  31
HETATM   31  O2  UNL     1     -30.966   5.251 -31.484  1.00  0.00    -0.392 OA
ATOM     32  H2  UNL     1     -30.471   4.844 -30.782  1.00  0.00     0.210 HD
ENDBRANCH  11  31
BRANCH  15  33
HETATM   33  O7  UNL     1     -31.047   5.911 -25.644  1.00  0.00    -0.311 OA
BRANCH  33  34
HETATM   34  C22 UNL     1     -30.538   4.753 -25.164  1.00  0.00     0.324 C 
HETATM   35  O8  UNL     1     -29.405   4.332 -25.530  1.00  0.00    -0.259 OA
BRANCH  34  36
HETATM   36  C23 UNL     1     -31.242   3.871 -24.178  1.00  0.00     0.272 C 
BRANCH  36  37
HETATM   37  O9  UNL     1     -30.303   3.634 -23.152  1.00  0.00    -0.356 OA
ATOM     38  H9  UNL     1     -30.791   3.205 -22.460  1.00  0.00     0.213 HD
ENDBRANCH  36  37
BRANCH  36  39
HETATM   39  O10 UNL     1     -32.386   4.460 -23.674  1.00  0.00    -0.356 OA
ATOM     40  H10 UNL     1     -32.265   4.779 -22.788  1.00  0.00     0.213 HD
ENDBRANCH  36  39
BRANCH  36  41
HETATM   41  C24 UNL     1     -31.603   2.542 -24.774  1.00  0.00     0.243 C 
BRANCH  41  42
HETATM   42  O11 UNL     1     -32.344   1.729 -23.932  1.00  0.00    -0.395 OA
ATOM     43  H11 UNL     1     -33.272   1.705 -24.134  1.00  0.00     0.209 HD
ENDBRANCH  41  42
ENDBRANCH  36  41
ENDBRANCH  34  36
ENDBRANCH  33  34
ENDBRANCH  15  33
BRANCH  10  44
HETATM   44  O1  UNL     1     -33.808   4.837 -32.592  1.00  0.00    -0.393 OA
ATOM     45  H1  UNL     1     -33.606   4.614 -33.493  1.00  0.00     0.210 HD
ENDBRANCH  10  44
TORSDOF 17
ENDMDL
MODEL 2
REMARK VINA RESULT: -7.566881528      0.960      1.341
REMARK  17 active torsions:
REMARK  status: ('A' for Active; 'I' for Inactive)
REMARK    1  A    between atoms: C10_10  and  O1_11 
REMARK    2  A    between atoms: C11_13  and  O2_14 
REMARK    3  A    between atoms: C13_17  and  O3_18 
REMARK    4  A    between atoms: C13_17  and  C14_20 
REMARK    5  A    between atoms: C14_20  and  C15_22 
REMARK    6  A    between atoms: C15_22  and  C16_23 
REMARK    7  A    between atoms: C16_23  and  C17_24 
REMARK    8  A    between atoms: C17_24  and  C18_25 
REMARK    9  A    between atoms: C18_25  and  O5_27 
REMARK   10  A    between atoms: C18_25  and  O6_29 
REMARK   11  A    between atoms: C21_32  and  O7_33 
REMARK   12  A    between atoms: O7_33  and  C22_34 
REMARK   13  A    between atoms: C22_34  and  C23_36 
REMARK   14  A    between atoms: C23_36  and  O9_37 
REMARK   15  A    between atoms: C23_36  and  O10_39 
REMARK   16  A    between atoms: C23_36  and  C24_41 
REMARK   17  A    between atoms: C24_41  and  O11_42 
ROOT
HETATM    1  C1  UNL     1     -30.968  10.938 -27.118  1.00  0.00     0.043 C 
HETATM    2  C2  UNL     1     -30.846   9.468 -27.089  1.00  0.00    -0.081 C 
HETATM    3  C3  UNL     1     -31.747   8.599 -27.519  1.00  0.00    -0.068 C 
HETATM    4  C4  UNL     1     -32.849   9.456 -28.006  1.00  0.00     0.035 C 
HETATM    5  C5  UNL     1     -33.841   8.698 -28.883  1.00  0.00     0.009 C 
HETATM    6  C6  UNL     1     -33.233   8.571 -30.222  1.00  0.00    -0.014 C 
HETATM    7  C7  UNL     1     -34.309   8.995 -31.244  1.00  0.00     0.010 C 
HETATM    8  C8  UNL     1     -32.660   7.307 -30.628  1.00  0.00     0.002 C 
HETATM    9  C9  UNL     1     -33.702   6.587 -31.516  1.00  0.00     0.039 C 
HETATM   10  C10 UNL     1     -32.954   5.338 -31.805  1.00  0.00     0.147 C 
HETATM   11  C11 UNL     1     -32.256   5.042 -30.496  1.00  0.00     0.154 C 
HETATM   12  C12 UNL     1     -32.285   6.257 -29.636  1.00  0.00     0.064 C 
HETATM   13  C13 UNL     1     -31.085   6.545 -28.798  1.00  0.00     0.134 C 
HETATM   14  C20 UNL     1     -31.529   7.112 -27.451  1.00  0.00     0.087 C 
HETATM   15  C21 UNL     1     -30.745   6.708 -26.265  1.00  0.00     0.144 C 
HETATM   16  C25 UNL     1     -30.117   7.895 -25.495  1.00  0.00     0.037 C 
HETATM   17  C26 UNL     1     -29.609   8.865 -26.504  1.00  0.00     0.036 C 
ENDROOT
BRANCH  13  18
HETATM   18  O3  UNL     1     -30.291   7.442 -29.502  1.00  0.00    -0.381 OA
ATOM     19  H3  UNL     1     -29.668   7.814 -28.888  1.00  0.00     0.211 HD
ENDBRANCH  13  18
BRANCH  13  20
HETATM   20  C14 UNL     1     -30.235   5.363 -28.525  1.00  0.00     0.162 C 
HETATM   21  O4  UNL     1     -30.843   4.402 -28.017  1.00  0.00    -0.295 OA
BRANCH  20  22
HETATM   22  C15 UNL     1     -28.822   5.142 -28.750  1.00  0.00     0.082 C 
BRANCH  22  23
HETATM   23  C16 UNL     1     -28.167   5.793 -29.902  1.00  0.00     0.013 C 
BRANCH  23  24
HETATM   24  C17 UNL     1     -27.510   4.664 -30.718  1.00  0.00     0.068 C 
BRANCH  24  25
HETATM   25  C18 UNL     1     -27.749   4.848 -32.190  1.00  0.00     0.155 C 
HETATM   26  C19 UNL     1     -27.879   3.468 -32.794  1.00  0.00     0.078 C 
BRANCH  25  27
HETATM   27  O5  UNL     1     -26.663   5.463 -32.821  1.00  0.00    -0.366 OA
ATOM     28  H5  UNL     1     -26.929   6.226 -33.320  1.00  0.00     0.213 HD
ENDBRANCH  25  27
BRANCH  25  29
HETATM   29  O6  UNL     1     -28.894   5.575 -32.485  1.00  0.00    -0.366 OA
ATOM     30  H6  UNL     1     -29.480   5.138 -33.091  1.00  0.00     0.213 HD
ENDBRANCH  25  29
ENDBRANCH  24  25
ENDBRANCH  23  24
ENDBRANCH  22  23
ENDBRANCH  20  22
ENDBRANCH  13  20
BRANCH  11  31
HETATM   31  O2  UNL     1     -31.020   4.573 -30.860  1.00  0.00    -0.392 OA
ATOM     32  H2  UNL     1     -30.413   5.019 -30.280  1.00  0.00     0.210 HD
ENDBRANCH  11  31
BRANCH  15  33
HETATM   33  O7  UNL     1     -31.580   6.148 -25.225  1.00  0.00    -0.311 OA
BRANCH  33  34
HETATM   34  C22 UNL     1     -31.123   5.302 -24.273  1.00  0.00     0.324 C 
HETATM   35  O8  UNL     1     -30.804   5.716 -23.124  1.00  0.00    -0.259 OA
BRANCH  34  36
HETATM   36  C23 UNL     1     -30.951   3.826 -24.474  1.00  0.00     0.272 C 
BRANCH  36  37
HETATM   37  O9  UNL     1     -32.009   3.438 -25.320  1.00  0.00    -0.356 OA
ATOM     38  H9  UNL     1     -31.967   4.028 -26.063  1.00  0.00     0.213 HD
ENDBRANCH  36  37
BRANCH  36  39
HETATM   39  O10 UNL     1     -29.728   3.515 -25.037  1.00  0.00    -0.356 OA
ATOM     40  H10 UNL     1     -29.819   3.015 -25.840  1.00  0.00     0.213 HD
ENDBRANCH  36  39
BRANCH  36  41
HETATM   41  C24 UNL     1     -31.099   3.066 -23.189  1.00  0.00     0.243 C 
BRANCH  41  42
HETATM   42  O11 UNL     1     -29.922   2.942 -22.467  1.00  0.00    -0.395 OA
ATOM     43  H11 UNL     1     -30.046   2.920 -21.526  1.00  0.00     0.209 HD
ENDBRANCH  41  42
ENDBRANCH  36  41
ENDBRANCH  34  36
ENDBRANCH  33  34
ENDBRANCH  15  33
BRANCH  10  44
HETATM   44  O1  UNL     1     -33.772   4.285 -32.210  1.00  0.00    -0.393 OA
ATOM     45  H1  UNL     1     -33.957   3.664 -31.516  1.00  0.00     0.210 HD
ENDBRANCH  10  44
TORSDOF 17
ENDMDL
MODEL 3
REMARK VINA RESULT: -7.476158015      2.122      6.051
REMARK  17 active torsions:
REMARK  status: ('A' for Active; 'I' for Inactive)
REMARK    1  A    between atoms: C10_10  and  O1_11 
REMARK    2  A    between atoms: C11_13  and  O2_14 
REMARK    3  A    between atoms: C13_17  and  O3_18 
REMARK    4  A    between atoms: C13_17  and  C14_20 
REMARK    5  A    between atoms: C14_20  and  C15_22 
REMARK    6  A    between atoms: C15_22  and  C16_23 
REMARK    7  A    between atoms: C16_23  and  C17_24 
REMARK    8  A    between atoms: C17_24  and  C18_25 
REMARK    9  A    between atoms: C18_25  and  O5_27 
REMARK   10  A    between atoms: C18_25  and  O6_29 
REMARK   11  A    between atoms: C21_32  and  O7_33 
REMARK   12  A    between atoms: O7_33  and  C22_34 
REMARK   13  A    between atoms: C22_34  and  C23_36 
REMARK   14  A    between atoms: C23_36  and  O9_37 
REMARK   15  A    between atoms: C23_36  and  O10_39 
REMARK   16  A    between atoms: C23_36  and  C24_41 
REMARK   17  A    between atoms: C24_41  and  O11_42 
ROOT
HETATM    1  C1  UNL     1     -28.005   4.305 -32.997  1.00  0.00     0.043 C 
HETATM    2  C2  UNL     1     -28.731   4.851 -31.835  1.00  0.00    -0.081 C 
HETATM    3  C3  UNL     1     -29.894   5.484 -31.865  1.00  0.00    -0.068 C 
HETATM    4  C4  UNL     1     -30.245   5.495 -33.302  1.00  0.00     0.035 C 
HETATM    5  C5  UNL     1     -31.710   5.841 -33.547  1.00  0.00     0.009 C 
HETATM    6  C6  UNL     1     -32.498   4.623 -33.275  1.00  0.00    -0.014 C 
HETATM    7  C7  UNL     1     -33.463   4.441 -34.466  1.00  0.00     0.010 C 
HETATM    8  C8  UNL     1     -33.240   4.515 -32.039  1.00  0.00     0.002 C 
HETATM    9  C9  UNL     1     -34.714   4.869 -32.347  1.00  0.00     0.039 C 
HETATM   10  C10 UNL     1     -35.289   4.723 -30.986  1.00  0.00     0.147 C 
HETATM   11  C11 UNL     1     -34.204   5.281 -30.091  1.00  0.00     0.154 C 
HETATM   12  C12 UNL     1     -32.931   5.373 -30.858  1.00  0.00     0.064 C 
HETATM   13  C13 UNL     1     -31.662   5.064 -30.137  1.00  0.00     0.134 C 
HETATM   14  C20 UNL     1     -30.560   6.004 -30.621  1.00  0.00     0.087 C 
HETATM   15  C21 UNL     1     -29.588   6.470 -29.610  1.00  0.00     0.144 C 
HETATM   16  C25 UNL     1     -28.120   6.103 -29.937  1.00  0.00     0.037 C 
HETATM   17  C26 UNL     1     -28.115   4.717 -30.480  1.00  0.00     0.036 C 
ENDROOT
BRANCH  13  18
HETATM   18  O3  UNL     1     -31.354   3.731 -30.387  1.00  0.00    -0.381 OA
ATOM     19  H3  UNL     1     -31.148   3.325 -29.553  1.00  0.00     0.211 HD
ENDBRANCH  13  18
BRANCH  13  20
HETATM   20  C14 UNL     1     -31.749   5.201 -28.664  1.00  0.00     0.162 C 
HETATM   21  O4  UNL     1     -32.374   6.206 -28.280  1.00  0.00    -0.295 OA
BRANCH  20  22
HETATM   22  C15 UNL     1     -31.229   4.362 -27.604  1.00  0.00     0.082 C 
BRANCH  22  23
HETATM   23  C16 UNL     1     -30.532   4.992 -26.465  1.00  0.00     0.013 C 
BRANCH  23  24
HETATM   24  C17 UNL     1     -30.146   3.846 -25.511  1.00  0.00     0.068 C 
BRANCH  24  25
HETATM   25  C18 UNL     1     -30.999   3.859 -24.274  1.00  0.00     0.155 C 
HETATM   26  C19 UNL     1     -31.253   5.309 -23.927  1.00  0.00     0.078 C 
BRANCH  25  27
HETATM   27  O5  UNL     1     -30.338   3.293 -23.180  1.00  0.00    -0.366 OA
ATOM     28  H5  UNL     1     -30.648   3.650 -22.356  1.00  0.00     0.213 HD
ENDBRANCH  25  27
BRANCH  25  29
HETATM   29  O6  UNL     1     -32.218   3.216 -24.429  1.00  0.00    -0.366 OA
ATOM     30  H6  UNL     1     -32.720   3.147 -23.625  1.00  0.00     0.213 HD
ENDBRANCH  25  29
ENDBRANCH  24  25
ENDBRANCH  23  24
ENDBRANCH  22  23
ENDBRANCH  20  22
ENDBRANCH  13  20
BRANCH  11  31
HETATM   31  O2  UNL     1     -34.206   4.460 -28.992  1.00  0.00    -0.392 OA
ATOM     32  H2  UNL     1     -35.100   4.491 -28.671  1.00  0.00     0.210 HD
ENDBRANCH  11  31
BRANCH  15  33
HETATM   33  O7  UNL     1     -29.485   7.912 -29.577  1.00  0.00    -0.311 OA
BRANCH  33  34
HETATM   34  C22 UNL     1     -30.322   8.706 -28.870  1.00  0.00     0.324 C 
HETATM   35  O8  UNL     1     -31.272   9.323 -29.428  1.00  0.00    -0.259 OA
BRANCH  34  36
HETATM   36  C23 UNL     1     -30.214   8.934 -27.392  1.00  0.00     0.272 C 
BRANCH  36  37
HETATM   37  O9  UNL     1     -31.287   8.217 -26.824  1.00  0.00    -0.356 OA
ATOM     38  H9  UNL     1     -31.578   7.620 -27.503  1.00  0.00     0.213 HD
ENDBRANCH  36  37
BRANCH  36  39
HETATM   39  O10 UNL     1     -29.005   8.500 -26.884  1.00  0.00    -0.356 OA
ATOM     40  H10 UNL     1     -28.461   9.219 -26.586  1.00  0.00     0.213 HD
ENDBRANCH  36  39
BRANCH  36  41
HETATM   41  C24 UNL     1     -30.399  10.379 -27.034  1.00  0.00     0.243 C 
BRANCH  41  42
HETATM   42  O11 UNL     1     -29.345  10.921 -26.315  1.00  0.00    -0.395 OA
ATOM     43  H11 UNL     1     -29.610  11.555 -25.659  1.00  0.00     0.209 HD
ENDBRANCH  41  42
ENDBRANCH  36  41
ENDBRANCH  34  36
ENDBRANCH  33  34
ENDBRANCH  15  33
BRANCH  10  44
HETATM   44  O1  UNL     1     -36.498   5.396 -30.822  1.00  0.00    -0.393 OA
ATOM     45  H1  UNL     1     -36.990   5.108 -30.062  1.00  0.00     0.210 HD
ENDBRANCH  10  44
TORSDOF 17
ENDMDL
MODEL 4
REMARK VINA RESULT: -7.420760751      0.559      1.072
REMARK  17 active torsions:
REMARK  status: ('A' for Active; 'I' for Inactive)
REMARK    1  A    between atoms: C10_10  and  O1_11 
REMARK    2  A    between atoms: C11_13  and  O2_14 
REMARK    3  A    between atoms: C13_17  and  O3_18 
REMARK    4  A    between atoms: C13_17  and  C14_20 
REMARK    5  A    between atoms: C14_20  and  C15_22 
REMARK    6  A    between atoms: C15_22  and  C16_23 
REMARK    7  A    between atoms: C16_23  and  C17_24 
REMARK    8  A    between atoms: C17_24  and  C18_25 
REMARK    9  A    between atoms: C18_25  and  O5_27 
REMARK   10  A    between atoms: C18_25  and  O6_29 
REMARK   11  A    between atoms: C21_32  and  O7_33 
REMARK   12  A    between atoms: O7_33  and  C22_34 
REMARK   13  A    between atoms: C22_34  and  C23_36 
REMARK   14  A    between atoms: C23_36  and  O9_37 
REMARK   15  A    between atoms: C23_36  and  O10_39 
REMARK   16  A    between atoms: C23_36  and  C24_41 
REMARK   17  A    between atoms: C24_41  and  O11_42 
ROOT
HETATM    1  C1  UNL     1     -31.061  10.772 -26.630  1.00  0.00     0.043 C 
HETATM    2  C2  UNL     1     -30.815   9.356 -26.959  1.00  0.00    -0.081 C 
HETATM    3  C3  UNL     1     -31.660   8.533 -27.561  1.00  0.00    -0.068 C 
HETATM    4  C4  UNL     1     -32.853   9.375 -27.798  1.00  0.00     0.035 C 
HETATM    5  C5  UNL     1     -33.819   8.758 -28.803  1.00  0.00     0.009 C 
HETATM    6  C6  UNL     1     -33.268   9.010 -30.150  1.00  0.00    -0.014 C 
HETATM    7  C7  UNL     1     -34.425   9.561 -31.010  1.00  0.00     0.010 C 
HETATM    8  C8  UNL     1     -32.613   7.937 -30.863  1.00  0.00     0.002 C 
HETATM    9  C9  UNL     1     -33.632   7.355 -31.870  1.00  0.00     0.039 C 
HETATM   10  C10 UNL     1     -32.797   6.285 -32.472  1.00  0.00     0.147 C 
HETATM   11  C11 UNL     1     -32.014   5.753 -31.291  1.00  0.00     0.154 C 
HETATM   12  C12 UNL     1     -32.103   6.721 -30.163  1.00  0.00     0.064 C 
HETATM   13  C13 UNL     1     -30.892   6.912 -29.314  1.00  0.00     0.134 C 
HETATM   14  C20 UNL     1     -31.315   7.100 -27.859  1.00  0.00     0.087 C 
HETATM   15  C21 UNL     1     -30.443   6.501 -26.827  1.00  0.00     0.144 C 
HETATM   16  C25 UNL     1     -29.881   7.524 -25.811  1.00  0.00     0.037 C 
HETATM   17  C26 UNL     1     -29.505   8.748 -26.571  1.00  0.00     0.036 C 
ENDROOT
BRANCH  13  18
HETATM   18  O3  UNL     1     -30.210   8.021 -29.803  1.00  0.00    -0.381 OA
ATOM     19  H3  UNL     1     -29.353   7.726 -30.087  1.00  0.00     0.211 HD
ENDBRANCH  13  18
BRANCH  13  20
HETATM   20  C14 UNL     1     -29.934   5.783 -29.357  1.00  0.00     0.162 C 
HETATM   21  O4  UNL     1     -30.449   4.667 -29.166  1.00  0.00    -0.295 OA
BRANCH  20  22
HETATM   22  C15 UNL     1     -28.503   5.765 -29.583  1.00  0.00     0.082 C 
BRANCH  22  23
HETATM   23  C16 UNL     1     -27.918   4.683 -30.398  1.00  0.00     0.013 C 
BRANCH  23  24
HETATM   24  C17 UNL     1     -27.194   5.371 -31.571  1.00  0.00     0.068 C 
BRANCH  24  25
HETATM   25  C18 UNL     1     -27.483   4.674 -32.871  1.00  0.00     0.155 C 
HETATM   26  C19 UNL     1     -26.193   4.655 -33.659  1.00  0.00     0.078 C 
BRANCH  25  27
HETATM   27  O5  UNL     1     -28.416   5.375 -33.642  1.00  0.00    -0.366 OA
ATOM     28  H5  UNL     1     -27.995   5.963 -34.258  1.00  0.00     0.213 HD
ENDBRANCH  25  27
BRANCH  25  29
HETATM   29  O6  UNL     1     -27.934   3.371 -32.719  1.00  0.00    -0.366 OA
ATOM     30  H6  UNL     1     -27.844   2.840 -33.502  1.00  0.00     0.213 HD
ENDBRANCH  25  29
ENDBRANCH  24  25
ENDBRANCH  23  24
ENDBRANCH  22  23
ENDBRANCH  20  22
ENDBRANCH  13  20
BRANCH  11  31
HETATM   31  O2  UNL     1     -30.762   5.501 -31.791  1.00  0.00    -0.392 OA
ATOM     32  H2  UNL     1     -30.492   4.694 -31.367  1.00  0.00     0.210 HD
ENDBRANCH  11  31
BRANCH  15  33
HETATM   33  O7  UNL     1     -31.177   5.634 -25.930  1.00  0.00    -0.311 OA
BRANCH  33  34
HETATM   34  C22 UNL     1     -30.666   4.497 -25.403  1.00  0.00     0.324 C 
HETATM   35  O8  UNL     1     -29.639   3.950 -25.892  1.00  0.00    -0.259 OA
BRANCH  34  36
HETATM   36  C23 UNL     1     -31.248   3.786 -24.219  1.00  0.00     0.272 C 
BRANCH  36  37
HETATM   37  O9  UNL     1     -32.124   2.821 -24.757  1.00  0.00    -0.356 OA
ATOM     38  H9  UNL     1     -32.200   2.150 -24.089  1.00  0.00     0.213 HD
ENDBRANCH  36  37
BRANCH  36  39
HETATM   39  O10 UNL     1     -30.276   3.190 -23.438  1.00  0.00    -0.356 OA
ATOM     40  H10 UNL     1     -30.517   2.311 -23.174  1.00  0.00     0.213 HD
ENDBRANCH  36  39
BRANCH  36  41
HETATM   41  C24 UNL     1     -32.063   4.706 -23.359  1.00  0.00     0.243 C 
BRANCH  41  42
HETATM   42  O11 UNL     1     -31.425   5.895 -23.042  1.00  0.00    -0.395 OA
ATOM     43  H11 UNL     1     -32.005   6.646 -23.000  1.00  0.00     0.209 HD
ENDBRANCH  41  42
ENDBRANCH  36  41
ENDBRANCH  34  36
ENDBRANCH  33  34
ENDBRANCH  15  33
BRANCH  10  44
HETATM   44  O1  UNL     1     -33.542   5.287 -33.095  1.00  0.00    -0.393 OA
ATOM     45  H1  UNL     1     -33.395   5.236 -34.032  1.00  0.00     0.210 HD
ENDBRANCH  10  44
TORSDOF 17
ENDMDL
MODEL 5
REMARK VINA RESULT: -7.272163014      1.619      6.730
REMARK  17 active torsions:
REMARK  status: ('A' for Active; 'I' for Inactive)
REMARK    1  A    between atoms: C10_10  and  O1_11 
REMARK    2  A    between atoms: C11_13  and  O2_14 
REMARK    3  A    between atoms: C13_17  and  O3_18 
REMARK    4  A    between atoms: C13_17  and  C14_20 
REMARK    5  A    between atoms: C14_20  and  C15_22 
REMARK    6  A    between atoms: C15_22  and  C16_23 
REMARK    7  A    between atoms: C16_23  and  C17_24 
REMARK    8  A    between atoms: C17_24  and  C18_25 
REMARK    9  A    between atoms: C18_25  and  O5_27 
REMARK   10  A    between atoms: C18_25  and  O6_29 
REMARK   11  A    between atoms: C21_32  and  O7_33 
REMARK   12  A    between atoms: O7_33  and  C22_34 
REMARK   13  A    between atoms: C22_34  and  C23_36 
REMARK   14  A    between atoms: C23_36  and  O9_37 
REMARK   15  A    between atoms: C23_36  and  O10_39 
REMARK   16  A    between atoms: C23_36  and  C24_41 
REMARK   17  A    between atoms: C24_41  and  O11_42 
ROOT
HETATM    1  C1  UNL     1     -34.751   6.246 -32.034  1.00  0.00     0.043 C 
HETATM    2  C2  UNL     1     -33.433   6.082 -31.391  1.00  0.00    -0.081 C 
HETATM    3  C3  UNL     1     -32.588   7.051 -31.079  1.00  0.00    -0.068 C 
HETATM    4  C4  UNL     1     -33.285   8.276 -31.527  1.00  0.00     0.035 C 
HETATM    5  C5  UNL     1     -32.676   9.547 -30.944  1.00  0.00     0.009 C 
HETATM    6  C6  UNL     1     -33.168   9.671 -29.557  1.00  0.00    -0.014 C 
HETATM    7  C7  UNL     1     -33.663  11.122 -29.387  1.00  0.00     0.010 C 
HETATM    8  C8  UNL     1     -32.291   9.333 -28.457  1.00  0.00     0.002 C 
HETATM    9  C9  UNL     1     -31.710  10.654 -27.902  1.00  0.00     0.039 C 
HETATM   10  C10 UNL     1     -30.847  10.107 -26.825  1.00  0.00     0.147 C 
HETATM   11  C11 UNL     1     -30.280   8.848 -27.443  1.00  0.00     0.154 C 
HETATM   12  C12 UNL     1     -31.077   8.488 -28.649  1.00  0.00     0.064 C 
HETATM   13  C13 UNL     1     -31.319   7.040 -28.915  1.00  0.00     0.134 C 
HETATM   14  C20 UNL     1     -31.263   6.783 -30.419  1.00  0.00     0.087 C 
HETATM   15  C21 UNL     1     -30.661   5.506 -30.856  1.00  0.00     0.144 C 
HETATM   16  C25 UNL     1     -31.614   4.618 -31.691  1.00  0.00     0.037 C 
HETATM   17  C26 UNL     1     -32.963   4.699 -31.068  1.00  0.00     0.036 C 
ENDROOT
BRANCH  13  18
HETATM   18  O3  UNL     1     -32.563   6.721 -28.380  1.00  0.00    -0.381 OA
ATOM     19  H3  UNL     1     -33.025   6.198 -29.025  1.00  0.00     0.211 HD
ENDBRANCH  13  18
BRANCH  13  20
HETATM   20  C14 UNL     1     -30.344   6.131 -28.270  1.00  0.00     0.162 C 
HETATM   21  O4  UNL     1     -29.158   6.490 -28.381  1.00  0.00    -0.295 OA
BRANCH  20  22
HETATM   22  C15 UNL     1     -30.543   4.898 -27.535  1.00  0.00     0.082 C 
BRANCH  22  23
HETATM   23  C16 UNL     1     -29.828   4.699 -26.259  1.00  0.00     0.013 C 
BRANCH  23  24
HETATM   24  C17 UNL     1     -30.445   3.443 -25.613  1.00  0.00     0.068 C 
BRANCH  24  25
HETATM   25  C18 UNL     1     -31.052   3.763 -24.277  1.00  0.00     0.155 C 
HETATM   26  C19 UNL     1     -31.060   5.270 -24.144  1.00  0.00     0.078 C 
BRANCH  25  27
HETATM   27  O5  UNL     1     -30.278   3.270 -23.222  1.00  0.00    -0.366 OA
ATOM     28  H5  UNL     1     -29.824   2.470 -23.460  1.00  0.00     0.213 HD
ENDBRANCH  25  27
BRANCH  25  29
HETATM   29  O6  UNL     1     -32.348   3.294 -24.124  1.00  0.00    -0.366 OA
ATOM     30  H6  UNL     1     -33.012   3.969 -24.198  1.00  0.00     0.213 HD
ENDBRANCH  25  29
ENDBRANCH  24  25
ENDBRANCH  23  24
ENDBRANCH  22  23
ENDBRANCH  20  22
ENDBRANCH  13  20
BRANCH  11  31
HETATM   31  O2  UNL     1     -30.264   7.936 -26.419  1.00  0.00    -0.392 OA
ATOM     32  H2  UNL     1     -31.138   7.563 -26.416  1.00  0.00     0.210 HD
ENDBRANCH  11  31
BRANCH  15  33
HETATM   33  O7  UNL     1     -29.597   5.706 -31.816  1.00  0.00    -0.311 OA
BRANCH  33  34
HETATM   34  C22 UNL     1     -28.452   4.984 -31.825  1.00  0.00     0.324 C 
HETATM   35  O8  UNL     1     -27.817   4.744 -30.760  1.00  0.00    -0.259 OA
BRANCH  34  36
HETATM   36  C23 UNL     1     -27.831   4.411 -33.063  1.00  0.00     0.272 C 
BRANCH  36  37
HETATM   37  O9  UNL     1     -27.491   3.084 -32.730  1.00  0.00    -0.356 OA
ATOM     38  H9  UNL     1     -26.686   2.905 -33.200  1.00  0.00     0.213 HD
ENDBRANCH  36  37
BRANCH  36  39
HETATM   39  O10 UNL     1     -28.693   4.445 -34.143  1.00  0.00    -0.356 OA
ATOM     40  H10 UNL     1     -28.815   3.587 -34.531  1.00  0.00     0.213 HD
ENDBRANCH  36  39
BRANCH  36  41
HETATM   41  C24 UNL     1     -26.563   5.122 -33.433  1.00  0.00     0.243 C 
BRANCH  41  42
HETATM   42  O11 UNL     1     -25.730   5.388 -32.357  1.00  0.00    -0.395 OA
ATOM     43  H11 UNL     1     -24.817   5.176 -32.513  1.00  0.00     0.209 HD
ENDBRANCH  41  42
ENDBRANCH  36  41
ENDBRANCH  34  36
ENDBRANCH  33  34
ENDBRANCH  15  33
BRANCH  10  44
HETATM   44  O1  UNL     1     -29.845  10.986 -26.420  1.00  0.00    -0.393 OA
ATOM     45  H1  UNL     1     -29.112  11.026 -27.023  1.00  0.00     0.210 HD
ENDBRANCH  10  44
TORSDOF 17
ENDMDL
