MODEL 1
REMARK VINA RESULT: -6.927975482      0.000      0.000
REMARK  16 active torsions:
REMARK  status: ('A' for Active; 'I' for Inactive)
REMARK    1  A    between atoms: C2_2  and  C3_3 
REMARK    2  A    between atoms: C3_3  and  C4_4 
REMARK    3  A    between atoms: C4_4  and  O2_6 
REMARK    4  A    between atoms: O2_6  and  C5_7 
REMARK    5  A    between atoms: C5_7  and  C6_8 
REMARK    6  A    between atoms: C10_12  and  O3_13 
REMARK    7  A    between atoms: C13_17  and  O4_18 
REMARK    8  A    between atoms: C13_17  and  C14_20 
REMARK    9  A    between atoms: C14_20  and  O5_22 
REMARK   10  A    between atoms: C16_24  and  C17_25 
REMARK   11  A    between atoms: C17_25  and  C18_26 
REMARK   12  A    between atoms: C18_26  and  N1_27 
REMARK   13  A    between atoms: C18_26  and  C19_31 
REMARK   14  A    between atoms: C21_35  and  O8_36 
REMARK   15  A    between atoms: C25_41  and  O9_42 
REMARK   16  A    between atoms: N2_44  and  O10_46 
ROOT
HETATM    1  C6  UNL     1     -29.958   6.063 -27.944  1.00  0.00    -0.030 C 
HETATM    2  C7  UNL     1     -30.583   6.902 -28.712  1.00  0.00    -0.007 C 
HETATM    3  C8  UNL     1     -31.455   8.046 -28.245  1.00  0.00     0.010 C 
HETATM    4  C9  UNL     1     -31.288   9.038 -29.391  1.00  0.00     0.023 C 
HETATM    5  C10 UNL     1     -32.845   7.549 -28.295  1.00  0.00     0.131 C 
HETATM    6  C11 UNL     1     -33.757   7.965 -27.153  1.00  0.00     0.043 C 
HETATM    7  C12 UNL     1     -33.402   9.313 -26.739  1.00  0.00     0.060 C 
HETATM    8  C13 UNL     1     -34.229   9.904 -25.570  1.00  0.00     0.093 C 
HETATM    9  C16 UNL     1     -33.782   9.137 -24.428  1.00  0.00     0.028 C 
HETATM   10  C20 UNL     1     -32.332   8.696 -24.800  1.00  0.00     0.047 C 
HETATM   11  C21 UNL     1     -32.025   9.275 -26.123  1.00  0.00     0.073 C 
HETATM   12  C22 UNL     1     -30.977   8.592 -26.936  1.00  0.00     0.003 C 
HETATM   13  C23 UNL     1     -30.004   9.717 -27.351  1.00  0.00     0.020 C 
HETATM   14  C24 UNL     1     -30.127   7.663 -26.129  1.00  0.00     0.049 C 
HETATM   15  C25 UNL     1     -30.127   6.241 -26.481  1.00  0.00     0.150 C 
ENDROOT
BRANCH   1  16
HETATM   16  C5  UNL     1     -29.117   4.964 -28.515  1.00  0.00     0.215 C 
BRANCH  16  17
HETATM   17  O2  UNL     1     -29.183   4.959 -29.929  1.00  0.00    -0.317 OA
BRANCH  17  18
HETATM   18  C4  UNL     1     -28.049   5.110 -30.706  1.00  0.00     0.264 C 
HETATM   19  O1  UNL     1     -27.274   6.103 -30.544  1.00  0.00    -0.265 OA
BRANCH  18  20
HETATM   20  C3  UNL     1     -27.744   4.082 -31.739  1.00  0.00     0.165 C 
BRANCH  20  21
HETATM   21  C2  UNL     1     -27.755   4.813 -33.041  1.00  0.00     0.015 C 
HETATM   22  C1  UNL     1     -29.012   4.894 -33.827  1.00  0.00     0.066 C 
HETATM   23  N2  UNL     1     -26.674   5.355 -33.450  1.00  0.00    -0.277 N 
ATOM     24  H2  UNL     1     -26.681   5.854 -34.339  1.00  0.00     0.193 HD
BRANCH  23  25
HETATM   25  O10 UNL     1     -25.516   5.289 -32.745  1.00  0.00    -0.290 OA
ATOM     26  H10 UNL     1     -24.926   6.029 -32.667  1.00  0.00     0.244 HD
ENDBRANCH  23  25
ENDBRANCH  20  21
ENDBRANCH  18  20
ENDBRANCH  17  18
ENDBRANCH  16  17
ENDBRANCH   1  16
BRANCH  15  27
HETATM   27  O9  UNL     1     -31.205   5.468 -26.096  1.00  0.00    -0.391 OA
ATOM     28  H9  UNL     1     -31.751   6.006 -25.534  1.00  0.00     0.210 HD
ENDBRANCH  15  27
BRANCH   5  29
HETATM   29  O3  UNL     1     -33.526   7.978 -29.464  1.00  0.00    -0.394 OA
ATOM     30  H3  UNL     1     -34.364   7.543 -29.571  1.00  0.00     0.210 HD
ENDBRANCH   5  29
BRANCH  11  31
HETATM   31  O8  UNL     1     -31.724  10.646 -25.881  1.00  0.00    -0.389 OA
ATOM     32  H8  UNL     1     -30.803  10.718 -26.102  1.00  0.00     0.210 HD
ENDBRANCH  11  31
BRANCH   8  33
HETATM   33  O4  UNL     1     -34.081  11.265 -25.596  1.00  0.00    -0.386 OA
ATOM     34  H4  UNL     1     -34.941  11.649 -25.720  1.00  0.00     0.210 HD
ENDBRANCH   8  33
BRANCH   8  35
HETATM   35  C14 UNL     1     -35.727   9.681 -25.883  1.00  0.00     0.149 C 
HETATM   36  C15 UNL     1     -36.499  10.967 -25.919  1.00  0.00     0.042 C 
BRANCH  35  37
HETATM   37  O5  UNL     1     -36.292   8.702 -25.108  1.00  0.00    -0.393 OA
ATOM     38  H5  UNL     1     -37.241   8.715 -25.132  1.00  0.00     0.210 HD
ENDBRANCH  35  37
ENDBRANCH   8  35
BRANCH   9  39
HETATM   39  C17 UNL     1     -33.876   9.496 -23.037  1.00  0.00     0.052 C 
BRANCH  39  40
HETATM   40  C18 UNL     1     -34.325   8.761 -21.890  1.00  0.00     0.283 C 
BRANCH  40  41
HETATM   41  N1  UNL     1     -35.782   8.390 -22.187  1.00  0.00    -0.065 N 
ATOM     42  H13 UNL     1     -36.124   8.751 -23.077  1.00  0.00     0.275 HD
ATOM     43  H12 UNL     1     -35.918   7.401 -22.398  1.00  0.00     0.275 HD
ATOM     44  H11 UNL     1     -36.315   8.714 -21.380  1.00  0.00     0.275 HD
ENDBRANCH  40  41
BRANCH  40  45
HETATM   45  C19 UNL     1     -34.441   9.399 -20.585  1.00  0.00     0.204 C 
HETATM   46  O6  UNL     1     -33.602   9.138 -19.649  1.00  0.00    -0.646 OA
HETATM   47  O7  UNL     1     -35.413  10.332 -20.208  1.00  0.00    -0.646 OA
ENDBRANCH  40  45
ENDBRANCH  39  40
ENDBRANCH   9  39
TORSDOF 16
ENDMDL
MODEL 2
REMARK VINA RESULT: -6.860204300      4.032      6.233
REMARK  16 active torsions:
REMARK  status: ('A' for Active; 'I' for Inactive)
REMARK    1  A    between atoms: C2_2  and  C3_3 
REMARK    2  A    between atoms: C3_3  and  C4_4 
REMARK    3  A    between atoms: C4_4  and  O2_6 
REMARK    4  A    between atoms: O2_6  and  C5_7 
REMARK    5  A    between atoms: C5_7  and  C6_8 
REMARK    6  A    between atoms: C10_12  and  O3_13 
REMARK    7  A    between atoms: C13_17  and  O4_18 
REMARK    8  A    between atoms: C13_17  and  C14_20 
REMARK    9  A    between atoms: C14_20  and  O5_22 
REMARK   10  A    between atoms: C16_24  and  C17_25 
REMARK   11  A    between atoms: C17_25  and  C18_26 
REMARK   12  A    between atoms: C18_26  and  N1_27 
REMARK   13  A    between atoms: C18_26  and  C19_31 
REMARK   14  A    between atoms: C21_35  and  O8_36 
REMARK   15  A    between atoms: C25_41  and  O9_42 
REMARK   16  A    between atoms: N2_44  and  O10_46 
ROOT
HETATM    1  C6  UNL     1     -33.858   8.652 -25.702  1.00  0.00    -0.030 C 
HETATM    2  C7  UNL     1     -35.129   8.660 -25.962  1.00  0.00    -0.007 C 
HETATM    3  C8  UNL     1     -36.216   9.170 -25.043  1.00  0.00     0.010 C 
HETATM    4  C9  UNL     1     -37.273   9.618 -26.047  1.00  0.00     0.023 C 
HETATM    5  C10 UNL     1     -36.752   7.985 -24.343  1.00  0.00     0.131 C 
HETATM    6  C11 UNL     1     -37.085   8.158 -22.870  1.00  0.00     0.043 C 
HETATM    7  C12 UNL     1     -37.586   9.508 -22.661  1.00  0.00     0.060 C 
HETATM    8  C13 UNL     1     -37.972   9.870 -21.205  1.00  0.00     0.093 C 
HETATM    9  C16 UNL     1     -36.695   9.941 -20.532  1.00  0.00     0.028 C 
HETATM   10  C20 UNL     1     -35.682  10.318 -21.659  1.00  0.00     0.047 C 
HETATM   11  C21 UNL     1     -36.456  10.478 -22.905  1.00  0.00     0.073 C 
HETATM   12  C22 UNL     1     -35.719  10.295 -24.190  1.00  0.00     0.003 C 
HETATM   13  C23 UNL     1     -36.057  11.552 -25.020  1.00  0.00     0.020 C 
HETATM   14  C24 UNL     1     -34.234  10.364 -24.024  1.00  0.00     0.049 C 
HETATM   15  C25 UNL     1     -33.442   9.184 -24.380  1.00  0.00     0.150 C 
ENDROOT
BRANCH   1  16
HETATM   16  C5  UNL     1     -32.864   8.122 -26.688  1.00  0.00     0.215 C 
BRANCH  16  17
HETATM   17  O2  UNL     1     -32.186   6.995 -26.165  1.00  0.00    -0.317 OA
BRANCH  17  18
HETATM   18  C4  UNL     1     -30.845   7.050 -25.828  1.00  0.00     0.264 C 
HETATM   19  O1  UNL     1     -30.026   7.733 -26.519  1.00  0.00    -0.265 OA
BRANCH  18  20
HETATM   20  C3  UNL     1     -30.372   6.296 -24.636  1.00  0.00     0.165 C 
BRANCH  20  21
HETATM   21  C2  UNL     1     -30.740   4.872 -24.895  1.00  0.00     0.015 C 
HETATM   22  C1  UNL     1     -29.854   4.025 -25.732  1.00  0.00     0.066 C 
HETATM   23  N2  UNL     1     -31.818   4.414 -24.386  1.00  0.00    -0.277 N 
ATOM     24  H2  UNL     1     -32.070   3.441 -24.563  1.00  0.00     0.193 HD
BRANCH  23  25
HETATM   25  O10 UNL     1     -32.640   5.174 -23.619  1.00  0.00    -0.290 OA
ATOM     26  H10 UNL     1     -32.440   5.388 -22.716  1.00  0.00     0.244 HD
ENDBRANCH  23  25
ENDBRANCH  20  21
ENDBRANCH  18  20
ENDBRANCH  17  18
ENDBRANCH  16  17
ENDBRANCH   1  16
BRANCH  15  27
HETATM   27  O9  UNL     1     -33.416   8.119 -23.501  1.00  0.00    -0.391 OA
ATOM     28  H9  UNL     1     -32.696   8.269 -22.898  1.00  0.00     0.210 HD
ENDBRANCH  15  27
BRANCH   5  29
HETATM   29  O3  UNL     1     -37.959   7.518 -24.925  1.00  0.00    -0.394 OA
ATOM     30  H3  UNL     1     -37.801   6.957 -25.676  1.00  0.00     0.210 HD
ENDBRANCH   5  29
BRANCH  11  31
HETATM   31  O8  UNL     1     -37.079  11.755 -22.808  1.00  0.00    -0.389 OA
ATOM     32  H8  UNL     1     -36.396  12.314 -22.457  1.00  0.00     0.210 HD
ENDBRANCH  11  31
BRANCH   8  33
HETATM   33  O4  UNL     1     -38.799  10.960 -21.248  1.00  0.00    -0.386 OA
ATOM     34  H4  UNL     1     -38.849  11.324 -20.372  1.00  0.00     0.210 HD
ENDBRANCH   8  33
BRANCH   8  35
HETATM   35  C14 UNL     1     -38.869   8.738 -20.653  1.00  0.00     0.149 C 
HETATM   36  C15 UNL     1     -40.219   9.237 -20.227  1.00  0.00     0.042 C 
BRANCH  35  37
HETATM   37  O5  UNL     1     -38.232   7.961 -19.721  1.00  0.00    -0.393 OA
ATOM     38  H5  UNL     1     -38.369   7.031 -19.860  1.00  0.00     0.210 HD
ENDBRANCH  35  37
ENDBRANCH   8  35
BRANCH   9  39
HETATM   39  C17 UNL     1     -36.384  10.626 -19.304  1.00  0.00     0.052 C 
BRANCH  39  40
HETATM   40  C18 UNL     1     -36.648  11.966 -18.864  1.00  0.00     0.283 C 
BRANCH  40  41
HETATM   41  N1  UNL     1     -38.168  12.045 -18.682  1.00  0.00    -0.065 N 
ATOM     42  H13 UNL     1     -38.695  11.796 -19.519  1.00  0.00     0.275 HD
ATOM     43  H12 UNL     1     -38.547  11.314 -18.080  1.00  0.00     0.275 HD
ATOM     44  H11 UNL     1     -38.353  12.990 -18.347  1.00  0.00     0.275 HD
ENDBRANCH  40  41
BRANCH  40  45
HETATM   45  C19 UNL     1     -36.393  13.106 -19.734  1.00  0.00     0.204 C 
HETATM   46  O6  UNL     1     -35.298  13.770 -19.644  1.00  0.00    -0.646 OA
HETATM   47  O7  UNL     1     -37.249  13.592 -20.728  1.00  0.00    -0.646 OA
ENDBRANCH  40  45
ENDBRANCH  39  40
ENDBRANCH   9  39
TORSDOF 16
ENDMDL
MODEL 3
REMARK VINA RESULT: -6.809596907      4.173      6.240
REMARK  16 active torsions:
REMARK  status: ('A' for Active; 'I' for Inactive)
REMARK    1  A    between atoms: C2_2  and  C3_3 
REMARK    2  A    between atoms: C3_3  and  C4_4 
REMARK    3  A    between atoms: C4_4  and  O2_6 
REMARK    4  A    between atoms: O2_6  and  C5_7 
REMARK    5  A    between atoms: C5_7  and  C6_8 
REMARK    6  A    between atoms: C10_12  and  O3_13 
REMARK    7  A    between atoms: C13_17  and  O4_18 
REMARK    8  A    between atoms: C13_17  and  C14_20 
REMARK    9  A    between atoms: C14_20  and  O5_22 
REMARK   10  A    between atoms: C16_24  and  C17_25 
REMARK   11  A    between atoms: C17_25  and  C18_26 
REMARK   12  A    between atoms: C18_26  and  N1_27 
REMARK   13  A    between atoms: C18_26  and  C19_31 
REMARK   14  A    between atoms: C21_35  and  O8_36 
REMARK   15  A    between atoms: C25_41  and  O9_42 
REMARK   16  A    between atoms: N2_44  and  O10_46 
ROOT
HETATM    1  C6  UNL     1     -33.465   8.503 -24.927  1.00  0.00    -0.030 C 
HETATM    2  C7  UNL     1     -34.693   8.453 -25.342  1.00  0.00    -0.007 C 
HETATM    3  C8  UNL     1     -35.899   8.980 -24.598  1.00  0.00     0.010 C 
HETATM    4  C9  UNL     1     -36.833   9.334 -25.751  1.00  0.00     0.023 C 
HETATM    5  C10 UNL     1     -36.488   7.820 -23.898  1.00  0.00     0.131 C 
HETATM    6  C11 UNL     1     -37.008   8.066 -22.492  1.00  0.00     0.043 C 
HETATM    7  C12 UNL     1     -37.565   9.408 -22.428  1.00  0.00     0.060 C 
HETATM    8  C13 UNL     1     -38.140   9.840 -21.056  1.00  0.00     0.093 C 
HETATM    9  C16 UNL     1     -36.960   9.992 -20.236  1.00  0.00     0.028 C 
HETATM   10  C20 UNL     1     -35.824  10.337 -21.250  1.00  0.00     0.047 C 
HETATM   11  C21 UNL     1     -36.439  10.399 -22.590  1.00  0.00     0.073 C 
HETATM   12  C22 UNL     1     -35.542  10.167 -23.760  1.00  0.00     0.003 C 
HETATM   13  C23 UNL     1     -35.806  11.363 -24.701  1.00  0.00     0.020 C 
HETATM   14  C24 UNL     1     -34.092  10.295 -23.416  1.00  0.00     0.049 C 
HETATM   15  C25 UNL     1     -33.231   9.123 -23.599  1.00  0.00     0.150 C 
ENDROOT
BRANCH   1  16
HETATM   16  C5  UNL     1     -32.342   7.951 -25.748  1.00  0.00     0.215 C 
BRANCH  16  17
HETATM   17  O2  UNL     1     -31.306   7.455 -24.919  1.00  0.00    -0.317 OA
BRANCH  17  18
HETATM   18  C4  UNL     1     -30.960   6.116 -24.918  1.00  0.00     0.264 C 
HETATM   19  O1  UNL     1     -30.630   5.528 -23.841  1.00  0.00    -0.265 OA
BRANCH  18  20
HETATM   20  C3  UNL     1     -30.982   5.367 -26.204  1.00  0.00     0.165 C 
BRANCH  20  21
HETATM   21  C2  UNL     1     -30.215   4.113 -25.946  1.00  0.00     0.015 C 
HETATM   22  C1  UNL     1     -28.769   4.054 -26.278  1.00  0.00     0.066 C 
HETATM   23  N2  UNL     1     -30.826   3.112 -25.442  1.00  0.00    -0.277 N 
ATOM     24  H2  UNL     1     -30.303   2.254 -25.265  1.00  0.00     0.193 HD
BRANCH  23  25
HETATM   25  O10 UNL     1     -32.148   3.147 -25.133  1.00  0.00    -0.290 OA
ATOM     26  H10 UNL     1     -32.720   2.401 -25.261  1.00  0.00     0.244 HD
ENDBRANCH  23  25
ENDBRANCH  20  21
ENDBRANCH  18  20
ENDBRANCH  17  18
ENDBRANCH  16  17
ENDBRANCH   1  16
BRANCH  15  27
HETATM   27  O9  UNL     1     -33.288   8.112 -22.659  1.00  0.00    -0.391 OA
ATOM     28  H9  UNL     1     -33.145   7.293 -23.118  1.00  0.00     0.210 HD
ENDBRANCH  15  27
BRANCH   5  29
HETATM   29  O3  UNL     1     -37.600   7.280 -24.596  1.00  0.00    -0.394 OA
ATOM     30  H3  UNL     1     -38.044   6.605 -24.096  1.00  0.00     0.210 HD
ENDBRANCH   5  29
BRANCH  11  31
HETATM   31  O8  UNL     1     -37.102  11.659 -22.649  1.00  0.00    -0.389 OA
ATOM     32  H8  UNL     1     -37.178  11.832 -23.580  1.00  0.00     0.210 HD
ENDBRANCH  11  31
BRANCH   8  33
HETATM   33  O4  UNL     1     -38.983  10.898 -21.268  1.00  0.00    -0.386 OA
ATOM     34  H4  UNL     1     -39.474  11.045 -20.469  1.00  0.00     0.210 HD
ENDBRANCH   8  33
BRANCH   8  35
HETATM   35  C14 UNL     1     -39.070   8.713 -20.551  1.00  0.00     0.149 C 
HETATM   36  C15 UNL     1     -40.392   9.237 -20.071  1.00  0.00     0.042 C 
BRANCH  35  37
HETATM   37  O5  UNL     1     -38.447   7.861 -19.678  1.00  0.00    -0.393 OA
ATOM     38  H5  UNL     1     -38.980   7.106 -19.456  1.00  0.00     0.210 HD
ENDBRANCH  35  37
ENDBRANCH   8  35
BRANCH   9  39
HETATM   39  C17 UNL     1     -36.824  10.756 -19.023  1.00  0.00     0.052 C 
BRANCH  39  40
HETATM   40  C18 UNL     1     -37.056  12.143 -18.736  1.00  0.00     0.283 C 
BRANCH  40  41
HETATM   41  N1  UNL     1     -38.580  12.309 -18.730  1.00  0.00    -0.065 N 
ATOM     42  H13 UNL     1     -38.888  13.280 -18.771  1.00  0.00     0.275 HD
ATOM     43  H12 UNL     1     -39.029  12.004 -19.594  1.00  0.00     0.275 HD
ATOM     44  H11 UNL     1     -38.904  11.810 -17.902  1.00  0.00     0.275 HD
ENDBRANCH  40  41
BRANCH  40  45
HETATM   45  C19 UNL     1     -36.648  13.183 -19.670  1.00  0.00     0.204 C 
HETATM   46  O6  UNL     1     -37.437  13.576 -20.604  1.00  0.00    -0.646 OA
HETATM   47  O7  UNL     1     -35.423  13.859 -19.667  1.00  0.00    -0.646 OA
ENDBRANCH  40  45
ENDBRANCH  39  40
ENDBRANCH   9  39
TORSDOF 16
ENDMDL
MODEL 4
REMARK VINA RESULT: -6.771519752      4.599      6.779
REMARK  16 active torsions:
REMARK  status: ('A' for Active; 'I' for Inactive)
REMARK    1  A    between atoms: C2_2  and  C3_3 
REMARK    2  A    between atoms: C3_3  and  C4_4 
REMARK    3  A    between atoms: C4_4  and  O2_6 
REMARK    4  A    between atoms: O2_6  and  C5_7 
REMARK    5  A    between atoms: C5_7  and  C6_8 
REMARK    6  A    between atoms: C10_12  and  O3_13 
REMARK    7  A    between atoms: C13_17  and  O4_18 
REMARK    8  A    between atoms: C13_17  and  C14_20 
REMARK    9  A    between atoms: C14_20  and  O5_22 
REMARK   10  A    between atoms: C16_24  and  C17_25 
REMARK   11  A    between atoms: C17_25  and  C18_26 
REMARK   12  A    between atoms: C18_26  and  N1_27 
REMARK   13  A    between atoms: C18_26  and  C19_31 
REMARK   14  A    between atoms: C21_35  and  O8_36 
REMARK   15  A    between atoms: C25_41  and  O9_42 
REMARK   16  A    between atoms: N2_44  and  O10_46 
ROOT
HETATM    1  C6  UNL     1     -34.204   5.212 -32.416  1.00  0.00    -0.030 C 
HETATM    2  C7  UNL     1     -33.688   6.402 -32.377  1.00  0.00    -0.007 C 
HETATM    3  C8  UNL     1     -32.589   6.858 -31.445  1.00  0.00     0.010 C 
HETATM    4  C9  UNL     1     -31.921   7.947 -32.278  1.00  0.00     0.023 C 
HETATM    5  C10 UNL     1     -33.261   7.523 -30.311  1.00  0.00     0.131 C 
HETATM    6  C11 UNL     1     -32.684   7.263 -28.930  1.00  0.00     0.043 C 
HETATM    7  C12 UNL     1     -31.239   7.137 -29.044  1.00  0.00     0.060 C 
HETATM    8  C13 UNL     1     -30.476   6.859 -27.725  1.00  0.00     0.093 C 
HETATM    9  C16 UNL     1     -30.847   5.499 -27.408  1.00  0.00     0.028 C 
HETATM   10  C20 UNL     1     -31.175   4.853 -28.791  1.00  0.00     0.047 C 
HETATM   11  C21 UNL     1     -30.930   5.882 -29.821  1.00  0.00     0.073 C 
HETATM   12  C22 UNL     1     -31.658   5.733 -31.115  1.00  0.00     0.003 C 
HETATM   13  C23 UNL     1     -30.563   5.844 -32.198  1.00  0.00     0.020 C 
HETATM   14  C24 UNL     1     -32.219   4.360 -31.313  1.00  0.00     0.049 C 
HETATM   15  C25 UNL     1     -33.671   4.218 -31.452  1.00  0.00     0.150 C 
ENDROOT
BRANCH   1  16
HETATM   16  C5  UNL     1     -35.293   4.867 -33.384  1.00  0.00     0.215 C 
BRANCH  16  17
HETATM   17  O2  UNL     1     -36.205   3.948 -32.811  1.00  0.00    -0.317 OA
BRANCH  17  18
HETATM   18  C4  UNL     1     -36.220   2.616 -33.183  1.00  0.00     0.264 C 
HETATM   19  O1  UNL     1     -35.516   2.203 -34.157  1.00  0.00    -0.265 OA
BRANCH  18  20
HETATM   20  C3  UNL     1     -37.076   1.667 -32.421  1.00  0.00     0.165 C 
BRANCH  20  21
HETATM   21  C2  UNL     1     -36.280   1.296 -31.214  1.00  0.00     0.015 C 
HETATM   22  C1  UNL     1     -35.416   0.089 -31.246  1.00  0.00     0.066 C 
HETATM   23  N2  UNL     1     -36.362   2.032 -30.174  1.00  0.00    -0.277 N 
ATOM     24  H2  UNL     1     -35.818   1.780 -29.349  1.00  0.00     0.193 HD
BRANCH  23  25
HETATM   25  O10 UNL     1     -37.147   3.138 -30.127  1.00  0.00    -0.290 OA
ATOM     26  H10 UNL     1     -36.877   3.935 -29.685  1.00  0.00     0.244 HD
ENDBRANCH  23  25
ENDBRANCH  20  21
ENDBRANCH  18  20
ENDBRANCH  17  18
ENDBRANCH  16  17
ENDBRANCH   1  16
BRANCH  15  27
HETATM   27  O9  UNL     1     -34.450   4.292 -30.315  1.00  0.00    -0.391 OA
ATOM     28  H9  UNL     1     -34.243   3.534 -29.781  1.00  0.00     0.210 HD
ENDBRANCH  15  27
BRANCH   5  29
HETATM   29  O3  UNL     1     -33.251   8.937 -30.437  1.00  0.00    -0.394 OA
ATOM     30  H3  UNL     1     -33.164   9.371 -29.596  1.00  0.00     0.210 HD
ENDBRANCH   5  29
BRANCH  11  31
HETATM   31  O8  UNL     1     -29.516   5.927 -29.990  1.00  0.00    -0.389 OA
ATOM     32  H8  UNL     1     -29.400   6.401 -30.804  1.00  0.00     0.210 HD
ENDBRANCH  11  31
BRANCH   8  33
HETATM   33  O4  UNL     1     -29.163   7.196 -27.920  1.00  0.00    -0.386 OA
ATOM     34  H4  UNL     1     -29.076   8.130 -27.772  1.00  0.00     0.210 HD
ENDBRANCH   8  33
BRANCH   8  35
HETATM   35  C14 UNL     1     -30.971   7.870 -26.664  1.00  0.00     0.149 C 
HETATM   36  C15 UNL     1     -29.838   8.531 -25.934  1.00  0.00     0.042 C 
BRANCH  35  37
HETATM   37  O5  UNL     1     -31.944   7.352 -25.850  1.00  0.00    -0.393 OA
ATOM     38  H5  UNL     1     -31.757   7.477 -24.927  1.00  0.00     0.210 HD
ENDBRANCH  35  37
ENDBRANCH   8  35
BRANCH   9  39
HETATM   39  C17 UNL     1     -30.150   4.572 -26.554  1.00  0.00     0.052 C 
BRANCH  39  40
HETATM   40  C18 UNL     1     -30.445   4.077 -25.241  1.00  0.00     0.283 C 
BRANCH  40  41
HETATM   41  N1  UNL     1     -31.482   2.967 -25.446  1.00  0.00    -0.065 N 
ATOM     42  H13 UNL     1     -32.336   3.097 -24.902  1.00  0.00     0.275 HD
ATOM     43  H12 UNL     1     -31.923   2.982 -26.365  1.00  0.00     0.275 HD
ATOM     44  H11 UNL     1     -30.993   2.096 -25.240  1.00  0.00     0.275 HD
ENDBRANCH  40  41
BRANCH  40  45
HETATM   45  C19 UNL     1     -31.101   4.918 -24.249  1.00  0.00     0.204 C 
HETATM   46  O6  UNL     1     -32.337   4.740 -23.950  1.00  0.00    -0.646 OA
HETATM   47  O7  UNL     1     -30.505   5.957 -23.526  1.00  0.00    -0.646 OA
ENDBRANCH  40  45
ENDBRANCH  39  40
ENDBRANCH   9  39
TORSDOF 16
ENDMDL
MODEL 5
REMARK VINA RESULT: -6.722723377      3.443      5.857
REMARK  16 active torsions:
REMARK  status: ('A' for Active; 'I' for Inactive)
REMARK    1  A    between atoms: C2_2  and  C3_3 
REMARK    2  A    between atoms: C3_3  and  C4_4 
REMARK    3  A    between atoms: C4_4  and  O2_6 
REMARK    4  A    between atoms: O2_6  and  C5_7 
REMARK    5  A    between atoms: C5_7  and  C6_8 
REMARK    6  A    between atoms: C10_12  and  O3_13 
REMARK    7  A    between atoms: C13_17  and  O4_18 
REMARK    8  A    between atoms: C13_17  and  C14_20 
REMARK    9  A    between atoms: C14_20  and  O5_22 
REMARK   10  A    between atoms: C16_24  and  C17_25 
REMARK   11  A    between atoms: C17_25  and  C18_26 
REMARK   12  A    between atoms: C18_26  and  N1_27 
REMARK   13  A    between atoms: C18_26  and  C19_31 
REMARK   14  A    between atoms: C21_35  and  O8_36 
REMARK   15  A    between atoms: C25_41  and  O9_42 
REMARK   16  A    between atoms: N2_44  and  O10_46 
ROOT
HETATM    1  C6  UNL     1     -33.565   8.551 -25.288  1.00  0.00    -0.030 C 
HETATM    2  C7  UNL     1     -34.815   8.526 -25.634  1.00  0.00    -0.007 C 
HETATM    3  C8  UNL     1     -35.971   9.050 -24.813  1.00  0.00     0.010 C 
HETATM    4  C9  UNL     1     -36.962   9.443 -25.903  1.00  0.00     0.023 C 
HETATM    5  C10 UNL     1     -36.536   7.882 -24.107  1.00  0.00     0.131 C 
HETATM    6  C11 UNL     1     -36.973   8.103 -22.669  1.00  0.00     0.043 C 
HETATM    7  C12 UNL     1     -37.507   9.450 -22.544  1.00  0.00     0.060 C 
HETATM    8  C13 UNL     1     -37.999   9.857 -21.133  1.00  0.00     0.093 C 
HETATM    9  C16 UNL     1     -36.773   9.975 -20.377  1.00  0.00     0.028 C 
HETATM   10  C20 UNL     1     -35.690  10.329 -21.444  1.00  0.00     0.047 C 
HETATM   11  C21 UNL     1     -36.378  10.430 -22.746  1.00  0.00     0.073 C 
HETATM   12  C22 UNL     1     -35.551  10.214 -23.969  1.00  0.00     0.003 C 
HETATM   13  C23 UNL     1     -35.849  11.434 -24.867  1.00  0.00     0.020 C 
HETATM   14  C24 UNL     1     -34.082  10.315 -23.704  1.00  0.00     0.049 C 
HETATM   15  C25 UNL     1     -33.249   9.137 -23.961  1.00  0.00     0.150 C 
ENDROOT
BRANCH   1  16
HETATM   16  C5  UNL     1     -32.497   8.004 -26.183  1.00  0.00     0.215 C 
BRANCH  16  17
HETATM   17  O2  UNL     1     -31.939   6.822 -25.638  1.00  0.00    -0.317 OA
BRANCH  17  18
HETATM   18  C4  UNL     1     -30.729   6.837 -24.966  1.00  0.00     0.264 C 
HETATM   19  O1  UNL     1     -30.640   6.408 -23.774  1.00  0.00    -0.265 OA
BRANCH  18  20
HETATM   20  C3  UNL     1     -29.526   7.363 -25.666  1.00  0.00     0.165 C 
BRANCH  20  21
HETATM   21  C2  UNL     1     -29.323   6.461 -26.839  1.00  0.00     0.015 C 
HETATM   22  C1  UNL     1     -29.119   5.007 -26.621  1.00  0.00     0.066 C 
HETATM   23  N2  UNL     1     -29.329   6.967 -28.011  1.00  0.00    -0.277 N 
ATOM     24  H2  UNL     1     -29.191   6.351 -28.812  1.00  0.00     0.193 HD
BRANCH  23  25
HETATM   25  O10 UNL     1     -29.513   8.294 -28.229  1.00  0.00    -0.290 OA
ATOM     26  H10 UNL     1     -30.040   8.836 -27.654  1.00  0.00     0.244 HD
ENDBRANCH  23  25
ENDBRANCH  20  21
ENDBRANCH  18  20
ENDBRANCH  17  18
ENDBRANCH  16  17
ENDBRANCH   1  16
BRANCH  15  27
HETATM   27  O9  UNL     1     -33.269   8.105 -23.043  1.00  0.00    -0.391 OA
ATOM     28  H9  UNL     1     -32.804   8.406 -22.271  1.00  0.00     0.210 HD
ENDBRANCH  15  27
BRANCH   5  29
HETATM   29  O3  UNL     1     -37.692   7.373 -24.754  1.00  0.00    -0.394 OA
ATOM     30  H3  UNL     1     -37.941   6.518 -24.423  1.00  0.00     0.210 HD
ENDBRANCH   5  29
BRANCH  11  31
HETATM   31  O8  UNL     1     -37.026  11.699 -22.739  1.00  0.00    -0.389 OA
ATOM     32  H8  UNL     1     -36.466  12.236 -22.191  1.00  0.00     0.210 HD
ENDBRANCH  11  31
BRANCH   8  33
HETATM   33  O4  UNL     1     -38.837  10.930 -21.273  1.00  0.00    -0.386 OA
ATOM     34  H4  UNL     1     -39.499  10.875 -20.595  1.00  0.00     0.210 HD
ENDBRANCH   8  33
BRANCH   8  35
HETATM   35  C14 UNL     1     -38.915   8.730 -20.602  1.00  0.00     0.149 C 
HETATM   36  C15 UNL     1     -40.251   9.246 -20.153  1.00  0.00     0.042 C 
BRANCH  35  37
HETATM   37  O5  UNL     1     -38.288   7.917 -19.695  1.00  0.00    -0.393 OA
ATOM     38  H5  UNL     1     -38.866   7.258 -19.330  1.00  0.00     0.210 HD
ENDBRANCH  35  37
ENDBRANCH   8  35
BRANCH   9  39
HETATM   39  C17 UNL     1     -36.559  10.709 -19.156  1.00  0.00     0.052 C 
BRANCH  39  40
HETATM   40  C18 UNL     1     -36.814  12.076 -18.807  1.00  0.00     0.283 C 
BRANCH  40  41
HETATM   41  N1  UNL     1     -38.338  12.188 -18.680  1.00  0.00    -0.065 N 
ATOM     42  H13 UNL     1     -38.830  12.129 -19.571  1.00  0.00     0.275 HD
ATOM     43  H12 UNL     1     -38.774  11.374 -18.248  1.00  0.00     0.275 HD
ATOM     44  H11 UNL     1     -38.505  13.059 -18.175  1.00  0.00     0.275 HD
ENDBRANCH  40  41
BRANCH  40  45
HETATM   45  C19 UNL     1     -36.514  13.159 -19.734  1.00  0.00     0.204 C 
HETATM   46  O6  UNL     1     -35.383  13.766 -19.692  1.00  0.00    -0.646 OA
HETATM   47  O7  UNL     1     -37.359  13.642 -20.739  1.00  0.00    -0.646 OA
ENDBRANCH  40  45
ENDBRANCH  39  40
ENDBRANCH   9  39
TORSDOF 16
ENDMDL
