MODEL 1
REMARK VINA RESULT: -8.047404362      0.000      0.000
REMARK  21 active torsions:
REMARK  status: ('A' for Active; 'I' for Inactive)
REMARK    1  A    between atoms: O1_2  and  C2_3 
REMARK    2  A    between atoms: C3_4  and  O2_5 
REMARK    3  A    between atoms: C4_7  and  C5_8 
REMARK    4  A    between atoms: C5_8  and  O3_9 
REMARK    5  A    between atoms: C5_8  and  C6_11 
REMARK    6  A    between atoms: C6_11  and  O4_12 
REMARK    7  A    between atoms: C6_11  and  C7_14 
REMARK    8  A    between atoms: C7_14  and  O5_15 
REMARK    9  A    between atoms: C7_14  and  C8_17 
REMARK   10  A    between atoms: C8_17  and  O6_18 
REMARK   11  A    between atoms: C10_21  and  C11_22 
REMARK   12  A    between atoms: C13_27  and  C14_28 
REMARK   13  A    between atoms: C14_28  and  O8_29 
REMARK   14  A    between atoms: C14_28  and  C15_31 
REMARK   15  A    between atoms: C15_31  and  O9_32 
REMARK   16  A    between atoms: C15_31  and  O10_34 
REMARK   17  A    between atoms: C16_37  and  O12_38 
REMARK   18  A    between atoms: C16_37  and  C17_40 
REMARK   19  A    between atoms: C19_42  and  O13_43 
REMARK   20  A    between atoms: C20_45  and  O14_46 
REMARK   21  A    between atoms: C21_48  and  O15_49 
ROOT
HETATM    1  C2  UNL     1      30.581  30.233  87.209  1.00  0.00     0.218 C 
HETATM    2  C3  UNL     1      29.761  29.034  86.992  1.00  0.00     0.165 C 
HETATM    3  C4  UNL     1      28.776  29.009  85.838  1.00  0.00     0.105 C 
HETATM    4  C9  UNL     1      28.767  30.215  85.018  1.00  0.00     0.062 C 
HETATM    5  C10 UNL     1      28.571  30.283  83.728  1.00  0.00     0.072 C 
HETATM    6  O11 UNL     1      29.016  31.406  85.758  1.00  0.00    -0.311 OA
HETATM    7  C16 UNL     1      30.210  31.506  86.558  1.00  0.00     0.225 C 
ENDROOT
BRANCH   3   8
HETATM    8  C5  UNL     1      27.474  28.686  86.515  1.00  0.00     0.162 C 
BRANCH   8   9
HETATM    9  O3  UNL     1      27.697  27.550  87.300  1.00  0.00    -0.392 OA
ATOM     10  H3  UNL     1      28.608  27.572  87.565  1.00  0.00     0.210 HD
ENDBRANCH   8   9
BRANCH   8  11
HETATM   11  C6  UNL     1      26.225  28.550  85.818  1.00  0.00     0.178 C 
BRANCH  11  12
HETATM   12  O4  UNL     1      25.644  27.283  85.799  1.00  0.00    -0.390 OA
ATOM     13  H4  UNL     1      25.188  27.029  85.005  1.00  0.00     0.210 HD
ENDBRANCH  11  12
BRANCH  11  14
HETATM   14  C7  UNL     1      25.157  29.441  86.499  1.00  0.00     0.172 C 
BRANCH  14  15
HETATM   15  O5  UNL     1      25.236  29.391  87.867  1.00  0.00    -0.391 OA
ATOM     16  H5  UNL     1      25.986  29.871  88.201  1.00  0.00     0.210 HD
ENDBRANCH  14  15
BRANCH  14  17
HETATM   17  C8  UNL     1      23.793  29.239  85.910  1.00  0.00     0.198 C 
BRANCH  17  18
HETATM   18  O6  UNL     1      22.879  29.926  86.714  1.00  0.00    -0.398 OA
ATOM     19  H6  UNL     1      22.009  29.620  86.486  1.00  0.00     0.209 HD
ENDBRANCH  17  18
ENDBRANCH  14  17
ENDBRANCH  11  14
ENDBRANCH   8  11
ENDBRANCH   3   8
BRANCH   5  20
HETATM   20  C11 UNL     1      28.327  29.249  82.751  1.00  0.00     0.104 A 
HETATM   21  O7  UNL     1      27.113  28.882  82.361  1.00  0.00    -0.304 OA
HETATM   22  C12 UNL     1      27.200  27.909  81.475  1.00  0.00     0.234 A 
HETATM   23  N1  UNL     1      28.481  27.606  81.250  1.00  0.00    -0.346 N 
HETATM   24  C13 UNL     1      29.206  28.454  82.056  1.00  0.00     0.078 A 
ATOM     25  H1  UNL     1      28.846  26.895  80.615  1.00  0.00     0.167 HD
BRANCH  24  26
HETATM   26  C14 UNL     1      30.675  28.548  82.095  1.00  0.00     0.225 C 
BRANCH  26  27
HETATM   27  O8  UNL     1      31.133  29.823  82.000  1.00  0.00    -0.384 OA
ATOM     28  H8  UNL     1      31.025  30.196  81.133  1.00  0.00     0.210 HD
ENDBRANCH  26  27
BRANCH  26  29
HETATM   29  C15 UNL     1      31.303  27.686  83.150  1.00  0.00     0.288 C 
BRANCH  29  30
HETATM   30  O9  UNL     1      31.797  28.563  84.129  1.00  0.00    -0.368 OA
ATOM     31  H9  UNL     1      32.334  29.199  83.670  1.00  0.00     0.212 HD
ENDBRANCH  29  30
BRANCH  29  32
HETATM   32  O10 UNL     1      30.384  26.859  83.824  1.00  0.00    -0.368 OA
ATOM     33  H10 UNL     1      30.345  27.016  84.760  1.00  0.00     0.212 HD
ENDBRANCH  29  32
ENDBRANCH  26  29
ENDBRANCH  24  26
ENDBRANCH   5  20
BRANCH   2  34
HETATM   34  O2  UNL     1      30.615  27.914  86.790  1.00  0.00    -0.392 OA
ATOM     35  H2  UNL     1      30.091  27.123  86.759  1.00  0.00     0.210 HD
ENDBRANCH   2  34
BRANCH   7  36
HETATM   36  O12 UNL     1      31.264  31.756  85.602  1.00  0.00    -0.359 OA
ATOM     37  H12 UNL     1      31.944  32.197  86.098  1.00  0.00     0.213 HD
ENDBRANCH   7  36
BRANCH   7  38
HETATM   38  C17 UNL     1      30.247  32.710  87.387  1.00  0.00     0.012 A 
HETATM   39  C18 UNL     1      29.126  33.051  88.135  1.00  0.00     0.052 A 
HETATM   40  C19 UNL     1      29.096  34.165  88.929  1.00  0.00     0.102 A 
HETATM   41  C20 UNL     1      30.215  34.973  88.987  1.00  0.00     0.132 A 
HETATM   42  C21 UNL     1      31.346  34.670  88.260  1.00  0.00     0.102 A 
HETATM   43  C22 UNL     1      31.337  33.519  87.458  1.00  0.00     0.052 A 
BRANCH  40  44
HETATM   44  O13 UNL     1      27.950  34.459  89.654  1.00  0.00    -0.358 OA
ATOM     45  H13 UNL     1      27.342  35.112  89.325  1.00  0.00     0.217 HD
ENDBRANCH  40  44
BRANCH  41  46
HETATM   46  O14 UNL     1      30.228  36.128  89.796  1.00  0.00    -0.356 OA
ATOM     47  H14 UNL     1      31.049  36.535  90.048  1.00  0.00     0.218 HD
ENDBRANCH  41  46
BRANCH  42  48
HETATM   48  O15 UNL     1      32.455  35.493  88.334  1.00  0.00    -0.358 OA
ATOM     49  H15 UNL     1      33.315  35.149  88.123  1.00  0.00     0.217 HD
ENDBRANCH  42  48
ENDBRANCH   7  38
BRANCH   1  50
HETATM   50  O1  UNL     1      30.676  30.443  88.593  1.00  0.00    -0.382 OA
HETATM   51  C1  UNL     1      31.684  29.816  89.236  1.00  0.00     0.202 C 
ENDBRANCH   1  50
TORSDOF 21
ENDMDL
MODEL 2
REMARK VINA RESULT: -8.020206610      0.086      1.348
REMARK  21 active torsions:
REMARK  status: ('A' for Active; 'I' for Inactive)
REMARK    1  A    between atoms: O1_2  and  C2_3 
REMARK    2  A    between atoms: C3_4  and  O2_5 
REMARK    3  A    between atoms: C4_7  and  C5_8 
REMARK    4  A    between atoms: C5_8  and  O3_9 
REMARK    5  A    between atoms: C5_8  and  C6_11 
REMARK    6  A    between atoms: C6_11  and  O4_12 
REMARK    7  A    between atoms: C6_11  and  C7_14 
REMARK    8  A    between atoms: C7_14  and  O5_15 
REMARK    9  A    between atoms: C7_14  and  C8_17 
REMARK   10  A    between atoms: C8_17  and  O6_18 
REMARK   11  A    between atoms: C10_21  and  C11_22 
REMARK   12  A    between atoms: C13_27  and  C14_28 
REMARK   13  A    between atoms: C14_28  and  O8_29 
REMARK   14  A    between atoms: C14_28  and  C15_31 
REMARK   15  A    between atoms: C15_31  and  O9_32 
REMARK   16  A    between atoms: C15_31  and  O10_34 
REMARK   17  A    between atoms: C16_37  and  O12_38 
REMARK   18  A    between atoms: C16_37  and  C17_40 
REMARK   19  A    between atoms: C19_42  and  O13_43 
REMARK   20  A    between atoms: C20_45  and  O14_46 
REMARK   21  A    between atoms: C21_48  and  O15_49 
ROOT
HETATM    1  C2  UNL     1      30.495  30.242  87.235  1.00  0.00     0.218 C 
HETATM    2  C3  UNL     1      29.707  29.023  87.006  1.00  0.00     0.165 C 
HETATM    3  C4  UNL     1      28.726  28.981  85.849  1.00  0.00     0.105 C 
HETATM    4  C9  UNL     1      28.690  30.192  85.037  1.00  0.00     0.062 C 
HETATM    5  C10 UNL     1      28.496  30.264  83.748  1.00  0.00     0.072 C 
HETATM    6  O11 UNL     1      28.905  31.384  85.786  1.00  0.00    -0.311 OA
HETATM    7  C16 UNL     1      30.093  31.509  86.592  1.00  0.00     0.225 C 
ENDROOT
BRANCH   3   8
HETATM    8  C5  UNL     1      27.431  28.621  86.519  1.00  0.00     0.162 C 
BRANCH   8   9
HETATM    9  O3  UNL     1      27.668  27.457  87.259  1.00  0.00    -0.392 OA
ATOM     10  H3  UNL     1      27.133  26.773  86.873  1.00  0.00     0.210 HD
ENDBRANCH   8   9
BRANCH   8  11
HETATM   11  C6  UNL     1      26.179  28.500  85.824  1.00  0.00     0.178 C 
BRANCH  11  12
HETATM   12  O4  UNL     1      25.581  27.242  85.809  1.00  0.00    -0.390 OA
ATOM     13  H4  UNL     1      24.636  27.211  85.913  1.00  0.00     0.210 HD
ENDBRANCH  11  12
BRANCH  11  14
HETATM   14  C7  UNL     1      25.125  29.409  86.502  1.00  0.00     0.172 C 
BRANCH  14  15
HETATM   15  O5  UNL     1      25.208  29.367  87.870  1.00  0.00    -0.391 OA
ATOM     16  H5  UNL     1      24.632  30.000  88.284  1.00  0.00     0.210 HD
ENDBRANCH  14  15
BRANCH  14  17
HETATM   17  C8  UNL     1      23.756  29.220  85.919  1.00  0.00     0.198 C 
BRANCH  17  18
HETATM   18  O6  UNL     1      22.859  29.957  86.697  1.00  0.00    -0.398 OA
ATOM     19  H6  UNL     1      21.987  29.623  86.524  1.00  0.00     0.209 HD
ENDBRANCH  17  18
ENDBRANCH  14  17
ENDBRANCH  11  14
ENDBRANCH   8  11
ENDBRANCH   3   8
BRANCH   5  20
HETATM   20  C11 UNL     1      28.282  29.231  82.763  1.00  0.00     0.104 A 
HETATM   21  O7  UNL     1      27.079  28.833  82.368  1.00  0.00    -0.304 OA
HETATM   22  C12 UNL     1      27.193  27.870  81.475  1.00  0.00     0.234 A 
HETATM   23  N1  UNL     1      28.483  27.604  81.249  1.00  0.00    -0.346 N 
HETATM   24  C13 UNL     1      29.183  28.467  82.062  1.00  0.00     0.078 A 
ATOM     25  H1  UNL     1      28.868  26.909  80.609  1.00  0.00     0.167 HD
BRANCH  24  26
HETATM   26  C14 UNL     1      30.649  28.602  82.103  1.00  0.00     0.225 C 
BRANCH  26  27
HETATM   27  O8  UNL     1      31.071  29.890  82.006  1.00  0.00    -0.384 OA
ATOM     28  H8  UNL     1      32.010  29.985  82.112  1.00  0.00     0.210 HD
ENDBRANCH  26  27
BRANCH  26  29
HETATM   29  C15 UNL     1      31.300  27.760  83.160  1.00  0.00     0.288 C 
BRANCH  29  30
HETATM   30  O9  UNL     1      31.755  28.651  84.145  1.00  0.00    -0.368 OA
ATOM     31  H9  UNL     1      31.675  28.193  84.974  1.00  0.00     0.212 HD
ENDBRANCH  29  30
BRANCH  29  32
HETATM   32  O10 UNL     1      30.406  26.898  83.825  1.00  0.00    -0.368 OA
ATOM     33  H10 UNL     1      30.726  26.007  83.908  1.00  0.00     0.212 HD
ENDBRANCH  29  32
ENDBRANCH  26  29
ENDBRANCH  24  26
ENDBRANCH   5  20
BRANCH   2  34
HETATM   34  O2  UNL     1      30.590  27.927  86.801  1.00  0.00    -0.392 OA
ATOM     35  H2  UNL     1      30.094  27.182  86.482  1.00  0.00     0.210 HD
ENDBRANCH   2  34
BRANCH   7  36
HETATM   36  O12 UNL     1      31.144  31.793  85.641  1.00  0.00    -0.359 OA
ATOM     37  H12 UNL     1      30.837  32.550  85.156  1.00  0.00     0.213 HD
ENDBRANCH   7  36
BRANCH   7  38
HETATM   38  C17 UNL     1      30.097  32.708  87.428  1.00  0.00     0.012 A 
HETATM   39  C18 UNL     1      31.236  33.503  87.466  1.00  0.00     0.052 A 
HETATM   40  C19 UNL     1      31.304  34.638  88.229  1.00  0.00     0.102 A 
HETATM   41  C20 UNL     1      30.205  35.001  88.983  1.00  0.00     0.132 A 
HETATM   42  C21 UNL     1      29.055  34.239  88.972  1.00  0.00     0.102 A 
HETATM   43  C22 UNL     1      29.026  33.084  88.177  1.00  0.00     0.052 A 
BRANCH  40  44
HETATM   44  O13 UNL     1      32.467  35.393  88.232  1.00  0.00    -0.358 OA
ATOM     45  H13 UNL     1      32.598  36.055  87.562  1.00  0.00     0.217 HD
ENDBRANCH  40  44
BRANCH  41  46
HETATM   46  O14 UNL     1      30.230  36.164  89.780  1.00  0.00    -0.356 OA
ATOM     47  H14 UNL     1      29.423  36.588  90.045  1.00  0.00     0.218 HD
ENDBRANCH  41  46
BRANCH  42  48
HETATM   48  O15 UNL     1      27.966  34.622  89.734  1.00  0.00    -0.358 OA
ATOM     49  H15 UNL     1      27.122  34.211  89.594  1.00  0.00     0.217 HD
ENDBRANCH  42  48
ENDBRANCH   7  38
BRANCH   1  50
HETATM   50  O1  UNL     1      30.580  30.444  88.621  1.00  0.00    -0.382 OA
HETATM   51  C1  UNL     1      31.640  29.896  89.252  1.00  0.00     0.202 C 
ENDBRANCH   1  50
TORSDOF 21
ENDMDL
MODEL 3
REMARK VINA RESULT: -7.935055829      0.640      1.062
REMARK  21 active torsions:
REMARK  status: ('A' for Active; 'I' for Inactive)
REMARK    1  A    between atoms: O1_2  and  C2_3 
REMARK    2  A    between atoms: C3_4  and  O2_5 
REMARK    3  A    between atoms: C4_7  and  C5_8 
REMARK    4  A    between atoms: C5_8  and  O3_9 
REMARK    5  A    between atoms: C5_8  and  C6_11 
REMARK    6  A    between atoms: C6_11  and  O4_12 
REMARK    7  A    between atoms: C6_11  and  C7_14 
REMARK    8  A    between atoms: C7_14  and  O5_15 
REMARK    9  A    between atoms: C7_14  and  C8_17 
REMARK   10  A    between atoms: C8_17  and  O6_18 
REMARK   11  A    between atoms: C10_21  and  C11_22 
REMARK   12  A    between atoms: C13_27  and  C14_28 
REMARK   13  A    between atoms: C14_28  and  O8_29 
REMARK   14  A    between atoms: C14_28  and  C15_31 
REMARK   15  A    between atoms: C15_31  and  O9_32 
REMARK   16  A    between atoms: C15_31  and  O10_34 
REMARK   17  A    between atoms: C16_37  and  O12_38 
REMARK   18  A    between atoms: C16_37  and  C17_40 
REMARK   19  A    between atoms: C19_42  and  O13_43 
REMARK   20  A    between atoms: C20_45  and  O14_46 
REMARK   21  A    between atoms: C21_48  and  O15_49 
ROOT
HETATM    1  C2  UNL     1      30.601  30.240  87.216  1.00  0.00     0.218 C 
HETATM    2  C3  UNL     1      29.783  29.038  87.003  1.00  0.00     0.165 C 
HETATM    3  C4  UNL     1      28.798  29.007  85.849  1.00  0.00     0.105 C 
HETATM    4  C9  UNL     1      28.787  30.210  85.025  1.00  0.00     0.062 C 
HETATM    5  C10 UNL     1      28.590  30.273  83.736  1.00  0.00     0.072 C 
HETATM    6  O11 UNL     1      29.033  31.404  85.761  1.00  0.00    -0.311 OA
HETATM    7  C16 UNL     1      30.227  31.510  86.561  1.00  0.00     0.225 C 
ENDROOT
BRANCH   3   8
HETATM    8  C5  UNL     1      27.497  28.684  86.528  1.00  0.00     0.162 C 
BRANCH   8   9
HETATM    9  O3  UNL     1      27.725  27.557  87.326  1.00  0.00    -0.392 OA
ATOM     10  H3  UNL     1      26.987  27.488  87.920  1.00  0.00     0.210 HD
ENDBRANCH   8   9
BRANCH   8  11
HETATM   11  C6  UNL     1      26.250  28.533  85.831  1.00  0.00     0.178 C 
BRANCH  11  12
HETATM   12  O4  UNL     1      25.681  27.261  85.815  1.00  0.00    -0.390 OA
ATOM     13  H4  UNL     1      24.856  27.162  85.355  1.00  0.00     0.210 HD
ENDBRANCH  11  12
BRANCH  11  14
HETATM   14  C7  UNL     1      25.172  29.416  86.507  1.00  0.00     0.172 C 
BRANCH  14  15
HETATM   15  O5  UNL     1      25.248  29.369  87.876  1.00  0.00    -0.391 OA
ATOM     16  H5  UNL     1      24.468  28.990  88.266  1.00  0.00     0.210 HD
ENDBRANCH  14  15
BRANCH  14  17
HETATM   17  C8  UNL     1      23.812  29.203  85.915  1.00  0.00     0.198 C 
BRANCH  17  18
HETATM   18  O6  UNL     1      22.896  29.921  86.689  1.00  0.00    -0.398 OA
ATOM     19  H6  UNL     1      22.391  29.293  87.192  1.00  0.00     0.209 HD
ENDBRANCH  17  18
ENDBRANCH  14  17
ENDBRANCH  11  14
ENDBRANCH   8  11
ENDBRANCH   3   8
BRANCH   5  20
HETATM   20  C11 UNL     1      28.348  29.235  82.762  1.00  0.00     0.104 A 
HETATM   21  O7  UNL     1      27.191  29.077  82.132  1.00  0.00    -0.304 OA
HETATM   22  C12 UNL     1      27.260  28.043  81.316  1.00  0.00     0.234 A 
HETATM   23  N1  UNL     1      28.473  27.486  81.382  1.00  0.00    -0.346 N 
HETATM   24  C13 UNL     1      29.173  28.239  82.298  1.00  0.00     0.078 A 
ATOM     25  H1  UNL     1      28.809  26.675  80.864  1.00  0.00     0.167 HD
BRANCH  24  26
HETATM   26  C14 UNL     1      30.591  28.055  82.649  1.00  0.00     0.225 C 
BRANCH  26  27
HETATM   27  O8  UNL     1      30.776  27.231  83.714  1.00  0.00    -0.384 OA
ATOM     28  H8  UNL     1      30.149  26.519  83.750  1.00  0.00     0.210 HD
ENDBRANCH  26  27
BRANCH  26  29
HETATM   29  C15 UNL     1      31.478  27.827  81.462  1.00  0.00     0.288 C 
BRANCH  29  30
HETATM   30  O9  UNL     1      31.331  26.474  81.116  1.00  0.00    -0.368 OA
ATOM     31  H9  UNL     1      31.855  26.342  80.334  1.00  0.00     0.212 HD
ENDBRANCH  29  30
BRANCH  29  32
HETATM   32  O10 UNL     1      31.085  28.547  80.317  1.00  0.00    -0.368 OA
ATOM     33  H10 UNL     1      30.181  28.398  80.065  1.00  0.00     0.212 HD
ENDBRANCH  29  32
ENDBRANCH  26  29
ENDBRANCH  24  26
ENDBRANCH   5  20
BRANCH   2  34
HETATM   34  O2  UNL     1      30.640  27.920  86.806  1.00  0.00    -0.392 OA
ATOM     35  H2  UNL     1      30.167  27.123  87.017  1.00  0.00     0.210 HD
ENDBRANCH   2  34
BRANCH   7  36
HETATM   36  O12 UNL     1      31.281  31.759  85.604  1.00  0.00    -0.359 OA
ATOM     37  H12 UNL     1      31.545  32.658  85.760  1.00  0.00     0.213 HD
ENDBRANCH   7  36
BRANCH   7  38
HETATM   38  C17 UNL     1      30.261  32.717  87.385  1.00  0.00     0.012 A 
HETATM   39  C18 UNL     1      29.135  33.066  88.121  1.00  0.00     0.052 A 
HETATM   40  C19 UNL     1      29.102  34.184  88.911  1.00  0.00     0.102 A 
HETATM   41  C20 UNL     1      30.224  34.986  88.976  1.00  0.00     0.132 A 
HETATM   42  C21 UNL     1      31.361  34.675  88.261  1.00  0.00     0.102 A 
HETATM   43  C22 UNL     1      31.355  33.521  87.464  1.00  0.00     0.052 A 
BRANCH  40  44
HETATM   44  O13 UNL     1      27.950  34.486  89.623  1.00  0.00    -0.358 OA
ATOM     45  H13 UNL     1      27.840  35.356  89.988  1.00  0.00     0.217 HD
ENDBRANCH  40  44
BRANCH  41  46
HETATM   46  O14 UNL     1      30.234  36.145  89.780  1.00  0.00    -0.356 OA
ATOM     47  H14 UNL     1      31.000  36.370  90.297  1.00  0.00     0.218 HD
ENDBRANCH  41  46
BRANCH  42  48
HETATM   48  O15 UNL     1      32.473  35.493  88.343  1.00  0.00    -0.358 OA
ATOM     49  H15 UNL     1      32.834  35.882  87.555  1.00  0.00     0.217 HD
ENDBRANCH  42  48
ENDBRANCH   7  38
BRANCH   1  50
HETATM   50  O1  UNL     1      30.695  30.455  88.600  1.00  0.00    -0.382 OA
HETATM   51  C1  UNL     1      31.705  29.833  89.245  1.00  0.00     0.202 C 
ENDBRANCH   1  50
TORSDOF 21
ENDMDL
MODEL 4
REMARK VINA RESULT: -7.903003126      1.115      1.815
REMARK  21 active torsions:
REMARK  status: ('A' for Active; 'I' for Inactive)
REMARK    1  A    between atoms: O1_2  and  C2_3 
REMARK    2  A    between atoms: C3_4  and  O2_5 
REMARK    3  A    between atoms: C4_7  and  C5_8 
REMARK    4  A    between atoms: C5_8  and  O3_9 
REMARK    5  A    between atoms: C5_8  and  C6_11 
REMARK    6  A    between atoms: C6_11  and  O4_12 
REMARK    7  A    between atoms: C6_11  and  C7_14 
REMARK    8  A    between atoms: C7_14  and  O5_15 
REMARK    9  A    between atoms: C7_14  and  C8_17 
REMARK   10  A    between atoms: C8_17  and  O6_18 
REMARK   11  A    between atoms: C10_21  and  C11_22 
REMARK   12  A    between atoms: C13_27  and  C14_28 
REMARK   13  A    between atoms: C14_28  and  O8_29 
REMARK   14  A    between atoms: C14_28  and  C15_31 
REMARK   15  A    between atoms: C15_31  and  O9_32 
REMARK   16  A    between atoms: C15_31  and  O10_34 
REMARK   17  A    between atoms: C16_37  and  O12_38 
REMARK   18  A    between atoms: C16_37  and  C17_40 
REMARK   19  A    between atoms: C19_42  and  O13_43 
REMARK   20  A    between atoms: C20_45  and  O14_46 
REMARK   21  A    between atoms: C21_48  and  O15_49 
ROOT
HETATM    1  C2  UNL     1      30.567  30.181  87.213  1.00  0.00     0.218 C 
HETATM    2  C3  UNL     1      29.738  28.985  87.009  1.00  0.00     0.165 C 
HETATM    3  C4  UNL     1      28.752  28.954  85.856  1.00  0.00     0.105 C 
HETATM    4  C9  UNL     1      28.751  30.151  85.023  1.00  0.00     0.062 C 
HETATM    5  C10 UNL     1      28.553  30.206  83.733  1.00  0.00     0.072 C 
HETATM    6  O11 UNL     1      29.007  31.348  85.750  1.00  0.00    -0.311 OA
HETATM    7  C16 UNL     1      30.203  31.450  86.549  1.00  0.00     0.225 C 
ENDROOT
BRANCH   3   8
HETATM    8  C5  UNL     1      27.449  28.647  86.538  1.00  0.00     0.162 C 
BRANCH   8   9
HETATM    9  O3  UNL     1      27.660  27.509  87.323  1.00  0.00    -0.392 OA
ATOM     10  H3  UNL     1      27.287  27.691  88.177  1.00  0.00     0.210 HD
ENDBRANCH   8   9
BRANCH   8  11
HETATM   11  C6  UNL     1      26.196  28.525  85.846  1.00  0.00     0.178 C 
BRANCH  11  12
HETATM   12  O4  UNL     1      25.612  27.261  85.809  1.00  0.00    -0.390 OA
ATOM     13  H4  UNL     1      25.784  26.683  86.543  1.00  0.00     0.210 HD
ENDBRANCH  11  12
BRANCH  11  14
HETATM   14  C7  UNL     1      25.133  29.408  86.545  1.00  0.00     0.172 C 
BRANCH  14  15
HETATM   15  O5  UNL     1      25.240  29.362  87.912  1.00  0.00    -0.391 OA
ATOM     16  H5  UNL     1      24.412  29.156  88.330  1.00  0.00     0.210 HD
ENDBRANCH  14  15
BRANCH  14  17
HETATM   17  C8  UNL     1      23.760  29.194  85.984  1.00  0.00     0.198 C 
BRANCH  17  18
HETATM   18  O6  UNL     1      22.874  29.988  86.717  1.00  0.00    -0.398 OA
ATOM     19  H6  UNL     1      22.086  30.095  86.197  1.00  0.00     0.209 HD
ENDBRANCH  17  18
ENDBRANCH  14  17
ENDBRANCH  11  14
ENDBRANCH   8  11
ENDBRANCH   3   8
BRANCH   5  20
HETATM   20  C11 UNL     1      28.302  29.164  82.768  1.00  0.00     0.104 A 
HETATM   21  O7  UNL     1      27.561  28.092  83.023  1.00  0.00    -0.304 OA
HETATM   22  C12 UNL     1      27.521  27.310  81.962  1.00  0.00     0.234 A 
HETATM   23  N1  UNL     1      28.236  27.846  80.969  1.00  0.00    -0.346 N 
HETATM   24  C13 UNL     1      28.735  29.026  81.471  1.00  0.00     0.078 A 
ATOM     25  H1  UNL     1      28.382  27.461  80.035  1.00  0.00     0.167 HD
BRANCH  24  26
HETATM   26  C14 UNL     1      29.525  30.011  80.713  1.00  0.00     0.225 C 
BRANCH  26  27
HETATM   27  O8  UNL     1      30.648  29.485  80.158  1.00  0.00    -0.384 OA
ATOM     28  H8  UNL     1      30.647  29.517  79.209  1.00  0.00     0.210 HD
ENDBRANCH  26  27
BRANCH  26  29
HETATM   29  C15 UNL     1      28.694  30.898  79.834  1.00  0.00     0.288 C 
BRANCH  29  30
HETATM   30  O9  UNL     1      27.529  30.172  79.535  1.00  0.00    -0.368 OA
ATOM     31  H9  UNL     1      26.835  30.814  79.435  1.00  0.00     0.212 HD
ENDBRANCH  29  30
BRANCH  29  32
HETATM   32  O10 UNL     1      28.246  32.069  80.476  1.00  0.00    -0.368 OA
ATOM     33  H10 UNL     1      28.185  32.821  79.897  1.00  0.00     0.212 HD
ENDBRANCH  29  32
ENDBRANCH  26  29
ENDBRANCH  24  26
ENDBRANCH   5  20
BRANCH   2  34
HETATM   34  O2  UNL     1      30.585  27.858  86.820  1.00  0.00    -0.392 OA
ATOM     35  H2  UNL     1      30.947  27.884  85.941  1.00  0.00     0.210 HD
ENDBRANCH   2  34
BRANCH   7  36
HETATM   36  O12 UNL     1      31.258  31.683  85.589  1.00  0.00    -0.359 OA
ATOM     37  H12 UNL     1      31.838  32.307  86.011  1.00  0.00     0.213 HD
ENDBRANCH   7  36
BRANCH   7  38
HETATM   38  C17 UNL     1      30.248  32.663  87.364  1.00  0.00     0.012 A 
HETATM   39  C18 UNL     1      29.135  33.012  88.119  1.00  0.00     0.052 A 
HETATM   40  C19 UNL     1      29.113  34.135  88.902  1.00  0.00     0.102 A 
HETATM   41  C20 UNL     1      30.232  34.942  88.940  1.00  0.00     0.132 A 
HETATM   42  C21 UNL     1      31.356  34.630  88.206  1.00  0.00     0.102 A 
HETATM   43  C22 UNL     1      31.339  33.471  87.416  1.00  0.00     0.052 A 
BRANCH  40  44
HETATM   44  O13 UNL     1      27.973  34.437  89.634  1.00  0.00    -0.358 OA
ATOM     45  H13 UNL     1      27.594  35.306  89.573  1.00  0.00     0.217 HD
ENDBRANCH  40  44
BRANCH  41  46
HETATM   46  O14 UNL     1      30.253  36.106  89.737  1.00  0.00    -0.356 OA
ATOM     47  H14 UNL     1      30.936  36.238  90.384  1.00  0.00     0.218 HD
ENDBRANCH  41  46
BRANCH  42  48
HETATM   48  O15 UNL     1      32.467  35.454  88.261  1.00  0.00    -0.358 OA
ATOM     49  H15 UNL     1      33.007  35.573  87.489  1.00  0.00     0.217 HD
ENDBRANCH  42  48
ENDBRANCH   7  38
BRANCH   1  50
HETATM   50  O1  UNL     1      30.664  30.406  88.595  1.00  0.00    -0.382 OA
HETATM   51  C1  UNL     1      31.682  29.798  89.240  1.00  0.00     0.202 C 
ENDBRANCH   1  50
TORSDOF 21
ENDMDL
MODEL 5
REMARK VINA RESULT: -7.900164630      0.639      1.713
REMARK  21 active torsions:
REMARK  status: ('A' for Active; 'I' for Inactive)
REMARK    1  A    between atoms: O1_2  and  C2_3 
REMARK    2  A    between atoms: C3_4  and  O2_5 
REMARK    3  A    between atoms: C4_7  and  C5_8 
REMARK    4  A    between atoms: C5_8  and  O3_9 
REMARK    5  A    between atoms: C5_8  and  C6_11 
REMARK    6  A    between atoms: C6_11  and  O4_12 
REMARK    7  A    between atoms: C6_11  and  C7_14 
REMARK    8  A    between atoms: C7_14  and  O5_15 
REMARK    9  A    between atoms: C7_14  and  C8_17 
REMARK   10  A    between atoms: C8_17  and  O6_18 
REMARK   11  A    between atoms: C10_21  and  C11_22 
REMARK   12  A    between atoms: C13_27  and  C14_28 
REMARK   13  A    between atoms: C14_28  and  O8_29 
REMARK   14  A    between atoms: C14_28  and  C15_31 
REMARK   15  A    between atoms: C15_31  and  O9_32 
REMARK   16  A    between atoms: C15_31  and  O10_34 
REMARK   17  A    between atoms: C16_37  and  O12_38 
REMARK   18  A    between atoms: C16_37  and  C17_40 
REMARK   19  A    between atoms: C19_42  and  O13_43 
REMARK   20  A    between atoms: C20_45  and  O14_46 
REMARK   21  A    between atoms: C21_48  and  O15_49 
ROOT
HETATM    1  C2  UNL     1      30.506  30.228  87.240  1.00  0.00     0.218 C 
HETATM    2  C3  UNL     1      29.719  29.008  87.013  1.00  0.00     0.165 C 
HETATM    3  C4  UNL     1      28.742  28.961  85.853  1.00  0.00     0.105 C 
HETATM    4  C9  UNL     1      28.706  30.169  85.037  1.00  0.00     0.062 C 
HETATM    5  C10 UNL     1      28.516  30.237  83.747  1.00  0.00     0.072 C 
HETATM    6  O11 UNL     1      28.918  31.364  85.783  1.00  0.00    -0.311 OA
HETATM    7  C16 UNL     1      30.105  31.493  86.591  1.00  0.00     0.225 C 
ENDROOT
BRANCH   3   8
HETATM    8  C5  UNL     1      27.446  28.601  86.521  1.00  0.00     0.162 C 
BRANCH   8   9
HETATM    9  O3  UNL     1      27.678  27.434  87.257  1.00  0.00    -0.392 OA
ATOM     10  H3  UNL     1      27.829  26.738  86.628  1.00  0.00     0.210 HD
ENDBRANCH   8   9
BRANCH   8  11
HETATM   11  C6  UNL     1      26.194  28.487  85.825  1.00  0.00     0.178 C 
BRANCH  11  12
HETATM   12  O4  UNL     1      25.591  27.231  85.805  1.00  0.00    -0.390 OA
ATOM     13  H4  UNL     1      24.926  27.060  86.462  1.00  0.00     0.210 HD
ENDBRANCH  11  12
BRANCH  11  14
HETATM   14  C7  UNL     1      25.141  29.396  86.505  1.00  0.00     0.172 C 
BRANCH  14  15
HETATM   15  O5  UNL     1      25.229  29.356  87.873  1.00  0.00    -0.391 OA
ATOM     16  H5  UNL     1      26.128  29.423  88.177  1.00  0.00     0.210 HD
ENDBRANCH  14  15
BRANCH  14  17
HETATM   17  C8  UNL     1      23.771  29.207  85.927  1.00  0.00     0.198 C 
BRANCH  17  18
HETATM   18  O6  UNL     1      22.878  29.949  86.704  1.00  0.00    -0.398 OA
ATOM     19  H6  UNL     1      22.056  29.473  86.730  1.00  0.00     0.209 HD
ENDBRANCH  17  18
ENDBRANCH  14  17
ENDBRANCH  11  14
ENDBRANCH   8  11
ENDBRANCH   3   8
BRANCH   5  20
HETATM   20  C11 UNL     1      28.305  29.200  82.765  1.00  0.00     0.104 A 
HETATM   21  O7  UNL     1      27.156  29.018  82.127  1.00  0.00    -0.304 OA
HETATM   22  C12 UNL     1      27.255  27.992  81.304  1.00  0.00     0.234 A 
HETATM   23  N1  UNL     1      28.481  27.465  81.373  1.00  0.00    -0.346 N 
HETATM   24  C13 UNL     1      29.157  28.228  82.298  1.00  0.00     0.078 A 
ATOM     25  H1  UNL     1      28.840  26.666  80.851  1.00  0.00     0.167 HD
BRANCH  24  26
HETATM   26  C14 UNL     1      30.577  28.077  82.656  1.00  0.00     0.225 C 
BRANCH  26  27
HETATM   27  O8  UNL     1      30.777  27.256  83.720  1.00  0.00    -0.384 OA
ATOM     28  H8  UNL     1      30.723  26.334  83.497  1.00  0.00     0.210 HD
ENDBRANCH  26  27
BRANCH  26  29
HETATM   29  C15 UNL     1      31.476  27.874  81.473  1.00  0.00     0.288 C 
BRANCH  29  30
HETATM   30  O9  UNL     1      31.360  26.519  81.121  1.00  0.00    -0.368 OA
ATOM     31  H9  UNL     1      30.548  26.441  80.632  1.00  0.00     0.212 HD
ENDBRANCH  29  30
BRANCH  29  32
HETATM   32  O10 UNL     1      31.073  28.589  80.328  1.00  0.00    -0.368 OA
ATOM     33  H10 UNL     1      31.513  29.426  80.228  1.00  0.00     0.212 HD
ENDBRANCH  29  32
ENDBRANCH  26  29
ENDBRANCH  24  26
ENDBRANCH   5  20
BRANCH   2  34
HETATM   34  O2  UNL     1      30.604  27.912  86.813  1.00  0.00    -0.392 OA
ATOM     35  H2  UNL     1      30.328  27.184  87.358  1.00  0.00     0.210 HD
ENDBRANCH   2  34
BRANCH   7  36
HETATM   36  O12 UNL     1      31.158  31.775  85.643  1.00  0.00    -0.359 OA
ATOM     37  H12 UNL     1      31.964  31.661  86.132  1.00  0.00     0.213 HD
ENDBRANCH   7  36
BRANCH   7  38
HETATM   38  C17 UNL     1      30.105  32.695  87.424  1.00  0.00     0.012 A 
HETATM   39  C18 UNL     1      31.244  33.489  87.464  1.00  0.00     0.052 A 
HETATM   40  C19 UNL     1      31.308  34.626  88.224  1.00  0.00     0.102 A 
HETATM   41  C20 UNL     1      30.206  34.992  88.971  1.00  0.00     0.132 A 
HETATM   42  C21 UNL     1      29.057  34.231  88.957  1.00  0.00     0.102 A 
HETATM   43  C22 UNL     1      29.030  33.073  88.166  1.00  0.00     0.052 A 
BRANCH  40  44
HETATM   44  O13 UNL     1      32.473  35.381  88.229  1.00  0.00    -0.358 OA
ATOM     45  H13 UNL     1      32.425  36.315  88.397  1.00  0.00     0.217 HD
ENDBRANCH  40  44
BRANCH  41  46
HETATM   46  O14 UNL     1      30.229  36.158  89.764  1.00  0.00    -0.356 OA
ATOM     47  H14 UNL     1      29.432  36.650  89.927  1.00  0.00     0.218 HD
ENDBRANCH  41  46
BRANCH  42  48
HETATM   48  O15 UNL     1      27.964  34.617  89.713  1.00  0.00    -0.358 OA
ATOM     49  H15 UNL     1      27.688  34.088  90.452  1.00  0.00     0.217 HD
ENDBRANCH  42  48
ENDBRANCH   7  38
BRANCH   1  50
HETATM   50  O1  UNL     1      30.587  30.435  88.625  1.00  0.00    -0.382 OA
HETATM   51  C1  UNL     1      31.641  29.883  89.263  1.00  0.00     0.202 C 
ENDBRANCH   1  50
TORSDOF 21
ENDMDL
