MODEL 1
REMARK VINA RESULT: -8.630909366      0.000      0.000
REMARK  11 active torsions:
REMARK  status: ('A' for Active; 'I' for Inactive)
REMARK    1  A    between atoms: C2_7  and  C3_8 
REMARK    2  A    between atoms: C3_8  and  S1_9 
REMARK    3  A    between atoms: S1_9  and  C4_10 
REMARK    4  A    between atoms: C8_16  and  N3_17 
REMARK    5  A    between atoms: N3_17  and  C9_19 
REMARK    6  A    between atoms: C9_19  and  C10_20 
REMARK    7  A    between atoms: C10_20  and  C11_21 
REMARK    8  A    between atoms: C12_30  and  O2_31 
REMARK    9  A    between atoms: C13_33  and  O3_34 
REMARK   10  A    between atoms: C14_36  and  N8_37 
REMARK   11  A    between atoms: C17_46  and  O4_47 
ROOT
HETATM    1  C4  UNL     1      30.671  28.544  83.980  1.00  0.00     0.159 C 
HETATM    2  S2  UNL     1      32.318  28.076  84.112  1.00  0.00    -0.145 SA
HETATM    3  C5  UNL     1      33.359  27.813  85.433  1.00  0.00     0.110 C 
HETATM    4  C6  UNL     1      32.784  27.571  86.804  1.00  0.00     0.163 C 
HETATM    5  O1  UNL     1      32.906  28.499  87.747  1.00  0.00    -0.380 OA
HETATM    6  C7  UNL     1      31.846  28.992  88.468  1.00  0.00     0.197 C 
HETATM    7  C8  UNL     1      30.565  29.292  87.721  1.00  0.00     0.147 C 
HETATM    8  C12 UNL     1      30.854  28.876  86.313  1.00  0.00     0.150 C 
HETATM    9  C13 UNL     1      31.284  27.445  86.469  1.00  0.00     0.190 C 
HETATM   10  C14 UNL     1      29.991  29.197  85.188  1.00  0.00     0.077 C 
ENDROOT
BRANCH   7  11
HETATM   11  N3  UNL     1      29.973  30.541  87.880  1.00  0.00    -0.392 N 
ATOM     12  H3  UNL     1      28.999  30.696  87.621  1.00  0.00     0.159 HD
BRANCH  11  13
HETATM   13  C9  UNL     1      30.755  31.586  88.407  1.00  0.00     0.063 C 
BRANCH  13  14
HETATM   14  C10 UNL     1      30.623  32.966  87.863  1.00  0.00     0.123 C 
BRANCH  14  15
HETATM   15  C11 UNL     1      29.483  33.692  88.562  1.00  0.00     0.117 A 
HETATM   16  N4  UNL     1      28.771  34.726  88.087  1.00  0.00    -0.272 N 
HETATM   17  N5  UNL     1      27.868  35.051  89.024  1.00  0.00    -0.227 N 
ATOM     18  H4  UNL     1      28.894  35.179  87.181  1.00  0.00     0.190 HD
HETATM   19  N6  UNL     1      27.994  34.258  90.061  1.00  0.00    -0.227 N 
ATOM     20  H5  UNL     1      27.185  35.804  88.943  1.00  0.00     0.210 HD
HETATM   21  N7  UNL     1      28.973  33.431  89.785  1.00  0.00    -0.272 N 
ATOM     22  H6  UNL     1      27.438  34.281  90.916  1.00  0.00     0.210 HD
ATOM     23  H7  UNL     1      29.304  32.693  90.407  1.00  0.00     0.190 HD
ENDBRANCH  14  15
ENDBRANCH  13  14
ENDBRANCH  11  13
ENDBRANCH   7  11
BRANCH   8  24
HETATM   24  O2  UNL     1      31.981  29.759  86.082  1.00  0.00    -0.379 OA
ATOM     25  H2  UNL     1      31.596  30.270  85.380  1.00  0.00     0.211 HD
ENDBRANCH   8  24
BRANCH   9  26
HETATM   26  O3  UNL     1      30.850  26.827  87.667  1.00  0.00    -0.389 OA
ATOM     27  H3  UNL     1      31.577  26.228  87.789  1.00  0.00     0.210 HD
ENDBRANCH   9  26
BRANCH  10  28
HETATM   28  N8  UNL     1      28.575  29.120  85.237  1.00  0.00    -0.234 N 
HETATM   29  N9  UNL     1      27.863  27.998  85.500  1.00  0.00    -0.276 N 
HETATM   30  C15 UNL     1      26.548  28.197  85.478  1.00  0.00     0.143 A 
ATOM     31  H9  UNL     1      28.292  27.094  85.695  1.00  0.00     0.189 HD
HETATM   32  N10 UNL     1      25.613  27.308  85.691  1.00  0.00    -0.383 N 
HETATM   33  C16 UNL     1      26.351  29.506  85.190  1.00  0.00     0.143 A 
ATOM     34 2H10 UNL     1      25.762  26.323  85.908  1.00  0.00     0.157 HD
ATOM     35 1H10 UNL     1      24.605  27.461  85.673  1.00  0.00     0.157 HD
HETATM   36  N11 UNL     1      25.090  30.141  85.068  1.00  0.00    -0.094 NA
HETATM   37  C17 UNL     1      27.616  30.042  85.048  1.00  0.00     0.190 A 
BRANCH  37  38
HETATM   38  O4  UNL     1      27.800  31.369  84.750  1.00  0.00    -0.343 OA
ATOM     39  H4  UNL     1      27.121  32.023  84.626  1.00  0.00     0.219 HD
ENDBRANCH  37  38
ENDBRANCH  10  28
BRANCH   1  40
HETATM   40  S1  UNL     1      29.730  27.137  83.319  1.00  0.00    -0.140 SA
BRANCH  40  41
HETATM   41  C3  UNL     1      30.745  25.868  82.600  1.00  0.00     0.153 C 
BRANCH  41  42
HETATM   42  C2  UNL     1      30.693  24.667  83.467  1.00  0.00     0.114 A 
HETATM   43  N2  UNL     1      31.490  24.359  84.503  1.00  0.00    -0.308 N 
HETATM   44  C1  UNL     1      31.139  23.189  85.039  1.00  0.00     0.242 A 
ATOM     45  H2  UNL     1      32.259  24.941  84.835  1.00  0.00     0.170 HD
HETATM   46  N1  UNL     1      31.674  22.603  86.024  1.00  0.00    -0.364 N 
HETATM   47  O5  UNL     1      30.120  22.766  84.334  1.00  0.00    -0.200 OA
ATOM     48  H12 UNL     1      32.467  22.934  86.573  1.00  0.00     0.159 HD
ATOM     49  H11 UNL     1      31.405  21.709  86.434  1.00  0.00     0.159 HD
HETATM   50  N12 UNL     1      29.837  23.624  83.396  1.00  0.00    -0.244 N 
ATOM     51  H12 UNL     1      29.086  23.523  82.714  1.00  0.00     0.196 HD
ENDBRANCH  41  42
ENDBRANCH  40  41
ENDBRANCH   1  40
TORSDOF 11
ENDMDL
MODEL 2
REMARK VINA RESULT: -8.630024059      3.470      6.283
REMARK  11 active torsions:
REMARK  status: ('A' for Active; 'I' for Inactive)
REMARK    1  A    between atoms: C2_7  and  C3_8 
REMARK    2  A    between atoms: C3_8  and  S1_9 
REMARK    3  A    between atoms: S1_9  and  C4_10 
REMARK    4  A    between atoms: C8_16  and  N3_17 
REMARK    5  A    between atoms: N3_17  and  C9_19 
REMARK    6  A    between atoms: C9_19  and  C10_20 
REMARK    7  A    between atoms: C10_20  and  C11_21 
REMARK    8  A    between atoms: C12_30  and  O2_31 
REMARK    9  A    between atoms: C13_33  and  O3_34 
REMARK   10  A    between atoms: C14_36  and  N8_37 
REMARK   11  A    between atoms: C17_46  and  O4_47 
ROOT
HETATM    1  C4  UNL     1      27.400  29.961  84.784  1.00  0.00     0.159 C 
HETATM    2  S2  UNL     1      26.866  29.169  83.357  1.00  0.00    -0.145 SA
HETATM    3  C5  UNL     1      27.667  28.575  81.977  1.00  0.00     0.110 C 
HETATM    4  C6  UNL     1      29.149  28.312  82.024  1.00  0.00     0.163 C 
HETATM    5  O1  UNL     1      29.983  29.098  81.352  1.00  0.00    -0.380 OA
HETATM    6  C7  UNL     1      31.071  29.713  81.922  1.00  0.00     0.197 C 
HETATM    7  C8  UNL     1      30.893  30.332  83.291  1.00  0.00     0.147 C 
HETATM    8  C12 UNL     1      29.478  30.012  83.659  1.00  0.00     0.150 C 
HETATM    9  C13 UNL     1      29.429  28.517  83.527  1.00  0.00     0.190 C 
HETATM   10  C14 UNL     1      28.789  30.608  84.792  1.00  0.00     0.077 C 
ENDROOT
BRANCH   7  11
HETATM   11  N3  UNL     1      31.293  31.650  83.488  1.00  0.00    -0.392 N 
ATOM     12  H3  UNL     1      30.816  32.418  83.015  1.00  0.00     0.159 HD
BRANCH  11  13
HETATM   13  C9  UNL     1      32.372  31.896  84.356  1.00  0.00     0.063 C 
BRANCH  13  14
HETATM   14  C10 UNL     1      32.281  32.977  85.376  1.00  0.00     0.123 C 
BRANCH  14  15
HETATM   15  C11 UNL     1      32.944  34.241  84.851  1.00  0.00     0.117 A 
HETATM   16  N4  UNL     1      33.130  34.583  83.566  1.00  0.00    -0.272 N 
HETATM   17  N5  UNL     1      33.750  35.774  83.557  1.00  0.00    -0.227 N 
ATOM     18  H4  UNL     1      32.853  34.038  82.750  1.00  0.00     0.190 HD
HETATM   19  N6  UNL     1      33.953  36.181  84.786  1.00  0.00    -0.227 N 
ATOM     20  H5  UNL     1      34.022  36.285  82.718  1.00  0.00     0.210 HD
HETATM   21  N7  UNL     1      33.466  35.255  85.575  1.00  0.00    -0.272 N 
ATOM     22  H6  UNL     1      34.403  37.051  85.072  1.00  0.00     0.210 HD
ATOM     23  H7  UNL     1      33.479  35.294  86.595  1.00  0.00     0.190 HD
ENDBRANCH  14  15
ENDBRANCH  13  14
ENDBRANCH  11  13
ENDBRANCH   7  11
BRANCH   8  24
HETATM   24  O2  UNL     1      28.837  30.676  82.540  1.00  0.00    -0.379 OA
ATOM     25  H2  UNL     1      29.287  30.210  81.845  1.00  0.00     0.211 HD
ENDBRANCH   8  24
BRANCH   9  26
HETATM   26  O3  UNL     1      30.690  27.877  83.597  1.00  0.00    -0.389 OA
ATOM     27  H3  UNL     1      30.396  27.012  83.857  1.00  0.00     0.210 HD
ENDBRANCH   9  26
BRANCH  10  28
HETATM   28  N8  UNL     1      29.390  30.805  86.062  1.00  0.00    -0.234 N 
HETATM   29  N9  UNL     1      29.188  31.879  86.862  1.00  0.00    -0.276 N 
HETATM   30  C15 UNL     1      29.878  31.822  87.997  1.00  0.00     0.143 A 
ATOM     31  H9  UNL     1      28.569  32.653  86.619  1.00  0.00     0.189 HD
HETATM   32  N10 UNL     1      29.888  32.706  88.959  1.00  0.00    -0.383 N 
HETATM   33  C16 UNL     1      30.579  30.662  87.976  1.00  0.00     0.143 A 
ATOM     34 2H10 UNL     1      29.359  33.579  88.976  1.00  0.00     0.157 HD
ATOM     35 1H10 UNL     1      30.417  32.662  89.830  1.00  0.00     0.157 HD
HETATM   36  N11 UNL     1      31.450  30.208  88.997  1.00  0.00    -0.094 NA
HETATM   37  C17 UNL     1      30.256  30.065  86.773  1.00  0.00     0.190 A 
BRANCH  37  38
HETATM   38  O4  UNL     1      30.792  28.854  86.411  1.00  0.00    -0.343 OA
ATOM     39  H4  UNL     1      30.934  28.103  86.976  1.00  0.00     0.219 HD
ENDBRANCH  37  38
ENDBRANCH  10  28
BRANCH   1  40
HETATM   40  S1  UNL     1      27.139  28.839  86.189  1.00  0.00    -0.140 SA
BRANCH  40  41
HETATM   41  C3  UNL     1      25.607  29.109  87.048  1.00  0.00     0.153 C 
BRANCH  41  42
HETATM   42  C2  UNL     1      24.486  28.747  86.148  1.00  0.00     0.114 A 
HETATM   43  N2  UNL     1      23.779  29.555  85.341  1.00  0.00    -0.308 N 
HETATM   44  C1  UNL     1      22.844  28.867  84.685  1.00  0.00     0.242 A 
ATOM     45  H2  UNL     1      23.936  30.558  85.244  1.00  0.00     0.170 HD
HETATM   46  N1  UNL     1      22.006  29.314  83.848  1.00  0.00    -0.364 N 
HETATM   47  O5  UNL     1      22.967  27.626  85.084  1.00  0.00    -0.200 OA
ATOM     48  H12 UNL     1      21.911  30.280  83.537  1.00  0.00     0.159 HD
ATOM     49  H11 UNL     1      21.291  28.788  83.345  1.00  0.00     0.159 HD
HETATM   50  N12 UNL     1      23.933  27.530  85.951  1.00  0.00    -0.244 N 
ATOM     51  H12 UNL     1      24.227  26.669  86.412  1.00  0.00     0.196 HD
ENDBRANCH  41  42
ENDBRANCH  40  41
ENDBRANCH   1  40
TORSDOF 11
ENDMDL
MODEL 3
REMARK VINA RESULT: -8.594231458      2.175      3.324
REMARK  11 active torsions:
REMARK  status: ('A' for Active; 'I' for Inactive)
REMARK    1  A    between atoms: C2_7  and  C3_8 
REMARK    2  A    between atoms: C3_8  and  S1_9 
REMARK    3  A    between atoms: S1_9  and  C4_10 
REMARK    4  A    between atoms: C8_16  and  N3_17 
REMARK    5  A    between atoms: N3_17  and  C9_19 
REMARK    6  A    between atoms: C9_19  and  C10_20 
REMARK    7  A    between atoms: C10_20  and  C11_21 
REMARK    8  A    between atoms: C12_30  and  O2_31 
REMARK    9  A    between atoms: C13_33  and  O3_34 
REMARK   10  A    between atoms: C14_36  and  N8_37 
REMARK   11  A    between atoms: C17_46  and  O4_47 
ROOT
HETATM    1  C4  UNL     1      30.750  28.624  84.046  1.00  0.00     0.159 C 
HETATM    2  S2  UNL     1      32.402  28.174  84.173  1.00  0.00    -0.145 SA
HETATM    3  C5  UNL     1      33.440  27.886  85.492  1.00  0.00     0.110 C 
HETATM    4  C6  UNL     1      32.862  27.598  86.852  1.00  0.00     0.163 C 
HETATM    5  O1  UNL     1      32.968  28.501  87.822  1.00  0.00    -0.380 OA
HETATM    6  C7  UNL     1      31.899  28.960  88.551  1.00  0.00     0.197 C 
HETATM    7  C8  UNL     1      30.618  29.266  87.806  1.00  0.00     0.147 C 
HETATM    8  C12 UNL     1      30.918  28.893  86.388  1.00  0.00     0.150 C 
HETATM    9  C13 UNL     1      31.365  27.464  86.506  1.00  0.00     0.190 C 
HETATM   10  C14 UNL     1      30.056  29.235  85.268  1.00  0.00     0.077 C 
ENDROOT
BRANCH   7  11
HETATM   11  N3  UNL     1      30.010  30.503  87.997  1.00  0.00    -0.392 N 
ATOM     12  H3  UNL     1      29.009  30.624  87.844  1.00  0.00     0.159 HD
BRANCH  11  13
HETATM   13  C9  UNL     1      30.813  31.583  88.406  1.00  0.00     0.063 C 
BRANCH  13  14
HETATM   14  C10 UNL     1      30.618  32.931  87.803  1.00  0.00     0.123 C 
BRANCH  14  15
HETATM   15  C11 UNL     1      29.497  33.664  88.524  1.00  0.00     0.117 A 
HETATM   16  N4  UNL     1      28.770  34.690  88.055  1.00  0.00    -0.272 N 
HETATM   17  N5  UNL     1      27.893  35.027  89.014  1.00  0.00    -0.227 N 
ATOM     18  H4  UNL     1      28.867  35.132  87.141  1.00  0.00     0.190 HD
HETATM   19  N6  UNL     1      28.050  34.248  90.056  1.00  0.00    -0.227 N 
ATOM     20  H5  UNL     1      27.207  35.778  88.942  1.00  0.00     0.210 HD
HETATM   21  N7  UNL     1      29.022  33.419  89.764  1.00  0.00    -0.272 N 
ATOM     22  H6  UNL     1      27.518  34.282  90.926  1.00  0.00     0.210 HD
ATOM     23  H7  UNL     1      29.372  32.690  90.387  1.00  0.00     0.190 HD
ENDBRANCH  14  15
ENDBRANCH  13  14
ENDBRANCH  11  13
ENDBRANCH   7  11
BRANCH   8  24
HETATM   24  O2  UNL     1      32.035  29.796  86.188  1.00  0.00    -0.379 OA
ATOM     25  H2  UNL     1      32.721  29.138  86.152  1.00  0.00     0.211 HD
ENDBRANCH   8  24
BRANCH   9  26
HETATM   26  O3  UNL     1      30.933  26.806  87.684  1.00  0.00    -0.389 OA
ATOM     27  H3  UNL     1      31.300  27.405  88.323  1.00  0.00     0.210 HD
ENDBRANCH   9  26
BRANCH  10  28
HETATM   28  N8  UNL     1      28.641  29.139  85.308  1.00  0.00    -0.234 N 
HETATM   29  N9  UNL     1      27.943  28.017  85.604  1.00  0.00    -0.276 N 
HETATM   30  C15 UNL     1      26.626  28.196  85.564  1.00  0.00     0.143 A 
ATOM     31  H9  UNL     1      28.383  27.126  85.834  1.00  0.00     0.189 HD
HETATM   32  N10 UNL     1      25.702  27.302  85.799  1.00  0.00    -0.383 N 
HETATM   33  C16 UNL     1      26.412  29.492  85.229  1.00  0.00     0.143 A 
ATOM     34 2H10 UNL     1      25.862  26.326  86.052  1.00  0.00     0.157 HD
ATOM     35 1H10 UNL     1      24.691  27.439  85.768  1.00  0.00     0.157 HD
HETATM   36  N11 UNL     1      25.144  30.104  85.075  1.00  0.00    -0.094 NA
HETATM   37  C17 UNL     1      27.671  30.040  85.080  1.00  0.00     0.190 A 
BRANCH  37  38
HETATM   38  O4  UNL     1      27.839  31.359  84.737  1.00  0.00    -0.343 OA
ATOM     39  H4  UNL     1      27.484  31.797  83.973  1.00  0.00     0.219 HD
ENDBRANCH  37  38
ENDBRANCH  10  28
BRANCH   1  40
HETATM   40  S1  UNL     1      29.830  27.225  83.341  1.00  0.00    -0.140 SA
BRANCH  40  41
HETATM   41  C3  UNL     1      28.681  27.690  82.067  1.00  0.00     0.153 C 
BRANCH  41  42
HETATM   42  C2  UNL     1      29.031  29.046  81.582  1.00  0.00     0.114 A 
HETATM   43  N2  UNL     1      30.064  29.407  80.804  1.00  0.00    -0.308 N 
HETATM   44  C1  UNL     1      30.053  30.721  80.580  1.00  0.00     0.242 A 
ATOM     45  H2  UNL     1      30.763  28.762  80.435  1.00  0.00     0.170 HD
HETATM   46  N1  UNL     1      30.877  31.391  79.892  1.00  0.00    -0.364 N 
HETATM   47  O5  UNL     1      29.009  31.183  81.221  1.00  0.00    -0.200 OA
ATOM     48  H12 UNL     1      31.690  31.031  79.393  1.00  0.00     0.159 HD
ATOM     49  H11 UNL     1      30.868  32.396  79.721  1.00  0.00     0.159 HD
HETATM   50  N12 UNL     1      28.387  30.210  81.823  1.00  0.00    -0.244 N 
ATOM     51  H12 UNL     1      27.545  30.311  82.389  1.00  0.00     0.196 HD
ENDBRANCH  41  42
ENDBRANCH  40  41
ENDBRANCH   1  40
TORSDOF 11
ENDMDL
MODEL 4
REMARK VINA RESULT: -8.443435257      2.595      3.796
REMARK  11 active torsions:
REMARK  status: ('A' for Active; 'I' for Inactive)
REMARK    1  A    between atoms: C2_7  and  C3_8 
REMARK    2  A    between atoms: C3_8  and  S1_9 
REMARK    3  A    between atoms: S1_9  and  C4_10 
REMARK    4  A    between atoms: C8_16  and  N3_17 
REMARK    5  A    between atoms: N3_17  and  C9_19 
REMARK    6  A    between atoms: C9_19  and  C10_20 
REMARK    7  A    between atoms: C10_20  and  C11_21 
REMARK    8  A    between atoms: C12_30  and  O2_31 
REMARK    9  A    between atoms: C13_33  and  O3_34 
REMARK   10  A    between atoms: C14_36  and  N8_37 
REMARK   11  A    between atoms: C17_46  and  O4_47 
ROOT
HETATM    1  C4  UNL     1      30.818  28.757  84.082  1.00  0.00     0.159 C 
HETATM    2  S2  UNL     1      32.479  28.346  84.220  1.00  0.00    -0.145 SA
HETATM    3  C5  UNL     1      33.512  28.073  85.546  1.00  0.00     0.110 C 
HETATM    4  C6  UNL     1      32.930  27.759  86.899  1.00  0.00     0.163 C 
HETATM    5  O1  UNL     1      33.005  28.656  87.877  1.00  0.00    -0.380 OA
HETATM    6  C7  UNL     1      31.919  29.083  88.600  1.00  0.00     0.197 C 
HETATM    7  C8  UNL     1      30.637  29.363  87.846  1.00  0.00     0.147 C 
HETATM    8  C12 UNL     1      30.958  29.010  86.428  1.00  0.00     0.150 C 
HETATM    9  C13 UNL     1      31.440  27.591  86.538  1.00  0.00     0.190 C 
HETATM   10  C14 UNL     1      30.098  29.340  85.304  1.00  0.00     0.077 C 
ENDROOT
BRANCH   7  11
HETATM   11  N3  UNL     1      29.997  30.583  88.042  1.00  0.00    -0.392 N 
ATOM     12  H3  UNL     1      29.009  30.698  87.818  1.00  0.00     0.159 HD
BRANCH  11  13
HETATM   13  C9  UNL     1      30.749  31.653  88.559  1.00  0.00     0.063 C 
BRANCH  13  14
HETATM   14  C10 UNL     1      30.388  33.057  88.215  1.00  0.00     0.123 C 
BRANCH  14  15
HETATM   15  C11 UNL     1      31.443  33.652  87.294  1.00  0.00     0.117 A 
HETATM   16  N4  UNL     1      31.815  33.192  86.089  1.00  0.00    -0.272 N 
HETATM   17  N5  UNL     1      32.769  34.017  85.626  1.00  0.00    -0.227 N 
ATOM     18  H4  UNL     1      31.444  32.370  85.614  1.00  0.00     0.190 HD
HETATM   19  N6  UNL     1      32.998  34.968  86.499  1.00  0.00    -0.227 N 
ATOM     20  H5  UNL     1      33.244  33.917  84.730  1.00  0.00     0.210 HD
HETATM   21  N7  UNL     1      32.196  34.751  87.513  1.00  0.00    -0.272 N 
ATOM     22  H6  UNL     1      33.671  35.729  86.406  1.00  0.00     0.210 HD
ATOM     23  H7  UNL     1      32.147  35.332  88.350  1.00  0.00     0.190 HD
ENDBRANCH  14  15
ENDBRANCH  13  14
ENDBRANCH  11  13
ENDBRANCH   7  11
BRANCH   8  24
HETATM   24  O2  UNL     1      32.055  29.942  86.245  1.00  0.00    -0.379 OA
ATOM     25  H2  UNL     1      31.782  30.582  86.892  1.00  0.00     0.211 HD
ENDBRANCH   8  24
BRANCH   9  26
HETATM   26  O3  UNL     1      31.014  26.913  87.707  1.00  0.00    -0.389 OA
ATOM     27  H3  UNL     1      30.234  27.422  87.890  1.00  0.00     0.210 HD
ENDBRANCH   9  26
BRANCH  10  28
HETATM   28  N8  UNL     1      28.686  29.210  85.330  1.00  0.00    -0.234 N 
HETATM   29  N9  UNL     1      28.013  28.073  85.630  1.00  0.00    -0.276 N 
HETATM   30  C15 UNL     1      26.692  28.218  85.575  1.00  0.00     0.143 A 
ATOM     31  H9  UNL     1      28.472  27.196  85.873  1.00  0.00     0.189 HD
HETATM   32  N10 UNL     1      25.788  27.304  85.810  1.00  0.00    -0.383 N 
HETATM   33  C16 UNL     1      26.450  29.505  85.225  1.00  0.00     0.143 A 
ATOM     34 2H10 UNL     1      25.970  26.335  86.074  1.00  0.00     0.157 HD
ATOM     35 1H10 UNL     1      24.775  27.415  85.768  1.00  0.00     0.157 HD
HETATM   36  N11 UNL     1      25.168  30.084  85.053  1.00  0.00    -0.094 NA
HETATM   37  C17 UNL     1      27.696  30.083  85.083  1.00  0.00     0.190 A 
BRANCH  37  38
HETATM   38  O4  UNL     1      27.834  31.403  84.729  1.00  0.00    -0.343 OA
ATOM     39  H4  UNL     1      27.146  32.058  84.699  1.00  0.00     0.219 HD
ENDBRANCH  37  38
ENDBRANCH  10  28
BRANCH   1  40
HETATM   40  S1  UNL     1      29.938  27.342  83.358  1.00  0.00    -0.140 SA
BRANCH  40  41
HETATM   41  C3  UNL     1      28.812  27.786  82.057  1.00  0.00     0.153 C 
BRANCH  41  42
HETATM   42  C2  UNL     1      29.145  29.151  81.583  1.00  0.00     0.114 A 
HETATM   43  N2  UNL     1      30.195  29.536  80.840  1.00  0.00    -0.308 N 
HETATM   44  C1  UNL     1      30.160  30.850  80.616  1.00  0.00     0.242 A 
ATOM     45  H2  UNL     1      30.921  28.908  80.494  1.00  0.00     0.170 HD
HETATM   46  N1  UNL     1      30.990  31.540  79.956  1.00  0.00    -0.364 N 
HETATM   47  O5  UNL     1      29.084  31.287  81.221  1.00  0.00    -0.200 OA
ATOM     48  H12 UNL     1      31.828  31.199  79.484  1.00  0.00     0.159 HD
ATOM     49  H11 UNL     1      30.963  32.545  79.783  1.00  0.00     0.159 HD
HETATM   50  N12 UNL     1      28.467  30.299  81.802  1.00  0.00    -0.244 N 
ATOM     51  H12 UNL     1      27.604  30.379  82.340  1.00  0.00     0.196 HD
ENDBRANCH  41  42
ENDBRANCH  40  41
ENDBRANCH   1  40
TORSDOF 11
ENDMDL
MODEL 5
REMARK VINA RESULT: -8.421797950      0.887      1.537
REMARK  11 active torsions:
REMARK  status: ('A' for Active; 'I' for Inactive)
REMARK    1  A    between atoms: C2_7  and  C3_8 
REMARK    2  A    between atoms: C3_8  and  S1_9 
REMARK    3  A    between atoms: S1_9  and  C4_10 
REMARK    4  A    between atoms: C8_16  and  N3_17 
REMARK    5  A    between atoms: N3_17  and  C9_19 
REMARK    6  A    between atoms: C9_19  and  C10_20 
REMARK    7  A    between atoms: C10_20  and  C11_21 
REMARK    8  A    between atoms: C12_30  and  O2_31 
REMARK    9  A    between atoms: C13_33  and  O3_34 
REMARK   10  A    between atoms: C14_36  and  N8_37 
REMARK   11  A    between atoms: C17_46  and  O4_47 
ROOT
HETATM    1  C4  UNL     1      30.719  28.465  84.021  1.00  0.00     0.159 C 
HETATM    2  S2  UNL     1      32.368  28.019  84.192  1.00  0.00    -0.145 SA
HETATM    3  C5  UNL     1      33.394  27.818  85.535  1.00  0.00     0.110 C 
HETATM    4  C6  UNL     1      32.804  27.624  86.907  1.00  0.00     0.163 C 
HETATM    5  O1  UNL     1      32.905  28.590  87.815  1.00  0.00    -0.380 OA
HETATM    6  C7  UNL     1      31.832  29.100  88.503  1.00  0.00     0.197 C 
HETATM    7  C8  UNL     1      30.558  29.358  87.728  1.00  0.00     0.147 C 
HETATM    8  C12 UNL     1      30.868  28.890  86.341  1.00  0.00     0.150 C 
HETATM    9  C13 UNL     1      31.310  27.471  86.559  1.00  0.00     0.190 C 
HETATM   10  C14 UNL     1      30.017  29.158  85.194  1.00  0.00     0.077 C 
ENDROOT
BRANCH   7  11
HETATM   11  N3  UNL     1      29.953  30.607  87.830  1.00  0.00    -0.392 N 
ATOM     12  H3  UNL     1      29.001  30.757  87.496  1.00  0.00     0.159 HD
BRANCH  11  13
HETATM   13  C9  UNL     1      30.688  31.658  88.407  1.00  0.00     0.063 C 
BRANCH  13  14
HETATM   14  C10 UNL     1      30.540  33.047  87.891  1.00  0.00     0.123 C 
BRANCH  14  15
HETATM   15  C11 UNL     1      29.404  33.751  88.616  1.00  0.00     0.117 A 
HETATM   16  N4  UNL     1      28.907  33.449  89.825  1.00  0.00    -0.272 N 
HETATM   17  N5  UNL     1      27.920  34.322  90.079  1.00  0.00    -0.227 N 
ATOM     18  H4  UNL     1      29.220  32.696  90.437  1.00  0.00     0.190 HD
HETATM   19  N6  UNL     1      27.788  35.153  89.074  1.00  0.00    -0.227 N 
ATOM     20  H5  UNL     1      27.356  34.338  90.928  1.00  0.00     0.210 HD
HETATM   21  N7  UNL     1      28.687  34.811  88.183  1.00  0.00    -0.272 N 
ATOM     22  H6  UNL     1      27.117  35.918  88.999  1.00  0.00     0.210 HD
ATOM     23  H7  UNL     1      28.825  35.279  87.287  1.00  0.00     0.190 HD
ENDBRANCH  14  15
ENDBRANCH  13  14
ENDBRANCH  11  13
ENDBRANCH   7  11
BRANCH   8  24
HETATM   24  O2  UNL     1      31.990  29.774  86.090  1.00  0.00    -0.379 OA
ATOM     25  H2  UNL     1      32.276  29.382  85.272  1.00  0.00     0.211 HD
ENDBRANCH   8  24
BRANCH   9  26
HETATM   26  O3  UNL     1      30.866  26.895  87.775  1.00  0.00    -0.389 OA
ATOM     27  H3  UNL     1      29.930  26.968  87.633  1.00  0.00     0.210 HD
ENDBRANCH   9  26
BRANCH  10  28
HETATM   28  N8  UNL     1      28.601  29.070  85.228  1.00  0.00    -0.234 N 
HETATM   29  N9  UNL     1      27.896  27.940  85.474  1.00  0.00    -0.276 N 
HETATM   30  C15 UNL     1      26.580  28.128  85.440  1.00  0.00     0.143 A 
ATOM     31  H9  UNL     1      28.330  27.037  85.665  1.00  0.00     0.189 HD
HETATM   32  N10 UNL     1      25.650  27.230  85.636  1.00  0.00    -0.383 N 
HETATM   33  C16 UNL     1      26.375  29.438  85.163  1.00  0.00     0.143 A 
ATOM     34 2H10 UNL     1      25.805  26.244  85.845  1.00  0.00     0.157 HD
ATOM     35 1H10 UNL     1      24.641  27.375  85.610  1.00  0.00     0.157 HD
HETATM   36  N11 UNL     1      25.110  30.065  85.035  1.00  0.00    -0.094 NA
HETATM   37  C17 UNL     1      27.637  29.985  85.039  1.00  0.00     0.190 A 
BRANCH  37  38
HETATM   38  O4  UNL     1      27.813  31.317  84.755  1.00  0.00    -0.343 OA
ATOM     39  H4  UNL     1      28.635  31.755  84.567  1.00  0.00     0.219 HD
ENDBRANCH  37  38
ENDBRANCH  10  28
BRANCH   1  40
HETATM   40  S1  UNL     1      29.799  27.024  83.404  1.00  0.00    -0.140 SA
BRANCH  40  41
HETATM   41  C3  UNL     1      30.777  25.546  83.285  1.00  0.00     0.153 C 
BRANCH  41  42
HETATM   42  C2  UNL     1      29.874  24.395  83.044  1.00  0.00     0.114 A 
HETATM   43  N2  UNL     1      28.870  24.302  82.159  1.00  0.00    -0.308 N 
HETATM   44  C1  UNL     1      28.279  23.109  82.236  1.00  0.00     0.242 A 
ATOM     45  H2  UNL     1      28.596  25.043  81.513  1.00  0.00     0.170 HD
HETATM   46  N1  UNL     1      27.303  22.688  81.550  1.00  0.00    -0.364 N 
HETATM   47  O5  UNL     1      28.917  22.455  83.175  1.00  0.00    -0.200 OA
ATOM     48  H12 UNL     1      26.807  23.197  80.819  1.00  0.00     0.159 HD
ATOM     49  H11 UNL     1      26.851  21.775  81.609  1.00  0.00     0.159 HD
HETATM   50  N12 UNL     1      29.866  23.196  83.669  1.00  0.00    -0.244 N 
ATOM     51  H12 UNL     1      30.504  22.916  84.413  1.00  0.00     0.196 HD
ENDBRANCH  41  42
ENDBRANCH  40  41
ENDBRANCH   1  40
TORSDOF 11
ENDMDL
