MODEL 1
REMARK VINA RESULT: -7.653630856      0.000      0.000
REMARK  8 active torsions:
REMARK  status: ('A' for Active; 'I' for Inactive)
REMARK    1  A    between atoms: C2_2  and  C3_3 
REMARK    2  A    between atoms: C3_3  and  C4_4 
REMARK    3  A    between atoms: C4_4  and  C5_5 
REMARK    4  A    between atoms: C5_5  and  N1_6 
REMARK    5  A    between atoms: N1_6  and  C6_8 
REMARK    6  A    between atoms: C8_13  and  N3_14 
REMARK    7  A    between atoms: N3_14  and  C9_16 
REMARK    8  A    between atoms: C9_16  and  C10_17 
ROOT
HETATM    1  C6  UNL     1     -23.160  20.259   3.134  1.00  0.00     0.119 A 
HETATM    2  N2  UNL     1     -23.646  21.424   2.585  1.00  0.00    -0.311 N 
ATOM      3  H2  UNL     1     -24.436  21.984   2.906  1.00  0.00     0.176 HD
HETATM    4  S1  UNL     1     -22.657  21.713   1.281  1.00  0.00    -0.009 SA
HETATM    5  C7  UNL     1     -21.611  20.373   1.401  1.00  0.00     0.079 A 
HETATM    6  C8  UNL     1     -20.508  19.933   0.642  1.00  0.00     0.120 A 
HETATM    7  N5  UNL     1     -19.865  18.808   0.990  1.00  0.00    -0.351 N 
ATOM      8  H5  UNL     1     -19.064  18.467   0.458  1.00  0.00     0.166 HD
HETATM    9  C16 UNL     1     -20.315  18.158   2.056  1.00  0.00     0.090 A 
HETATM   10  C17 UNL     1     -21.388  18.546   2.831  1.00  0.00     0.034 A 
HETATM   11  C18 UNL     1     -22.090  19.720   2.498  1.00  0.00     0.032 A 
ENDROOT
BRANCH   6  12
HETATM   12  N3  UNL     1     -20.207  20.668  -0.344  1.00  0.00    -0.375 N 
ATOM     13  H3  UNL     1     -20.931  20.766  -1.056  1.00  0.00     0.161 HD
BRANCH  12  14
HETATM   14  C9  UNL     1     -19.003  21.374  -0.594  1.00  0.00     0.127 C 
BRANCH  14  15
HETATM   15  C10 UNL     1     -19.275  22.784  -1.093  1.00  0.00     0.021 C 
HETATM   16  C11 UNL     1     -19.933  23.638  -0.029  1.00  0.00     0.013 C 
HETATM   17  C12 UNL     1     -20.172  25.002  -0.666  1.00  0.00     0.045 C 
HETATM   18  C13 UNL     1     -21.088  24.878  -1.835  1.00  0.00     0.057 C 
HETATM   19  N4  UNL     1     -21.180  23.601  -2.424  1.00  0.00    -0.397 N 
HETATM   20  C14 UNL     1     -22.428  22.933  -2.306  1.00  0.00     0.148 C 
HETATM   21  C15 UNL     1     -20.024  22.789  -2.394  1.00  0.00     0.127 C 
ENDBRANCH  14  15
ENDBRANCH  12  14
ENDBRANCH   6  12
BRANCH   1  22
HETATM   22  N1  UNL     1     -23.762  19.802   4.184  1.00  0.00    -0.375 N 
ATOM     23  H1  UNL     1     -23.944  18.803   4.094  1.00  0.00     0.161 HD
BRANCH  22  24
HETATM   24  C5  UNL     1     -24.224  20.278   5.381  1.00  0.00     0.121 C 
BRANCH  24  25
HETATM   25  C4  UNL     1     -23.475  19.600   6.538  1.00  0.00     0.020 C 
BRANCH  25  26
HETATM   26  C3  UNL     1     -23.134  18.173   6.188  1.00  0.00     0.001 C 
BRANCH  26  27
HETATM   27  C2  UNL     1     -22.138  17.585   7.162  1.00  0.00    -0.004 C 
HETATM   28  C1  UNL     1     -20.892  18.417   7.179  1.00  0.00     0.005 C 
ENDBRANCH  26  27
ENDBRANCH  25  26
ENDBRANCH  24  25
ENDBRANCH  22  24
ENDBRANCH   1  22
TORSDOF 8
ENDMDL
MODEL 2
REMARK VINA RESULT: -7.603526426      1.323      1.907
REMARK  8 active torsions:
REMARK  status: ('A' for Active; 'I' for Inactive)
REMARK    1  A    between atoms: C2_2  and  C3_3 
REMARK    2  A    between atoms: C3_3  and  C4_4 
REMARK    3  A    between atoms: C4_4  and  C5_5 
REMARK    4  A    between atoms: C5_5  and  N1_6 
REMARK    5  A    between atoms: N1_6  and  C6_8 
REMARK    6  A    between atoms: C8_13  and  N3_14 
REMARK    7  A    between atoms: N3_14  and  C9_16 
REMARK    8  A    between atoms: C9_16  and  C10_17 
ROOT
HETATM    1  C6  UNL     1     -23.130  20.326   3.025  1.00  0.00     0.119 A 
HETATM    2  N2  UNL     1     -23.578  21.500   2.465  1.00  0.00    -0.311 N 
ATOM      3  H2  UNL     1     -24.366  22.074   2.765  1.00  0.00     0.176 HD
HETATM    4  S1  UNL     1     -22.547  21.774   1.190  1.00  0.00    -0.009 SA
HETATM    5  C7  UNL     1     -21.529  20.415   1.337  1.00  0.00     0.079 A 
HETATM    6  C8  UNL     1     -20.413  19.957   0.609  1.00  0.00     0.120 A 
HETATM    7  N5  UNL     1     -19.801  18.819   0.972  1.00  0.00    -0.351 N 
ATOM      8  H5  UNL     1     -18.991  18.465   0.463  1.00  0.00     0.166 HD
HETATM    9  C16 UNL     1     -20.293  18.176   2.023  1.00  0.00     0.090 A 
HETATM   10  C17 UNL     1     -21.380  18.582   2.768  1.00  0.00     0.034 A 
HETATM   11  C18 UNL     1     -22.051  19.769   2.418  1.00  0.00     0.032 A 
ENDROOT
BRANCH   6  12
HETATM   12  N3  UNL     1     -20.071  20.688  -0.367  1.00  0.00    -0.375 N 
ATOM     13  H3  UNL     1     -20.637  20.590  -1.209  1.00  0.00     0.161 HD
BRANCH  12  14
HETATM   14  C9  UNL     1     -19.009  21.625  -0.447  1.00  0.00     0.127 C 
BRANCH  14  15
HETATM   15  C10 UNL     1     -18.577  21.856  -1.887  1.00  0.00     0.021 C 
HETATM   16  C11 UNL     1     -17.096  22.157  -1.986  1.00  0.00     0.013 C 
HETATM   17  C12 UNL     1     -16.808  22.392  -3.464  1.00  0.00     0.045 C 
HETATM   18  C13 UNL     1     -17.583  23.561  -3.967  1.00  0.00     0.057 C 
HETATM   19  N4  UNL     1     -18.725  23.920  -3.222  1.00  0.00    -0.397 N 
HETATM   20  C14 UNL     1     -18.680  25.171  -2.549  1.00  0.00     0.148 C 
HETATM   21  C15 UNL     1     -19.430  22.880  -2.576  1.00  0.00     0.127 C 
ENDBRANCH  14  15
ENDBRANCH  12  14
ENDBRANCH   6  12
BRANCH   1  22
HETATM   22  N1  UNL     1     -23.769  19.878   4.056  1.00  0.00    -0.375 N 
ATOM     23  H1  UNL     1     -23.977  18.885   3.952  1.00  0.00     0.161 HD
BRANCH  22  24
HETATM   24  C5  UNL     1     -24.246  20.357   5.246  1.00  0.00     0.121 C 
BRANCH  24  25
HETATM   25  C4  UNL     1     -23.546  19.647   6.414  1.00  0.00     0.020 C 
BRANCH  25  26
HETATM   26  C3  UNL     1     -23.217  18.221   6.050  1.00  0.00     0.001 C 
BRANCH  26  27
HETATM   27  C2  UNL     1     -22.264  17.599   7.047  1.00  0.00    -0.004 C 
HETATM   28  C1  UNL     1     -21.146  18.552   7.343  1.00  0.00     0.005 C 
ENDBRANCH  26  27
ENDBRANCH  25  26
ENDBRANCH  24  25
ENDBRANCH  22  24
ENDBRANCH   1  22
TORSDOF 8
ENDMDL
MODEL 3
REMARK VINA RESULT: -7.603481191      1.110      1.644
REMARK  8 active torsions:
REMARK  status: ('A' for Active; 'I' for Inactive)
REMARK    1  A    between atoms: C2_2  and  C3_3 
REMARK    2  A    between atoms: C3_3  and  C4_4 
REMARK    3  A    between atoms: C4_4  and  C5_5 
REMARK    4  A    between atoms: C5_5  and  N1_6 
REMARK    5  A    between atoms: N1_6  and  C6_8 
REMARK    6  A    between atoms: C8_13  and  N3_14 
REMARK    7  A    between atoms: N3_14  and  C9_16 
REMARK    8  A    between atoms: C9_16  and  C10_17 
ROOT
HETATM    1  C6  UNL     1     -23.182  20.290   3.167  1.00  0.00     0.119 A 
HETATM    2  N2  UNL     1     -23.602  21.468   2.593  1.00  0.00    -0.311 N 
ATOM      3  H2  UNL     1     -24.369  22.070   2.894  1.00  0.00     0.176 HD
HETATM    4  S1  UNL     1     -22.580  21.691   1.302  1.00  0.00    -0.009 SA
HETATM    5  C7  UNL     1     -21.601  20.304   1.458  1.00  0.00     0.079 A 
HETATM    6  C8  UNL     1     -20.509  19.801   0.723  1.00  0.00     0.120 A 
HETATM    7  N5  UNL     1     -19.926  18.652   1.097  1.00  0.00    -0.351 N 
ATOM      8  H5  UNL     1     -19.134  18.265   0.583  1.00  0.00     0.166 HD
HETATM    9  C16 UNL     1     -20.424  18.040   2.164  1.00  0.00     0.090 A 
HETATM   10  C17 UNL     1     -21.489  18.490   2.916  1.00  0.00     0.034 A 
HETATM   11  C18 UNL     1     -22.128  19.691   2.555  1.00  0.00     0.032 A 
ENDROOT
BRANCH   6  12
HETATM   12  N3  UNL     1     -20.157  20.507  -0.268  1.00  0.00    -0.375 N 
ATOM     13  H3  UNL     1     -20.800  20.502  -1.060  1.00  0.00     0.161 HD
BRANCH  12  14
HETATM   14  C9  UNL     1     -18.994  21.303  -0.427  1.00  0.00     0.127 C 
BRANCH  14  15
HETATM   15  C10 UNL     1     -19.263  22.515  -1.304  1.00  0.00     0.021 C 
HETATM   16  C11 UNL     1     -20.451  22.294  -2.218  1.00  0.00     0.013 C 
HETATM   17  C12 UNL     1     -20.588  23.563  -3.051  1.00  0.00     0.045 C 
HETATM   18  C13 UNL     1     -19.366  23.781  -3.874  1.00  0.00     0.057 C 
HETATM   19  N4  UNL     1     -18.192  23.139  -3.431  1.00  0.00    -0.397 N 
HETATM   20  C14 UNL     1     -17.677  22.108  -4.262  1.00  0.00     0.148 C 
HETATM   21  C15 UNL     1     -18.035  22.966  -2.038  1.00  0.00     0.127 C 
ENDBRANCH  14  15
ENDBRANCH  12  14
ENDBRANCH   6  12
BRANCH   1  22
HETATM   22  N1  UNL     1     -23.821  19.878   4.212  1.00  0.00    -0.375 N 
ATOM     23  H1  UNL     1     -24.096  18.901   4.110  1.00  0.00     0.161 HD
BRANCH  22  24
HETATM   24  C5  UNL     1     -24.233  20.379   5.417  1.00  0.00     0.121 C 
BRANCH  24  25
HETATM   25  C4  UNL     1     -23.516  19.648   6.562  1.00  0.00     0.020 C 
BRANCH  25  26
HETATM   26  C3  UNL     1     -23.257  18.208   6.194  1.00  0.00     0.001 C 
BRANCH  26  27
HETATM   27  C2  UNL     1     -22.186  17.596   7.069  1.00  0.00    -0.004 C 
HETATM   28  C1  UNL     1     -20.957  18.451   7.042  1.00  0.00     0.005 C 
ENDBRANCH  26  27
ENDBRANCH  25  26
ENDBRANCH  24  25
ENDBRANCH  22  24
ENDBRANCH   1  22
TORSDOF 8
ENDMDL
MODEL 4
REMARK VINA RESULT: -7.508823975      1.439      2.036
REMARK  8 active torsions:
REMARK  status: ('A' for Active; 'I' for Inactive)
REMARK    1  A    between atoms: C2_2  and  C3_3 
REMARK    2  A    between atoms: C3_3  and  C4_4 
REMARK    3  A    between atoms: C4_4  and  C5_5 
REMARK    4  A    between atoms: C5_5  and  N1_6 
REMARK    5  A    between atoms: N1_6  and  C6_8 
REMARK    6  A    between atoms: C8_13  and  N3_14 
REMARK    7  A    between atoms: N3_14  and  C9_16 
REMARK    8  A    between atoms: C9_16  and  C10_17 
ROOT
HETATM    1  C6  UNL     1     -23.577  20.072   4.277  1.00  0.00     0.119 A 
HETATM    2  N2  UNL     1     -24.420  21.105   3.939  1.00  0.00    -0.311 N 
ATOM      3  H2  UNL     1     -25.145  21.533   4.515  1.00  0.00     0.176 HD
HETATM    4  S1  UNL     1     -23.993  21.498   2.382  1.00  0.00    -0.009 SA
HETATM    5  C7  UNL     1     -22.743  20.369   2.125  1.00  0.00     0.079 A 
HETATM    6  C8  UNL     1     -21.897  20.092   1.032  1.00  0.00     0.120 A 
HETATM    7  N5  UNL     1     -20.982  19.115   1.127  1.00  0.00    -0.351 N 
ATOM      8  H5  UNL     1     -20.357  18.894   0.352  1.00  0.00     0.166 HD
HETATM    9  C16 UNL     1     -20.925  18.450   2.274  1.00  0.00     0.090 A 
HETATM   10  C17 UNL     1     -21.728  18.682   3.371  1.00  0.00     0.034 A 
HETATM   11  C18 UNL     1     -22.701  19.698   3.309  1.00  0.00     0.032 A 
ENDROOT
BRANCH   6  12
HETATM   12  N3  UNL     1     -22.081  20.820   0.012  1.00  0.00    -0.375 N 
ATOM     13  H3  UNL     1     -22.821  20.512  -0.620  1.00  0.00     0.161 HD
BRANCH  12  14
HETATM   14  C9  UNL     1     -21.401  22.003  -0.373  1.00  0.00     0.127 C 
BRANCH  14  15
HETATM   15  C10 UNL     1     -20.097  21.690  -1.088  1.00  0.00     0.021 C 
HETATM   16  C11 UNL     1     -18.897  21.908  -0.188  1.00  0.00     0.013 C 
HETATM   17  C12 UNL     1     -17.669  21.587  -1.032  1.00  0.00     0.045 C 
HETATM   18  C13 UNL     1     -17.583  22.508  -2.199  1.00  0.00     0.057 C 
HETATM   19  N4  UNL     1     -18.785  23.133  -2.592  1.00  0.00    -0.397 N 
HETATM   20  C14 UNL     1     -18.857  24.542  -2.418  1.00  0.00     0.148 C 
HETATM   21  C15 UNL     1     -19.984  22.411  -2.399  1.00  0.00     0.127 C 
ENDBRANCH  14  15
ENDBRANCH  12  14
ENDBRANCH   6  12
BRANCH   1  22
HETATM   22  N1  UNL     1     -23.700  19.569   5.462  1.00  0.00    -0.375 N 
ATOM     23  H1  UNL     1     -23.603  18.553   5.439  1.00  0.00     0.161 HD
BRANCH  22  24
HETATM   24  C5  UNL     1     -23.922  20.010   6.738  1.00  0.00     0.121 C 
BRANCH  24  25
HETATM   25  C4  UNL     1     -23.014  19.255   7.719  1.00  0.00     0.020 C 
BRANCH  25  26
HETATM   26  C3  UNL     1     -22.234  18.181   7.003  1.00  0.00     0.001 C 
BRANCH  26  27
HETATM   27  C2  UNL     1     -20.752  18.484   6.994  1.00  0.00    -0.004 C 
HETATM   28  C1  UNL     1     -20.010  17.419   7.742  1.00  0.00     0.005 C 
ENDBRANCH  26  27
ENDBRANCH  25  26
ENDBRANCH  24  25
ENDBRANCH  22  24
ENDBRANCH   1  22
TORSDOF 8
ENDMDL
MODEL 5
REMARK VINA RESULT: -7.369379091      6.149      9.680
REMARK  8 active torsions:
REMARK  status: ('A' for Active; 'I' for Inactive)
REMARK    1  A    between atoms: C2_2  and  C3_3 
REMARK    2  A    between atoms: C3_3  and  C4_4 
REMARK    3  A    between atoms: C4_4  and  C5_5 
REMARK    4  A    between atoms: C5_5  and  N1_6 
REMARK    5  A    between atoms: N1_6  and  C6_8 
REMARK    6  A    between atoms: C8_13  and  N3_14 
REMARK    7  A    between atoms: N3_14  and  C9_16 
REMARK    8  A    between atoms: C9_16  and  C10_17 
ROOT
HETATM    1  C6  UNL     1     -25.262  21.487   3.881  1.00  0.00     0.119 A 
HETATM    2  N2  UNL     1     -25.927  21.137   2.729  1.00  0.00    -0.311 N 
ATOM      3  H2  UNL     1     -25.552  20.650   1.915  1.00  0.00     0.176 HD
HETATM    4  S1  UNL     1     -27.479  21.684   2.961  1.00  0.00    -0.009 SA
HETATM    5  C7  UNL     1     -27.322  22.365   4.515  1.00  0.00     0.079 A 
HETATM    6  C8  UNL     1     -28.220  23.023   5.381  1.00  0.00     0.120 A 
HETATM    7  N5  UNL     1     -27.795  23.461   6.575  1.00  0.00    -0.351 N 
ATOM      8  H5  UNL     1     -28.422  23.940   7.220  1.00  0.00     0.166 HD
HETATM    9  C16 UNL     1     -26.522  23.244   6.881  1.00  0.00     0.090 A 
HETATM   10  C17 UNL     1     -25.605  22.607   6.071  1.00  0.00     0.034 A 
HETATM   11  C18 UNL     1     -26.012  22.134   4.810  1.00  0.00     0.032 A 
ENDROOT
BRANCH   6  12
HETATM   12  N3  UNL     1     -29.399  23.149   4.936  1.00  0.00    -0.375 N 
ATOM     13  H3  UNL     1     -29.476  23.536   3.996  1.00  0.00     0.161 HD
BRANCH  12  14
HETATM   14  C9  UNL     1     -30.627  22.826   5.568  1.00  0.00     0.127 C 
BRANCH  14  15
HETATM   15  C10 UNL     1     -31.588  24.004   5.557  1.00  0.00     0.021 C 
HETATM   16  C11 UNL     1     -30.987  25.223   6.227  1.00  0.00     0.013 C 
HETATM   17  C12 UNL     1     -32.055  26.309   6.171  1.00  0.00     0.045 C 
HETATM   18  C13 UNL     1     -33.271  25.884   6.919  1.00  0.00     0.057 C 
HETATM   19  N4  UNL     1     -33.433  24.496   7.112  1.00  0.00    -0.397 N 
HETATM   20  C14 UNL     1     -33.341  24.024   8.449  1.00  0.00     0.148 C 
HETATM   21  C15 UNL     1     -32.937  23.640   6.103  1.00  0.00     0.127 C 
ENDBRANCH  14  15
ENDBRANCH  12  14
ENDBRANCH   6  12
BRANCH   1  22
HETATM   22  N1  UNL     1     -24.011  21.172   3.964  1.00  0.00    -0.375 N 
ATOM     23  H1  UNL     1     -23.420  22.001   3.890  1.00  0.00     0.161 HD
BRANCH  22  24
HETATM   24  C5  UNL     1     -23.253  20.043   4.122  1.00  0.00     0.121 C 
BRANCH  24  25
HETATM   25  C4  UNL     1     -23.850  19.162   5.228  1.00  0.00     0.020 C 
BRANCH  25  26
HETATM   26  C3  UNL     1     -23.402  19.639   6.588  1.00  0.00     0.001 C 
BRANCH  26  27
HETATM   27  C2  UNL     1     -22.780  18.518   7.391  1.00  0.00    -0.004 C 
HETATM   28  C1  UNL     1     -21.287  18.595   7.299  1.00  0.00     0.005 C 
ENDBRANCH  26  27
ENDBRANCH  25  26
ENDBRANCH  24  25
ENDBRANCH  22  24
ENDBRANCH   1  22
TORSDOF 8
ENDMDL
