MODEL 1
REMARK VINA RESULT: -8.085440349      0.000      0.000
REMARK  3 active torsions:
REMARK  status: ('A' for Active; 'I' for Inactive)
REMARK    1  A    between atoms: C2_2  and  N1_4 
REMARK    2  A    between atoms: C4_6  and  C6_9 
REMARK    3  A    between atoms: C6_9  and  C7_13 
ROOT
HETATM    1  N1  UNL     1     -21.060  20.898   1.452  1.00  0.00    -0.376 N 
ATOM      2  H1  UNL     1     -20.183  20.695   1.931  1.00  0.00     0.160 HD
HETATM    3  C4  UNL     1     -22.126  20.251   1.841  1.00  0.00     0.133 C 
HETATM    4  C5  UNL     1     -23.312  20.589   1.125  1.00  0.00     0.119 C 
HETATM    5  N2  UNL     1     -24.259  20.873   0.515  1.00  0.00    -0.190 NA
ENDROOT
BRANCH   3   6
HETATM    6  C6  UNL     1     -22.046  19.272   2.885  1.00  0.00     0.057 C 
HETATM    7  N3  UNL     1     -20.869  18.837   3.183  1.00  0.00    -0.399 N 
ATOM      8  H32 UNL     1     -20.052  19.172   2.674  1.00  0.00     0.156 HD
ATOM      9  H31 UNL     1     -20.812  18.140   3.925  1.00  0.00     0.156 HD
BRANCH   6  10
HETATM   10  C7  UNL     1     -23.220  18.791   3.617  1.00  0.00     0.152 C 
HETATM   11  C8  UNL     1     -23.691  19.692   4.703  1.00  0.00    -0.002 C 
HETATM   12  N4  UNL     1     -24.799  20.278   4.618  1.00  0.00    -0.405 N 
HETATM   13  C9  UNL     1     -22.856  19.884   5.929  1.00  0.00     0.062 C 
ATOM     14  H42 UNL     1     -25.368  20.147   3.782  1.00  0.00     0.155 HD
ATOM     15  H41 UNL     1     -25.122  20.895   5.363  1.00  0.00     0.155 HD
HETATM   16  C10 UNL     1     -22.509  18.542   6.536  1.00  0.00    -0.036 C 
HETATM   17  C11 UNL     1     -21.020  18.513   6.779  1.00  0.00     0.015 C 
HETATM   18  C12 UNL     1     -23.150  18.425   7.936  1.00  0.00     0.015 C 
HETATM   19  C13 UNL     1     -22.978  17.369   5.749  1.00  0.00     0.088 C 
HETATM   20  C14 UNL     1     -22.961  17.473   4.290  1.00  0.00     0.143 C 
HETATM   21  O1  UNL     1     -22.729  16.448   3.647  1.00  0.00    -0.297 OA
ENDBRANCH   6  10
ENDBRANCH   3   6
BRANCH   1  22
HETATM   22  C2  UNL     1     -21.034  21.872   0.399  1.00  0.00     0.074 C 
HETATM   23  C1  UNL     1     -20.130  21.324  -0.691  1.00  0.00     0.031 C 
HETATM   24  C3  UNL     1     -20.505  23.209   0.857  1.00  0.00     0.031 C 
ENDBRANCH   1  22
TORSDOF 3
ENDMDL
MODEL 2
REMARK VINA RESULT: -7.505795798      1.017      1.960
REMARK  3 active torsions:
REMARK  status: ('A' for Active; 'I' for Inactive)
REMARK    1  A    between atoms: C2_2  and  N1_4 
REMARK    2  A    between atoms: C4_6  and  C6_9 
REMARK    3  A    between atoms: C6_9  and  C7_13 
ROOT
HETATM    1  N1  UNL     1     -23.175  20.702   1.474  1.00  0.00    -0.376 N 
ATOM      2  H1  UNL     1     -24.013  20.433   1.989  1.00  0.00     0.160 HD
HETATM    3  C4  UNL     1     -22.049  20.130   1.807  1.00  0.00     0.133 C 
HETATM    4  C5  UNL     1     -20.924  20.557   1.042  1.00  0.00     0.119 C 
HETATM    5  N2  UNL     1     -20.023  20.936   0.414  1.00  0.00    -0.190 NA
ENDROOT
BRANCH   3   6
HETATM    6  C6  UNL     1     -22.002  19.181   2.881  1.00  0.00     0.057 C 
HETATM    7  N3  UNL     1     -20.840  18.724   3.200  1.00  0.00    -0.399 N 
ATOM      8  H32 UNL     1     -20.010  19.020   2.685  1.00  0.00     0.156 HD
ATOM      9  H31 UNL     1     -20.806  18.049   3.964  1.00  0.00     0.156 HD
BRANCH   6  10
HETATM   10  C7  UNL     1     -23.193  18.756   3.620  1.00  0.00     0.152 C 
HETATM   11  C8  UNL     1     -23.631  19.691   4.691  1.00  0.00    -0.002 C 
HETATM   12  N4  UNL     1     -24.716  20.316   4.596  1.00  0.00    -0.405 N 
HETATM   13  C9  UNL     1     -22.789  19.873   5.914  1.00  0.00     0.062 C 
ATOM     14  H42 UNL     1     -25.290  20.192   3.762  1.00  0.00     0.155 HD
ATOM     15  H41 UNL     1     -25.016  20.957   5.331  1.00  0.00     0.155 HD
HETATM   16  C10 UNL     1     -22.492  18.529   6.543  1.00  0.00    -0.036 C 
HETATM   17  C11 UNL     1     -21.004  18.450   6.787  1.00  0.00     0.015 C 
HETATM   18  C12 UNL     1     -23.136  18.459   7.945  1.00  0.00     0.015 C 
HETATM   19  C13 UNL     1     -23.003  17.361   5.776  1.00  0.00     0.088 C 
HETATM   20  C14 UNL     1     -22.982  17.441   4.315  1.00  0.00     0.143 C 
HETATM   21  O1  UNL     1     -22.788  16.397   3.689  1.00  0.00    -0.297 OA
ENDBRANCH   6  10
ENDBRANCH   3   6
BRANCH   1  22
HETATM   22  C2  UNL     1     -23.317  21.682   0.436  1.00  0.00     0.074 C 
HETATM   23  C1  UNL     1     -23.716  22.986   1.107  1.00  0.00     0.031 C 
HETATM   24  C3  UNL     1     -24.367  21.305  -0.580  1.00  0.00     0.031 C 
ENDBRANCH   1  22
TORSDOF 3
ENDMDL
MODEL 3
REMARK VINA RESULT: -7.439656420      1.977      5.959
REMARK  3 active torsions:
REMARK  status: ('A' for Active; 'I' for Inactive)
REMARK    1  A    between atoms: C2_2  and  N1_4 
REMARK    2  A    between atoms: C4_6  and  C6_9 
REMARK    3  A    between atoms: C6_9  and  C7_13 
ROOT
HETATM    1  N1  UNL     1     -22.667  19.713   5.201  1.00  0.00    -0.376 N 
ATOM      2  H1  UNL     1     -22.560  20.719   5.330  1.00  0.00     0.160 HD
HETATM    3  C4  UNL     1     -22.843  19.274   3.984  1.00  0.00     0.133 C 
HETATM    4  C5  UNL     1     -22.984  17.858   3.885  1.00  0.00     0.119 C 
HETATM    5  N2  UNL     1     -23.112  16.704   3.837  1.00  0.00    -0.190 NA
ENDROOT
BRANCH   3   6
HETATM    6  C6  UNL     1     -22.910  20.186   2.880  1.00  0.00     0.057 C 
HETATM    7  N3  UNL     1     -23.257  21.398   3.150  1.00  0.00    -0.399 N 
ATOM      8  H32 UNL     1     -23.488  21.667   4.106  1.00  0.00     0.156 HD
ATOM      9  H31 UNL     1     -23.306  22.047   2.365  1.00  0.00     0.156 HD
BRANCH   6  10
HETATM   10  C7  UNL     1     -22.578  19.800   1.507  1.00  0.00     0.152 C 
HETATM   11  C8  UNL     1     -21.135  19.532   1.265  1.00  0.00    -0.002 C 
HETATM   12  N4  UNL     1     -20.732  18.374   0.991  1.00  0.00    -0.405 N 
HETATM   13  C9  UNL     1     -20.148  20.654   1.316  1.00  0.00     0.062 C 
ATOM     14  H42 UNL     1     -21.406  17.609   0.956  1.00  0.00     0.155 HD
ATOM     15  H41 UNL     1     -19.743  18.191   0.825  1.00  0.00     0.155 HD
HETATM   16  C10 UNL     1     -20.587  21.774   0.398  1.00  0.00    -0.036 C 
HETATM   17  C11 UNL     1     -20.538  23.063   1.181  1.00  0.00     0.015 C 
HETATM   18  C12 UNL     1     -19.555  21.950  -0.736  1.00  0.00     0.015 C 
HETATM   19  C13 UNL     1     -21.908  21.556  -0.252  1.00  0.00     0.088 C 
HETATM   20  C14 UNL     1     -22.945  20.871   0.518  1.00  0.00     0.143 C 
HETATM   21  O1  UNL     1     -24.116  21.203   0.323  1.00  0.00    -0.297 OA
ENDBRANCH   6  10
ENDBRANCH   3   6
BRANCH   1  22
HETATM   22  C2  UNL     1     -22.616  18.884   6.370  1.00  0.00     0.074 C 
HETATM   23  C1  UNL     1     -23.410  19.592   7.454  1.00  0.00     0.031 C 
HETATM   24  C3  UNL     1     -21.206  18.653   6.858  1.00  0.00     0.031 C 
ENDBRANCH   1  22
TORSDOF 3
ENDMDL
MODEL 4
REMARK VINA RESULT: -6.893348503      2.328      6.284
REMARK  3 active torsions:
REMARK  status: ('A' for Active; 'I' for Inactive)
REMARK    1  A    between atoms: C2_2  and  N1_4 
REMARK    2  A    between atoms: C4_6  and  C6_9 
REMARK    3  A    between atoms: C6_9  and  C7_13 
ROOT
HETATM    1  N1  UNL     1     -23.127  19.822   3.596  1.00  0.00    -0.376 N 
ATOM      2  H1  UNL     1     -22.162  19.631   3.328  1.00  0.00     0.160 HD
HETATM    3  C4  UNL     1     -23.757  20.769   2.956  1.00  0.00     0.133 C 
HETATM    4  C5  UNL     1     -25.101  20.976   3.386  1.00  0.00     0.119 C 
HETATM    5  N2  UNL     1     -26.187  21.132   3.768  1.00  0.00    -0.190 NA
ENDROOT
BRANCH   3   6
HETATM    6  C6  UNL     1     -23.094  21.528   1.936  1.00  0.00     0.057 C 
HETATM    7  N3  UNL     1     -22.964  22.793   2.147  1.00  0.00    -0.399 N 
ATOM      8  H32 UNL     1     -23.341  23.216   2.995  1.00  0.00     0.156 HD
ATOM      9  H31 UNL     1     -22.493  23.333   1.421  1.00  0.00     0.156 HD
BRANCH   6  10
HETATM   10  C7  UNL     1     -22.553  20.921   0.718  1.00  0.00     0.152 C 
HETATM   11  C8  UNL     1     -21.094  20.634   0.758  1.00  0.00    -0.002 C 
HETATM   12  N4  UNL     1     -20.670  19.452   0.750  1.00  0.00    -0.405 N 
HETATM   13  C9  UNL     1     -20.111  21.761   0.778  1.00  0.00     0.062 C 
ATOM     14  H42 UNL     1     -21.340  18.683   0.737  1.00  0.00     0.155 HD
ATOM     15  H41 UNL     1     -19.670  19.255   0.777  1.00  0.00     0.155 HD
HETATM   16  C10 UNL     1     -20.382  22.706  -0.374  1.00  0.00    -0.036 C 
HETATM   17  C11 UNL     1     -20.439  24.109   0.180  1.00  0.00     0.015 C 
HETATM   18  C12 UNL     1     -19.179  22.701  -1.342  1.00  0.00     0.015 C 
HETATM   19  C13 UNL     1     -21.585  22.365  -1.181  1.00  0.00     0.088 C 
HETATM   20  C14 UNL     1     -22.742  21.806  -0.482  1.00  0.00     0.143 C 
HETATM   21  O1  UNL     1     -23.861  22.087  -0.914  1.00  0.00    -0.297 OA
ENDBRANCH   6  10
ENDBRANCH   3   6
BRANCH   1  22
HETATM   22  C2  UNL     1     -23.694  19.030   4.649  1.00  0.00     0.074 C 
HETATM   23  C1  UNL     1     -23.017  19.456   5.940  1.00  0.00     0.031 C 
HETATM   24  C3  UNL     1     -23.482  17.550   4.442  1.00  0.00     0.031 C 
ENDBRANCH   1  22
TORSDOF 3
ENDMDL
MODEL 5
REMARK VINA RESULT: -6.818059106      3.082      5.930
REMARK  3 active torsions:
REMARK  status: ('A' for Active; 'I' for Inactive)
REMARK    1  A    between atoms: C2_2  and  N1_4 
REMARK    2  A    between atoms: C4_6  and  C6_9 
REMARK    3  A    between atoms: C6_9  and  C7_13 
ROOT
HETATM    1  N1  UNL     1     -23.018  19.747   5.575  1.00  0.00    -0.376 N 
ATOM      2  H1  UNL     1     -22.937  20.741   5.790  1.00  0.00     0.160 HD
HETATM    3  C4  UNL     1     -23.368  19.417   4.361  1.00  0.00     0.133 C 
HETATM    4  C5  UNL     1     -23.458  18.012   4.137  1.00  0.00     0.119 C 
HETATM    5  N2  UNL     1     -23.539  16.862   3.988  1.00  0.00    -0.190 NA
ENDROOT
BRANCH   3   6
HETATM    6  C6  UNL     1     -23.658  20.426   3.384  1.00  0.00     0.057 C 
HETATM    7  N3  UNL     1     -23.577  20.075   2.146  1.00  0.00    -0.399 N 
ATOM      8  H32 UNL     1     -23.298  19.126   1.897  1.00  0.00     0.156 HD
ATOM      9  H31 UNL     1     -23.782  20.793   1.451  1.00  0.00     0.156 HD
BRANCH   6  10
HETATM   10  C7  UNL     1     -24.058  21.789   3.743  1.00  0.00     0.152 C 
HETATM   11  C8  UNL     1     -25.412  21.904   4.347  1.00  0.00    -0.002 C 
HETATM   12  N4  UNL     1     -25.555  22.249   5.546  1.00  0.00    -0.405 N 
HETATM   13  C9  UNL     1     -26.626  21.636   3.515  1.00  0.00     0.062 C 
ATOM     14  H42 UNL     1     -24.727  22.432   6.113  1.00  0.00     0.155 HD
ATOM     15  H41 UNL     1     -26.484  22.328   5.960  1.00  0.00     0.155 HD
HETATM   16  C10 UNL     1     -26.590  22.478   2.258  1.00  0.00    -0.036 C 
HETATM   17  C11 UNL     1     -26.849  21.568   1.082  1.00  0.00     0.015 C 
HETATM   18  C12 UNL     1     -27.770  23.475   2.267  1.00  0.00     0.015 C 
HETATM   19  C13 UNL     1     -25.349  23.282   2.090  1.00  0.00     0.088 C 
HETATM   20  C14 UNL     1     -24.088  22.698   2.546  1.00  0.00     0.143 C 
HETATM   21  O1  UNL     1     -23.067  22.980   1.916  1.00  0.00    -0.297 OA
ENDBRANCH   6  10
ENDBRANCH   3   6
BRANCH   1  22
HETATM   22  C2  UNL     1     -22.738  18.814   6.627  1.00  0.00     0.074 C 
HETATM   23  C1  UNL     1     -23.286  19.412   7.911  1.00  0.00     0.031 C 
HETATM   24  C3  UNL     1     -21.261  18.550   6.793  1.00  0.00     0.031 C 
ENDBRANCH   1  22
TORSDOF 3
ENDMDL
