MODEL 1
REMARK VINA RESULT: -7.920559928      0.000      0.000
REMARK  5 active torsions:
REMARK  status: ('A' for Active; 'I' for Inactive)
REMARK    1  A    between atoms: C2_2  and  C3_3 
REMARK    2  A    between atoms: N1_6  and  C6_7 
REMARK    3  A    between atoms: C11_12  and  N2_13 
REMARK    4  A    between atoms: C12_18  and  O1_19 
REMARK    5  A    between atoms: O1_19  and  C13_20 
ROOT
HETATM    1  C3  UNL     1     -23.695  19.499   5.369  1.00  0.00    -0.031 A 
HETATM    2  C4  UNL     1     -24.554  20.709   5.565  1.00  0.00     0.030 C 
HETATM    3  C5  UNL     1     -24.345  21.798   4.576  1.00  0.00     0.128 C 
HETATM    4  N1  UNL     1     -24.435  21.112   3.251  1.00  0.00    -0.340 N 
HETATM    5  C12 UNL     1     -23.293  20.320   3.005  1.00  0.00     0.230 C 
HETATM    6  C14 UNL     1     -23.084  19.262   4.082  1.00  0.00     0.044 A 
HETATM    7  C15 UNL     1     -24.251  18.454   4.492  1.00  0.00     0.020 A 
ENDROOT
BRANCH   4   8
HETATM    8  C6  UNL     1     -25.595  21.273   2.465  1.00  0.00     0.107 A 
HETATM    9  C7  UNL     1     -26.888  21.230   2.923  1.00  0.00     0.055 A 
HETATM   10  C8  UNL     1     -28.013  21.428   2.119  1.00  0.00    -0.055 A 
HETATM   11  C9  UNL     1     -29.366  21.358   2.724  1.00  0.00     0.048 C 
HETATM   12  C10 UNL     1     -27.803  21.680   0.789  1.00  0.00     0.054 A 
HETATM   13  C11 UNL     1     -26.528  21.728   0.308  1.00  0.00     0.100 A 
HETATM   14  N3  UNL     1     -25.482  21.533   1.121  1.00  0.00    -0.329 N 
ATOM     15  H3  UNL     1     -24.546  21.579   0.719  1.00  0.00     0.169 HD
BRANCH  13  16
HETATM   16  N2  UNL     1     -26.385  21.971  -0.955  1.00  0.00    -0.385 N 
ATOM     17  H22 UNL     1     -27.064  22.517  -1.484  1.00  0.00     0.157 HD
ATOM     18  H21 UNL     1     -25.555  21.589  -1.409  1.00  0.00     0.157 HD
ENDBRANCH  13  16
ENDBRANCH   4   8
BRANCH   5  19
HETATM   19  O1  UNL     1     -23.118  19.701   1.811  1.00  0.00    -0.352 OA
BRANCH  19  20
HETATM   20  C13 UNL     1     -21.820  19.897   1.323  1.00  0.00     0.284 C 
HETATM   21 CL1  UNL     1     -20.900  18.393   1.392  1.00  0.00    -0.102 Cl
ENDBRANCH  19  20
ENDBRANCH   5  19
BRANCH   1  22
HETATM   22  C2  UNL     1     -22.858  19.167   6.580  1.00  0.00     0.005 C 
HETATM   23  C1  UNL     1     -22.688  17.737   6.871  1.00  0.00     0.006 C 
ENDBRANCH   1  22
TORSDOF 5
ENDMDL
MODEL 2
REMARK VINA RESULT: -7.903724489      1.049      1.177
REMARK  5 active torsions:
REMARK  status: ('A' for Active; 'I' for Inactive)
REMARK    1  A    between atoms: C2_2  and  C3_3 
REMARK    2  A    between atoms: N1_6  and  C6_7 
REMARK    3  A    between atoms: C11_12  and  N2_13 
REMARK    4  A    between atoms: C12_18  and  O1_19 
REMARK    5  A    between atoms: O1_19  and  C13_20 
ROOT
HETATM    1  C3  UNL     1     -23.234  18.276   5.408  1.00  0.00    -0.031 A 
HETATM    2  C4  UNL     1     -24.082  19.419   5.874  1.00  0.00     0.030 C 
HETATM    3  C5  UNL     1     -23.803  20.721   5.215  1.00  0.00     0.128 C 
HETATM    4  N1  UNL     1     -23.833  20.406   3.754  1.00  0.00    -0.340 N 
HETATM    5  C12 UNL     1     -22.694  19.672   3.363  1.00  0.00     0.230 C 
HETATM    6  C14 UNL     1     -22.560  18.365   4.134  1.00  0.00     0.044 A 
HETATM    7  C15 UNL     1     -23.760  17.512   4.264  1.00  0.00     0.020 A 
ENDROOT
BRANCH   4   8
HETATM    8  C6  UNL     1     -24.947  20.801   2.984  1.00  0.00     0.107 A 
HETATM    9  C7  UNL     1     -26.244  20.882   3.428  1.00  0.00     0.055 A 
HETATM   10  C8  UNL     1     -27.317  21.310   2.644  1.00  0.00    -0.055 A 
HETATM   11  C9  UNL     1     -28.678  21.357   3.231  1.00  0.00     0.048 C 
HETATM   12  C10 UNL     1     -27.050  21.671   1.350  1.00  0.00     0.054 A 
HETATM   13  C11 UNL     1     -25.771  21.600   0.883  1.00  0.00     0.100 A 
HETATM   14  N3  UNL     1     -24.775  21.183   1.676  1.00  0.00    -0.329 N 
ATOM     15  H3  UNL     1     -23.834  21.147   1.285  1.00  0.00     0.169 HD
BRANCH  13  16
HETATM   16  N2  UNL     1     -25.574  21.952  -0.347  1.00  0.00    -0.385 N 
ATOM     17  H22 UNL     1     -25.719  21.310  -1.127  1.00  0.00     0.157 HD
ATOM     18  H21 UNL     1     -25.262  22.909  -0.510  1.00  0.00     0.157 HD
ENDBRANCH  13  16
ENDBRANCH   4   8
BRANCH   5  19
HETATM   19  O1  UNL     1     -22.465  19.380   2.059  1.00  0.00    -0.352 OA
BRANCH  19  20
HETATM   20  C13 UNL     1     -21.188  18.835   1.876  1.00  0.00     0.284 C 
HETATM   21 CL1  UNL     1     -19.992  20.117   1.677  1.00  0.00    -0.102 Cl
ENDBRANCH  19  20
ENDBRANCH   5  19
BRANCH   1  22
HETATM   22  C2  UNL     1     -22.469  17.616   6.529  1.00  0.00     0.005 C 
HETATM   23  C1  UNL     1     -21.532  18.477   7.262  1.00  0.00     0.006 C 
ENDBRANCH   1  22
TORSDOF 5
ENDMDL
MODEL 3
REMARK VINA RESULT: -7.590193535      1.197      1.841
REMARK  5 active torsions:
REMARK  status: ('A' for Active; 'I' for Inactive)
REMARK    1  A    between atoms: C2_2  and  C3_3 
REMARK    2  A    between atoms: N1_6  and  C6_7 
REMARK    3  A    between atoms: C11_12  and  N2_13 
REMARK    4  A    between atoms: C12_18  and  O1_19 
REMARK    5  A    between atoms: O1_19  and  C13_20 
ROOT
HETATM    1  C3  UNL     1     -23.717  19.547   5.389  1.00  0.00    -0.031 A 
HETATM    2  C4  UNL     1     -24.580  20.749   5.614  1.00  0.00     0.030 C 
HETATM    3  C5  UNL     1     -24.408  21.843   4.623  1.00  0.00     0.128 C 
HETATM    4  N1  UNL     1     -24.530  21.160   3.299  1.00  0.00    -0.340 N 
HETATM    5  C12 UNL     1     -23.390  20.378   3.018  1.00  0.00     0.230 C 
HETATM    6  C14 UNL     1     -23.142  19.319   4.085  1.00  0.00     0.044 A 
HETATM    7  C15 UNL     1     -24.289  18.500   4.526  1.00  0.00     0.020 A 
ENDROOT
BRANCH   4   8
HETATM    8  C6  UNL     1     -25.714  21.314   2.547  1.00  0.00     0.107 A 
HETATM    9  C7  UNL     1     -25.783  21.667   1.222  1.00  0.00     0.055 A 
HETATM   10  C8  UNL     1     -26.975  21.778   0.502  1.00  0.00    -0.055 A 
HETATM   11  C9  UNL     1     -26.929  22.168  -0.929  1.00  0.00     0.048 C 
HETATM   12  C10 UNL     1     -28.143  21.516   1.166  1.00  0.00     0.054 A 
HETATM   13  C11 UNL     1     -28.102  21.163   2.483  1.00  0.00     0.100 A 
HETATM   14  N3  UNL     1     -26.933  21.070   3.130  1.00  0.00    -0.329 N 
ATOM     15  H3  UNL     1     -26.949  20.802   4.114  1.00  0.00     0.169 HD
BRANCH  13  16
HETATM   16  N2  UNL     1     -29.233  20.927   3.064  1.00  0.00    -0.385 N 
ATOM     17  H22 UNL     1     -30.061  20.631   2.544  1.00  0.00     0.157 HD
ATOM     18  H21 UNL     1     -29.269  21.048   4.076  1.00  0.00     0.157 HD
ENDBRANCH  13  16
ENDBRANCH   4   8
BRANCH   5  19
HETATM   19  O1  UNL     1     -23.243  19.764   1.818  1.00  0.00    -0.352 OA
BRANCH  19  20
HETATM   20  C13 UNL     1     -21.978  20.013   1.271  1.00  0.00     0.284 C 
HETATM   21 CL1  UNL     1     -20.970  18.568   1.365  1.00  0.00    -0.102 Cl
ENDBRANCH  19  20
ENDBRANCH   5  19
BRANCH   1  22
HETATM   22  C2  UNL     1     -22.844  19.218   6.575  1.00  0.00     0.005 C 
HETATM   23  C1  UNL     1     -22.741  17.795   6.923  1.00  0.00     0.006 C 
ENDBRANCH   1  22
TORSDOF 5
ENDMDL
MODEL 4
REMARK VINA RESULT: -7.499849748      1.452      1.711
REMARK  5 active torsions:
REMARK  status: ('A' for Active; 'I' for Inactive)
REMARK    1  A    between atoms: C2_2  and  C3_3 
REMARK    2  A    between atoms: N1_6  and  C6_7 
REMARK    3  A    between atoms: C11_12  and  N2_13 
REMARK    4  A    between atoms: C12_18  and  O1_19 
REMARK    5  A    between atoms: O1_19  and  C13_20 
ROOT
HETATM    1  C3  UNL     1     -23.371  18.239   5.253  1.00  0.00    -0.031 A 
HETATM    2  C4  UNL     1     -24.102  19.534   5.429  1.00  0.00     0.030 C 
HETATM    3  C5  UNL     1     -23.506  20.696   4.721  1.00  0.00     0.128 C 
HETATM    4  N1  UNL     1     -23.314  20.211   3.320  1.00  0.00    -0.340 N 
HETATM    5  C12 UNL     1     -22.250  19.288   3.237  1.00  0.00     0.230 C 
HETATM    6  C14 UNL     1     -22.467  18.079   4.139  1.00  0.00     0.044 A 
HETATM    7  C15 UNL     1     -23.789  17.419   4.103  1.00  0.00     0.020 A 
ENDROOT
BRANCH   4   8
HETATM    8  C6  UNL     1     -24.190  20.656   2.308  1.00  0.00     0.107 A 
HETATM    9  C7  UNL     1     -25.470  21.114   2.497  1.00  0.00     0.055 A 
HETATM   10  C8  UNL     1     -26.298  21.577   1.472  1.00  0.00    -0.055 A 
HETATM   11  C9  UNL     1     -27.667  22.049   1.794  1.00  0.00     0.048 C 
HETATM   12  C10 UNL     1     -25.792  21.571   0.199  1.00  0.00     0.054 A 
HETATM   13  C11 UNL     1     -24.523  21.122  -0.017  1.00  0.00     0.100 A 
HETATM   14  N3  UNL     1     -23.768  20.688   1.001  1.00  0.00    -0.329 N 
ATOM     15  H3  UNL     1     -22.824  20.362   0.794  1.00  0.00     0.169 HD
BRANCH  13  16
HETATM   16  N2  UNL     1     -24.093  21.138  -1.237  1.00  0.00    -0.385 N 
ATOM     17  H22 UNL     1     -24.711  20.984  -2.034  1.00  0.00     0.157 HD
ATOM     18  H21 UNL     1     -23.098  21.313  -1.376  1.00  0.00     0.157 HD
ENDBRANCH  13  16
ENDBRANCH   4   8
BRANCH   5  19
HETATM   19  O1  UNL     1     -21.832  18.811   2.039  1.00  0.00    -0.352 OA
BRANCH  19  20
HETATM   20  C13 UNL     1     -20.435  18.727   1.985  1.00  0.00     0.284 C 
HETATM   21 CL1  UNL     1     -19.729  20.325   1.740  1.00  0.00    -0.102 Cl
ENDBRANCH  19  20
ENDBRANCH   5  19
BRANCH   1  22
HETATM   22  C2  UNL     1     -22.940  17.624   6.562  1.00  0.00     0.005 C 
HETATM   23  C1  UNL     1     -21.948  18.385   7.334  1.00  0.00     0.006 C 
ENDBRANCH   1  22
TORSDOF 5
ENDMDL
MODEL 5
REMARK VINA RESULT: -7.389013714      3.326      6.478
REMARK  5 active torsions:
REMARK  status: ('A' for Active; 'I' for Inactive)
REMARK    1  A    between atoms: C2_2  and  C3_3 
REMARK    2  A    between atoms: N1_6  and  C6_7 
REMARK    3  A    between atoms: C11_12  and  N2_13 
REMARK    4  A    between atoms: C12_18  and  O1_19 
REMARK    5  A    between atoms: O1_19  and  C13_20 
ROOT
HETATM    1  C3  UNL     1     -27.159  21.932   2.248  1.00  0.00    -0.031 A 
HETATM    2  C4  UNL     1     -25.797  21.475   1.828  1.00  0.00     0.030 C 
HETATM    3  C5  UNL     1     -24.682  21.933   2.698  1.00  0.00     0.128 C 
HETATM    4  N1  UNL     1     -25.122  21.569   4.079  1.00  0.00    -0.340 N 
HETATM    5  C12 UNL     1     -26.159  22.414   4.527  1.00  0.00     0.230 C 
HETATM    6  C14 UNL     1     -27.373  22.370   3.607  1.00  0.00     0.044 A 
HETATM    7  C15 UNL     1     -27.872  21.045   3.183  1.00  0.00     0.020 A 
ENDROOT
BRANCH   4   8
HETATM    8  C6  UNL     1     -24.533  20.461   4.724  1.00  0.00     0.107 A 
HETATM    9  C7  UNL     1     -24.182  19.277   4.126  1.00  0.00     0.055 A 
HETATM   10  C8  UNL     1     -23.569  18.213   4.792  1.00  0.00    -0.055 A 
HETATM   11  C9  UNL     1     -23.234  16.977   4.043  1.00  0.00     0.048 C 
HETATM   12  C10 UNL     1     -23.305  18.370   6.127  1.00  0.00     0.054 A 
HETATM   13  C11 UNL     1     -23.644  19.537   6.745  1.00  0.00     0.100 A 
HETATM   14  N3  UNL     1     -24.230  20.529   6.062  1.00  0.00    -0.329 N 
ATOM     15  H3  UNL     1     -24.465  21.385   6.564  1.00  0.00     0.169 HD
BRANCH  13  16
HETATM   16  N2  UNL     1     -23.372  19.634   8.007  1.00  0.00    -0.385 N 
ATOM     17  H22 UNL     1     -23.182  18.817   8.587  1.00  0.00     0.157 HD
ATOM     18  H21 UNL     1     -23.356  20.572   8.406  1.00  0.00     0.157 HD
ENDBRANCH  13  16
ENDBRANCH   4   8
BRANCH   5  19
HETATM   19  O1  UNL     1     -26.628  22.331   5.796  1.00  0.00    -0.352 OA
BRANCH  19  20
HETATM   20  C13 UNL     1     -26.383  23.512   6.507  1.00  0.00     0.284 C 
HETATM   21 CL1  UNL     1     -27.898  24.334   6.883  1.00  0.00    -0.102 Cl
ENDBRANCH  19  20
ENDBRANCH   5  19
BRANCH   1  22
HETATM   22  C2  UNL     1     -27.879  22.707   1.172  1.00  0.00     0.005 C 
HETATM   23  C1  UNL     1     -28.651  21.906   0.211  1.00  0.00     0.006 C 
ENDBRANCH   1  22
TORSDOF 5
ENDMDL
