MODEL 1
REMARK VINA RESULT: -6.141626584      0.000      0.000
REMARK  2 active torsions:
REMARK  status: ('A' for Active; 'I' for Inactive)
REMARK    1  A    between atoms: N1_2  and  C3_4 
REMARK    2  A    between atoms: C6_7  and  C7_8 
ROOT
HETATM    1  C7  UNL     1      72.914  34.558   0.260  1.00  0.00     0.143 C 
HETATM    2  N2  UNL     1      73.469  33.272   0.622  1.00  0.00    -0.217 N 
ATOM      3  H2  UNL     1      74.108  33.179   1.412  1.00  0.00     0.178 HD
HETATM    4  C8  UNL     1      73.099  32.145  -0.154  1.00  0.00     0.668 C 
HETATM    5  N3  UNL     1      73.099  30.945   0.300  1.00  0.00    -0.235 N 
ATOM      6  H31 UNL     1      72.832  30.134  -0.259  1.00  0.00     0.174 HD
ATOM      7  H32 UNL     1      73.370  30.741   1.263  1.00  0.00     0.174 HD
HETATM    8  N4  UNL     1      72.718  32.433  -1.507  1.00  0.00    -0.217 N 
ATOM      9  H4  UNL     1      72.630  31.658  -2.163  1.00  0.00     0.178 HD
HETATM   10  C9  UNL     1      72.458  33.755  -1.976  1.00  0.00     0.049 C 
HETATM   11  C10 UNL     1      70.959  33.977  -2.029  1.00  0.00     0.039 C 
HETATM   12  C11 UNL     1      72.964  33.841  -3.413  1.00  0.00     0.039 C 
HETATM   13  C12 UNL     1      73.154  34.845  -1.155  1.00  0.00     0.003 C 
HETATM   14  C13 UNL     1      72.486  36.133  -1.638  1.00  0.00     0.020 C 
HETATM   15  C14 UNL     1      74.610  34.806  -1.568  1.00  0.00     0.020 C 
ENDROOT
BRANCH   1  16
HETATM   16  C6  UNL     1      73.357  35.509   1.277  1.00  0.00    -0.032 A 
HETATM   17  C5  UNL     1      72.906  36.763   1.513  1.00  0.00     0.011 A 
HETATM   18  C4  UNL     1      73.434  37.532   2.531  1.00  0.00     0.031 A 
HETATM   19  C3  UNL     1      74.447  37.080   3.370  1.00  0.00     0.051 A 
HETATM   20  C16 UNL     1      74.904  35.811   3.130  1.00  0.00     0.061 A 
HETATM   21  C15 UNL     1      74.369  35.049   2.108  1.00  0.00     0.035 A 
HETATM   22 CL1  UNL     1      76.177  35.147   4.140  1.00  0.00    -0.082 Cl
BRANCH  19  23
HETATM   23  N1  UNL     1      74.926  37.957   4.378  1.00  0.00    -0.388 N 
HETATM   24  C1  UNL     1      75.917  38.973   4.001  1.00  0.00     0.149 C 
HETATM   25  C2  UNL     1      74.535  37.940   5.763  1.00  0.00     0.149 C 
ENDBRANCH  19  23
ENDBRANCH   1  16
TORSDOF 2
ENDMDL
MODEL 2
REMARK VINA RESULT: -5.878252898      1.273      1.794
REMARK  2 active torsions:
REMARK  status: ('A' for Active; 'I' for Inactive)
REMARK    1  A    between atoms: N1_2  and  C3_4 
REMARK    2  A    between atoms: C6_7  and  C7_8 
ROOT
HETATM    1  C7  UNL     1      72.879  34.386   0.104  1.00  0.00     0.143 C 
HETATM    2  N2  UNL     1      73.281  33.027   0.397  1.00  0.00    -0.217 N 
ATOM      3  H2  UNL     1      73.972  32.829   1.121  1.00  0.00     0.178 HD
HETATM    4  C8  UNL     1      72.688  31.982  -0.353  1.00  0.00     0.668 C 
HETATM    5  N3  UNL     1      72.565  30.782   0.086  1.00  0.00    -0.235 N 
ATOM      6  H31 UNL     1      72.137  30.029  -0.453  1.00  0.00     0.174 HD
ATOM      7  H32 UNL     1      72.893  30.519   1.016  1.00  0.00     0.174 HD
HETATM    8  N4  UNL     1      72.226  32.351  -1.660  1.00  0.00    -0.217 N 
ATOM      9  H4  UNL     1      71.970  31.611  -2.313  1.00  0.00     0.178 HD
HETATM   10  C9  UNL     1      72.109  33.707  -2.087  1.00  0.00     0.049 C 
HETATM   11  C10 UNL     1      70.657  34.133  -1.993  1.00  0.00     0.039 C 
HETATM   12  C11 UNL     1      72.486  33.758  -3.565  1.00  0.00     0.039 C 
HETATM   13  C12 UNL     1      73.023  34.672  -1.323  1.00  0.00     0.003 C 
HETATM   14  C13 UNL     1      72.497  36.050  -1.726  1.00  0.00     0.020 C 
HETATM   15  C14 UNL     1      74.414  34.444  -1.875  1.00  0.00     0.020 C 
ENDROOT
BRANCH   1  16
HETATM   16  C6  UNL     1      73.543  35.243   1.085  1.00  0.00    -0.032 A 
HETATM   17  C5  UNL     1      74.690  35.013   1.766  1.00  0.00     0.011 A 
HETATM   18  C4  UNL     1      75.187  35.942   2.658  1.00  0.00     0.031 A 
HETATM   19  C3  UNL     1      74.558  37.155   2.914  1.00  0.00     0.051 A 
HETATM   20  C16 UNL     1      73.398  37.387   2.225  1.00  0.00     0.061 A 
HETATM   21  C15 UNL     1      72.907  36.450   1.333  1.00  0.00     0.035 A 
HETATM   22 CL1  UNL     1      72.532  38.893   2.473  1.00  0.00    -0.082 Cl
BRANCH  19  23
HETATM   23  N1  UNL     1      75.150  38.033   3.860  1.00  0.00    -0.388 N 
HETATM   24  C1  UNL     1      74.752  37.907   5.268  1.00  0.00     0.149 C 
HETATM   25  C2  UNL     1      76.113  39.061   3.565  1.00  0.00     0.149 C 
ENDBRANCH  19  23
ENDBRANCH   1  16
TORSDOF 2
ENDMDL
MODEL 3
REMARK VINA RESULT: -5.513159773      4.766      6.597
REMARK  2 active torsions:
REMARK  status: ('A' for Active; 'I' for Inactive)
REMARK    1  A    between atoms: N1_2  and  C3_4 
REMARK    2  A    between atoms: C6_7  and  C7_8 
ROOT
HETATM    1  C7  UNL     1      75.154  34.067  -2.936  1.00  0.00     0.143 C 
HETATM    2  N2  UNL     1      75.028  35.500  -3.090  1.00  0.00    -0.217 N 
ATOM      3  H2  UNL     1      74.124  35.962  -2.989  1.00  0.00     0.178 HD
HETATM    4  C8  UNL     1      76.198  36.243  -3.385  1.00  0.00     0.668 C 
HETATM    5  N3  UNL     1      76.344  37.481  -3.078  1.00  0.00    -0.235 N 
ATOM      6  H31 UNL     1      77.186  38.015  -3.290  1.00  0.00     0.174 HD
ATOM      7  H32 UNL     1      75.609  37.999  -2.596  1.00  0.00     0.174 HD
HETATM    8  N4  UNL     1      77.231  35.514  -4.063  1.00  0.00    -0.217 N 
ATOM      9  H4  UNL     1      78.008  36.034  -4.469  1.00  0.00     0.178 HD
HETATM   10  C9  UNL     1      77.221  34.093  -4.193  1.00  0.00     0.049 C 
HETATM   11  C10 UNL     1      78.156  33.493  -3.162  1.00  0.00     0.039 C 
HETATM   12  C11 UNL     1      77.802  33.754  -5.563  1.00  0.00     0.039 C 
HETATM   13  C12 UNL     1      75.820  33.479  -4.098  1.00  0.00     0.003 C 
HETATM   14  C13 UNL     1      76.099  31.983  -3.949  1.00  0.00     0.020 C 
HETATM   15  C14 UNL     1      75.151  33.773  -5.424  1.00  0.00     0.020 C 
ENDROOT
BRANCH   1  16
HETATM   16  C6  UNL     1      73.842  33.571  -2.526  1.00  0.00    -0.032 A 
HETATM   17  C5  UNL     1      72.627  33.869  -3.044  1.00  0.00     0.011 A 
HETATM   18  C4  UNL     1      71.476  33.299  -2.538  1.00  0.00     0.031 A 
HETATM   19  C3  UNL     1      71.484  32.394  -1.482  1.00  0.00     0.051 A 
HETATM   20  C16 UNL     1      72.713  32.093  -0.958  1.00  0.00     0.061 A 
HETATM   21  C15 UNL     1      73.860  32.669  -1.471  1.00  0.00     0.035 A 
HETATM   22 CL1  UNL     1      72.829  30.955   0.373  1.00  0.00    -0.082 Cl
BRANCH  19  23
HETATM   23  N1  UNL     1      70.241  31.876  -1.032  1.00  0.00    -0.388 N 
HETATM   24  C1  UNL     1      69.226  32.824  -0.555  1.00  0.00     0.149 C 
HETATM   25  C2  UNL     1      69.877  30.485  -0.987  1.00  0.00     0.149 C 
ENDBRANCH  19  23
ENDBRANCH   1  16
TORSDOF 2
ENDMDL
MODEL 4
REMARK VINA RESULT: -5.474644126      4.056      6.720
REMARK  2 active torsions:
REMARK  status: ('A' for Active; 'I' for Inactive)
REMARK    1  A    between atoms: N1_2  and  C3_4 
REMARK    2  A    between atoms: C6_7  and  C7_8 
ROOT
HETATM    1  C7  UNL     1      73.241  36.674  -4.080  1.00  0.00     0.143 C 
HETATM    2  N2  UNL     1      72.149  37.092  -4.933  1.00  0.00    -0.217 N 
ATOM      3  H2  UNL     1      71.282  36.555  -4.976  1.00  0.00     0.178 HD
HETATM    4  C8  UNL     1      72.320  38.266  -5.706  1.00  0.00     0.668 C 
HETATM    5  N3  UNL     1      71.344  39.000  -6.100  1.00  0.00    -0.235 N 
ATOM      6  H31 UNL     1      71.467  39.846  -6.657  1.00  0.00     0.174 HD
ATOM      7  H32 UNL     1      70.377  38.768  -5.869  1.00  0.00     0.174 HD
HETATM    8  N4  UNL     1      73.679  38.592  -6.031  1.00  0.00    -0.217 N 
ATOM      9  H4  UNL     1      73.853  39.306  -6.738  1.00  0.00     0.178 HD
HETATM   10  C9  UNL     1      74.798  37.962  -5.410  1.00  0.00     0.049 C 
HETATM   11  C10 UNL     1      75.353  38.881  -4.339  1.00  0.00     0.039 C 
HETATM   12  C11 UNL     1      75.888  37.815  -6.468  1.00  0.00     0.039 C 
HETATM   13  C12 UNL     1      74.484  36.574  -4.845  1.00  0.00     0.003 C 
HETATM   14  C13 UNL     1      75.707  36.258  -3.982  1.00  0.00     0.020 C 
HETATM   15  C14 UNL     1      74.416  35.648  -6.041  1.00  0.00     0.020 C 
ENDROOT
BRANCH   1  16
HETATM   16  C6  UNL     1      72.764  35.522  -3.318  1.00  0.00    -0.032 A 
HETATM   17  C5  UNL     1      72.270  34.350  -3.782  1.00  0.00     0.011 A 
HETATM   18  C4  UNL     1      71.868  33.353  -2.916  1.00  0.00     0.031 A 
HETATM   19  C3  UNL     1      71.943  33.479  -1.533  1.00  0.00     0.051 A 
HETATM   20  C16 UNL     1      72.444  34.665  -1.064  1.00  0.00     0.061 A 
HETATM   21  C15 UNL     1      72.843  35.658  -1.940  1.00  0.00     0.035 A 
HETATM   22 CL1  UNL     1      72.586  34.918   0.667  1.00  0.00    -0.082 Cl
BRANCH  19  23
HETATM   23  N1  UNL     1      71.493  32.396  -0.734  1.00  0.00    -0.388 N 
HETATM   24  C1  UNL     1      70.052  32.280  -0.470  1.00  0.00     0.149 C 
HETATM   25  C2  UNL     1      72.327  31.387  -0.137  1.00  0.00     0.149 C 
ENDBRANCH  19  23
ENDBRANCH   1  16
TORSDOF 2
ENDMDL
MODEL 5
REMARK VINA RESULT: -5.440774517      2.367      3.403
REMARK  2 active torsions:
REMARK  status: ('A' for Active; 'I' for Inactive)
REMARK    1  A    between atoms: N1_2  and  C3_4 
REMARK    2  A    between atoms: C6_7  and  C7_8 
ROOT
HETATM    1  C7  UNL     1      73.433  35.686  -1.577  1.00  0.00     0.143 C 
HETATM    2  N2  UNL     1      72.599  36.823  -1.901  1.00  0.00    -0.217 N 
ATOM      3  H2  UNL     1      72.233  37.431  -1.169  1.00  0.00     0.178 HD
HETATM    4  C8  UNL     1      72.306  37.065  -3.266  1.00  0.00     0.668 C 
HETATM    5  N3  UNL     1      72.023  38.227  -3.731  1.00  0.00    -0.235 N 
ATOM      6  H31 UNL     1      71.812  38.402  -4.714  1.00  0.00     0.174 HD
ATOM      7  H32 UNL     1      71.996  39.050  -3.127  1.00  0.00     0.174 HD
HETATM    8  N4  UNL     1      72.344  35.909  -4.115  1.00  0.00    -0.217 N 
ATOM      9  H4  UNL     1      71.959  35.983  -5.056  1.00  0.00     0.178 HD
HETATM   10  C9  UNL     1      72.897  34.661  -3.701  1.00  0.00     0.049 C 
HETATM   11  C10 UNL     1      74.292  34.520  -4.279  1.00  0.00     0.039 C 
HETATM   12  C11 UNL     1      72.051  33.554  -4.325  1.00  0.00     0.039 C 
HETATM   13  C12 UNL     1      72.901  34.465  -2.182  1.00  0.00     0.003 C 
HETATM   14  C13 UNL     1      73.801  33.244  -1.984  1.00  0.00     0.020 C 
HETATM   15  C14 UNL     1      71.470  34.146  -1.804  1.00  0.00     0.020 C 
ENDROOT
BRANCH   1  16
HETATM   16  C6  UNL     1      73.671  35.736  -0.136  1.00  0.00    -0.032 A 
HETATM   17  C5  UNL     1      72.799  36.040   0.853  1.00  0.00     0.011 A 
HETATM   18  C4  UNL     1      73.190  36.032   2.178  1.00  0.00     0.031 A 
HETATM   19  C3  UNL     1      74.482  35.715   2.581  1.00  0.00     0.051 A 
HETATM   20  C16 UNL     1      75.365  35.408   1.579  1.00  0.00     0.061 A 
HETATM   21  C15 UNL     1      74.964  35.419   0.256  1.00  0.00     0.035 A 
HETATM   22 CL1  UNL     1      77.020  34.986   1.986  1.00  0.00    -0.082 Cl
BRANCH  19  23
HETATM   23  N1  UNL     1      74.781  35.748   3.968  1.00  0.00    -0.388 N 
HETATM   24  C1  UNL     1      74.398  34.590   4.787  1.00  0.00     0.149 C 
HETATM   25  C2  UNL     1      75.425  36.829   4.665  1.00  0.00     0.149 C 
ENDBRANCH  19  23
ENDBRANCH   1  16
TORSDOF 2
ENDMDL
