MODEL 1
REMARK VINA RESULT: -8.254460523      0.000      0.000
REMARK  9 active torsions:
REMARK  status: ('A' for Active; 'I' for Inactive)
REMARK    1  A    between atoms: N1_2  and  C2_4 
REMARK    2  A    between atoms: C2_4  and  C4_6 
REMARK    3  A    between atoms: C2_4  and  C18_22 
REMARK    4  A    between atoms: C4_6  and  C5_7 
REMARK    5  A    between atoms: C8_10  and  C9_11 
REMARK    6  A    between atoms: C10_12  and  C11_13 
REMARK    7  A    between atoms: C18_22  and  N3_23 
REMARK    8  A    between atoms: C18_22  and  N4_33 
REMARK       I    between atoms: N3_23  and  C19_25 
REMARK    9  A    between atoms: C19_25  and  C20_27 
ROOT
HETATM    1  C2  UNL     1      11.398  13.910  22.260  1.00  0.00     0.064 C 
HETATM    2  C3  UNL     1      11.630  12.740  21.279  1.00  0.00     0.042 C 
ENDROOT
BRANCH   1   3
HETATM    3  N1  UNL     1      12.623  14.602  22.412  1.00  0.00    -0.414 N 
HETATM    4  C1  UNL     1      13.822  13.904  22.093  1.00  0.00     0.141 C 
ATOM      5  H1  UNL     1      12.647  15.568  22.738  1.00  0.00     0.153 HD
ENDBRANCH   1   3
BRANCH   1   6
HETATM    6  C4  UNL     1      10.867  13.413  23.549  1.00  0.00     0.072 C 
BRANCH   6   7
HETATM    7  C5  UNL     1      11.180  14.311  24.699  1.00  0.00    -0.056 A 
HETATM    8  C6  UNL     1      10.299  15.284  25.048  1.00  0.00     0.009 A 
HETATM    9  C7  UNL     1      10.599  16.108  26.114  1.00  0.00     0.021 A 
HETATM   10  C8  UNL     1      11.757  16.002  26.857  1.00  0.00     0.018 A 
HETATM   11  C16 UNL     1      12.649  15.012  26.500  1.00  0.00     0.021 A 
HETATM   12  C17 UNL     1      12.346  14.175  25.419  1.00  0.00     0.009 A 
BRANCH  10  13
HETATM   13  C9  UNL     1      12.027  16.892  27.972  1.00  0.00    -0.061 C 
HETATM   14  C10 UNL     1      12.231  17.631  28.908  1.00  0.00    -0.060 C 
BRANCH  14  15
HETATM   15  C11 UNL     1      12.448  18.517  30.022  1.00  0.00     0.033 A 
HETATM   16  C12 UNL     1      11.706  18.428  31.196  1.00  0.00     0.023 A 
HETATM   17  C13 UNL     1      11.928  19.283  32.253  1.00  0.00     0.019 A 
HETATM   18  C14 UNL     1      12.898  20.253  32.171  1.00  0.00     0.087 A 
HETATM   19  N2  UNL     1      13.618  20.347  31.044  1.00  0.00    -0.374 N 
HETATM   20  C15 UNL     1      13.401  19.512  30.011  1.00  0.00     0.108 A 
ATOM     21  H2  UNL     1      14.343  21.062  30.969  1.00  0.00     0.164 HD
ENDBRANCH  14  15
ENDBRANCH  10  13
ENDBRANCH   6   7
ENDBRANCH   1   6
BRANCH   1  22
HETATM   22  C18 UNL     1      10.362  14.812  21.590  1.00  0.00     0.211 C 
BRANCH  22  23
HETATM   23  N3  UNL     1      10.874  16.170  21.527  1.00  0.00    -0.334 N 
HETATM   24  C19 UNL     1      10.251  17.298  22.117  1.00  0.00     0.253 C 
HETATM   25  O1  UNL     1       9.181  17.094  22.737  1.00  0.00    -0.268 OA
ATOM     26  H3  UNL     1      11.746  16.322  21.021  1.00  0.00     0.165 HD
BRANCH  24  27
HETATM   27  C20 UNL     1      10.774  18.642  22.042  1.00  0.00     0.032 A 
HETATM   28  C21 UNL     1      11.374  19.129  20.904  1.00  0.00     0.017 A 
HETATM   29  C22 UNL     1      11.874  20.426  20.832  1.00  0.00     0.001 A 
HETATM   30  C23 UNL     1      11.747  21.217  21.946  1.00  0.00     0.000 A 
HETATM   31  C24 UNL     1      11.151  20.761  23.104  1.00  0.00     0.001 A 
HETATM   32  C25 UNL     1      10.675  19.471  23.118  1.00  0.00     0.017 A 
ENDBRANCH  24  27
ENDBRANCH  22  23
BRANCH  22  33
HETATM   33  N4  UNL     1       9.842  14.241  20.459  1.00  0.00    -0.376 N 
HETATM   34  C26 UNL     1      10.324  14.200  19.166  1.00  0.00     0.132 A 
HETATM   35  C27 UNL     1       8.880  14.007  18.676  1.00  0.00     0.073 A 
HETATM   36  C28 UNL     1       8.314  15.226  18.054  1.00  0.00     0.072 C 
HETATM   37  C30 UNL     1       8.474  14.096  20.161  1.00  0.00     0.184 A 
HETATM   38  N5  UNL     1       7.607  15.884  18.886  1.00  0.00    -0.339 N 
HETATM   39  C29 UNL     1       7.578  15.246  20.154  1.00  0.00     0.244 C 
ATOM     40  H5  UNL     1       7.125  16.756  18.669  1.00  0.00     0.167 HD
HETATM   41  O2  UNL     1       6.876  15.635  21.112  1.00  0.00    -0.271 OA
ENDBRANCH  22  33
ENDBRANCH   1  22
TORSDOF 9
ENDMDL
MODEL 2
REMARK VINA RESULT: -8.237482540      4.238      8.682
REMARK  9 active torsions:
REMARK  status: ('A' for Active; 'I' for Inactive)
REMARK    1  A    between atoms: N1_2  and  C2_4 
REMARK    2  A    between atoms: C2_4  and  C4_6 
REMARK    3  A    between atoms: C2_4  and  C18_22 
REMARK    4  A    between atoms: C4_6  and  C5_7 
REMARK    5  A    between atoms: C8_10  and  C9_11 
REMARK    6  A    between atoms: C10_12  and  C11_13 
REMARK    7  A    between atoms: C18_22  and  N3_23 
REMARK    8  A    between atoms: C18_22  and  N4_33 
REMARK       I    between atoms: N3_23  and  C19_25 
REMARK    9  A    between atoms: C19_25  and  C20_27 
ROOT
HETATM    1  C2  UNL     1      11.075  13.491  29.308  1.00  0.00     0.064 C 
HETATM    2  C3  UNL     1      11.362  12.189  30.086  1.00  0.00     0.042 C 
ENDROOT
BRANCH   1   3
HETATM    3  N1  UNL     1      10.144  14.252  30.056  1.00  0.00    -0.414 N 
HETATM    4  C1  UNL     1       9.082  13.554  30.695  1.00  0.00     0.141 C 
ATOM      5  H1  UNL     1      10.233  15.264  30.134  1.00  0.00     0.153 HD
ENDBRANCH   1   3
BRANCH   1   6
HETATM    6  C4  UNL     1      10.589  13.187  27.944  1.00  0.00     0.072 C 
BRANCH   6   7
HETATM    7  C5  UNL     1      10.723  14.338  27.002  1.00  0.00    -0.056 A 
HETATM    8  C6  UNL     1       9.937  15.432  27.167  1.00  0.00     0.009 A 
HETATM    9  C7  UNL     1      10.070  16.490  26.289  1.00  0.00     0.021 A 
HETATM   10  C8  UNL     1      10.966  16.502  25.241  1.00  0.00     0.018 A 
HETATM   11  C16 UNL     1      11.764  15.388  25.077  1.00  0.00     0.021 A 
HETATM   12  C17 UNL     1      11.630  14.314  25.966  1.00  0.00     0.009 A 
BRANCH  10  13
HETATM   13  C9  UNL     1      11.071  17.640  24.345  1.00  0.00    -0.061 C 
HETATM   14  C10 UNL     1      11.136  18.590  23.598  1.00  0.00    -0.060 C 
BRANCH  14  15
HETATM   15  C11 UNL     1      11.189  19.715  22.702  1.00  0.00     0.033 A 
HETATM   16  C12 UNL     1      11.514  19.577  21.355  1.00  0.00     0.023 A 
HETATM   17  C13 UNL     1      11.558  20.664  20.511  1.00  0.00     0.019 A 
HETATM   18  C14 UNL     1      11.280  21.924  20.984  1.00  0.00     0.087 A 
HETATM   19  N2  UNL     1      10.966  22.068  22.280  1.00  0.00    -0.374 N 
HETATM   20  C15 UNL     1      10.923  21.006  23.105  1.00  0.00     0.108 A 
ATOM     21  H2  UNL     1      10.756  22.997  22.646  1.00  0.00     0.164 HD
ENDBRANCH  14  15
ENDBRANCH  10  13
ENDBRANCH   6   7
ENDBRANCH   1   6
BRANCH   1  22
HETATM   22  C18 UNL     1      12.412  14.226  29.226  1.00  0.00     0.211 C 
BRANCH  22  23
HETATM   23  N3  UNL     1      12.332  15.460  29.989  1.00  0.00    -0.334 N 
HETATM   24  C19 UNL     1      12.690  16.740  29.499  1.00  0.00     0.253 C 
HETATM   25  O1  UNL     1      13.103  16.798  28.317  1.00  0.00    -0.268 OA
ATOM     26  H3  UNL     1      11.992  15.399  30.949  1.00  0.00     0.165 HD
BRANCH  24  27
HETATM   27  C20 UNL     1      12.605  17.956  30.273  1.00  0.00     0.032 A 
HETATM   28  C21 UNL     1      13.521  18.973  30.136  1.00  0.00     0.017 A 
HETATM   29  C22 UNL     1      13.436  20.147  30.881  1.00  0.00     0.001 A 
HETATM   30  C23 UNL     1      12.395  20.261  31.767  1.00  0.00     0.000 A 
HETATM   31  C24 UNL     1      11.458  19.260  31.929  1.00  0.00     0.001 A 
HETATM   32  C25 UNL     1      11.592  18.123  31.168  1.00  0.00     0.017 A 
ENDBRANCH  24  27
ENDBRANCH  22  23
BRANCH  22  33
HETATM   33  N4  UNL     1      13.473  13.384  29.429  1.00  0.00    -0.376 N 
HETATM   34  C26 UNL     1      14.237  13.150  30.555  1.00  0.00     0.132 A 
HETATM   35  C27 UNL     1      15.377  12.684  29.636  1.00  0.00     0.073 A 
HETATM   36  C28 UNL     1      16.471  13.676  29.527  1.00  0.00     0.072 C 
HETATM   37  C30 UNL     1      14.429  13.012  28.465  1.00  0.00     0.184 A 
HETATM   38  N5  UNL     1      16.345  14.391  28.479  1.00  0.00    -0.339 N 
HETATM   39  C29 UNL     1      15.194  14.017  27.737  1.00  0.00     0.244 C 
ATOM     40  H5  UNL     1      16.987  15.136  28.209  1.00  0.00     0.167 HD
HETATM   41  O2  UNL     1      14.901  14.495  26.619  1.00  0.00    -0.271 OA
ENDBRANCH  22  33
ENDBRANCH   1  22
TORSDOF 9
ENDMDL
MODEL 3
REMARK VINA RESULT: -8.202815724      3.983      8.253
REMARK  9 active torsions:
REMARK  status: ('A' for Active; 'I' for Inactive)
REMARK    1  A    between atoms: N1_2  and  C2_4 
REMARK    2  A    between atoms: C2_4  and  C4_6 
REMARK    3  A    between atoms: C2_4  and  C18_22 
REMARK    4  A    between atoms: C4_6  and  C5_7 
REMARK    5  A    between atoms: C8_10  and  C9_11 
REMARK    6  A    between atoms: C10_12  and  C11_13 
REMARK    7  A    between atoms: C18_22  and  N3_23 
REMARK    8  A    between atoms: C18_22  and  N4_33 
REMARK       I    between atoms: N3_23  and  C19_25 
REMARK    9  A    between atoms: C19_25  and  C20_27 
ROOT
HETATM    1  C2  UNL     1      11.177  14.046  22.273  1.00  0.00     0.064 C 
HETATM    2  C3  UNL     1      10.695  13.996  23.740  1.00  0.00     0.042 C 
ENDROOT
BRANCH   1   3
HETATM    3  N1  UNL     1      11.173  12.724  21.767  1.00  0.00    -0.414 N 
HETATM    4  C1  UNL     1      10.615  11.704  22.586  1.00  0.00     0.141 C 
ATOM      5  H1  UNL     1      11.558  12.511  20.847  1.00  0.00     0.153 HD
ENDBRANCH   1   3
BRANCH   1   6
HETATM    6  C4  UNL     1      12.509  14.682  22.184  1.00  0.00     0.072 C 
BRANCH   6   7
HETATM    7  C5  UNL     1      13.544  13.795  21.574  1.00  0.00    -0.056 A 
HETATM    8  C6  UNL     1      14.760  13.679  22.168  1.00  0.00     0.009 A 
HETATM    9  C7  UNL     1      15.709  12.855  21.595  1.00  0.00     0.021 A 
HETATM   10  C8  UNL     1      15.493  12.134  20.440  1.00  0.00     0.018 A 
HETATM   11  C16 UNL     1      14.257  12.254  19.839  1.00  0.00     0.021 A 
HETATM   12  C17 UNL     1      13.293  13.089  20.419  1.00  0.00     0.009 A 
BRANCH  10  13
HETATM   13  C9  UNL     1      16.522  11.279  19.877  1.00  0.00    -0.061 C 
HETATM   14  C10 UNL     1      17.380  10.554  19.426  1.00  0.00    -0.060 C 
BRANCH  14  15
HETATM   15  C11 UNL     1      18.408   9.686  18.914  1.00  0.00     0.033 A 
HETATM   16  C12 UNL     1      19.706   9.693  19.419  1.00  0.00     0.023 A 
HETATM   17  C13 UNL     1      20.677   8.854  18.918  1.00  0.00     0.019 A 
HETATM   18  C14 UNL     1      20.382   7.981  17.898  1.00  0.00     0.087 A 
HETATM   19  N2  UNL     1      19.136   7.966  17.405  1.00  0.00    -0.374 N 
HETATM   20  C15 UNL     1      18.187   8.785  17.893  1.00  0.00     0.108 A 
ATOM     21  H2  UNL     1      18.902   7.322  16.648  1.00  0.00     0.164 HD
ENDBRANCH  14  15
ENDBRANCH  10  13
ENDBRANCH   6   7
ENDBRANCH   1   6
BRANCH   1  22
HETATM   22  C18 UNL     1      10.148  14.898  21.530  1.00  0.00     0.211 C 
BRANCH  22  23
HETATM   23  N3  UNL     1      10.642  16.259  21.415  1.00  0.00    -0.334 N 
HETATM   24  C19 UNL     1      10.289  17.325  22.280  1.00  0.00     0.253 C 
HETATM   25  O1  UNL     1       9.491  17.059  23.209  1.00  0.00    -0.268 OA
ATOM     26  H3  UNL     1      11.293  16.463  20.656  1.00  0.00     0.165 HD
BRANCH  24  27
HETATM   27  C20 UNL     1      10.790  18.673  22.149  1.00  0.00     0.032 A 
HETATM   28  C21 UNL     1      11.429  19.106  21.011  1.00  0.00     0.017 A 
HETATM   29  C22 UNL     1      11.907  20.408  20.884  1.00  0.00     0.001 A 
HETATM   30  C23 UNL     1      11.719  21.258  21.944  1.00  0.00     0.000 A 
HETATM   31  C24 UNL     1      11.081  20.857  23.100  1.00  0.00     0.001 A 
HETATM   32  C25 UNL     1      10.630  19.560  23.170  1.00  0.00     0.017 A 
ENDBRANCH  24  27
ENDBRANCH  22  23
BRANCH  22  33
HETATM   33  N4  UNL     1       9.670  14.265  20.414  1.00  0.00    -0.376 N 
HETATM   34  C26 UNL     1      10.167  14.206  19.127  1.00  0.00     0.132 A 
HETATM   35  C27 UNL     1       8.739  13.924  18.631  1.00  0.00     0.073 A 
HETATM   36  C28 UNL     1       8.121  15.093  17.963  1.00  0.00     0.072 C 
HETATM   37  C30 UNL     1       8.313  14.043  20.108  1.00  0.00     0.184 A 
HETATM   38  N5  UNL     1       7.374  15.743  18.766  1.00  0.00    -0.339 N 
HETATM   39  C29 UNL     1       7.362  15.146  20.054  1.00  0.00     0.244 C 
ATOM     40  H5  UNL     1       6.852  16.582  18.515  1.00  0.00     0.167 HD
HETATM   41  O2  UNL     1       6.631  15.531  20.992  1.00  0.00    -0.271 OA
ENDBRANCH  22  33
ENDBRANCH   1  22
TORSDOF 9
ENDMDL
MODEL 4
REMARK VINA RESULT: -8.056225989      4.587      9.631
REMARK  9 active torsions:
REMARK  status: ('A' for Active; 'I' for Inactive)
REMARK    1  A    between atoms: N1_2  and  C2_4 
REMARK    2  A    between atoms: C2_4  and  C4_6 
REMARK    3  A    between atoms: C2_4  and  C18_22 
REMARK    4  A    between atoms: C4_6  and  C5_7 
REMARK    5  A    between atoms: C8_10  and  C9_11 
REMARK    6  A    between atoms: C10_12  and  C11_13 
REMARK    7  A    between atoms: C18_22  and  N3_23 
REMARK    8  A    between atoms: C18_22  and  N4_33 
REMARK       I    between atoms: N3_23  and  C19_25 
REMARK    9  A    between atoms: C19_25  and  C20_27 
ROOT
HETATM    1  C2  UNL     1      11.523  14.351  29.484  1.00  0.00     0.064 C 
HETATM    2  C3  UNL     1      12.445  13.762  28.394  1.00  0.00     0.042 C 
ENDROOT
BRANCH   1   3
HETATM    3  N1  UNL     1      11.354  13.370  30.490  1.00  0.00    -0.414 N 
HETATM    4  C1  UNL     1      11.863  12.066  30.234  1.00  0.00     0.141 C 
ATOM      5  H1  UNL     1      10.885  13.589  31.368  1.00  0.00     0.153 HD
ENDBRANCH   1   3
BRANCH   1   6
HETATM    6  C4  UNL     1      10.236  14.787  28.899  1.00  0.00     0.072 C 
BRANCH   6   7
HETATM    7  C5  UNL     1      10.401  15.730  27.753  1.00  0.00    -0.056 A 
HETATM    8  C6  UNL     1      10.499  17.063  27.992  1.00  0.00     0.009 A 
HETATM    9  C7  UNL     1      10.651  17.925  26.924  1.00  0.00     0.021 A 
HETATM   10  C8  UNL     1      10.711  17.507  25.611  1.00  0.00     0.018 A 
HETATM   11  C16 UNL     1      10.613  16.152  25.372  1.00  0.00     0.021 A 
HETATM   12  C17 UNL     1      10.458  15.276  26.454  1.00  0.00     0.009 A 
BRANCH  10  13
HETATM   13  C9  UNL     1      10.875  18.453  24.521  1.00  0.00    -0.061 C 
HETATM   14  C10 UNL     1      10.991  19.248  23.616  1.00  0.00    -0.060 C 
BRANCH  14  15
HETATM   15  C11 UNL     1      11.102  20.194  22.536  1.00  0.00     0.033 A 
HETATM   16  C12 UNL     1      11.394  19.802  21.233  1.00  0.00     0.023 A 
HETATM   17  C13 UNL     1      11.495  20.721  20.212  1.00  0.00     0.019 A 
HETATM   18  C14 UNL     1      11.308  22.060  20.460  1.00  0.00     0.087 A 
HETATM   19  N2  UNL     1      11.025  22.447  21.712  1.00  0.00    -0.374 N 
HETATM   20  C15 UNL     1      10.927  21.550  22.709  1.00  0.00     0.108 A 
ATOM     21  H2  UNL     1      10.882  23.438  21.911  1.00  0.00     0.164 HD
ENDBRANCH  14  15
ENDBRANCH  10  13
ENDBRANCH   6   7
ENDBRANCH   1   6
BRANCH   1  22
HETATM   22  C18 UNL     1      12.269  15.560  30.047  1.00  0.00     0.211 C 
BRANCH  22  23
HETATM   23  N3  UNL     1      11.436  16.224  31.034  1.00  0.00    -0.334 N 
HETATM   24  C19 UNL     1      11.517  17.599  31.370  1.00  0.00     0.253 C 
HETATM   25  O1  UNL     1      12.375  18.280  30.762  1.00  0.00    -0.268 OA
ATOM     26  H3  UNL     1      10.740  15.659  31.521  1.00  0.00     0.165 HD
BRANCH  24  27
HETATM   27  C20 UNL     1      10.681  18.241  32.356  1.00  0.00     0.032 A 
HETATM   28  C21 UNL     1      10.895  19.539  32.760  1.00  0.00     0.017 A 
HETATM   29  C22 UNL     1      10.085  20.159  33.708  1.00  0.00     0.001 A 
HETATM   30  C23 UNL     1       9.052  19.427  34.235  1.00  0.00     0.000 A 
HETATM   31  C24 UNL     1       8.808  18.123  33.852  1.00  0.00     0.001 A 
HETATM   32  C25 UNL     1       9.640  17.562  32.913  1.00  0.00     0.017 A 
ENDBRANCH  24  27
ENDBRANCH  22  23
BRANCH  22  33
HETATM   33  N4  UNL     1      13.567  15.259  30.363  1.00  0.00    -0.376 N 
HETATM   34  C26 UNL     1      14.172  15.045  31.585  1.00  0.00     0.132 A 
HETATM   35  C27 UNL     1      15.511  15.452  30.949  1.00  0.00     0.073 A 
HETATM   36  C28 UNL     1      15.957  16.803  31.359  1.00  0.00     0.072 C 
HETATM   37  C30 UNL     1      14.708  15.678  29.652  1.00  0.00     0.184 A 
HETATM   38  N5  UNL     1      15.641  17.679  30.488  1.00  0.00    -0.339 N 
HETATM   39  C29 UNL     1      14.958  17.090  29.392  1.00  0.00     0.244 C 
ATOM     40  H5  UNL     1      15.851  18.674  30.569  1.00  0.00     0.167 HD
HETATM   41  O2  UNL     1      14.630  17.715  28.360  1.00  0.00    -0.271 OA
ENDBRANCH  22  33
ENDBRANCH   1  22
TORSDOF 9
ENDMDL
MODEL 5
REMARK VINA RESULT: -7.881066085      4.469      9.632
REMARK  9 active torsions:
REMARK  status: ('A' for Active; 'I' for Inactive)
REMARK    1  A    between atoms: N1_2  and  C2_4 
REMARK    2  A    between atoms: C2_4  and  C4_6 
REMARK    3  A    between atoms: C2_4  and  C18_22 
REMARK    4  A    between atoms: C4_6  and  C5_7 
REMARK    5  A    between atoms: C8_10  and  C9_11 
REMARK    6  A    between atoms: C10_12  and  C11_13 
REMARK    7  A    between atoms: C18_22  and  N3_23 
REMARK    8  A    between atoms: C18_22  and  N4_33 
REMARK       I    between atoms: N3_23  and  C19_25 
REMARK    9  A    between atoms: C19_25  and  C20_27 
ROOT
HETATM    1  C2  UNL     1      12.025  14.911  27.897  1.00  0.00     0.064 C 
HETATM    2  C3  UNL     1      12.946  14.924  26.657  1.00  0.00     0.042 C 
ENDROOT
BRANCH   1   3
HETATM    3  N1  UNL     1      11.938  13.577  28.363  1.00  0.00    -0.414 N 
HETATM    4  C1  UNL     1      12.378  12.542  27.491  1.00  0.00     0.141 C 
ATOM      5  H1  UNL     1      11.573  13.365  29.291  1.00  0.00     0.153 HD
ENDBRANCH   1   3
BRANCH   1   6
HETATM    6  C4  UNL     1      10.701  15.482  27.569  1.00  0.00     0.072 C 
BRANCH   6   7
HETATM    7  C5  UNL     1      10.751  16.488  26.467  1.00  0.00    -0.056 A 
HETATM    8  C6  UNL     1      10.658  17.810  26.762  1.00  0.00     0.009 A 
HETATM    9  C7  UNL     1      10.706  18.731  25.734  1.00  0.00     0.021 A 
HETATM   10  C8  UNL     1      10.845  18.383  24.407  1.00  0.00     0.018 A 
HETATM   11  C16 UNL     1      10.940  17.039  24.110  1.00  0.00     0.021 A 
HETATM   12  C17 UNL     1      10.891  16.104  25.152  1.00  0.00     0.009 A 
BRANCH  10  13
HETATM   13  C9  UNL     1      10.893  19.389  23.361  1.00  0.00    -0.061 C 
HETATM   14  C10 UNL     1      10.912  20.224  22.484  1.00  0.00    -0.060 C 
BRANCH  14  15
HETATM   15  C11 UNL     1      10.914  21.204  21.430  1.00  0.00     0.033 A 
HETATM   16  C12 UNL     1      10.770  20.855  20.091  1.00  0.00     0.023 A 
HETATM   17  C13 UNL     1      10.772  21.806  19.095  1.00  0.00     0.019 A 
HETATM   18  C14 UNL     1      10.919  23.137  19.406  1.00  0.00     0.087 A 
HETATM   19  N2  UNL     1      11.057  23.484  20.693  1.00  0.00    -0.374 N 
HETATM   20  C15 UNL     1      11.055  22.555  21.666  1.00  0.00     0.108 A 
ATOM     21  H2  UNL     1      11.166  24.469  20.939  1.00  0.00     0.164 HD
ENDBRANCH  14  15
ENDBRANCH  10  13
ENDBRANCH   6   7
ENDBRANCH   1   6
BRANCH   1  22
HETATM   22  C18 UNL     1      12.721  15.789  28.937  1.00  0.00     0.211 C 
BRANCH  22  23
HETATM   23  N3  UNL     1      11.909  15.846  30.140  1.00  0.00    -0.334 N 
HETATM   24  C19 UNL     1      11.430  17.039  30.738  1.00  0.00     0.253 C 
HETATM   25  O1  UNL     1      11.735  18.116  30.174  1.00  0.00    -0.268 OA
ATOM     26  H3  UNL     1      11.666  14.963  30.588  1.00  0.00     0.165 HD
BRANCH  24  27
HETATM   27  C20 UNL     1      10.625  17.077  31.935  1.00  0.00     0.032 A 
HETATM   28  C21 UNL     1      10.174  15.931  32.548  1.00  0.00     0.017 A 
HETATM   29  C22 UNL     1       9.401  15.969  33.706  1.00  0.00     0.001 A 
HETATM   30  C23 UNL     1       9.098  17.202  34.225  1.00  0.00     0.000 A 
HETATM   31  C24 UNL     1       9.534  18.372  33.636  1.00  0.00     0.001 A 
HETATM   32  C25 UNL     1      10.294  18.274  32.494  1.00  0.00     0.017 A 
ENDBRANCH  24  27
ENDBRANCH  22  23
BRANCH  22  33
HETATM   33  N4  UNL     1      14.054  15.495  29.045  1.00  0.00    -0.376 N 
HETATM   34  C26 UNL     1      14.713  14.567  29.827  1.00  0.00     0.132 A 
HETATM   35  C27 UNL     1      15.975  15.440  29.728  1.00  0.00     0.073 A 
HETATM   36  C28 UNL     1      16.263  16.180  30.979  1.00  0.00     0.072 C 
HETATM   37  C30 UNL     1      15.116  16.406  28.887  1.00  0.00     0.184 A 
HETATM   38  N5  UNL     1      15.819  17.373  30.923  1.00  0.00    -0.339 N 
HETATM   39  C29 UNL     1      15.184  17.628  29.679  1.00  0.00     0.244 C 
ATOM     40  H5  UNL     1      15.907  18.056  31.675  1.00  0.00     0.167 HD
HETATM   41  O2  UNL     1      14.754  18.750  29.335  1.00  0.00    -0.271 OA
ENDBRANCH  22  33
ENDBRANCH   1  22
TORSDOF 9
ENDMDL
