MODEL 1
REMARK VINA RESULT: -7.900292342      0.000      0.000
REMARK  10 active torsions:
REMARK  status: ('A' for Active; 'I' for Inactive)
REMARK    1  A    between atoms: C7_7  and  N1_8 
REMARK    2  A    between atoms: N1_8  and  S1_10 
REMARK    3  A    between atoms: S1_10  and  C9_13 
REMARK    4  A    between atoms: C12_16  and  C13_17 
REMARK    5  A    between atoms: C13_17  and  N2_18 
REMARK       I    between atoms: N2_18  and  C14_20 
REMARK    6  A    between atoms: C14_20  and  C15_22 
REMARK       I    between atoms: C15_22  and  N3_24 
REMARK    7  A    between atoms: N3_24  and  N4_26 
REMARK    8  A    between atoms: N4_26  and  C17_28 
REMARK    9  A    between atoms: C17_28  and  O5_29 
REMARK   10  A    between atoms: C17_28  and  C18_31 
ROOT
HETATM    1  C13 UNL     1      14.556  17.527  29.302  1.00  0.00     0.161 C 
ENDROOT
BRANCH   1   2
HETATM    2  C12 UNL     1      14.040  18.204  30.518  1.00  0.00    -0.040 A 
HETATM    3  C11 UNL     1      14.065  17.524  31.741  1.00  0.00     0.010 A 
HETATM    4  C10 UNL     1      13.595  18.118  32.893  1.00  0.00     0.026 A 
HETATM    5  C9  UNL     1      13.077  19.400  32.902  1.00  0.00     0.080 A 
HETATM    6  C25 UNL     1      13.047  20.079  31.703  1.00  0.00     0.026 A 
HETATM    7  C24 UNL     1      13.523  19.478  30.537  1.00  0.00     0.010 A 
BRANCH   5   8
HETATM    8  S1  UNL     1      12.488  20.128  34.388  1.00  0.00     0.265 S 
HETATM    9  O1  UNL     1      11.804  21.439  34.091  1.00  0.00    -0.200 OA
HETATM   10  O2  UNL     1      13.631  20.444  35.335  1.00  0.00    -0.200 OA
BRANCH   8  11
HETATM   11  N1  UNL     1      11.411  19.066  35.217  1.00  0.00    -0.276 N 
HETATM   12  C8  UNL     1      11.898  18.541  36.494  1.00  0.00     0.170 C 
BRANCH  11  13
HETATM   13  C7  UNL     1      10.131  18.712  34.717  1.00  0.00     0.050 A 
HETATM   14  C2  UNL     1       9.050  19.443  35.158  1.00  0.00    -0.035 A 
HETATM   15  C1  UNL     1       9.219  20.565  36.122  1.00  0.00     0.050 C 
HETATM   16  C3  UNL     1       7.789  19.119  34.690  1.00  0.00     0.009 A 
HETATM   17  C4  UNL     1       7.613  18.074  33.790  1.00  0.00     0.001 A 
HETATM   18  C5  UNL     1       8.705  17.352  33.357  1.00  0.00     0.002 A 
HETATM   19  C6  UNL     1       9.970  17.657  33.812  1.00  0.00     0.031 A 
ENDBRANCH  11  13
ENDBRANCH   8  11
ENDBRANCH   5   8
ENDBRANCH   1   2
BRANCH   1  20
HETATM   20  N2  UNL     1      13.698  17.614  28.163  1.00  0.00    -0.349 N 
HETATM   21  C14 UNL     1      12.583  16.751  28.060  1.00  0.00     0.311 C 
HETATM   22  O3  UNL     1      12.347  15.916  28.954  1.00  0.00    -0.262 OA
ATOM     23  H2  UNL     1      13.888  18.296  27.428  1.00  0.00     0.163 HD
BRANCH  21  24
HETATM   24  C15 UNL     1      11.712  16.841  26.904  1.00  0.00     0.328 C 
HETATM   25  O4  UNL     1      10.468  16.585  27.044  1.00  0.00    -0.261 OA
HETATM   26  N3  UNL     1      12.160  17.199  25.619  1.00  0.00    -0.258 N 
ATOM     27  H3  UNL     1      13.145  17.412  25.465  1.00  0.00     0.190 HD
BRANCH  26  28
HETATM   28  N4  UNL     1      11.230  17.266  24.520  1.00  0.00    -0.272 N 
HETATM   29  C16 UNL     1      10.869  16.037  23.891  1.00  0.00     0.180 C 
BRANCH  28  30
HETATM   30  C17 UNL     1      10.773  18.544  24.202  1.00  0.00     0.167 C 
BRANCH  30  31
HETATM   31  O5  UNL     1       9.923  19.008  25.103  1.00  0.00    -0.344 OA
ATOM     32  H5  UNL     1      10.040  19.938  25.260  1.00  0.00     0.219 HD
ENDBRANCH  30  31
BRANCH  30  33
HETATM   33  C18 UNL     1      11.065  19.399  23.095  1.00  0.00     0.016 A 
HETATM   34  C19 UNL     1      10.933  20.800  23.282  1.00  0.00     0.016 A 
HETATM   35  C20 UNL     1      11.198  21.708  22.306  1.00  0.00     0.001 A 
HETATM   36  C21 UNL     1      11.613  21.247  21.079  1.00  0.00     0.000 A 
HETATM   37  C22 UNL     1      11.765  19.908  20.823  1.00  0.00     0.001 A 
HETATM   38  C23 UNL     1      11.479  19.009  21.866  1.00  0.00     0.016 A 
ENDBRANCH  30  33
ENDBRANCH  28  30
ENDBRANCH  26  28
ENDBRANCH  21  24
ENDBRANCH   1  20
TORSDOF 10
ENDMDL
MODEL 2
REMARK VINA RESULT: -7.833469472      1.675      2.510
REMARK  10 active torsions:
REMARK  status: ('A' for Active; 'I' for Inactive)
REMARK    1  A    between atoms: C7_7  and  N1_8 
REMARK    2  A    between atoms: N1_8  and  S1_10 
REMARK    3  A    between atoms: S1_10  and  C9_13 
REMARK    4  A    between atoms: C12_16  and  C13_17 
REMARK    5  A    between atoms: C13_17  and  N2_18 
REMARK       I    between atoms: N2_18  and  C14_20 
REMARK    6  A    between atoms: C14_20  and  C15_22 
REMARK       I    between atoms: C15_22  and  N3_24 
REMARK    7  A    between atoms: N3_24  and  N4_26 
REMARK    8  A    between atoms: N4_26  and  C17_28 
REMARK    9  A    between atoms: C17_28  and  O5_29 
REMARK   10  A    between atoms: C17_28  and  C18_31 
ROOT
HETATM    1  C13 UNL     1      14.377  16.905  29.054  1.00  0.00     0.161 C 
ENDROOT
BRANCH   1   2
HETATM    2  C12 UNL     1      13.903  17.443  30.353  1.00  0.00    -0.040 A 
HETATM    3  C11 UNL     1      13.721  18.824  30.496  1.00  0.00     0.010 A 
HETATM    4  C10 UNL     1      13.282  19.363  31.686  1.00  0.00     0.026 A 
HETATM    5  C9  UNL     1      13.002  18.579  32.791  1.00  0.00     0.080 A 
HETATM    6  C25 UNL     1      13.178  17.218  32.662  1.00  0.00     0.026 A 
HETATM    7  C24 UNL     1      13.622  16.672  31.457  1.00  0.00     0.010 A 
BRANCH   5   8
HETATM    8  S1  UNL     1      12.442  19.298  34.292  1.00  0.00     0.265 S 
HETATM    9  O1  UNL     1      13.478  20.254  34.830  1.00  0.00    -0.200 OA
HETATM   10  O2  UNL     1      12.234  18.243  35.362  1.00  0.00    -0.200 OA
BRANCH   8  11
HETATM   11  N1  UNL     1      10.937  20.111  34.070  1.00  0.00    -0.276 N 
HETATM   12  C8  UNL     1       9.761  19.246  33.966  1.00  0.00     0.170 C 
BRANCH  11  13
HETATM   13  C7  UNL     1      10.820  21.523  33.992  1.00  0.00     0.050 A 
HETATM   14  C2  UNL     1      10.517  22.202  35.151  1.00  0.00    -0.035 A 
HETATM   15  C1  UNL     1      10.322  21.481  36.439  1.00  0.00     0.050 C 
HETATM   16  C3  UNL     1      10.395  23.580  35.105  1.00  0.00     0.009 A 
HETATM   17  C4  UNL     1      10.573  24.269  33.912  1.00  0.00     0.001 A 
HETATM   18  C5  UNL     1      10.876  23.575  32.759  1.00  0.00     0.002 A 
HETATM   19  C6  UNL     1      11.002  22.202  32.782  1.00  0.00     0.031 A 
ENDBRANCH  11  13
ENDBRANCH   8  11
ENDBRANCH   5   8
ENDBRANCH   1   2
BRANCH   1  20
HETATM   20  N2  UNL     1      13.579  17.277  27.929  1.00  0.00    -0.349 N 
HETATM   21  C14 UNL     1      12.393  16.562  27.645  1.00  0.00     0.311 C 
HETATM   22  O3  UNL     1      12.042  15.609  28.367  1.00  0.00    -0.262 OA
ATOM     23  H2  UNL     1      13.863  18.056  27.334  1.00  0.00     0.163 HD
BRANCH  21  24
HETATM   24  C15 UNL     1      11.584  16.942  26.503  1.00  0.00     0.328 C 
HETATM   25  O4  UNL     1      10.311  16.893  26.602  1.00  0.00    -0.261 OA
HETATM   26  N3  UNL     1      12.123  17.368  25.275  1.00  0.00    -0.258 N 
ATOM     27  H3  UNL     1      13.134  17.421  25.155  1.00  0.00     0.190 HD
BRANCH  26  28
HETATM   28  N4  UNL     1      11.250  17.729  24.187  1.00  0.00    -0.272 N 
HETATM   29  C16 UNL     1      10.624  16.667  23.468  1.00  0.00     0.180 C 
BRANCH  28  30
HETATM   30  C17 UNL     1      11.104  19.098  23.967  1.00  0.00     0.167 C 
BRANCH  30  31
HETATM   31  O5  UNL     1      10.831  19.755  25.082  1.00  0.00    -0.344 OA
ATOM     32  H5  UNL     1      10.735  20.689  24.932  1.00  0.00     0.219 HD
ENDBRANCH  30  31
BRANCH  30  33
HETATM   33  C18 UNL     1      11.199  19.874  22.770  1.00  0.00     0.016 A 
HETATM   34  C19 UNL     1      11.019  21.278  22.870  1.00  0.00     0.016 A 
HETATM   35  C20 UNL     1      11.101  22.115  21.804  1.00  0.00     0.001 A 
HETATM   36  C21 UNL     1      11.371  21.575  20.567  1.00  0.00     0.000 A 
HETATM   37  C22 UNL     1      11.557  20.228  20.393  1.00  0.00     0.001 A 
HETATM   38  C23 UNL     1      11.463  19.403  21.528  1.00  0.00     0.016 A 
ENDBRANCH  30  33
ENDBRANCH  28  30
ENDBRANCH  26  28
ENDBRANCH  21  24
ENDBRANCH   1  20
TORSDOF 10
ENDMDL
MODEL 3
REMARK VINA RESULT: -7.746723905      1.827      2.933
REMARK  10 active torsions:
REMARK  status: ('A' for Active; 'I' for Inactive)
REMARK    1  A    between atoms: C7_7  and  N1_8 
REMARK    2  A    between atoms: N1_8  and  S1_10 
REMARK    3  A    between atoms: S1_10  and  C9_13 
REMARK    4  A    between atoms: C12_16  and  C13_17 
REMARK    5  A    between atoms: C13_17  and  N2_18 
REMARK       I    between atoms: N2_18  and  C14_20 
REMARK    6  A    between atoms: C14_20  and  C15_22 
REMARK       I    between atoms: C15_22  and  N3_24 
REMARK    7  A    between atoms: N3_24  and  N4_26 
REMARK    8  A    between atoms: N4_26  and  C17_28 
REMARK    9  A    between atoms: C17_28  and  O5_29 
REMARK   10  A    between atoms: C17_28  and  C18_31 
ROOT
HETATM    1  C13 UNL     1      12.800  16.800  28.454  1.00  0.00     0.161 C 
ENDROOT
BRANCH   1   2
HETATM    2  C12 UNL     1      12.492  17.727  29.571  1.00  0.00    -0.040 A 
HETATM    3  C11 UNL     1      11.378  17.475  30.381  1.00  0.00     0.010 A 
HETATM    4  C10 UNL     1      11.059  18.312  31.429  1.00  0.00     0.026 A 
HETATM    5  C9  UNL     1      11.810  19.433  31.732  1.00  0.00     0.080 A 
HETATM    6  C25 UNL     1      12.909  19.691  30.940  1.00  0.00     0.026 A 
HETATM    7  C24 UNL     1      13.233  18.843  29.880  1.00  0.00     0.010 A 
BRANCH   5   8
HETATM    8  S1  UNL     1      11.376  20.477  33.075  1.00  0.00     0.265 S 
HETATM    9  O1  UNL     1       9.876  20.536  33.226  1.00  0.00    -0.200 OA
HETATM   10  O2  UNL     1      11.840  21.902  32.836  1.00  0.00    -0.200 OA
BRANCH   8  11
HETATM   11  N1  UNL     1      12.103  19.938  34.543  1.00  0.00    -0.276 N 
HETATM   12  C8  UNL     1      11.857  20.779  35.716  1.00  0.00     0.170 C 
BRANCH  11  13
HETATM   13  C7  UNL     1      12.889  18.760  34.635  1.00  0.00     0.050 A 
HETATM   14  C2  UNL     1      12.236  17.578  34.906  1.00  0.00    -0.035 A 
HETATM   15  C1  UNL     1      10.760  17.537  35.093  1.00  0.00     0.050 C 
HETATM   16  C3  UNL     1      12.977  16.413  35.003  1.00  0.00     0.009 A 
HETATM   17  C4  UNL     1      14.356  16.433  34.832  1.00  0.00     0.001 A 
HETATM   18  C5  UNL     1      14.996  17.625  34.561  1.00  0.00     0.002 A 
HETATM   19  C6  UNL     1      14.277  18.797  34.461  1.00  0.00     0.031 A 
ENDBRANCH  11  13
ENDBRANCH   8  11
ENDBRANCH   5   8
ENDBRANCH   1   2
BRANCH   1  20
HETATM   20  N2  UNL     1      12.462  17.297  27.158  1.00  0.00    -0.349 N 
HETATM   21  C14 UNL     1      11.178  17.043  26.625  1.00  0.00     0.311 C 
HETATM   22  O3  UNL     1      10.342  16.388  27.277  1.00  0.00    -0.262 OA
ATOM     23  H2  UNL     1      13.144  17.833  26.620  1.00  0.00     0.163 HD
BRANCH  21  24
HETATM   24  C15 UNL     1      10.835  17.550  25.310  1.00  0.00     0.328 C 
HETATM   25  O4  UNL     1       9.605  17.615  24.972  1.00  0.00    -0.261 OA
HETATM   26  N3  UNL     1      11.790  17.981  24.370  1.00  0.00    -0.258 N 
ATOM     27  H3  UNL     1      12.783  17.946  24.601  1.00  0.00     0.190 HD
BRANCH  26  28
HETATM   28  N4  UNL     1      11.369  18.472  23.082  1.00  0.00    -0.272 N 
HETATM   29  C16 UNL     1      11.137  17.507  22.056  1.00  0.00     0.180 C 
BRANCH  28  30
HETATM   30  C17 UNL     1      11.221  19.855  22.989  1.00  0.00     0.167 C 
BRANCH  30  31
HETATM   31  O5  UNL     1      11.197  20.434  24.178  1.00  0.00    -0.344 OA
ATOM     32  H5  UNL     1      11.754  21.204  24.211  1.00  0.00     0.219 HD
ENDBRANCH  30  31
BRANCH  30  33
HETATM   33  C18 UNL     1      11.094  20.713  21.853  1.00  0.00     0.016 A 
HETATM   34  C19 UNL     1      11.062  22.114  22.077  1.00  0.00     0.016 A 
HETATM   35  C20 UNL     1      10.958  23.024  21.073  1.00  0.00     0.001 A 
HETATM   36  C21 UNL     1      10.881  22.564  19.779  1.00  0.00     0.000 A 
HETATM   37  C22 UNL     1      10.907  21.226  19.485  1.00  0.00     0.001 A 
HETATM   38  C23 UNL     1      11.015  20.324  20.558  1.00  0.00     0.016 A 
ENDBRANCH  30  33
ENDBRANCH  28  30
ENDBRANCH  26  28
ENDBRANCH  21  24
ENDBRANCH   1  20
TORSDOF 10
ENDMDL
MODEL 4
REMARK VINA RESULT: -7.739062171      0.861      1.468
REMARK  10 active torsions:
REMARK  status: ('A' for Active; 'I' for Inactive)
REMARK    1  A    between atoms: C7_7  and  N1_8 
REMARK    2  A    between atoms: N1_8  and  S1_10 
REMARK    3  A    between atoms: S1_10  and  C9_13 
REMARK    4  A    between atoms: C12_16  and  C13_17 
REMARK    5  A    between atoms: C13_17  and  N2_18 
REMARK       I    between atoms: N2_18  and  C14_20 
REMARK    6  A    between atoms: C14_20  and  C15_22 
REMARK       I    between atoms: C15_22  and  N3_24 
REMARK    7  A    between atoms: N3_24  and  N4_26 
REMARK    8  A    between atoms: N4_26  and  C17_28 
REMARK    9  A    between atoms: C17_28  and  O5_29 
REMARK   10  A    between atoms: C17_28  and  C18_31 
ROOT
HETATM    1  C13 UNL     1      14.469  17.392  29.339  1.00  0.00     0.161 C 
ENDROOT
BRANCH   1   2
HETATM    2  C12 UNL     1      14.036  18.001  30.621  1.00  0.00    -0.040 A 
HETATM    3  C11 UNL     1      13.109  19.049  30.601  1.00  0.00     0.010 A 
HETATM    4  C10 UNL     1      12.682  19.642  31.770  1.00  0.00     0.026 A 
HETATM    5  C9  UNL     1      13.142  19.238  33.011  1.00  0.00     0.080 A 
HETATM    6  C25 UNL     1      14.056  18.207  33.042  1.00  0.00     0.026 A 
HETATM    7  C24 UNL     1      14.488  17.607  31.859  1.00  0.00     0.010 A 
BRANCH   5   8
HETATM    8  S1  UNL     1      12.576  20.013  34.482  1.00  0.00     0.265 S 
HETATM    9  O1  UNL     1      11.940  21.343  34.158  1.00  0.00    -0.200 OA
HETATM   10  O2  UNL     1      13.726  20.306  35.426  1.00  0.00    -0.200 OA
BRANCH   8  11
HETATM   11  N1  UNL     1      11.459  19.006  35.326  1.00  0.00    -0.276 N 
HETATM   12  C8  UNL     1      11.067  19.474  36.657  1.00  0.00     0.170 C 
BRANCH  11  13
HETATM   13  C7  UNL     1      10.937  17.801  34.787  1.00  0.00     0.050 A 
HETATM   14  C2  UNL     1       9.809  17.890  34.002  1.00  0.00    -0.035 A 
HETATM   15  C1  UNL     1       9.162  19.202  33.727  1.00  0.00     0.050 C 
HETATM   16  C3  UNL     1       9.277  16.731  33.465  1.00  0.00     0.009 A 
HETATM   17  C4  UNL     1       9.868  15.498  33.712  1.00  0.00     0.001 A 
HETATM   18  C5  UNL     1      10.997  15.425  34.500  1.00  0.00     0.002 A 
HETATM   19  C6  UNL     1      11.544  16.567  35.046  1.00  0.00     0.031 A 
ENDBRANCH  11  13
ENDBRANCH   8  11
ENDBRANCH   5   8
ENDBRANCH   1   2
BRANCH   1  20
HETATM   20  N2  UNL     1      13.601  17.651  28.234  1.00  0.00    -0.349 N 
HETATM   21  C14 UNL     1      12.618  16.700  27.878  1.00  0.00     0.311 C 
HETATM   22  O3  UNL     1      12.506  15.638  28.520  1.00  0.00    -0.262 OA
ATOM     23  H2  UNL     1      13.690  18.519  27.704  1.00  0.00     0.163 HD
BRANCH  21  24
HETATM   24  C15 UNL     1      11.737  16.965  26.758  1.00  0.00     0.328 C 
HETATM   25  O4  UNL     1      10.473  16.903  26.935  1.00  0.00    -0.261 OA
HETATM   26  N3  UNL     1      12.196  17.292  25.468  1.00  0.00    -0.258 N 
ATOM     27  H3  UNL     1      13.197  17.353  25.285  1.00  0.00     0.190 HD
BRANCH  26  28
HETATM   28  N4  UNL     1      11.255  17.543  24.406  1.00  0.00    -0.272 N 
HETATM   29  C16 UNL     1      10.680  16.408  23.758  1.00  0.00     0.180 C 
BRANCH  28  30
HETATM   30  C17 UNL     1      11.000  18.887  24.137  1.00  0.00     0.167 C 
BRANCH  30  31
HETATM   31  O5  UNL     1      10.490  19.515  25.183  1.00  0.00    -0.344 OA
ATOM     32  H5  UNL     1      10.829  20.399  25.270  1.00  0.00     0.219 HD
ENDBRANCH  30  31
BRANCH  30  33
HETATM   33  C18 UNL     1      11.195  19.663  22.953  1.00  0.00     0.016 A 
HETATM   34  C19 UNL     1      11.015  21.067  23.040  1.00  0.00     0.016 A 
HETATM   35  C20 UNL     1      11.187  21.906  21.984  1.00  0.00     0.001 A 
HETATM   36  C21 UNL     1      11.553  21.365  20.773  1.00  0.00     0.000 A 
HETATM   37  C22 UNL     1      11.746  20.017  20.612  1.00  0.00     0.001 A 
HETATM   38  C23 UNL     1      11.556  19.192  21.735  1.00  0.00     0.016 A 
ENDBRANCH  30  33
ENDBRANCH  28  30
ENDBRANCH  26  28
ENDBRANCH  21  24
ENDBRANCH   1  20
TORSDOF 10
ENDMDL
MODEL 5
REMARK VINA RESULT: -7.713835677      8.505     15.285
REMARK  10 active torsions:
REMARK  status: ('A' for Active; 'I' for Inactive)
REMARK    1  A    between atoms: C7_7  and  N1_8 
REMARK    2  A    between atoms: N1_8  and  S1_10 
REMARK    3  A    between atoms: S1_10  and  C9_13 
REMARK    4  A    between atoms: C12_16  and  C13_17 
REMARK    5  A    between atoms: C13_17  and  N2_18 
REMARK       I    between atoms: N2_18  and  C14_20 
REMARK    6  A    between atoms: C14_20  and  C15_22 
REMARK       I    between atoms: C15_22  and  N3_24 
REMARK    7  A    between atoms: N3_24  and  N4_26 
REMARK    8  A    between atoms: N4_26  and  C17_28 
REMARK    9  A    between atoms: C17_28  and  O5_29 
REMARK   10  A    between atoms: C17_28  and  C18_31 
ROOT
HETATM    1  C13 UNL     1       7.542  15.442  18.636  1.00  0.00     0.161 C 
ENDROOT
BRANCH   1   2
HETATM    2  C12 UNL     1       7.764  14.302  17.711  1.00  0.00    -0.040 A 
HETATM    3  C11 UNL     1       8.774  14.392  16.747  1.00  0.00     0.010 A 
HETATM    4  C10 UNL     1       9.012  13.356  15.870  1.00  0.00     0.026 A 
HETATM    5  C9  UNL     1       8.273  12.186  15.893  1.00  0.00     0.080 A 
HETATM    6  C25 UNL     1       7.275  12.088  16.839  1.00  0.00     0.026 A 
HETATM    7  C24 UNL     1       7.035  13.136  17.727  1.00  0.00     0.010 A 
BRANCH   5   8
HETATM    8  S1  UNL     1       8.604  10.884  14.762  1.00  0.00     0.265 S 
HETATM    9  O1  UNL     1       7.775  11.056  13.513  1.00  0.00    -0.200 OA
HETATM   10  O2  UNL     1       8.224   9.538  15.349  1.00  0.00    -0.200 OA
BRANCH   8  11
HETATM   11  N1  UNL     1      10.280  10.818  14.362  1.00  0.00    -0.276 N 
HETATM   12  C8  UNL     1      10.652  11.437  13.088  1.00  0.00     0.170 C 
BRANCH  11  13
HETATM   13  C7  UNL     1      11.256  10.211  15.196  1.00  0.00     0.050 A 
HETATM   14  C2  UNL     1      11.738   8.977  14.818  1.00  0.00    -0.035 A 
HETATM   15  C1  UNL     1      11.256   8.306  13.580  1.00  0.00     0.050 C 
HETATM   16  C3  UNL     1      12.688   8.360  15.612  1.00  0.00     0.009 A 
HETATM   17  C4  UNL     1      13.150   8.972  16.772  1.00  0.00     0.001 A 
HETATM   18  C5  UNL     1      12.657  10.207  17.137  1.00  0.00     0.002 A 
HETATM   19  C6  UNL     1      11.709  10.839  16.361  1.00  0.00     0.031 A 
ENDBRANCH  11  13
ENDBRANCH   8  11
ENDBRANCH   5   8
ENDBRANCH   1   2
BRANCH   1  20
HETATM   20  N2  UNL     1       8.660  15.761  19.467  1.00  0.00    -0.349 N 
HETATM   21  C14 UNL     1       8.458  16.032  20.839  1.00  0.00     0.311 C 
HETATM   22  O3  UNL     1       7.312  15.996  21.327  1.00  0.00    -0.262 OA
ATOM     23  H2  UNL     1       9.600  15.792  19.071  1.00  0.00     0.163 HD
BRANCH  21  24
HETATM   24  C15 UNL     1       9.594  16.354  21.680  1.00  0.00     0.328 C 
HETATM   25  O4  UNL     1      10.759  15.975  21.319  1.00  0.00    -0.261 OA
HETATM   26  N3  UNL     1       9.489  17.069  22.888  1.00  0.00    -0.258 N 
ATOM     27  H3  UNL     1       8.577  17.390  23.211  1.00  0.00     0.190 HD
BRANCH  26  28
HETATM   28  N4  UNL     1      10.668  17.350  23.668  1.00  0.00    -0.272 N 
HETATM   29  C16 UNL     1      11.308  16.247  24.309  1.00  0.00     0.180 C 
BRANCH  28  30
HETATM   30  C17 UNL     1      11.062  18.687  23.696  1.00  0.00     0.167 C 
BRANCH  30  31
HETATM   31  O5  UNL     1      11.340  19.098  24.923  1.00  0.00    -0.344 OA
ATOM     32  H5  UNL     1      11.534  20.028  24.952  1.00  0.00     0.219 HD
ENDBRANCH  30  31
BRANCH  30  33
HETATM   33  C18 UNL     1      11.206  19.647  22.648  1.00  0.00     0.016 A 
HETATM   34  C19 UNL     1      10.953  21.010  22.953  1.00  0.00     0.016 A 
HETATM   35  C20 UNL     1      11.072  22.010  22.041  1.00  0.00     0.001 A 
HETATM   36  C21 UNL     1      11.456  21.685  20.761  1.00  0.00     0.000 A 
HETATM   37  C22 UNL     1      11.719  20.391  20.392  1.00  0.00     0.001 A 
HETATM   38  C23 UNL     1      11.582  19.392  21.372  1.00  0.00     0.016 A 
ENDBRANCH  30  33
ENDBRANCH  28  30
ENDBRANCH  26  28
ENDBRANCH  21  24
ENDBRANCH   1  20
TORSDOF 10
ENDMDL
