MODEL 1
REMARK VINA RESULT: -7.474372539      0.000      0.000
REMARK  9 active torsions:
REMARK  status: ('A' for Active; 'I' for Inactive)
REMARK    1  A    between atoms: C3_3  and  C4_4 
REMARK    2  A    between atoms: C4_4  and  N1_5 
REMARK    3  A    between atoms: C5_7  and  N2_8 
REMARK    4  A    between atoms: C9_15  and  O2_16 
REMARK    5  A    between atoms: C10_18  and  N3_19 
REMARK       I    between atoms: N3_19  and  C11_21 
REMARK    6  A    between atoms: C11_21  and  C12_23 
REMARK    7  A    between atoms: C12_23  and  O4_24 
REMARK    8  A    between atoms: O4_24  and  C13_25 
REMARK    9  A    between atoms: C13_25  and  C14_27 
ROOT
HETATM    1  C1  UNL     1       1.753  37.245  25.253  1.00  0.00     0.015 C 
HETATM    2  C2  UNL     1       3.008  36.896  25.517  1.00  0.00    -0.071 C 
HETATM    3  C3  UNL     1       3.877  37.500  26.565  1.00  0.00     0.066 C 
HETATM    4  C9  UNL     1       5.057  36.516  26.613  1.00  0.00     0.151 C 
HETATM    5  C10 UNL     1       5.152  35.996  25.213  1.00  0.00     0.126 C 
HETATM    6  C18 UNL     1       3.734  35.822  24.788  1.00  0.00    -0.002 C 
HETATM    7  C19 UNL     1       3.559  35.982  23.281  1.00  0.00     0.022 C 
HETATM    8  C20 UNL     1       3.175  34.467  25.177  1.00  0.00     0.022 C 
ENDROOT
BRANCH   5   9
HETATM    9  N3  UNL     1       5.925  34.794  25.171  1.00  0.00    -0.351 N 
HETATM   10  C11 UNL     1       7.335  34.846  25.102  1.00  0.00     0.242 C 
HETATM   11  O3  UNL     1       7.970  35.936  25.074  1.00  0.00    -0.271 OA
ATOM     12  H3  UNL     1       5.454  33.890  25.191  1.00  0.00     0.163 HD
BRANCH  10  13
HETATM   13  C12 UNL     1       8.095  33.579  25.061  1.00  0.00     0.281 C 
BRANCH  13  14
HETATM   14  O4  UNL     1       7.340  32.424  25.221  1.00  0.00    -0.311 OA
BRANCH  14  15
HETATM   15  C13 UNL     1       7.635  31.228  24.597  1.00  0.00     0.267 C 
HETATM   16  O5  UNL     1       8.707  30.633  24.771  1.00  0.00    -0.264 OA
BRANCH  15  17
HETATM   17  C14 UNL     1       6.600  30.663  23.689  1.00  0.00     0.037 C 
HETATM   18  C15 UNL     1       6.207  29.265  24.118  1.00  0.00     0.025 C 
HETATM   19  C16 UNL     1       5.385  31.531  23.718  1.00  0.00     0.025 C 
HETATM   20  C17 UNL     1       7.138  30.575  22.287  1.00  0.00     0.025 C 
ENDBRANCH  15  17
ENDBRANCH  14  15
ENDBRANCH  13  14
ENDBRANCH  10  13
ENDBRANCH   5   9
BRANCH   4  21
HETATM   21  O2  UNL     1       4.901  35.557  27.581  1.00  0.00    -0.393 OA
ATOM     22  H2  UNL     1       5.611  34.926  27.584  1.00  0.00     0.210 HD
ENDBRANCH   4  21
BRANCH   3  23
HETATM   23  C4  UNL     1       4.454  38.823  26.190  1.00  0.00     0.168 C 
BRANCH  23  24
HETATM   24  N1  UNL     1       4.068  39.919  27.045  1.00  0.00    -0.253 N 
HETATM   25  O1  UNL     1       2.953  40.088  27.647  1.00  0.00    -0.216 OA
HETATM   26  C5  UNL     1       2.896  41.183  28.351  1.00  0.00     0.188 A 
HETATM   27  C6  UNL     1       4.102  41.806  28.200  1.00  0.00     0.111 A 
HETATM   28 CL1  UNL     1       4.645  43.309  28.889  1.00  0.00    -0.077 Cl
HETATM   29  C7  UNL     1       4.839  40.990  27.365  1.00  0.00     0.057 A 
HETATM   30  C8  UNL     1       6.220  41.218  26.891  1.00  0.00     0.072 C 
BRANCH  26  31
HETATM   31  N2  UNL     1       1.915  41.637  29.069  1.00  0.00    -0.377 N 
ATOM     32  H22 UNL     1       2.026  42.185  29.922  1.00  0.00     0.158 HD
ATOM     33  H21 UNL     1       0.911  41.531  28.919  1.00  0.00     0.158 HD
ENDBRANCH  26  31
ENDBRANCH  23  24
ENDBRANCH   3  23
TORSDOF 9
ENDMDL
MODEL 2
REMARK VINA RESULT: -7.366387002      1.052      1.208
REMARK  9 active torsions:
REMARK  status: ('A' for Active; 'I' for Inactive)
REMARK    1  A    between atoms: C3_3  and  C4_4 
REMARK    2  A    between atoms: C4_4  and  N1_5 
REMARK    3  A    between atoms: C5_7  and  N2_8 
REMARK    4  A    between atoms: C9_15  and  O2_16 
REMARK    5  A    between atoms: C10_18  and  N3_19 
REMARK       I    between atoms: N3_19  and  C11_21 
REMARK    6  A    between atoms: C11_21  and  C12_23 
REMARK    7  A    between atoms: C12_23  and  O4_24 
REMARK    8  A    between atoms: O4_24  and  C13_25 
REMARK    9  A    between atoms: C13_25  and  C14_27 
ROOT
HETATM    1  C1  UNL     1       1.682  37.267  25.233  1.00  0.00     0.015 C 
HETATM    2  C2  UNL     1       2.940  36.933  25.506  1.00  0.00    -0.071 C 
HETATM    3  C3  UNL     1       3.803  37.566  26.542  1.00  0.00     0.066 C 
HETATM    4  C9  UNL     1       4.990  36.594  26.612  1.00  0.00     0.151 C 
HETATM    5  C10 UNL     1       5.091  36.044  25.224  1.00  0.00     0.126 C 
HETATM    6  C18 UNL     1       3.676  35.850  24.801  1.00  0.00    -0.002 C 
HETATM    7  C19 UNL     1       3.502  35.976  23.291  1.00  0.00     0.022 C 
HETATM    8  C20 UNL     1       3.127  34.499  25.218  1.00  0.00     0.022 C 
ENDROOT
BRANCH   5   9
HETATM    9  N3  UNL     1       5.874  34.848  25.209  1.00  0.00    -0.351 N 
HETATM   10  C11 UNL     1       7.280  34.908  25.093  1.00  0.00     0.242 C 
HETATM   11  O3  UNL     1       7.904  36.001  24.997  1.00  0.00    -0.271 OA
ATOM     12  H3  UNL     1       5.412  33.942  25.282  1.00  0.00     0.163 HD
BRANCH  10  13
HETATM   13  C12 UNL     1       8.051  33.647  25.081  1.00  0.00     0.281 C 
BRANCH  13  14
HETATM   14  O4  UNL     1       7.300  32.487  25.225  1.00  0.00    -0.311 OA
BRANCH  14  15
HETATM   15  C13 UNL     1       7.614  31.293  24.607  1.00  0.00     0.267 C 
HETATM   16  O5  UNL     1       8.693  30.713  24.790  1.00  0.00    -0.264 OA
BRANCH  15  17
HETATM   17  C14 UNL     1       6.594  30.714  23.692  1.00  0.00     0.037 C 
HETATM   18  C15 UNL     1       6.210  29.314  24.126  1.00  0.00     0.025 C 
HETATM   19  C16 UNL     1       5.370  31.570  23.705  1.00  0.00     0.025 C 
HETATM   20  C17 UNL     1       7.145  30.622  22.296  1.00  0.00     0.025 C 
ENDBRANCH  15  17
ENDBRANCH  14  15
ENDBRANCH  13  14
ENDBRANCH  10  13
ENDBRANCH   5   9
BRANCH   4  21
HETATM   21  O2  UNL     1       4.841  35.654  27.601  1.00  0.00    -0.393 OA
ATOM     22  H2  UNL     1       4.723  36.045  28.458  1.00  0.00     0.210 HD
ENDBRANCH   4  21
BRANCH   3  23
HETATM   23  C4  UNL     1       4.369  38.886  26.139  1.00  0.00     0.168 C 
BRANCH  23  24
HETATM   24  N1  UNL     1       3.870  40.015  26.884  1.00  0.00    -0.253 N 
HETATM   25  O1  UNL     1       4.180  40.367  28.075  1.00  0.00    -0.216 OA
HETATM   26  C5  UNL     1       3.559  41.436  28.485  1.00  0.00     0.188 A 
HETATM   27  C6  UNL     1       2.752  41.837  27.458  1.00  0.00     0.111 A 
HETATM   28 CL1  UNL     1       1.674  43.201  27.388  1.00  0.00    -0.077 Cl
HETATM   29  C7  UNL     1       2.961  40.923  26.445  1.00  0.00     0.057 A 
HETATM   30  C8  UNL     1       2.322  40.912  25.112  1.00  0.00     0.072 C 
BRANCH  26  31
HETATM   31  N2  UNL     1       3.652  42.041  29.630  1.00  0.00    -0.377 N 
ATOM     32  H22 UNL     1       4.529  42.237  30.113  1.00  0.00     0.158 HD
ATOM     33  H21 UNL     1       2.905  42.408  30.220  1.00  0.00     0.158 HD
ENDBRANCH  26  31
ENDBRANCH  23  24
ENDBRANCH   3  23
TORSDOF 9
ENDMDL
MODEL 3
REMARK VINA RESULT: -7.338547973      4.350      6.304
REMARK  9 active torsions:
REMARK  status: ('A' for Active; 'I' for Inactive)
REMARK    1  A    between atoms: C3_3  and  C4_4 
REMARK    2  A    between atoms: C4_4  and  N1_5 
REMARK    3  A    between atoms: C5_7  and  N2_8 
REMARK    4  A    between atoms: C9_15  and  O2_16 
REMARK    5  A    between atoms: C10_18  and  N3_19 
REMARK       I    between atoms: N3_19  and  C11_21 
REMARK    6  A    between atoms: C11_21  and  C12_23 
REMARK    7  A    between atoms: C12_23  and  O4_24 
REMARK    8  A    between atoms: O4_24  and  C13_25 
REMARK    9  A    between atoms: C13_25  and  C14_27 
ROOT
HETATM    1  C1  UNL     1      -0.449  31.864  25.752  1.00  0.00     0.015 C 
HETATM    2  C2  UNL     1       0.689  32.422  25.351  1.00  0.00    -0.071 C 
HETATM    3  C3  UNL     1       0.823  33.756  24.703  1.00  0.00     0.066 C 
HETATM    4  C9  UNL     1       2.340  33.990  24.756  1.00  0.00     0.151 C 
HETATM    5  C10 UNL     1       2.923  32.614  24.665  1.00  0.00     0.126 C 
HETATM    6  C18 UNL     1       2.021  31.777  25.504  1.00  0.00    -0.002 C 
HETATM    7  C19 UNL     1       1.973  30.327  25.033  1.00  0.00     0.022 C 
HETATM    8  C20 UNL     1       2.426  31.775  26.966  1.00  0.00     0.022 C 
ENDROOT
BRANCH   5   9
HETATM    9  N3  UNL     1       4.287  32.613  25.094  1.00  0.00    -0.351 N 
HETATM   10  C11 UNL     1       5.277  31.937  24.347  1.00  0.00     0.242 C 
HETATM   11  O3  UNL     1       5.011  31.311  23.284  1.00  0.00    -0.271 OA
ATOM     12  H3  UNL     1       4.548  33.106  25.948  1.00  0.00     0.163 HD
BRANCH  10  13
HETATM   13  C12 UNL     1       6.674  31.961  24.827  1.00  0.00     0.281 C 
BRANCH  13  14
HETATM   14  O4  UNL     1       6.960  32.924  25.787  1.00  0.00    -0.311 OA
BRANCH  14  15
HETATM   15  C13 UNL     1       7.872  33.943  25.599  1.00  0.00     0.267 C 
HETATM   16  O5  UNL     1       8.962  33.764  25.037  1.00  0.00    -0.264 OA
BRANCH  15  17
HETATM   17  C14 UNL     1       7.498  35.291  26.104  1.00  0.00     0.037 C 
HETATM   18  C15 UNL     1       8.389  35.705  27.256  1.00  0.00     0.025 C 
HETATM   19  C16 UNL     1       7.642  36.292  25.005  1.00  0.00     0.025 C 
HETATM   20  C17 UNL     1       6.080  35.278  26.607  1.00  0.00     0.025 C 
ENDBRANCH  15  17
ENDBRANCH  14  15
ENDBRANCH  13  14
ENDBRANCH  10  13
ENDBRANCH   5   9
BRANCH   4  21
HETATM   21  O2  UNL     1       2.722  34.713  25.858  1.00  0.00    -0.393 OA
ATOM     22  H2  UNL     1       2.112  35.412  26.062  1.00  0.00     0.210 HD
ENDBRANCH   4  21
BRANCH   3  23
HETATM   23  C4  UNL     1       0.449  33.772  23.259  1.00  0.00     0.168 C 
BRANCH  23  24
HETATM   24  N1  UNL     1       0.951  34.899  22.513  1.00  0.00    -0.253 N 
HETATM   25  O1  UNL     1       1.942  35.653  22.805  1.00  0.00    -0.216 OA
HETATM   26  C5  UNL     1       2.156  36.600  21.936  1.00  0.00     0.188 A 
HETATM   27  C6  UNL     1       1.206  36.459  20.964  1.00  0.00     0.111 A 
HETATM   28 CL1  UNL     1       0.963  37.416  19.532  1.00  0.00    -0.077 Cl
HETATM   29  C7  UNL     1       0.445  35.372  21.345  1.00  0.00     0.057 A 
HETATM   30  C8  UNL     1      -0.716  34.804  20.627  1.00  0.00     0.072 C 
BRANCH  26  31
HETATM   31  N2  UNL     1       3.073  37.518  21.944  1.00  0.00    -0.377 N 
ATOM     32  H22 UNL     1       4.047  37.362  22.203  1.00  0.00     0.158 HD
ATOM     33  H21 UNL     1       2.989  38.506  21.706  1.00  0.00     0.158 HD
ENDBRANCH  26  31
ENDBRANCH  23  24
ENDBRANCH   3  23
TORSDOF 9
ENDMDL
MODEL 4
REMARK VINA RESULT: -7.293194206      4.052      7.769
REMARK  9 active torsions:
REMARK  status: ('A' for Active; 'I' for Inactive)
REMARK    1  A    between atoms: C3_3  and  C4_4 
REMARK    2  A    between atoms: C4_4  and  N1_5 
REMARK    3  A    between atoms: C5_7  and  N2_8 
REMARK    4  A    between atoms: C9_15  and  O2_16 
REMARK    5  A    between atoms: C10_18  and  N3_19 
REMARK       I    between atoms: N3_19  and  C11_21 
REMARK    6  A    between atoms: C11_21  and  C12_23 
REMARK    7  A    between atoms: C12_23  and  O4_24 
REMARK    8  A    between atoms: O4_24  and  C13_25 
REMARK    9  A    between atoms: C13_25  and  C14_27 
ROOT
HETATM    1  C1  UNL     1       7.766  36.736  26.601  1.00  0.00     0.015 C 
HETATM    2  C2  UNL     1       6.669  36.200  26.075  1.00  0.00    -0.071 C 
HETATM    3  C3  UNL     1       6.452  34.752  25.806  1.00  0.00     0.066 C 
HETATM    4  C9  UNL     1       4.947  34.700  25.507  1.00  0.00     0.151 C 
HETATM    5  C10 UNL     1       4.654  36.032  24.888  1.00  0.00     0.126 C 
HETATM    6  C18 UNL     1       5.475  36.992  25.678  1.00  0.00    -0.002 C 
HETATM    7  C19 UNL     1       5.886  38.211  24.859  1.00  0.00     0.022 C 
HETATM    8  C20 UNL     1       4.753  37.489  26.916  1.00  0.00     0.022 C 
ENDROOT
BRANCH   5   9
HETATM    9  N3  UNL     1       3.251  36.304  24.914  1.00  0.00    -0.351 N 
HETATM   10  C11 UNL     1       2.451  36.071  23.774  1.00  0.00     0.242 C 
HETATM   11  O3  UNL     1       2.926  35.619  22.696  1.00  0.00    -0.271 OA
ATOM     12  H3  UNL     1       2.823  36.671  25.764  1.00  0.00     0.163 HD
BRANCH  10  13
HETATM   13  C12 UNL     1       1.005  36.366  23.843  1.00  0.00     0.281 C 
BRANCH  13  14
HETATM   14  O4  UNL     1       0.174  35.260  23.966  1.00  0.00    -0.311 OA
BRANCH  14  15
HETATM   15  C13 UNL     1       0.532  34.106  24.634  1.00  0.00     0.267 C 
HETATM   16  O5  UNL     1       1.459  34.074  25.455  1.00  0.00    -0.264 OA
BRANCH  15  17
HETATM   17  C14 UNL     1      -0.246  32.875  24.329  1.00  0.00     0.037 C 
HETATM   18  C15 UNL     1      -1.311  32.634  25.377  1.00  0.00     0.025 C 
HETATM   19  C16 UNL     1      -0.909  33.023  22.999  1.00  0.00     0.025 C 
HETATM   20  C17 UNL     1       0.665  31.679  24.320  1.00  0.00     0.025 C 
ENDBRANCH  15  17
ENDBRANCH  14  15
ENDBRANCH  13  14
ENDBRANCH  10  13
ENDBRANCH   5   9
BRANCH   4  21
HETATM   21  O2  UNL     1       4.201  34.398  26.618  1.00  0.00    -0.393 OA
ATOM     22  H2  UNL     1       4.740  34.165  27.364  1.00  0.00     0.210 HD
ENDBRANCH   4  21
BRANCH   3  23
HETATM   23  C4  UNL     1       7.138  34.251  24.580  1.00  0.00     0.168 C 
BRANCH  23  24
HETATM   24  N1  UNL     1       7.378  32.829  24.554  1.00  0.00    -0.253 N 
HETATM   25  O1  UNL     1       8.481  32.217  24.767  1.00  0.00    -0.216 OA
HETATM   26  C5  UNL     1       8.390  30.921  24.671  1.00  0.00     0.188 A 
HETATM   27  C6  UNL     1       7.089  30.643  24.362  1.00  0.00     0.111 A 
HETATM   28 CL1  UNL     1       6.337  29.096  24.104  1.00  0.00    -0.077 Cl
HETATM   29  C7  UNL     1       6.456  31.868  24.291  1.00  0.00     0.057 A 
HETATM   30  C8  UNL     1       5.031  32.116  23.985  1.00  0.00     0.072 C 
BRANCH  26  31
HETATM   31  N2  UNL     1       9.318  30.028  24.828  1.00  0.00    -0.377 N 
ATOM     32  H22 UNL     1      10.174  30.168  25.366  1.00  0.00     0.158 HD
ATOM     33  H21 UNL     1       9.358  29.076  24.461  1.00  0.00     0.158 HD
ENDBRANCH  26  31
ENDBRANCH  23  24
ENDBRANCH   3  23
TORSDOF 9
ENDMDL
MODEL 5
REMARK VINA RESULT: -7.280930415      4.386      8.362
REMARK  9 active torsions:
REMARK  status: ('A' for Active; 'I' for Inactive)
REMARK    1  A    between atoms: C3_3  and  C4_4 
REMARK    2  A    between atoms: C4_4  and  N1_5 
REMARK    3  A    between atoms: C5_7  and  N2_8 
REMARK    4  A    between atoms: C9_15  and  O2_16 
REMARK    5  A    between atoms: C10_18  and  N3_19 
REMARK       I    between atoms: N3_19  and  C11_21 
REMARK    6  A    between atoms: C11_21  and  C12_23 
REMARK    7  A    between atoms: C12_23  and  O4_24 
REMARK    8  A    between atoms: O4_24  and  C13_25 
REMARK    9  A    between atoms: C13_25  and  C14_27 
ROOT
HETATM    1  C1  UNL     1       2.789  29.959  25.030  1.00  0.00     0.015 C 
HETATM    2  C2  UNL     1       3.033  31.263  24.950  1.00  0.00    -0.071 C 
HETATM    3  C3  UNL     1       4.285  31.884  24.437  1.00  0.00     0.066 C 
HETATM    4  C9  UNL     1       3.881  33.359  24.294  1.00  0.00     0.151 C 
HETATM    5  C10 UNL     1       2.867  33.563  25.376  1.00  0.00     0.126 C 
HETATM    6  C18 UNL     1       2.061  32.310  25.366  1.00  0.00    -0.002 C 
HETATM    7  C19 UNL     1       1.478  31.987  26.738  1.00  0.00     0.022 C 
HETATM    8  C20 UNL     1       0.912  32.368  24.377  1.00  0.00     0.022 C 
ENDROOT
BRANCH   5   9
HETATM    9  N3  UNL     1       2.104  34.749  25.138  1.00  0.00    -0.351 N 
HETATM   10  C11 UNL     1       2.633  36.021  25.450  1.00  0.00     0.242 C 
HETATM   11  O3  UNL     1       3.783  36.171  25.947  1.00  0.00    -0.271 OA
ATOM     12  H3  UNL     1       1.169  34.676  24.738  1.00  0.00     0.163 HD
BRANCH  10  13
HETATM   13  C12 UNL     1       1.810  37.220  25.188  1.00  0.00     0.281 C 
BRANCH  13  14
HETATM   14  O4  UNL     1       1.715  37.599  23.855  1.00  0.00    -0.311 OA
BRANCH  14  15
HETATM   15  C13 UNL     1       0.616  37.332  23.063  1.00  0.00     0.267 C 
HETATM   16  O5  UNL     1      -0.507  37.794  23.306  1.00  0.00    -0.264 OA
BRANCH  15  17
HETATM   17  C14 UNL     1       0.828  36.452  21.882  1.00  0.00     0.037 C 
HETATM   18  C15 UNL     1       0.334  35.047  22.159  1.00  0.00     0.025 C 
HETATM   19  C16 UNL     1       0.079  36.999  20.712  1.00  0.00     0.025 C 
HETATM   20  C17 UNL     1       2.295  36.364  21.561  1.00  0.00     0.025 C 
ENDBRANCH  15  17
ENDBRANCH  14  15
ENDBRANCH  13  14
ENDBRANCH  10  13
ENDBRANCH   5   9
BRANCH   4  21
HETATM   21  O2  UNL     1       3.451  33.665  23.028  1.00  0.00    -0.393 OA
ATOM     22  H2  UNL     1       2.581  33.327  22.849  1.00  0.00     0.210 HD
ENDBRANCH   4  21
BRANCH   3  23
HETATM   23  C4  UNL     1       5.420  31.855  25.405  1.00  0.00     0.168 C 
BRANCH  23  24
HETATM   24  N1  UNL     1       6.731  31.895  24.807  1.00  0.00    -0.253 N 
HETATM   25  O1  UNL     1       7.591  32.840  24.866  1.00  0.00    -0.216 OA
HETATM   26  C5  UNL     1       8.694  32.589  24.219  1.00  0.00     0.188 A 
HETATM   27  C6  UNL     1       8.551  31.344  23.674  1.00  0.00     0.111 A 
HETATM   28 CL1  UNL     1       9.678  30.447  22.699  1.00  0.00    -0.077 Cl
HETATM   29  C7  UNL     1       7.296  30.914  24.057  1.00  0.00     0.057 A 
HETATM   30  C8  UNL     1       6.659  29.622  23.723  1.00  0.00     0.072 C 
BRANCH  26  31
HETATM   31  N2  UNL     1       9.747  33.336  24.088  1.00  0.00    -0.377 N 
ATOM     32  H22 UNL     1      10.307  33.691  24.863  1.00  0.00     0.158 HD
ATOM     33  H21 UNL     1      10.181  33.683  23.232  1.00  0.00     0.158 HD
ENDBRANCH  26  31
ENDBRANCH  23  24
ENDBRANCH   3  23
TORSDOF 9
ENDMDL
