MODEL 1
REMARK VINA RESULT: -7.652990847      0.000      0.000
REMARK  16 active torsions:
REMARK  status: ('A' for Active; 'I' for Inactive)
REMARK    1  A    between atoms: C2_2  and  C3_3 
REMARK    2  A    between atoms: C5_8  and  C6_9 
REMARK    3  A    between atoms: C6_9  and  O1_10 
REMARK    4  A    between atoms: O1_10  and  C7_11 
REMARK    5  A    between atoms: C7_11  and  N2_12 
REMARK    6  A    between atoms: C14_27  and  N5_28 
REMARK       I    between atoms: N5_28  and  C15_30 
REMARK    7  A    between atoms: C15_30  and  C16_32 
REMARK    8  A    between atoms: C16_32  and  C17_33 
REMARK    9  A    between atoms: C17_33  and  C18_34 
REMARK   10  A    between atoms: C18_34  and  C19_35 
REMARK   11  A    between atoms: C19_35  and  C20_36 
REMARK   12  A    between atoms: C20_36  and  C21_37 
REMARK   13  A    between atoms: C21_37  and  C22_38 
REMARK   14  A    between atoms: C22_38  and  C23_39 
REMARK   15  A    between atoms: C23_39  and  C24_40 
REMARK   16  A    between atoms: C24_40  and  N6_41 
ROOT
HETATM    1  C3  UNL     1      -0.771   7.492  96.802  1.00  0.00     0.211 C 
HETATM    2  N1  UNL     1       0.369   7.499  95.927  1.00  0.00    -0.061 N 
ATOM      3  H11 UNL     1       1.076   6.817  96.203  1.00  0.00     0.278 HD
ATOM      4  H12 UNL     1       0.937   8.340  96.032  1.00  0.00     0.278 HD
HETATM    5  C4  UNL     1      -0.079   7.310  94.598  1.00  0.00     0.230 C 
HETATM    6  C5  UNL     1       0.569   8.283  93.635  1.00  0.00     0.113 C 
HETATM    7  C10 UNL     1      -0.016   7.950  92.287  1.00  0.00     0.137 C 
HETATM    8  O4  UNL     1       0.827   7.577  91.491  1.00  0.00    -0.297 OA
HETATM    9  C11 UNL     1      -1.429   8.042  91.911  1.00  0.00     0.105 C 
HETATM   10  C12 UNL     1      -2.294   6.968  92.456  1.00  0.00     0.175 C 
HETATM   11  O5  UNL     1      -2.231   6.716  93.785  1.00  0.00    -0.381 OA
HETATM   12  C13 UNL     1      -1.567   7.640  94.571  1.00  0.00     0.177 C 
HETATM   13  C14 UNL     1      -2.020   7.600  96.005  1.00  0.00     0.146 C 
ENDROOT
BRANCH  13  14
HETATM   14  N5  UNL     1      -2.943   6.503  96.246  1.00  0.00    -0.352 N 
HETATM   15  C15 UNL     1      -4.337   6.737  96.296  1.00  0.00     0.218 C 
HETATM   16  O6  UNL     1      -4.771   7.888  96.133  1.00  0.00    -0.274 OA
ATOM     17  H5  UNL     1      -2.583   5.558  96.380  1.00  0.00     0.163 HD
BRANCH  15  18
HETATM   18  C16 UNL     1      -5.252   5.620  96.539  1.00  0.00     0.103 C 
BRANCH  18  19
HETATM   19  C17 UNL     1      -4.951   4.357  95.815  1.00  0.00     0.009 C 
BRANCH  19  20
HETATM   20  C18 UNL     1      -5.083   3.102  96.610  1.00  0.00     0.000 C 
BRANCH  20  21
HETATM   21  C19 UNL     1      -4.677   3.386  98.052  1.00  0.00     0.000 C 
BRANCH  21  22
HETATM   22  C20 UNL     1      -3.170   3.255  98.170  1.00  0.00     0.000 C 
BRANCH  22  23
HETATM   23  C21 UNL     1      -2.680   1.924  97.684  1.00  0.00     0.000 C 
BRANCH  23  24
HETATM   24  C22 UNL     1      -1.553   2.019  96.683  1.00  0.00     0.002 C 
BRANCH  24  25
HETATM   25  C23 UNL     1      -1.407   3.459  96.277  1.00  0.00     0.020 C 
BRANCH  25  26
HETATM   26  C24 UNL     1      -0.252   3.690  95.349  1.00  0.00     0.122 C 
BRANCH  26  27
HETATM   27  N6  UNL     1      -0.717   3.816  93.968  1.00  0.00    -0.367 N 
HETATM   28  C25 UNL     1       0.152   4.125  93.070  1.00  0.00     0.196 C 
HETATM   29  N7  UNL     1       1.522   4.343  93.385  1.00  0.00    -0.067 NA
HETATM   30  N8  UNL     1      -0.279   4.252  91.726  1.00  0.00    -0.067 NA
ATOM     31  H6  UNL     1      -1.696   3.663  93.725  1.00  0.00     0.161 HD
ENDBRANCH  26  27
ENDBRANCH  25  26
ENDBRANCH  24  25
ENDBRANCH  23  24
ENDBRANCH  22  23
ENDBRANCH  21  22
ENDBRANCH  20  21
ENDBRANCH  19  20
ENDBRANCH  18  19
ENDBRANCH  15  18
ENDBRANCH  13  14
BRANCH   1  32
HETATM   32  C2  UNL     1      -0.691   8.695  97.737  1.00  0.00     0.030 C 
HETATM   33  C1  UNL     1      -2.104   9.084  98.111  1.00  0.00     0.007 C 
ENDBRANCH   1  32
BRANCH   6  34
HETATM   34  C6  UNL     1       2.053   8.242  93.612  1.00  0.00     0.190 C 
BRANCH  34  35
HETATM   35  O1  UNL     1       2.748   9.074  94.386  1.00  0.00    -0.344 OA
BRANCH  35  36
HETATM   36  C7  UNL     1       3.305  10.213  93.957  1.00  0.00     0.256 C 
BRANCH  36  37
HETATM   37  N2  UNL     1       4.268  10.116  92.877  1.00  0.00    -0.190 N 
HETATM   38  N3  UNL     1       4.053  10.527  91.638  1.00  0.00    -0.239 N 
HETATM   39  C8  UNL     1       5.168  10.289  90.936  1.00  0.00     0.343 A 
ATOM     40  H3  UNL     1       3.194  10.947  91.282  1.00  0.00     0.192 HD
HETATM   41  O2  UNL     1       5.366  10.536  89.712  1.00  0.00    -0.245 OA
HETATM   42  N4  UNL     1       6.089   9.729  91.728  1.00  0.00    -0.258 N 
HETATM   43  C9  UNL     1       5.496   9.633  92.942  1.00  0.00     0.351 A 
ATOM     44  H4  UNL     1       7.033   9.438  91.473  1.00  0.00     0.175 HD
HETATM   45  O3  UNL     1       6.109   9.136  93.936  1.00  0.00    -0.244 OA
ENDBRANCH  36  37
ENDBRANCH  35  36
ENDBRANCH  34  35
ENDBRANCH   6  34
TORSDOF 16
ENDMDL
MODEL 2
REMARK VINA RESULT: -7.629659351      1.823      2.471
REMARK  16 active torsions:
REMARK  status: ('A' for Active; 'I' for Inactive)
REMARK    1  A    between atoms: C2_2  and  C3_3 
REMARK    2  A    between atoms: C5_8  and  C6_9 
REMARK    3  A    between atoms: C6_9  and  O1_10 
REMARK    4  A    between atoms: O1_10  and  C7_11 
REMARK    5  A    between atoms: C7_11  and  N2_12 
REMARK    6  A    between atoms: C14_27  and  N5_28 
REMARK       I    between atoms: N5_28  and  C15_30 
REMARK    7  A    between atoms: C15_30  and  C16_32 
REMARK    8  A    between atoms: C16_32  and  C17_33 
REMARK    9  A    between atoms: C17_33  and  C18_34 
REMARK   10  A    between atoms: C18_34  and  C19_35 
REMARK   11  A    between atoms: C19_35  and  C20_36 
REMARK   12  A    between atoms: C20_36  and  C21_37 
REMARK   13  A    between atoms: C21_37  and  C22_38 
REMARK   14  A    between atoms: C22_38  and  C23_39 
REMARK   15  A    between atoms: C23_39  and  C24_40 
REMARK   16  A    between atoms: C24_40  and  N6_41 
ROOT
HETATM    1  C3  UNL     1       0.020   7.403  93.983  1.00  0.00     0.211 C 
HETATM    2  N1  UNL     1       0.745   7.882  92.838  1.00  0.00    -0.061 N 
ATOM      3  H11 UNL     1       1.456   7.222  92.523  1.00  0.00     0.278 HD
ATOM      4  H12 UNL     1       1.365   8.659  93.065  1.00  0.00     0.278 HD
HETATM    5  C4  UNL     1      -0.182   8.208  91.820  1.00  0.00     0.230 C 
HETATM    6  C5  UNL     1       0.118   9.550  91.184  1.00  0.00     0.113 C 
HETATM    7  C10 UNL     1      -0.952   9.739  90.141  1.00  0.00     0.137 C 
HETATM    8  O4  UNL     1      -0.498   9.811  89.013  1.00  0.00    -0.297 OA
HETATM    9  C11 UNL     1      -2.393   9.833  90.388  1.00  0.00     0.105 C 
HETATM   10  C12 UNL     1      -3.059   8.549  90.714  1.00  0.00     0.175 C 
HETATM   11  O5  UNL     1      -2.517   7.784  91.690  1.00  0.00    -0.381 OA
HETATM   12  C13 UNL     1      -1.545   8.368  92.483  1.00  0.00     0.177 C 
HETATM   13  C14 UNL     1      -1.426   7.700  93.826  1.00  0.00     0.146 C 
ENDROOT
BRANCH  13  14
HETATM   14  N5  UNL     1      -2.261   6.513  93.911  1.00  0.00    -0.352 N 
HETATM   15  C15 UNL     1      -3.162   6.346  94.988  1.00  0.00     0.218 C 
HETATM   16  O6  UNL     1      -3.236   7.220  95.865  1.00  0.00    -0.274 OA
ATOM     17  H5  UNL     1      -2.197   5.796  93.188  1.00  0.00     0.163 HD
BRANCH  15  18
HETATM   18  C16 UNL     1      -3.996   5.144  95.058  1.00  0.00     0.103 C 
BRANCH  18  19
HETATM   19  C17 UNL     1      -4.308   4.641  96.422  1.00  0.00     0.009 C 
BRANCH  19  20
HETATM   20  C18 UNL     1      -4.119   3.177  96.636  1.00  0.00     0.000 C 
BRANCH  20  21
HETATM   21  C19 UNL     1      -3.314   2.963  97.912  1.00  0.00     0.000 C 
BRANCH  21  22
HETATM   22  C20 UNL     1      -2.345   1.816  97.692  1.00  0.00     0.000 C 
BRANCH  22  23
HETATM   23  C21 UNL     1      -1.619   1.935  96.385  1.00  0.00     0.000 C 
BRANCH  23  24
HETATM   24  C22 UNL     1      -0.381   2.797  96.453  1.00  0.00     0.002 C 
BRANCH  24  25
HETATM   25  C23 UNL     1      -0.437   3.788  95.324  1.00  0.00     0.020 C 
BRANCH  25  26
HETATM   26  C24 UNL     1      -0.377   3.137  93.973  1.00  0.00     0.122 C 
BRANCH  26  27
HETATM   27  N6  UNL     1      -0.228   4.144  92.923  1.00  0.00    -0.367 N 
HETATM   28  C25 UNL     1       0.849   4.119  92.218  1.00  0.00     0.196 C 
HETATM   29  N7  UNL     1       1.873   3.154  92.435  1.00  0.00    -0.067 NA
HETATM   30  N8  UNL     1       1.013   5.085  91.195  1.00  0.00    -0.067 NA
ATOM     31  H6  UNL     1      -0.953   4.842  92.754  1.00  0.00     0.161 HD
ENDBRANCH  26  27
ENDBRANCH  25  26
ENDBRANCH  24  25
ENDBRANCH  23  24
ENDBRANCH  22  23
ENDBRANCH  21  22
ENDBRANCH  20  21
ENDBRANCH  19  20
ENDBRANCH  18  19
ENDBRANCH  15  18
ENDBRANCH  13  14
BRANCH   1  32
HETATM   32  C2  UNL     1       0.527   8.120  95.231  1.00  0.00     0.030 C 
HETATM   33  C1  UNL     1       0.193   7.257  96.427  1.00  0.00     0.007 C 
ENDBRANCH   1  32
BRANCH   6  34
HETATM   34  C6  UNL     1       1.478   9.673  90.601  1.00  0.00     0.190 C 
BRANCH  34  35
HETATM   35  O1  UNL     1       2.548   9.499  91.376  1.00  0.00    -0.344 OA
BRANCH  35  36
HETATM   36  C7  UNL     1       3.654  10.249  91.310  1.00  0.00     0.256 C 
BRANCH  36  37
HETATM   37  N2  UNL     1       4.193  10.749  92.561  1.00  0.00    -0.190 N 
HETATM   38  N3  UNL     1       3.725  11.798  93.217  1.00  0.00    -0.239 N 
HETATM   39  C8  UNL     1       4.462  11.942  94.325  1.00  0.00     0.343 A 
ATOM     40  H3  UNL     1       2.944  12.389  92.931  1.00  0.00     0.192 HD
HETATM   41  O2  UNL     1       4.335  12.828  95.217  1.00  0.00    -0.245 OA
HETATM   42  N4  UNL     1       5.397  10.985  94.373  1.00  0.00    -0.258 N 
HETATM   43  C9  UNL     1       5.203  10.250  93.252  1.00  0.00     0.351 A 
ATOM     44  H4  UNL     1       6.101  10.841  95.096  1.00  0.00     0.175 HD
HETATM   45  O3  UNL     1       5.936   9.248  92.987  1.00  0.00    -0.244 OA
ENDBRANCH  36  37
ENDBRANCH  35  36
ENDBRANCH  34  35
ENDBRANCH   6  34
TORSDOF 16
ENDMDL
MODEL 3
REMARK VINA RESULT: -7.578958102      2.009      2.971
REMARK  16 active torsions:
REMARK  status: ('A' for Active; 'I' for Inactive)
REMARK    1  A    between atoms: C2_2  and  C3_3 
REMARK    2  A    between atoms: C5_8  and  C6_9 
REMARK    3  A    between atoms: C6_9  and  O1_10 
REMARK    4  A    between atoms: O1_10  and  C7_11 
REMARK    5  A    between atoms: C7_11  and  N2_12 
REMARK    6  A    between atoms: C14_27  and  N5_28 
REMARK       I    between atoms: N5_28  and  C15_30 
REMARK    7  A    between atoms: C15_30  and  C16_32 
REMARK    8  A    between atoms: C16_32  and  C17_33 
REMARK    9  A    between atoms: C17_33  and  C18_34 
REMARK   10  A    between atoms: C18_34  and  C19_35 
REMARK   11  A    between atoms: C19_35  and  C20_36 
REMARK   12  A    between atoms: C20_36  and  C21_37 
REMARK   13  A    between atoms: C21_37  and  C22_38 
REMARK   14  A    between atoms: C22_38  and  C23_39 
REMARK   15  A    between atoms: C23_39  and  C24_40 
REMARK   16  A    between atoms: C24_40  and  N6_41 
ROOT
HETATM    1  C3  UNL     1       0.045   7.285  93.176  1.00  0.00     0.211 C 
HETATM    2  N1  UNL     1       0.674   7.783  91.984  1.00  0.00    -0.061 N 
ATOM      3  H11 UNL     1       1.326   7.113  91.577  1.00  0.00     0.278 HD
ATOM      4  H12 UNL     1       1.341   8.530  92.178  1.00  0.00     0.278 HD
HETATM    5  C4  UNL     1      -0.334   8.181  91.074  1.00  0.00     0.230 C 
HETATM    6  C5  UNL     1      -0.046   9.536  90.460  1.00  0.00     0.113 C 
HETATM    7  C10 UNL     1      -1.204   9.802  89.534  1.00  0.00     0.137 C 
HETATM    8  O4  UNL     1      -0.858   9.903  88.371  1.00  0.00    -0.297 OA
HETATM    9  C11 UNL     1      -2.610   9.935  89.924  1.00  0.00     0.105 C 
HETATM   10  C12 UNL     1      -3.289   8.662  90.266  1.00  0.00     0.175 C 
HETATM   11  O5  UNL     1      -2.685   7.841  91.157  1.00  0.00    -0.381 OA
HETATM   12  C13 UNL     1      -1.620   8.360  91.872  1.00  0.00     0.177 C 
HETATM   13  C14 UNL     1      -1.397   7.636  93.172  1.00  0.00     0.146 C 
ENDROOT
BRANCH  13  14
HETATM   14  N5  UNL     1      -2.264   6.476  93.295  1.00  0.00    -0.352 N 
HETATM   15  C15 UNL     1      -2.887   6.173  94.528  1.00  0.00     0.218 C 
HETATM   16  O6  UNL     1      -2.690   6.906  95.509  1.00  0.00    -0.274 OA
ATOM     17  H5  UNL     1      -2.424   5.875  92.486  1.00  0.00     0.163 HD
BRANCH  15  18
HETATM   18  C16 UNL     1      -3.758   5.001  94.633  1.00  0.00     0.103 C 
BRANCH  18  19
HETATM   19  C17 UNL     1      -5.102   5.234  95.227  1.00  0.00     0.009 C 
BRANCH  19  20
HETATM   20  C18 UNL     1      -5.405   4.472  96.473  1.00  0.00     0.000 C 
BRANCH  20  21
HETATM   21  C19 UNL     1      -5.015   5.320  97.678  1.00  0.00     0.000 C 
BRANCH  21  22
HETATM   22  C20 UNL     1      -4.234   4.455  98.650  1.00  0.00     0.000 C 
BRANCH  22  23
HETATM   23  C21 UNL     1      -3.065   3.784  97.994  1.00  0.00     0.000 C 
BRANCH  23  24
HETATM   24  C22 UNL     1      -2.989   2.299  98.257  1.00  0.00     0.002 C 
BRANCH  24  25
HETATM   25  C23 UNL     1      -2.276   1.653  97.102  1.00  0.00     0.020 C 
BRANCH  25  26
HETATM   26  C24 UNL     1      -1.083   2.436  96.641  1.00  0.00     0.122 C 
BRANCH  26  27
HETATM   27  N6  UNL     1      -1.088   2.575  95.185  1.00  0.00    -0.367 N 
HETATM   28  C25 UNL     1      -0.408   3.541  94.674  1.00  0.00     0.196 C 
HETATM   29  N7  UNL     1       0.332   4.454  95.477  1.00  0.00    -0.067 NA
HETATM   30  N8  UNL     1      -0.400   3.694  93.265  1.00  0.00    -0.067 NA
ATOM     31  H6  UNL     1      -1.614   1.930  94.595  1.00  0.00     0.161 HD
ENDBRANCH  26  27
ENDBRANCH  25  26
ENDBRANCH  24  25
ENDBRANCH  23  24
ENDBRANCH  22  23
ENDBRANCH  21  22
ENDBRANCH  20  21
ENDBRANCH  19  20
ENDBRANCH  18  19
ENDBRANCH  15  18
ENDBRANCH  13  14
BRANCH   1  32
HETATM   32  C2  UNL     1       0.696   7.934  94.394  1.00  0.00     0.030 C 
HETATM   33  C1  UNL     1       1.955   8.630  93.929  1.00  0.00     0.007 C 
ENDBRANCH   1  32
BRANCH   6  34
HETATM   34  C6  UNL     1       1.255   9.636  89.752  1.00  0.00     0.190 C 
BRANCH  34  35
HETATM   35  O1  UNL     1       2.391   9.564  90.444  1.00  0.00    -0.344 OA
BRANCH  35  36
HETATM   36  C7  UNL     1       3.289  10.554  90.520  1.00  0.00     0.256 C 
BRANCH  36  37
HETATM   37  N2  UNL     1       3.954  10.751  91.793  1.00  0.00    -0.190 N 
HETATM   38  N3  UNL     1       3.525  11.558  92.750  1.00  0.00    -0.239 N 
HETATM   39  C8  UNL     1       4.385  11.464  93.772  1.00  0.00     0.343 A 
ATOM     40  H3  UNL     1       2.692  12.145  92.716  1.00  0.00     0.192 HD
HETATM   41  O2  UNL     1       4.330  12.079  94.875  1.00  0.00    -0.245 OA
HETATM   42  N4  UNL     1       5.358  10.599  93.465  1.00  0.00    -0.258 N 
HETATM   43  C9  UNL     1       5.061  10.166  92.216  1.00  0.00     0.351 A 
ATOM     44  H4  UNL     1       6.151  10.324  94.045  1.00  0.00     0.175 HD
HETATM   45  O3  UNL     1       5.799   9.322  91.620  1.00  0.00    -0.244 OA
ENDBRANCH  36  37
ENDBRANCH  35  36
ENDBRANCH  34  35
ENDBRANCH   6  34
TORSDOF 16
ENDMDL
MODEL 4
REMARK VINA RESULT: -7.510489489      1.427      2.054
REMARK  16 active torsions:
REMARK  status: ('A' for Active; 'I' for Inactive)
REMARK    1  A    between atoms: C2_2  and  C3_3 
REMARK    2  A    between atoms: C5_8  and  C6_9 
REMARK    3  A    between atoms: C6_9  and  O1_10 
REMARK    4  A    between atoms: O1_10  and  C7_11 
REMARK    5  A    between atoms: C7_11  and  N2_12 
REMARK    6  A    between atoms: C14_27  and  N5_28 
REMARK       I    between atoms: N5_28  and  C15_30 
REMARK    7  A    between atoms: C15_30  and  C16_32 
REMARK    8  A    between atoms: C16_32  and  C17_33 
REMARK    9  A    between atoms: C17_33  and  C18_34 
REMARK   10  A    between atoms: C18_34  and  C19_35 
REMARK   11  A    between atoms: C19_35  and  C20_36 
REMARK   12  A    between atoms: C20_36  and  C21_37 
REMARK   13  A    between atoms: C21_37  and  C22_38 
REMARK   14  A    between atoms: C22_38  and  C23_39 
REMARK   15  A    between atoms: C23_39  and  C24_40 
REMARK   16  A    between atoms: C24_40  and  N6_41 
ROOT
HETATM    1  C3  UNL     1      -0.809   7.168  96.210  1.00  0.00     0.211 C 
HETATM    2  N1  UNL     1      -0.176   7.044  94.927  1.00  0.00    -0.061 N 
ATOM      3  H11 UNL     1       0.304   6.151  94.814  1.00  0.00     0.278 HD
ATOM      4  H12 UNL     1       0.637   7.653  94.831  1.00  0.00     0.278 HD
HETATM    5  C4  UNL     1      -1.144   7.271  93.920  1.00  0.00     0.230 C 
HETATM    6  C5  UNL     1      -0.637   8.207  92.842  1.00  0.00     0.113 C 
HETATM    7  C10 UNL     1      -1.779   8.340  91.869  1.00  0.00     0.137 C 
HETATM    8  O4  UNL     1      -1.498   7.925  90.759  1.00  0.00    -0.297 OA
HETATM    9  C11 UNL     1      -3.103   8.897  92.160  1.00  0.00     0.105 C 
HETATM   10  C12 UNL     1      -3.994   8.014  92.951  1.00  0.00     0.175 C 
HETATM   11  O5  UNL     1      -3.505   7.480  94.095  1.00  0.00    -0.381 OA
HETATM   12  C13 UNL     1      -2.314   7.997  94.573  1.00  0.00     0.177 C 
HETATM   13  C14 UNL     1      -2.152   7.782  96.053  1.00  0.00     0.146 C 
ENDROOT
BRANCH  13  14
HETATM   14  N5  UNL     1      -3.220   6.959  96.596  1.00  0.00    -0.352 N 
HETATM   15  C15 UNL     1      -4.292   7.549  97.304  1.00  0.00     0.218 C 
HETATM   16  O6  UNL     1      -4.318   8.780  97.461  1.00  0.00    -0.274 OA
ATOM     17  H5  UNL     1      -3.195   5.947  96.465  1.00  0.00     0.163 HD
BRANCH  15  18
HETATM   18  C16 UNL     1      -5.359   6.704  97.843  1.00  0.00     0.103 C 
BRANCH  18  19
HETATM   19  C17 UNL     1      -5.363   6.516  99.318  1.00  0.00     0.009 C 
BRANCH  19  20
HETATM   20  C18 UNL     1      -4.702   5.276  99.819  1.00  0.00     0.000 C 
BRANCH  20  21
HETATM   21  C19 UNL     1      -4.728   4.222  98.717  1.00  0.00     0.000 C 
BRANCH  21  22
HETATM   22  C20 UNL     1      -3.306   3.769  98.443  1.00  0.00     0.000 C 
BRANCH  22  23
HETATM   23  C21 UNL     1      -3.256   2.381  97.877  1.00  0.00     0.000 C 
BRANCH  23  24
HETATM   24  C22 UNL     1      -2.144   2.172  96.877  1.00  0.00     0.002 C 
BRANCH  24  25
HETATM   25  C23 UNL     1      -1.715   3.519  96.364  1.00  0.00     0.020 C 
BRANCH  25  26
HETATM   26  C24 UNL     1      -0.341   3.504  95.763  1.00  0.00     0.122 C 
BRANCH  26  27
HETATM   27  N6  UNL     1      -0.320   2.695  94.545  1.00  0.00    -0.367 N 
HETATM   28  C25 UNL     1       0.332   3.152  93.534  1.00  0.00     0.196 C 
HETATM   29  N7  UNL     1       1.016   4.399  93.575  1.00  0.00    -0.067 NA
HETATM   30  N8  UNL     1       0.364   2.383  92.344  1.00  0.00    -0.067 NA
ATOM     31  H6  UNL     1      -0.806   1.798  94.498  1.00  0.00     0.161 HD
ENDBRANCH  26  27
ENDBRANCH  25  26
ENDBRANCH  24  25
ENDBRANCH  23  24
ENDBRANCH  22  23
ENDBRANCH  21  22
ENDBRANCH  20  21
ENDBRANCH  19  20
ENDBRANCH  18  19
ENDBRANCH  15  18
ENDBRANCH  13  14
BRANCH   1  32
HETATM   32  C2  UNL     1       0.035   8.077  97.099  1.00  0.00     0.030 C 
HETATM   33  C1  UNL     1      -0.881   8.697  98.130  1.00  0.00     0.007 C 
ENDBRANCH   1  32
BRANCH   6  34
HETATM   34  C6  UNL     1       0.608   7.763  92.166  1.00  0.00     0.190 C 
BRANCH  34  35
HETATM   35  O1  UNL     1       1.790   8.186  92.615  1.00  0.00    -0.344 OA
BRANCH  35  36
HETATM   36  C7  UNL     1       2.154   9.472  92.678  1.00  0.00     0.256 C 
BRANCH  36  37
HETATM   37  N2  UNL     1       3.462   9.766  93.229  1.00  0.00    -0.190 N 
HETATM   38  N3  UNL     1       3.712   9.961  94.514  1.00  0.00    -0.239 N 
HETATM   39  C8  UNL     1       5.025  10.190  94.638  1.00  0.00     0.343 A 
ATOM     40  H3  UNL     1       3.029   9.941  95.271  1.00  0.00     0.192 HD
HETATM   41  O2  UNL     1       5.661  10.423  95.706  1.00  0.00    -0.245 OA
HETATM   42  N4  UNL     1       5.609  10.139  93.435  1.00  0.00    -0.258 N 
HETATM   43  C9  UNL     1       4.603   9.871  92.569  1.00  0.00     0.351 A 
ATOM     44  H4  UNL     1       6.596  10.273  93.218  1.00  0.00     0.175 HD
HETATM   45  O3  UNL     1       4.820   9.757  91.324  1.00  0.00    -0.244 OA
ENDBRANCH  36  37
ENDBRANCH  35  36
ENDBRANCH  34  35
ENDBRANCH   6  34
TORSDOF 16
ENDMDL
MODEL 5
REMARK VINA RESULT: -7.336839117      1.965      4.086
REMARK  16 active torsions:
REMARK  status: ('A' for Active; 'I' for Inactive)
REMARK    1  A    between atoms: C2_2  and  C3_3 
REMARK    2  A    between atoms: C5_8  and  C6_9 
REMARK    3  A    between atoms: C6_9  and  O1_10 
REMARK    4  A    between atoms: O1_10  and  C7_11 
REMARK    5  A    between atoms: C7_11  and  N2_12 
REMARK    6  A    between atoms: C14_27  and  N5_28 
REMARK       I    between atoms: N5_28  and  C15_30 
REMARK    7  A    between atoms: C15_30  and  C16_32 
REMARK    8  A    between atoms: C16_32  and  C17_33 
REMARK    9  A    between atoms: C17_33  and  C18_34 
REMARK   10  A    between atoms: C18_34  and  C19_35 
REMARK   11  A    between atoms: C19_35  and  C20_36 
REMARK   12  A    between atoms: C20_36  and  C21_37 
REMARK   13  A    between atoms: C21_37  and  C22_38 
REMARK   14  A    between atoms: C22_38  and  C23_39 
REMARK   15  A    between atoms: C23_39  and  C24_40 
REMARK   16  A    between atoms: C24_40  and  N6_41 
ROOT
HETATM    1  C3  UNL     1       0.616   6.836  93.465  1.00  0.00     0.211 C 
HETATM    2  N1  UNL     1       0.557   7.572  92.233  1.00  0.00    -0.061 N 
ATOM      3  H11 UNL     1       1.315   7.328  91.595  1.00  0.00     0.278 HD
ATOM      4  H12 UNL     1       0.790   8.558  92.355  1.00  0.00     0.278 HD
HETATM    5  C4  UNL     1      -0.721   7.386  91.654  1.00  0.00     0.230 C 
HETATM    6  C5  UNL     1      -1.325   8.689  91.173  1.00  0.00     0.113 C 
HETATM    7  C10 UNL     1      -2.665   8.313  90.598  1.00  0.00     0.137 C 
HETATM    8  O4  UNL     1      -2.751   8.564  89.410  1.00  0.00    -0.297 OA
HETATM    9  C11 UNL     1      -3.781   7.710  91.331  1.00  0.00     0.105 C 
HETATM   10  C12 UNL     1      -3.614   6.273  91.657  1.00  0.00     0.175 C 
HETATM   11  O5  UNL     1      -2.464   5.889  92.259  1.00  0.00    -0.381 OA
HETATM   12  C13 UNL     1      -1.648   6.889  92.756  1.00  0.00     0.177 C 
HETATM   13  C14 UNL     1      -0.747   6.397  93.856  1.00  0.00     0.146 C 
ENDROOT
BRANCH  13  14
HETATM   14  N5  UNL     1      -0.852   4.958  94.031  1.00  0.00    -0.352 N 
HETATM   15  C15 UNL     1      -0.525   4.361  95.271  1.00  0.00     0.218 C 
HETATM   16  O6  UNL     1      -0.147   5.073  96.213  1.00  0.00    -0.274 OA
ATOM     17  H5  UNL     1      -1.163   4.374  93.255  1.00  0.00     0.163 HD
BRANCH  15  18
HETATM   18  C16 UNL     1      -0.636   2.909  95.430  1.00  0.00     0.103 C 
BRANCH  18  19
HETATM   19  C17 UNL     1      -1.919   2.408  95.990  1.00  0.00     0.009 C 
BRANCH  19  20
HETATM   20  C18 UNL     1      -1.844   1.804  97.352  1.00  0.00     0.000 C 
BRANCH  20  21
HETATM   21  C19 UNL     1      -3.037   2.282  98.172  1.00  0.00     0.000 C 
BRANCH  21  22
HETATM   22  C20 UNL     1      -3.398   3.689  97.732  1.00  0.00     0.000 C 
BRANCH  22  23
HETATM   23  C21 UNL     1      -3.881   4.530  98.875  1.00  0.00     0.000 C 
BRANCH  23  24
HETATM   24  C22 UNL     1      -4.043   5.991  98.529  1.00  0.00     0.002 C 
BRANCH  24  25
HETATM   25  C23 UNL     1      -4.034   6.122  97.031  1.00  0.00     0.020 C 
BRANCH  25  26
HETATM   26  C24 UNL     1      -3.299   7.340  96.555  1.00  0.00     0.122 C 
BRANCH  26  27
HETATM   27  N6  UNL     1      -1.918   7.329  97.038  1.00  0.00    -0.367 N 
HETATM   28  C25 UNL     1      -1.430   8.436  97.478  1.00  0.00     0.196 C 
HETATM   29  N7  UNL     1      -2.188   9.640  97.505  1.00  0.00    -0.067 NA
HETATM   30  N8  UNL     1      -0.094   8.448  97.950  1.00  0.00    -0.067 NA
ATOM     31  H6  UNL     1      -1.360   6.475  97.025  1.00  0.00     0.161 HD
ENDBRANCH  26  27
ENDBRANCH  25  26
ENDBRANCH  24  25
ENDBRANCH  23  24
ENDBRANCH  22  23
ENDBRANCH  21  22
ENDBRANCH  20  21
ENDBRANCH  19  20
ENDBRANCH  18  19
ENDBRANCH  15  18
ENDBRANCH  13  14
BRANCH   1  32
HETATM   32  C2  UNL     1       1.165   7.742  94.564  1.00  0.00     0.030 C 
HETATM   33  C1  UNL     1       2.303   8.544  93.975  1.00  0.00     0.007 C 
ENDBRANCH   1  32
BRANCH   6  34
HETATM   34  C6  UNL     1      -0.498   9.435  90.190  1.00  0.00     0.190 C 
BRANCH  34  35
HETATM   35  O1  UNL     1       0.472  10.241  90.620  1.00  0.00    -0.344 OA
BRANCH  35  36
HETATM   36  C7  UNL     1       1.687  10.317  90.065  1.00  0.00     0.256 C 
BRANCH  36  37
HETATM   37  N2  UNL     1       2.777  10.762  90.912  1.00  0.00    -0.190 N 
HETATM   38  N3  UNL     1       2.627  11.309  92.108  1.00  0.00    -0.239 N 
HETATM   39  C8  UNL     1       3.850  11.572  92.586  1.00  0.00     0.343 A 
ATOM     40  H3  UNL     1       1.742  11.495  92.579  1.00  0.00     0.192 HD
HETATM   41  O2  UNL     1       4.136  12.098  93.699  1.00  0.00    -0.245 OA
HETATM   42  N4  UNL     1       4.774  11.193  91.696  1.00  0.00    -0.258 N 
HETATM   43  C9  UNL     1       4.071  10.687  90.654  1.00  0.00     0.351 A 
ATOM     44  H4  UNL     1       5.788  11.269  91.783  1.00  0.00     0.175 HD
HETATM   45  O3  UNL     1       4.658  10.233  89.624  1.00  0.00    -0.244 OA
ENDBRANCH  36  37
ENDBRANCH  35  36
ENDBRANCH  34  35
ENDBRANCH   6  34
TORSDOF 16
ENDMDL
