MODEL 1
REMARK VINA RESULT: -7.795728455      0.000      0.000
REMARK  2 active torsions:
REMARK  status: ('A' for Active; 'I' for Inactive)
REMARK    1  A    between atoms: N1_4  and  N2_6 
REMARK       I    between atoms: N2_6  and  C4_8 
REMARK    2  A    between atoms: C4_8  and  C5_10 
ROOT
HETATM    1  C5  UNL     1       0.317   8.290  24.169  1.00  0.00     0.097 A 
HETATM    2  C6  UNL     1      -0.985   8.042  24.503  1.00  0.00     0.122 A 
HETATM    3 CL1  UNL     1      -1.466   6.478  25.166  1.00  0.00    -0.063 Cl
HETATM    4  N3  UNL     1      -1.952   8.990  24.336  1.00  0.00    -0.332 N 
ATOM      5  H3  UNL     1      -2.912   8.764  24.598  1.00  0.00     0.168 HD
HETATM    6  C7  UNL     1      -1.688  10.210  23.841  1.00  0.00     0.110 A 
HETATM    7  C8  UNL     1      -0.397  10.534  23.481  1.00  0.00     0.011 A 
HETATM    8  C9  UNL     1       0.571   9.584  23.647  1.00  0.00     0.075 A 
HETATM    9  N4  UNL     1       1.898   9.932  23.271  1.00  0.00    -0.101 NA
HETATM   10  C10 UNL     1      -0.029  11.872  22.921  1.00  0.00     0.046 C 
HETATM   11  C11 UNL     1      -1.028  12.873  23.463  1.00  0.00     0.024 C 
HETATM   12  C12 UNL     1      -2.423  12.435  23.017  1.00  0.00     0.121 C 
HETATM   13  N5  UNL     1      -2.699  11.194  23.670  1.00  0.00    -0.376 N 
ATOM     14  H5  UNL     1      -3.640  11.011  24.020  1.00  0.00     0.161 HD
ENDROOT
BRANCH   1  15
HETATM   15  C4  UNL     1       1.431   7.371  24.296  1.00  0.00     0.275 C 
HETATM   16  N2  UNL     1       2.179   6.704  23.337  1.00  0.00    -0.266 N 
ATOM     17  H2  UNL     1       1.968   6.831  22.347  1.00  0.00     0.190 HD
HETATM   18  O1  UNL     1       1.798   7.127  25.511  1.00  0.00    -0.266 OA
BRANCH  16  19
HETATM   19  N1  UNL     1       3.244   5.838  23.737  1.00  0.00    -0.307 N 
HETATM   20  C2  UNL     1       3.858   5.114  22.875  1.00  0.00    -0.004 C 
HETATM   21  C1  UNL     1       4.961   4.224  23.321  1.00  0.00     0.064 C 
HETATM   22  C3  UNL     1       3.484   5.149  21.444  1.00  0.00     0.064 C 
ATOM     23  H1  UNL     1       3.518   5.796  24.719  1.00  0.00     0.186 HD
ENDBRANCH  16  19
ENDBRANCH   1  15
TORSDOF 2
ENDMDL
MODEL 2
REMARK VINA RESULT: -7.643035355      3.698      4.980
REMARK  2 active torsions:
REMARK  status: ('A' for Active; 'I' for Inactive)
REMARK    1  A    between atoms: N1_4  and  N2_6 
REMARK       I    between atoms: N2_6  and  C4_8 
REMARK    2  A    between atoms: C4_8  and  C5_10 
ROOT
HETATM    1  C5  UNL     1      -0.588   8.366  26.376  1.00  0.00     0.097 A 
HETATM    2  C6  UNL     1       0.504   8.255  25.562  1.00  0.00     0.122 A 
HETATM    3 CL1  UNL     1       1.703   6.985  25.824  1.00  0.00    -0.063 Cl
HETATM    4  N3  UNL     1       0.705   9.118  24.523  1.00  0.00    -0.332 N 
ATOM      5  H3  UNL     1       1.534   9.002  23.940  1.00  0.00     0.168 HD
HETATM    6  C7  UNL     1      -0.147  10.116  24.241  1.00  0.00     0.110 A 
HETATM    7  C8  UNL     1      -1.273  10.292  25.019  1.00  0.00     0.011 A 
HETATM    8  C9  UNL     1      -1.472   9.427  26.058  1.00  0.00     0.075 A 
HETATM    9  N4  UNL     1      -2.638   9.620  26.851  1.00  0.00    -0.101 NA
HETATM   10  C10 UNL     1      -2.266  11.382  24.764  1.00  0.00     0.046 C 
HETATM   11  C11 UNL     1      -2.205  11.705  23.285  1.00  0.00     0.024 C 
HETATM   12  C12 UNL     1      -0.779  12.147  22.958  1.00  0.00     0.121 C 
HETATM   13  N5  UNL     1       0.066  11.013  23.158  1.00  0.00    -0.376 N 
ATOM     14  H5  UNL     1       0.837  10.842  22.512  1.00  0.00     0.161 HD
ENDROOT
BRANCH   1  15
HETATM   15  C4  UNL     1      -0.913   7.517  27.505  1.00  0.00     0.275 C 
HETATM   16  N2  UNL     1      -0.533   7.586  28.837  1.00  0.00    -0.266 N 
ATOM     17  H2  UNL     1       0.080   8.337  29.155  1.00  0.00     0.190 HD
HETATM   18  O1  UNL     1      -1.691   6.522  27.231  1.00  0.00    -0.266 OA
BRANCH  16  19
HETATM   19  N1  UNL     1      -1.002   6.604  29.764  1.00  0.00    -0.307 N 
HETATM   20  C2  UNL     1      -0.182   5.802  30.341  1.00  0.00    -0.004 C 
HETATM   21  C1  UNL     1      -0.700   4.793  31.300  1.00  0.00     0.064 C 
HETATM   22  C3  UNL     1       1.270   5.868  30.064  1.00  0.00     0.064 C 
ATOM     23  H1  UNL     1      -1.999   6.539  29.969  1.00  0.00     0.186 HD
ENDBRANCH  16  19
ENDBRANCH   1  15
TORSDOF 2
ENDMDL
MODEL 3
REMARK VINA RESULT: -7.213380236      1.379      1.536
REMARK  2 active torsions:
REMARK  status: ('A' for Active; 'I' for Inactive)
REMARK    1  A    between atoms: N1_4  and  N2_6 
REMARK       I    between atoms: N2_6  and  C4_8 
REMARK    2  A    between atoms: C4_8  and  C5_10 
ROOT
HETATM    1  C5  UNL     1       0.865   7.933  23.516  1.00  0.00     0.097 A 
HETATM    2  C6  UNL     1      -0.409   7.748  23.974  1.00  0.00     0.122 A 
HETATM    3 CL1  UNL     1      -1.017   6.130  24.335  1.00  0.00    -0.063 Cl
HETATM    4  N3  UNL     1      -1.252   8.805  24.168  1.00  0.00    -0.332 N 
ATOM      5  H3  UNL     1      -2.197   8.624  24.510  1.00  0.00     0.168 HD
HETATM    6  C7  UNL     1      -0.886  10.073  23.924  1.00  0.00     0.110 A 
HETATM    7  C8  UNL     1       0.385  10.338  23.460  1.00  0.00     0.011 A 
HETATM    8  C9  UNL     1       1.228   9.280  23.266  1.00  0.00     0.075 A 
HETATM    9  N4  UNL     1       2.537   9.569  22.786  1.00  0.00    -0.101 NA
HETATM   10  C10 UNL     1       0.862  11.726  23.166  1.00  0.00     0.046 C 
HETATM   11  C11 UNL     1       0.079  12.666  24.058  1.00  0.00     0.024 C 
HETATM   12  C12 UNL     1      -1.405  12.495  23.735  1.00  0.00     0.121 C 
HETATM   13  N5  UNL     1      -1.768  11.170  24.128  1.00  0.00    -0.376 N 
ATOM     14  H5  UNL     1      -2.676  11.007  24.562  1.00  0.00     0.161 HD
ENDROOT
BRANCH   1  15
HETATM   15  C4  UNL     1       1.852   6.900  23.270  1.00  0.00     0.275 C 
HETATM   16  N2  UNL     1       2.853   6.383  24.079  1.00  0.00    -0.266 N 
ATOM     17  H2  UNL     1       2.980   6.740  25.026  1.00  0.00     0.190 HD
HETATM   18  O1  UNL     1       1.795   6.362  22.096  1.00  0.00    -0.266 OA
BRANCH  16  19
HETATM   19  N1  UNL     1       3.707   5.348  23.584  1.00  0.00    -0.307 N 
HETATM   20  C2  UNL     1       3.526   4.127  23.933  1.00  0.00    -0.004 C 
HETATM   21  C1  UNL     1       4.430   3.074  23.401  1.00  0.00     0.064 C 
HETATM   22  C3  UNL     1       2.434   3.751  24.857  1.00  0.00     0.064 C 
ATOM     23  H1  UNL     1       4.468   5.584  22.947  1.00  0.00     0.186 HD
ENDBRANCH  16  19
ENDBRANCH   1  15
TORSDOF 2
ENDMDL
MODEL 4
REMARK VINA RESULT: -7.191607394      3.562      4.621
REMARK  2 active torsions:
REMARK  status: ('A' for Active; 'I' for Inactive)
REMARK    1  A    between atoms: N1_4  and  N2_6 
REMARK       I    between atoms: N2_6  and  C4_8 
REMARK    2  A    between atoms: C4_8  and  C5_10 
ROOT
HETATM    1  C5  UNL     1      -1.422   8.941  26.410  1.00  0.00     0.097 A 
HETATM    2  C6  UNL     1      -2.457   9.822  26.269  1.00  0.00     0.122 A 
HETATM    3 CL1  UNL     1      -3.892   9.704  27.290  1.00  0.00    -0.063 Cl
HETATM    4  N3  UNL     1      -2.417  10.819  25.336  1.00  0.00    -0.332 N 
ATOM      5  H3  UNL     1      -3.211  11.456  25.263  1.00  0.00     0.168 HD
HETATM    6  C7  UNL     1      -1.371  10.993  24.513  1.00  0.00     0.110 A 
HETATM    7  C8  UNL     1      -0.289  10.143  24.596  1.00  0.00     0.011 A 
HETATM    8  C9  UNL     1      -0.331   9.145  25.528  1.00  0.00     0.075 A 
HETATM    9  N4  UNL     1       0.793   8.275  25.602  1.00  0.00    -0.101 NA
HETATM   10  C10 UNL     1       0.910  10.276  23.710  1.00  0.00     0.046 C 
HETATM   11  C11 UNL     1       1.014  11.735  23.315  1.00  0.00     0.024 C 
HETATM   12  C12 UNL     1      -0.275  12.119  22.589  1.00  0.00     0.121 C 
HETATM   13  N5  UNL     1      -1.334  12.034  23.544  1.00  0.00    -0.376 N 
ATOM     14  H5  UNL     1      -2.077  12.732  23.531  1.00  0.00     0.161 HD
ENDROOT
BRANCH   1  15
HETATM   15  C4  UNL     1      -1.344   7.845  27.355  1.00  0.00     0.275 C 
HETATM   16  N2  UNL     1      -0.839   7.787  28.646  1.00  0.00    -0.266 N 
ATOM     17  H2  UNL     1      -0.435   8.620  29.073  1.00  0.00     0.190 HD
HETATM   18  O1  UNL     1      -1.829   6.725  26.930  1.00  0.00    -0.266 OA
BRANCH  16  19
HETATM   19  N1  UNL     1      -0.884   6.558  29.375  1.00  0.00    -0.307 N 
HETATM   20  C2  UNL     1       0.195   6.004  29.793  1.00  0.00    -0.004 C 
HETATM   21  C1  UNL     1       0.115   4.727  30.549  1.00  0.00     0.064 C 
HETATM   22  C3  UNL     1       1.516   6.616  29.533  1.00  0.00     0.064 C 
ATOM     23  H1  UNL     1      -1.784   6.117  29.565  1.00  0.00     0.186 HD
ENDBRANCH  16  19
ENDBRANCH   1  15
TORSDOF 2
ENDMDL
MODEL 5
REMARK VINA RESULT: -6.943913624      2.189      2.981
REMARK  2 active torsions:
REMARK  status: ('A' for Active; 'I' for Inactive)
REMARK    1  A    between atoms: N1_4  and  N2_6 
REMARK       I    between atoms: N2_6  and  C4_8 
REMARK    2  A    between atoms: C4_8  and  C5_10 
ROOT
HETATM    1  C5  UNL     1       1.483   6.136  23.023  1.00  0.00     0.097 A 
HETATM    2  C6  UNL     1       0.407   5.461  23.528  1.00  0.00     0.122 A 
HETATM    3 CL1  UNL     1       0.365   3.696  23.530  1.00  0.00    -0.063 Cl
HETATM    4  N3  UNL     1      -0.667   6.126  24.045  1.00  0.00    -0.332 N 
ATOM      5  H3  UNL     1      -1.451   5.585  24.411  1.00  0.00     0.168 HD
HETATM    6  C7  UNL     1      -0.731   7.466  24.090  1.00  0.00     0.110 A 
HETATM    7  C8  UNL     1       0.317   8.216  23.598  1.00  0.00     0.011 A 
HETATM    8  C9  UNL     1       1.391   7.549  23.081  1.00  0.00     0.075 A 
HETATM    9  N4  UNL     1       2.465   8.336  22.577  1.00  0.00    -0.101 NA
HETATM   10  C10 UNL     1       0.314   9.712  23.615  1.00  0.00     0.046 C 
HETATM   11  C11 UNL     1      -0.560  10.145  24.773  1.00  0.00     0.024 C 
HETATM   12  C12 UNL     1      -1.960   9.577  24.545  1.00  0.00     0.121 C 
HETATM   13  N5  UNL     1      -1.853   8.154  24.630  1.00  0.00    -0.376 N 
ATOM     14  H5  UNL     1      -2.594   7.623  25.087  1.00  0.00     0.161 HD
ENDROOT
BRANCH   1  15
HETATM   15  C4  UNL     1       2.678   5.549  22.449  1.00  0.00     0.275 C 
HETATM   16  N2  UNL     1       3.943   5.348  22.981  1.00  0.00    -0.266 N 
ATOM     17  H2  UNL     1       4.145   5.636  23.938  1.00  0.00     0.190 HD
HETATM   18  O1  UNL     1       2.550   5.139  21.229  1.00  0.00    -0.266 OA
BRANCH  16  19
HETATM   19  N1  UNL     1       4.962   4.736  22.187  1.00  0.00    -0.307 N 
HETATM   20  C2  UNL     1       5.766   3.878  22.700  1.00  0.00    -0.004 C 
HETATM   21  C1  UNL     1       6.814   3.259  21.849  1.00  0.00     0.064 C 
HETATM   22  C3  UNL     1       5.664   3.496  24.126  1.00  0.00     0.064 C 
ATOM     23  H1  UNL     1       5.052   4.985  21.201  1.00  0.00     0.186 HD
ENDBRANCH  16  19
ENDBRANCH   1  15
TORSDOF 2
ENDMDL
