MODEL 1
REMARK VINA RESULT: -7.017429294      0.000      0.000
REMARK  7 active torsions:
REMARK  status: ('A' for Active; 'I' for Inactive)
REMARK    1  A    between atoms: C2_2  and  C3_3 
REMARK    2  A    between atoms: C4_4  and  C5_5 
REMARK    3  A    between atoms: C6_7  and  C7_8 
REMARK    4  A    between atoms: C7_8  and  C8_9 
REMARK    5  A    between atoms: C10_11  and  O1_12 
REMARK    6  A    between atoms: N2_18  and  N3_19 
REMARK    7  A    between atoms: C13_22  and  N4_23 
ROOT
HETATM    1  C8  UNL     1      -1.744   8.717  25.075  1.00  0.00     0.031 C 
HETATM    2  C9  UNL     1      -0.933   8.643  23.829  1.00  0.00     0.048 C 
HETATM    3  C10 UNL     1       0.505   8.365  24.259  1.00  0.00     0.169 C 
HETATM    4  C11 UNL     1       0.402   8.001  25.697  1.00  0.00     0.049 A 
HETATM    5  N1  UNL     1       1.346   7.537  26.525  1.00  0.00    -0.351 N 
ATOM      6  H1  UNL     1       2.291   7.391  26.173  1.00  0.00     0.166 HD
HETATM    7  C12 UNL     1       1.074   7.257  27.811  1.00  0.00     0.208 A 
HETATM    8  N2  UNL     1      -0.164   7.450  28.271  1.00  0.00    -0.242 N 
HETATM    9  C13 UNL     1      -1.154   7.916  27.479  1.00  0.00     0.130 A 
HETATM   10  C14 UNL     1      -0.878   8.203  26.161  1.00  0.00     0.017 A 
ENDROOT
BRANCH   1  11
HETATM   11  C7  UNL     1      -2.178  10.126  25.415  1.00  0.00     0.038 C 
BRANCH  11  12
HETATM   12  C6  UNL     1      -2.935  10.694  24.277  1.00  0.00    -0.010 C 
HETATM   13  C2  UNL     1      -2.367  11.448  23.356  1.00  0.00    -0.012 C 
HETATM   14  C1  UNL     1      -3.137  11.996  22.242  1.00  0.00     0.058 C 
BRANCH  13  15
HETATM   15  C3  UNL     1      -0.949  11.769  23.410  1.00  0.00    -0.071 C 
HETATM   16  C4  UNL     1       0.230  12.022  23.461  1.00  0.00    -0.086 C 
BRANCH  16  17
HETATM   17  C5  UNL     1       1.669  12.312  23.517  1.00  0.00     0.208 C 
HETATM   18 CL1  UNL     1       2.654  10.958  22.976  1.00  0.00    -0.117 Cl
ENDBRANCH  16  17
ENDBRANCH  13  15
ENDBRANCH  11  12
ENDBRANCH   1  11
BRANCH   3  19
HETATM   19  O1  UNL     1       1.023   7.327  23.518  1.00  0.00    -0.389 OA
ATOM     20  H1  UNL     1       1.966   7.291  23.627  1.00  0.00     0.210 HD
ENDBRANCH   3  19
BRANCH   9  21
HETATM   21  N4  UNL     1      -2.335   8.086  27.965  1.00  0.00    -0.383 N 
ATOM     22  H42 UNL     1      -2.534   7.895  28.947  1.00  0.00     0.157 HD
ATOM     23  H41 UNL     1      -3.088   8.415  27.361  1.00  0.00     0.157 HD
ENDBRANCH   9  21
BRANCH   8  24
HETATM   24  N3  UNL     1      -0.413   7.145  29.627  1.00  0.00    -0.336 N 
ATOM     25  H32 UNL     1      -0.575   6.182  29.921  1.00  0.00     0.177 HD
ATOM     26  H31 UNL     1      -0.420   7.918  30.292  1.00  0.00     0.177 HD
ENDBRANCH   8  24
TORSDOF 7
ENDMDL
MODEL 2
REMARK VINA RESULT: -6.971253202      1.839      2.639
REMARK  7 active torsions:
REMARK  status: ('A' for Active; 'I' for Inactive)
REMARK    1  A    between atoms: C2_2  and  C3_3 
REMARK    2  A    between atoms: C4_4  and  C5_5 
REMARK    3  A    between atoms: C6_7  and  C7_8 
REMARK    4  A    between atoms: C7_8  and  C8_9 
REMARK    5  A    between atoms: C10_11  and  O1_12 
REMARK    6  A    between atoms: N2_18  and  N3_19 
REMARK    7  A    between atoms: C13_22  and  N4_23 
ROOT
HETATM    1  C8  UNL     1      -0.581   7.913  25.102  1.00  0.00     0.031 C 
HETATM    2  C9  UNL     1       0.468   7.487  24.137  1.00  0.00     0.048 C 
HETATM    3  C10 UNL     1       1.713   7.164  24.958  1.00  0.00     0.169 C 
HETATM    4  C11 UNL     1       1.236   7.133  26.365  1.00  0.00     0.049 A 
HETATM    5  N1  UNL     1       1.887   6.766  27.475  1.00  0.00    -0.351 N 
ATOM      6  H1  UNL     1       2.855   6.451  27.405  1.00  0.00     0.166 HD
HETATM    7  C12 UNL     1       1.294   6.802  28.681  1.00  0.00     0.208 A 
HETATM    8  N2  UNL     1       0.029   7.215  28.771  1.00  0.00    -0.242 N 
HETATM    9  C13 UNL     1      -0.676   7.597  27.683  1.00  0.00     0.130 A 
HETATM   10  C14 UNL     1      -0.070   7.561  26.447  1.00  0.00     0.017 A 
ENDROOT
BRANCH   1  11
HETATM   11  C7  UNL     1      -0.862   9.399  25.054  1.00  0.00     0.038 C 
BRANCH  11  12
HETATM   12  C6  UNL     1       0.357  10.115  24.614  1.00  0.00    -0.010 C 
HETATM   13  C2  UNL     1       0.313  11.153  23.803  1.00  0.00    -0.012 C 
HETATM   14  C1  UNL     1       1.531  11.841  23.383  1.00  0.00     0.058 C 
BRANCH  13  15
HETATM   15  C3  UNL     1      -0.951  11.659  23.288  1.00  0.00    -0.071 C 
HETATM   16  C4  UNL     1      -1.995  12.073  22.846  1.00  0.00    -0.086 C 
BRANCH  16  17
HETATM   17  C5  UNL     1      -3.266  12.563  22.299  1.00  0.00     0.208 C 
HETATM   18 CL1  UNL     1      -3.100  13.198  20.666  1.00  0.00    -0.117 Cl
ENDBRANCH  16  17
ENDBRANCH  13  15
ENDBRANCH  11  12
ENDBRANCH   1  11
BRANCH   3  19
HETATM   19  O1  UNL     1       2.221   5.942  24.577  1.00  0.00    -0.389 OA
ATOM     20  H1  UNL     1       1.746   5.245  25.012  1.00  0.00     0.210 HD
ENDBRANCH   3  19
BRANCH   9  21
HETATM   21  N4  UNL     1      -1.895   7.988  27.816  1.00  0.00    -0.383 N 
ATOM     22  H42 UNL     1      -2.552   7.478  28.408  1.00  0.00     0.157 HD
ATOM     23  H41 UNL     1      -2.216   8.822  27.324  1.00  0.00     0.157 HD
ENDBRANCH   9  21
BRANCH   8  24
HETATM   24  N3  UNL     1      -0.562   7.239  30.054  1.00  0.00    -0.336 N 
ATOM     25  H32 UNL     1      -0.381   6.490  30.722  1.00  0.00     0.177 HD
ATOM     26  H31 UNL     1      -1.166   8.028  30.281  1.00  0.00     0.177 HD
ENDBRANCH   8  24
TORSDOF 7
ENDMDL
MODEL 3
REMARK VINA RESULT: -6.911193361      3.208      4.551
REMARK  7 active torsions:
REMARK  status: ('A' for Active; 'I' for Inactive)
REMARK    1  A    between atoms: C2_2  and  C3_3 
REMARK    2  A    between atoms: C4_4  and  C5_5 
REMARK    3  A    between atoms: C6_7  and  C7_8 
REMARK    4  A    between atoms: C7_8  and  C8_9 
REMARK    5  A    between atoms: C10_11  and  O1_12 
REMARK    6  A    between atoms: N2_18  and  N3_19 
REMARK    7  A    between atoms: C13_22  and  N4_23 
ROOT
HETATM    1  C8  UNL     1       0.386   9.065  24.650  1.00  0.00     0.031 C 
HETATM    2  C9  UNL     1      -0.564   8.845  25.774  1.00  0.00     0.048 C 
HETATM    3  C10 UNL     1      -1.204   7.479  25.546  1.00  0.00     0.169 C 
HETATM    4  C11 UNL     1      -0.382   6.855  24.476  1.00  0.00     0.049 A 
HETATM    5  N1  UNL     1      -0.424   5.608  23.990  1.00  0.00    -0.351 N 
ATOM      6  H1  UNL     1      -1.098   4.946  24.374  1.00  0.00     0.166 HD
HETATM    7  C12 UNL     1       0.403   5.209  23.009  1.00  0.00     0.208 A 
HETATM    8  N2  UNL     1       1.283   6.077  22.508  1.00  0.00    -0.242 N 
HETATM    9  C13 UNL     1       1.368   7.348  22.960  1.00  0.00     0.130 A 
HETATM   10  C14 UNL     1       0.522   7.759  23.965  1.00  0.00     0.017 A 
ENDROOT
BRANCH   1  11
HETATM   11  C7  UNL     1      -0.101  10.096  23.655  1.00  0.00     0.038 C 
BRANCH  11  12
HETATM   12  C6  UNL     1       0.428  11.427  24.030  1.00  0.00    -0.010 C 
HETATM   13  C2  UNL     1      -0.164  12.549  23.671  1.00  0.00    -0.012 C 
HETATM   14  C1  UNL     1       0.379  13.850  24.054  1.00  0.00     0.058 C 
BRANCH  13  15
HETATM   15  C3  UNL     1      -1.383  12.542  22.875  1.00  0.00    -0.071 C 
HETATM   16  C4  UNL     1      -2.397  12.550  22.221  1.00  0.00    -0.086 C 
BRANCH  16  17
HETATM   17  C5  UNL     1      -3.627  12.577  21.420  1.00  0.00     0.208 C 
HETATM   18 CL1  UNL     1      -3.643  13.893  20.250  1.00  0.00    -0.117 Cl
ENDBRANCH  16  17
ENDBRANCH  13  15
ENDBRANCH  11  12
ENDBRANCH   1  11
BRANCH   3  19
HETATM   19  O1  UNL     1      -1.156   6.739  26.706  1.00  0.00    -0.389 OA
ATOM     20  H1  UNL     1      -0.444   7.045  27.255  1.00  0.00     0.210 HD
ENDBRANCH   3  19
BRANCH   9  21
HETATM   21  N4  UNL     1       2.234   8.152  22.447  1.00  0.00    -0.383 N 
ATOM     22  H42 UNL     1       2.838   7.858  21.679  1.00  0.00     0.157 HD
ATOM     23  H41 UNL     1       2.322   9.100  22.812  1.00  0.00     0.157 HD
ENDBRANCH   9  21
BRANCH   8  24
HETATM   24  N3  UNL     1       2.136   5.623  21.478  1.00  0.00    -0.336 N 
ATOM     25  H32 UNL     1       2.608   4.722  21.555  1.00  0.00     0.177 HD
ATOM     26  H31 UNL     1       2.256   6.224  20.663  1.00  0.00     0.177 HD
ENDBRANCH   8  24
TORSDOF 7
ENDMDL
MODEL 4
REMARK VINA RESULT: -6.775368951      3.648      5.045
REMARK  7 active torsions:
REMARK  status: ('A' for Active; 'I' for Inactive)
REMARK    1  A    between atoms: C2_2  and  C3_3 
REMARK    2  A    between atoms: C4_4  and  C5_5 
REMARK    3  A    between atoms: C6_7  and  C7_8 
REMARK    4  A    between atoms: C7_8  and  C8_9 
REMARK    5  A    between atoms: C10_11  and  O1_12 
REMARK    6  A    between atoms: N2_18  and  N3_19 
REMARK    7  A    between atoms: C13_22  and  N4_23 
ROOT
HETATM    1  C8  UNL     1       1.418   8.043  24.716  1.00  0.00     0.031 C 
HETATM    2  C9  UNL     1       1.221   6.856  25.593  1.00  0.00     0.048 C 
HETATM    3  C10 UNL     1       1.462   5.625  24.725  1.00  0.00     0.169 C 
HETATM    4  C11 UNL     1       2.071   6.160  23.479  1.00  0.00     0.049 A 
HETATM    5  N1  UNL     1       2.600   5.500  22.440  1.00  0.00    -0.351 N 
ATOM      6  H1  UNL     1       2.614   4.481  22.452  1.00  0.00     0.166 HD
HETATM    7  C12 UNL     1       3.112   6.152  21.383  1.00  0.00     0.208 A 
HETATM    8  N2  UNL     1       3.091   7.486  21.369  1.00  0.00    -0.242 N 
HETATM    9  C13 UNL     1       2.571   8.202  22.390  1.00  0.00     0.130 A 
HETATM   10  C14 UNL     1       2.045   7.536  23.474  1.00  0.00     0.017 A 
ENDROOT
BRANCH   1  11
HETATM   11  C7  UNL     1       0.123   8.742  24.367  1.00  0.00     0.038 C 
BRANCH  11  12
HETATM   12  C6  UNL     1      -0.701   8.887  25.588  1.00  0.00    -0.010 C 
HETATM   13  C2  UNL     1      -1.744   9.693  25.645  1.00  0.00    -0.012 C 
HETATM   14  C1  UNL     1      -2.540   9.817  26.863  1.00  0.00     0.058 C 
BRANCH  13  15
HETATM   15  C3  UNL     1      -2.146  10.494  24.499  1.00  0.00    -0.071 C 
HETATM   16  C4  UNL     1      -2.473  11.171  23.555  1.00  0.00    -0.086 C 
BRANCH  16  17
HETATM   17  C5  UNL     1      -2.855  12.002  22.407  1.00  0.00     0.208 C 
HETATM   18 CL1  UNL     1      -1.461  12.618  21.524  1.00  0.00    -0.117 Cl
ENDBRANCH  16  17
ENDBRANCH  13  15
ENDBRANCH  11  12
ENDBRANCH   1  11
BRANCH   3  19
HETATM   19  O1  UNL     1       2.319   4.760  25.367  1.00  0.00    -0.389 OA
ATOM     20  H1  UNL     1       2.313   3.916  24.931  1.00  0.00     0.210 HD
ENDBRANCH   3  19
BRANCH   9  21
HETATM   21  N4  UNL     1       2.572   9.489  22.334  1.00  0.00    -0.383 N 
ATOM     22  H42 UNL     1       3.070   9.985  21.594  1.00  0.00     0.157 HD
ATOM     23  H41 UNL     1       2.071  10.026  23.041  1.00  0.00     0.157 HD
ENDBRANCH   9  21
BRANCH   8  24
HETATM   24  N3  UNL     1       3.639   8.137  20.241  1.00  0.00    -0.336 N 
ATOM     25  H32 UNL     1       3.752   7.638  19.359  1.00  0.00     0.177 HD
ATOM     26  H31 UNL     1       3.910   9.114  20.345  1.00  0.00     0.177 HD
ENDBRANCH   8  24
TORSDOF 7
ENDMDL
MODEL 5
REMARK VINA RESULT: -6.676465392      4.797      6.542
REMARK  7 active torsions:
REMARK  status: ('A' for Active; 'I' for Inactive)
REMARK    1  A    between atoms: C2_2  and  C3_3 
REMARK    2  A    between atoms: C4_4  and  C5_5 
REMARK    3  A    between atoms: C6_7  and  C7_8 
REMARK    4  A    between atoms: C7_8  and  C8_9 
REMARK    5  A    between atoms: C10_11  and  O1_12 
REMARK    6  A    between atoms: N2_18  and  N3_19 
REMARK    7  A    between atoms: C13_22  and  N4_23 
ROOT
HETATM    1  C8  UNL     1       2.719   6.323  22.683  1.00  0.00     0.031 C 
HETATM    2  C9  UNL     1       2.303   5.306  23.687  1.00  0.00     0.048 C 
HETATM    3  C10 UNL     1       1.649   4.167  22.911  1.00  0.00     0.169 C 
HETATM    4  C11 UNL     1       1.983   4.443  21.489  1.00  0.00     0.049 A 
HETATM    5  N1  UNL     1       1.771   3.687  20.405  1.00  0.00    -0.351 N 
ATOM      6  H1  UNL     1       1.319   2.779  20.510  1.00  0.00     0.166 HD
HETATM    7  C12 UNL     1       2.142   4.098  19.180  1.00  0.00     0.208 A 
HETATM    8  N2  UNL     1       2.732   5.286  19.044  1.00  0.00    -0.242 N 
HETATM    9  C13 UNL     1       2.970   6.090  20.105  1.00  0.00     0.130 A 
HETATM   10  C14 UNL     1       2.591   5.671  21.360  1.00  0.00     0.017 A 
ENDROOT
BRANCH   1  11
HETATM   11  C7  UNL     1       1.856   7.566  22.707  1.00  0.00     0.038 C 
BRANCH  11  12
HETATM   12  C6  UNL     1       0.634   7.299  23.499  1.00  0.00    -0.010 C 
HETATM   13  C2  UNL     1      -0.063   8.263  24.069  1.00  0.00    -0.012 C 
HETATM   14  C1  UNL     1      -1.265   7.973  24.845  1.00  0.00     0.058 C 
BRANCH  13  15
HETATM   15  C3  UNL     1       0.336   9.658  23.951  1.00  0.00    -0.071 C 
HETATM   16  C4  UNL     1       0.672  10.813  23.867  1.00  0.00    -0.086 C 
BRANCH  16  17
HETATM   17  C5  UNL     1       1.098  12.216  23.773  1.00  0.00     0.208 C 
HETATM   18 CL1  UNL     1      -0.262  13.334  23.742  1.00  0.00    -0.117 Cl
ENDBRANCH  16  17
ENDBRANCH  13  15
ENDBRANCH  11  12
ENDBRANCH   1  11
BRANCH   3  19
HETATM   19  O1  UNL     1       2.171   2.961  23.321  1.00  0.00    -0.389 OA
ATOM     20  H1  UNL     1       1.477   2.406  23.657  1.00  0.00     0.210 HD
ENDBRANCH   3  19
BRANCH   9  21
HETATM   21  N4  UNL     1       3.543   7.229  19.927  1.00  0.00    -0.383 N 
ATOM     22  H42 UNL     1       4.109   7.656  20.660  1.00  0.00     0.157 HD
ATOM     23  H41 UNL     1       3.431   7.719  19.039  1.00  0.00     0.157 HD
ENDBRANCH   9  21
BRANCH   8  24
HETATM   24  N3  UNL     1       3.108   5.685  17.742  1.00  0.00    -0.336 N 
ATOM     25  H32 UNL     1       3.506   5.011  17.088  1.00  0.00     0.177 HD
ATOM     26  H31 UNL     1       2.965   6.662  17.487  1.00  0.00     0.177 HD
ENDBRANCH   8  24
TORSDOF 7
ENDMDL
