MODEL 1
REMARK VINA RESULT: -6.711792362      0.000      0.000
REMARK  3 active torsions:
REMARK  status: ('A' for Active; 'I' for Inactive)
REMARK    1  A    between atoms: C2_2  and  C4_4 
REMARK    2  A    between atoms: C4_4  and  C5_5 
REMARK    3  A    between atoms: C9_18  and  N5_19 
ROOT
HETATM    1  C5  UNL     1       0.553  10.411  23.762  1.00  0.00     0.141 A 
HETATM    2  N1  UNL     1      -0.479  10.044  24.445  1.00  0.00    -0.282 N 
ATOM      3  H1  UNL     1      -1.023  10.765  24.919  1.00  0.00     0.188 HD
HETATM    4  N2  UNL     1      -0.895   8.719  24.573  1.00  0.00    -0.292 N 
ATOM      5  H2  UNL     1      -1.719   8.482  25.125  1.00  0.00     0.187 HD
HETATM    6  C6  UNL     1      -0.150   7.711  23.920  1.00  0.00     0.143 A 
HETATM    7  C7  UNL     1       0.947   8.127  23.198  1.00  0.00     0.183 A 
HETATM    8  N3  UNL     1       1.685   7.210  22.562  1.00  0.00    -0.315 N 
ATOM      9  H3  UNL     1       2.500   7.502  22.024  1.00  0.00     0.170 HD
HETATM   10  C8  UNL     1       1.358   5.893  22.628  1.00  0.00     0.157 A 
HETATM   11 BR1  UNL     1       2.489   4.684  21.678  1.00  0.00    -0.010 Br
HETATM   12  N4  UNL     1       0.302   5.451  23.318  1.00  0.00    -0.321 N 
ATOM     13  H4  UNL     1       0.073   4.458  23.356  1.00  0.00     0.169 HD
HETATM   14  C9  UNL     1      -0.455   6.377  23.968  1.00  0.00     0.134 A 
HETATM   15  O1  UNL     1       1.313   9.458  23.107  1.00  0.00    -0.277 OA
ENDROOT
BRANCH   1  16
HETATM   16  C4  UNL     1       0.953  11.840  23.659  1.00  0.00     0.090 C 
BRANCH  16  17
HETATM   17  C2  UNL     1      -0.279  12.719  23.556  1.00  0.00    -0.015 C 
HETATM   18  C1  UNL     1      -0.698  12.681  22.081  1.00  0.00     0.010 C 
HETATM   19  C3  UNL     1      -0.013  14.120  24.001  1.00  0.00     0.010 C 
ENDBRANCH  16  17
ENDBRANCH   1  16
BRANCH  14  20
HETATM   20  N5  UNL     1      -1.452   5.949  24.619  1.00  0.00    -0.383 N 
ATOM     21  H52 UNL     1      -1.426   6.064  25.632  1.00  0.00     0.157 HD
ATOM     22  H51 UNL     1      -2.246   5.510  24.153  1.00  0.00     0.157 HD
ENDBRANCH  14  20
TORSDOF 3
ENDMDL
MODEL 2
REMARK VINA RESULT: -6.652159614      2.459      3.048
REMARK  3 active torsions:
REMARK  status: ('A' for Active; 'I' for Inactive)
REMARK    1  A    between atoms: C2_2  and  C4_4 
REMARK    2  A    between atoms: C4_4  and  C5_5 
REMARK    3  A    between atoms: C9_18  and  N5_19 
ROOT
HETATM    1  C5  UNL     1      -2.320  10.969  24.237  1.00  0.00     0.141 A 
HETATM    2  N1  UNL     1      -2.822  10.913  25.424  1.00  0.00    -0.282 N 
ATOM      3  H1  UNL     1      -3.531  11.601  25.680  1.00  0.00     0.188 HD
HETATM    4  N2  UNL     1      -2.454   9.965  26.380  1.00  0.00    -0.292 N 
ATOM      5  H2  UNL     1      -2.882   9.965  27.305  1.00  0.00     0.187 HD
HETATM    6  C6  UNL     1      -1.474   9.006  26.037  1.00  0.00     0.143 A 
HETATM    7  C7  UNL     1      -0.953   9.087  24.764  1.00  0.00     0.183 A 
HETATM    8  N3  UNL     1      -0.022   8.201  24.393  1.00  0.00    -0.315 N 
ATOM      9  H3  UNL     1       0.374   8.248  23.454  1.00  0.00     0.170 HD
HETATM   10  C8  UNL     1       0.401   7.240  25.256  1.00  0.00     0.157 A 
HETATM   11 BR1  UNL     1       1.732   6.036  24.605  1.00  0.00    -0.010 Br
HETATM   12  N4  UNL     1      -0.080   7.129  26.497  1.00  0.00    -0.321 N 
ATOM     13  H4  UNL     1       0.250   6.401  27.130  1.00  0.00     0.169 HD
HETATM   14  C9  UNL     1      -1.029   8.027  26.884  1.00  0.00     0.134 A 
HETATM   15  O1  UNL     1      -1.357  10.050  23.858  1.00  0.00    -0.277 OA
ENDROOT
BRANCH   1  16
HETATM   16  C4  UNL     1      -2.749  12.002  23.256  1.00  0.00     0.090 C 
BRANCH  16  17
HETATM   17  C2  UNL     1      -1.650  12.241  22.239  1.00  0.00    -0.015 C 
HETATM   18  C1  UNL     1      -0.660  13.201  22.909  1.00  0.00     0.010 C 
HETATM   19  C3  UNL     1      -2.174  12.816  20.964  1.00  0.00     0.010 C 
ENDBRANCH  16  17
ENDBRANCH   1  16
BRANCH  14  20
HETATM   20  N5  UNL     1      -1.478   7.915  28.061  1.00  0.00    -0.383 N 
ATOM     21  H52 UNL     1      -2.008   8.704  28.431  1.00  0.00     0.157 HD
ATOM     22  H51 UNL     1      -1.319   7.074  28.616  1.00  0.00     0.157 HD
ENDBRANCH  14  20
TORSDOF 3
ENDMDL
MODEL 3
REMARK VINA RESULT: -6.393725666      3.392      5.561
REMARK  3 active torsions:
REMARK  status: ('A' for Active; 'I' for Inactive)
REMARK    1  A    between atoms: C2_2  and  C4_4 
REMARK    2  A    between atoms: C4_4  and  C5_5 
REMARK    3  A    between atoms: C9_18  and  N5_19 
ROOT
HETATM    1  C5  UNL     1       0.827   7.589  25.053  1.00  0.00     0.141 A 
HETATM    2  N1  UNL     1       0.309   7.512  26.232  1.00  0.00    -0.282 N 
ATOM      3  H1  UNL     1       0.701   6.836  26.887  1.00  0.00     0.188 HD
HETATM    4  N2  UNL     1      -0.758   8.300  26.665  1.00  0.00    -0.292 N 
ATOM      5  H2  UNL     1      -1.131   8.200  27.608  1.00  0.00     0.187 HD
HETATM    6  C6  UNL     1      -1.310   9.241  25.767  1.00  0.00     0.143 A 
HETATM    7  C7  UNL     1      -0.740   9.305  24.514  1.00  0.00     0.183 A 
HETATM    8  N3  UNL     1      -1.228  10.180  23.628  1.00  0.00    -0.315 N 
ATOM      9  H3  UNL     1      -0.817  10.238  22.697  1.00  0.00     0.170 HD
HETATM   10  C8  UNL     1      -2.267  10.992  23.958  1.00  0.00     0.157 A 
HETATM   11 BR1  UNL     1      -2.871  12.197  22.607  1.00  0.00    -0.010 Br
HETATM   12  N4  UNL     1      -2.846  10.960  25.162  1.00  0.00    -0.321 N 
ATOM     13  H4  UNL     1      -3.625  11.577  25.391  1.00  0.00     0.169 HD
HETATM   14  C9  UNL     1      -2.355  10.072  26.071  1.00  0.00     0.134 A 
HETATM   15  O1  UNL     1       0.318   8.496  24.140  1.00  0.00    -0.277 OA
ENDROOT
BRANCH   1  16
HETATM   16  C4  UNL     1       1.965   6.723  24.642  1.00  0.00     0.090 C 
BRANCH  16  17
HETATM   17  C2  UNL     1       1.744   6.207  23.234  1.00  0.00    -0.015 C 
HETATM   18  C1  UNL     1       0.724   5.068  23.360  1.00  0.00     0.010 C 
HETATM   19  C3  UNL     1       3.009   5.725  22.602  1.00  0.00     0.010 C 
ENDBRANCH  16  17
ENDBRANCH   1  16
BRANCH  14  20
HETATM   20  N5  UNL     1      -2.910  10.049  27.207  1.00  0.00    -0.383 N 
ATOM     21  H52 UNL     1      -3.914   9.870  27.228  1.00  0.00     0.157 HD
ATOM     22  H51 UNL     1      -2.379  10.200  28.065  1.00  0.00     0.157 HD
ENDBRANCH  14  20
TORSDOF 3
ENDMDL
MODEL 4
REMARK VINA RESULT: -6.325465580      3.275      4.676
REMARK  3 active torsions:
REMARK  status: ('A' for Active; 'I' for Inactive)
REMARK    1  A    between atoms: C2_2  and  C4_4 
REMARK    2  A    between atoms: C4_4  and  C5_5 
REMARK    3  A    between atoms: C9_18  and  N5_19 
ROOT
HETATM    1  C5  UNL     1       0.044   6.436  24.271  1.00  0.00     0.141 A 
HETATM    2  N1  UNL     1       0.080   6.960  23.092  1.00  0.00    -0.282 N 
ATOM      3  H1  UNL     1      -0.714   7.528  22.795  1.00  0.00     0.188 HD
HETATM    4  N2  UNL     1       1.139   6.796  22.200  1.00  0.00    -0.292 N 
ATOM      5  H2  UNL     1       1.118   7.232  21.279  1.00  0.00     0.187 HD
HETATM    6  C6  UNL     1       2.245   6.012  22.602  1.00  0.00     0.143 A 
HETATM    7  C7  UNL     1       2.184   5.464  23.864  1.00  0.00     0.183 A 
HETATM    8  N3  UNL     1       3.206   4.713  24.289  1.00  0.00    -0.315 N 
ATOM      9  H3  UNL     1       3.176   4.299  25.221  1.00  0.00     0.170 HD
HETATM   10  C8  UNL     1       4.284   4.497  23.491  1.00  0.00     0.157 A 
HETATM   11 BR1  UNL     1       5.677   3.409  24.214  1.00  0.00    -0.010 Br
HETATM   12  N4  UNL     1       4.380   5.011  22.261  1.00  0.00    -0.321 N 
ATOM     13  H4  UNL     1       5.197   4.837  21.677  1.00  0.00     0.169 HD
HETATM   14  C9  UNL     1       3.344   5.777  21.820  1.00  0.00     0.134 A 
HETATM   15  O1  UNL     1       1.105   5.660  24.706  1.00  0.00    -0.277 OA
ENDROOT
BRANCH   1  16
HETATM   16  C4  UNL     1      -1.113   6.642  25.183  1.00  0.00     0.090 C 
BRANCH  16  17
HETATM   17  C2  UNL     1      -0.811   7.761  26.161  1.00  0.00    -0.015 C 
HETATM   18  C1  UNL     1      -1.445   7.338  27.491  1.00  0.00     0.010 C 
HETATM   19  C3  UNL     1      -1.355   9.075  25.703  1.00  0.00     0.010 C 
ENDBRANCH  16  17
ENDBRANCH   1  16
BRANCH  14  20
HETATM   20  N5  UNL     1       3.443   6.259  20.655  1.00  0.00    -0.383 N 
ATOM     21  H52 UNL     1       2.662   6.098  20.019  1.00  0.00     0.157 HD
ATOM     22  H51 UNL     1       4.266   6.787  20.363  1.00  0.00     0.157 HD
ENDBRANCH  14  20
TORSDOF 3
ENDMDL
MODEL 5
REMARK VINA RESULT: -6.323443397      2.941      5.547
REMARK  3 active torsions:
REMARK  status: ('A' for Active; 'I' for Inactive)
REMARK    1  A    between atoms: C2_2  and  C4_4 
REMARK    2  A    between atoms: C4_4  and  C5_5 
REMARK    3  A    between atoms: C9_18  and  N5_19 
ROOT
HETATM    1  C5  UNL     1       0.531   7.294  24.393  1.00  0.00     0.141 A 
HETATM    2  N1  UNL     1      -0.724   6.995  24.410  1.00  0.00    -0.282 N 
ATOM      3  H1  UNL     1      -0.982   6.012  24.500  1.00  0.00     0.188 HD
HETATM    4  N2  UNL     1      -1.750   7.935  24.312  1.00  0.00    -0.292 N 
ATOM      5  H2  UNL     1      -2.727   7.645  24.329  1.00  0.00     0.187 HD
HETATM    6  C6  UNL     1      -1.404   9.300  24.187  1.00  0.00     0.143 A 
HETATM    7  C7  UNL     1      -0.059   9.595  24.172  1.00  0.00     0.183 A 
HETATM    8  N3  UNL     1       0.319  10.873  24.055  1.00  0.00    -0.315 N 
ATOM      9  H3  UNL     1       1.311  11.108  24.042  1.00  0.00     0.170 HD
HETATM   10  C8  UNL     1      -0.609  11.862  23.954  1.00  0.00     0.157 A 
HETATM   11 BR1  UNL     1       0.057  13.643  23.794  1.00  0.00    -0.010 Br
HETATM   12  N4  UNL     1      -1.922  11.615  23.965  1.00  0.00    -0.321 N 
ATOM     13  H4  UNL     1      -2.603  12.370  23.888  1.00  0.00     0.169 HD
HETATM   14  C9  UNL     1      -2.316  10.317  24.084  1.00  0.00     0.134 A 
HETATM   15  O1  UNL     1       0.915   8.619  24.272  1.00  0.00    -0.277 OA
ENDROOT
BRANCH   1  16
HETATM   16  C4  UNL     1       1.585   6.250  24.500  1.00  0.00     0.090 C 
BRANCH  16  17
HETATM   17  C2  UNL     1       2.390   6.190  23.216  1.00  0.00    -0.015 C 
HETATM   18  C1  UNL     1       1.438   5.635  22.150  1.00  0.00     0.010 C 
HETATM   19  C3  UNL     1       3.604   5.330  23.350  1.00  0.00     0.010 C 
ENDBRANCH  16  17
ENDBRANCH   1  16
BRANCH  14  20
HETATM   20  N5  UNL     1      -3.560  10.093  24.093  1.00  0.00    -0.383 N 
ATOM     21  H52 UNL     1      -4.044  10.132  23.195  1.00  0.00     0.157 HD
ATOM     22  H51 UNL     1      -4.059   9.883  24.957  1.00  0.00     0.157 HD
ENDBRANCH  14  20
TORSDOF 3
ENDMDL
