MODEL 1
REMARK VINA RESULT: -9.393946120      0.000      0.000
REMARK  6 active torsions:
REMARK  status: ('A' for Active; 'I' for Inactive)
REMARK    1  A    between atoms: C1_2  and  C2_4 
REMARK    2  A    between atoms: C5_8  and  N2_9 
REMARK       I    between atoms: N2_9  and  C6_11 
REMARK    3  A    between atoms: C6_11  and  C7_13 
REMARK    4  A    between atoms: C7_13  and  N3_14 
REMARK       I    between atoms: N3_14  and  C8_16 
REMARK    5  A    between atoms: C8_16  and  C9_18 
REMARK    6  A    between atoms: C10_22  and  C11_23 
ROOT
HETATM    1  N3  UNL     1     -39.443  -7.521  23.663  1.00  0.00    -0.347 N 
ATOM      2  H3  UNL     1     -40.024  -7.634  24.494  1.00  0.00     0.163 HD
HETATM    3  C8  UNL     1     -38.984  -8.652  22.980  1.00  0.00     0.272 C 
HETATM    4  O3  UNL     1     -38.256  -8.584  21.935  1.00  0.00    -0.266 OA
ENDROOT
BRANCH   1   5
HETATM    5  C7  UNL     1     -39.103  -6.200  23.205  1.00  0.00     0.226 C 
BRANCH   5   6
HETATM    6  C6  UNL     1     -38.533  -5.329  24.242  1.00  0.00     0.240 C 
HETATM    7  N2  UNL     1     -39.206  -5.183  25.486  1.00  0.00    -0.319 N 
ATOM      8  H2  UNL     1     -40.079  -5.683  25.658  1.00  0.00     0.169 HD
HETATM    9  O2  UNL     1     -37.466  -4.709  24.064  1.00  0.00    -0.271 OA
BRANCH   7  10
HETATM   10  C5  UNL     1     -38.649  -4.323  26.505  1.00  0.00     0.091 A 
HETATM   11  C2  UNL     1     -37.857  -4.578  27.579  1.00  0.00     0.063 A 
HETATM   12  C3  UNL     1     -37.507  -3.536  28.352  1.00  0.00     0.026 A 
HETATM   13  C4  UNL     1     -37.972  -2.301  28.004  1.00  0.00     0.053 A 
HETATM   14  S1  UNL     1     -38.885  -2.608  26.610  1.00  0.00    -0.083 SA
BRANCH  11  15
HETATM   15  C1  UNL     1     -37.399  -5.964  27.883  1.00  0.00     0.267 C 
HETATM   16  N1  UNL     1     -36.629  -6.707  26.922  1.00  0.00    -0.057 NA
HETATM   17  O1  UNL     1     -37.640  -6.552  28.945  1.00  0.00    -0.271 OA
ENDBRANCH  11  15
ENDBRANCH   7  10
ENDBRANCH   5   6
ENDBRANCH   1   5
BRANCH   3  18
HETATM   18  C9  UNL     1     -39.301 -10.024  23.405  1.00  0.00     0.146 A 
HETATM   19  N4  UNL     1     -40.458 -10.679  23.194  1.00  0.00    -0.254 N 
HETATM   20  O4  UNL     1     -40.413 -11.869  23.694  1.00  0.00    -0.240 OA
ATOM     21  H4  UNL     1     -41.262 -10.287  22.704  1.00  0.00     0.195 HD
HETATM   22  C10 UNL     1     -39.238 -12.079  24.264  1.00  0.00     0.104 A 
HETATM   23  C16 UNL     1     -38.525 -10.930  24.092  1.00  0.00     0.100 A 
HETATM   24 CL1  UNL     1     -36.898 -10.595  24.628  1.00  0.00    -0.079 Cl
BRANCH  22  25
HETATM   25  C11 UNL     1     -38.772 -13.298  24.951  1.00  0.00     0.047 C 
HETATM   26  C12 UNL     1     -39.676 -14.466  24.780  1.00  0.00     0.011 C 
HETATM   27  C13 UNL     1     -38.799 -15.636  25.184  1.00  0.00     0.001 C 
HETATM   28  C14 UNL     1     -37.379 -15.188  25.001  1.00  0.00     0.001 C 
HETATM   29  C15 UNL     1     -37.457 -13.802  24.394  1.00  0.00     0.011 C 
ENDBRANCH  22  25
ENDBRANCH   3  18
TORSDOF 6
ENDMDL
MODEL 2
REMARK VINA RESULT: -9.285604418      1.507      1.691
REMARK  6 active torsions:
REMARK  status: ('A' for Active; 'I' for Inactive)
REMARK    1  A    between atoms: C1_2  and  C2_4 
REMARK    2  A    between atoms: C5_8  and  N2_9 
REMARK       I    between atoms: N2_9  and  C6_11 
REMARK    3  A    between atoms: C6_11  and  C7_13 
REMARK    4  A    between atoms: C7_13  and  N3_14 
REMARK       I    between atoms: N3_14  and  C8_16 
REMARK    5  A    between atoms: C8_16  and  C9_18 
REMARK    6  A    between atoms: C10_22  and  C11_23 
ROOT
HETATM    1  N3  UNL     1     -38.969  -7.821  23.796  1.00  0.00    -0.347 N 
ATOM      2  H3  UNL     1     -39.750  -8.309  24.234  1.00  0.00     0.163 HD
HETATM    3  C8  UNL     1     -37.763  -8.495  23.580  1.00  0.00     0.272 C 
HETATM    4  O3  UNL     1     -36.748  -7.947  23.036  1.00  0.00    -0.266 OA
ENDROOT
BRANCH   1   5
HETATM    5  C7  UNL     1     -39.119  -6.444  23.406  1.00  0.00     0.226 C 
BRANCH   5   6
HETATM    6  C6  UNL     1     -38.569  -5.480  24.369  1.00  0.00     0.240 C 
HETATM    7  N2  UNL     1     -39.201  -5.309  25.631  1.00  0.00    -0.319 N 
ATOM      8  H2  UNL     1     -40.029  -5.855  25.868  1.00  0.00     0.169 HD
HETATM    9  O2  UNL     1     -37.555  -4.801  24.112  1.00  0.00    -0.271 OA
BRANCH   7  10
HETATM   10  C5  UNL     1     -38.664  -4.358  26.578  1.00  0.00     0.091 A 
HETATM   11  C2  UNL     1     -37.851  -4.506  27.656  1.00  0.00     0.063 A 
HETATM   12  C3  UNL     1     -37.531  -3.399  28.347  1.00  0.00     0.026 A 
HETATM   13  C4  UNL     1     -38.043  -2.209  27.917  1.00  0.00     0.053 A 
HETATM   14  S1  UNL     1     -38.960  -2.649  26.561  1.00  0.00    -0.083 SA
BRANCH  11  15
HETATM   15  C1  UNL     1     -37.340  -5.849  28.053  1.00  0.00     0.267 C 
HETATM   16  N1  UNL     1     -36.566  -6.638  27.134  1.00  0.00    -0.057 NA
HETATM   17  O1  UNL     1     -37.538  -6.362  29.162  1.00  0.00    -0.271 OA
ENDBRANCH  11  15
ENDBRANCH   7  10
ENDBRANCH   5   6
ENDBRANCH   1   5
BRANCH   3  18
HETATM   18  C9  UNL     1     -37.556  -9.902  23.960  1.00  0.00     0.146 A 
HETATM   19  N4  UNL     1     -36.510 -10.399  24.644  1.00  0.00    -0.254 N 
HETATM   20  O4  UNL     1     -36.631 -11.673  24.814  1.00  0.00    -0.240 OA
ATOM     21  H4  UNL     1     -35.725  -9.842  24.985  1.00  0.00     0.195 HD
HETATM   22  C10 UNL     1     -37.753 -12.101  24.257  1.00  0.00     0.104 A 
HETATM   23  C16 UNL     1     -38.348 -11.001  23.715  1.00  0.00     0.100 A 
HETATM   24 CL1  UNL     1     -39.859 -10.926  22.845  1.00  0.00    -0.079 Cl
BRANCH  22  25
HETATM   25  C11 UNL     1     -38.274 -13.480  24.218  1.00  0.00     0.047 C 
HETATM   26  C12 UNL     1     -37.383 -14.477  24.868  1.00  0.00     0.011 C 
HETATM   27  C13 UNL     1     -38.299 -15.668  25.074  1.00  0.00     0.001 C 
HETATM   28  C14 UNL     1     -39.700 -15.132  25.085  1.00  0.00     0.001 C 
HETATM   29  C15 UNL     1     -39.568 -13.626  24.991  1.00  0.00     0.011 C 
ENDBRANCH  22  25
ENDBRANCH   3  18
TORSDOF 6
ENDMDL
MODEL 3
REMARK VINA RESULT: -9.237600507      1.798      2.444
REMARK  6 active torsions:
REMARK  status: ('A' for Active; 'I' for Inactive)
REMARK    1  A    between atoms: C1_2  and  C2_4 
REMARK    2  A    between atoms: C5_8  and  N2_9 
REMARK       I    between atoms: N2_9  and  C6_11 
REMARK    3  A    between atoms: C6_11  and  C7_13 
REMARK    4  A    between atoms: C7_13  and  N3_14 
REMARK       I    between atoms: N3_14  and  C8_16 
REMARK    5  A    between atoms: C8_16  and  C9_18 
REMARK    6  A    between atoms: C10_22  and  C11_23 
ROOT
HETATM    1  N3  UNL     1     -39.272  -7.286  23.534  1.00  0.00    -0.347 N 
ATOM      2  H3  UNL     1     -39.940  -7.450  24.287  1.00  0.00     0.163 HD
HETATM    3  C8  UNL     1     -38.728  -8.374  22.843  1.00  0.00     0.272 C 
HETATM    4  O3  UNL     1     -37.889  -8.243  21.890  1.00  0.00    -0.266 OA
ENDROOT
BRANCH   1   5
HETATM    5  C7  UNL     1     -38.898  -5.939  23.192  1.00  0.00     0.226 C 
BRANCH   5   6
HETATM    6  C6  UNL     1     -38.705  -5.054  24.348  1.00  0.00     0.240 C 
HETATM    7  N2  UNL     1     -38.683  -3.645  24.158  1.00  0.00    -0.319 N 
ATOM      8  H2  UNL     1     -38.804  -3.251  23.225  1.00  0.00     0.169 HD
HETATM    9  O2  UNL     1     -38.558  -5.504  25.501  1.00  0.00    -0.271 OA
BRANCH   7  10
HETATM   10  C5  UNL     1     -38.488  -2.773  25.294  1.00  0.00     0.091 A 
HETATM   11  C2  UNL     1     -39.363  -2.130  26.109  1.00  0.00     0.063 A 
HETATM   12  C3  UNL     1     -38.850  -1.374  27.096  1.00  0.00     0.026 A 
HETATM   13  C4  UNL     1     -37.492  -1.307  27.206  1.00  0.00     0.053 A 
HETATM   14  S1  UNL     1     -36.950  -2.294  25.939  1.00  0.00    -0.083 SA
BRANCH  11  15
HETATM   15  C1  UNL     1     -40.835  -2.260  25.911  1.00  0.00     0.267 C 
HETATM   16  N1  UNL     1     -41.406  -2.165  24.594  1.00  0.00    -0.057 NA
HETATM   17  O1  UNL     1     -41.641  -2.454  26.830  1.00  0.00    -0.271 OA
ENDBRANCH  11  15
ENDBRANCH   7  10
ENDBRANCH   5   6
ENDBRANCH   1   5
BRANCH   3  18
HETATM   18  C9  UNL     1     -39.074  -9.770  23.152  1.00  0.00     0.146 A 
HETATM   19  N4  UNL     1     -40.085 -10.479  22.618  1.00  0.00    -0.254 N 
HETATM   20  O4  UNL     1     -40.117 -11.676  23.102  1.00  0.00    -0.240 OA
ATOM     21  H4  UNL     1     -40.739 -10.119  21.923  1.00  0.00     0.195 HD
HETATM   22  C10 UNL     1     -39.141 -11.837  23.980  1.00  0.00     0.104 A 
HETATM   23  C16 UNL     1     -38.474 -10.649  24.025  1.00  0.00     0.100 A 
HETATM   24 CL1  UNL     1     -37.087 -10.241  25.001  1.00  0.00    -0.079 Cl
BRANCH  22  25
HETATM   25  C11 UNL     1     -38.820 -13.045  24.763  1.00  0.00     0.047 C 
HETATM   26  C12 UNL     1     -39.810 -14.142  24.607  1.00  0.00     0.011 C 
HETATM   27  C13 UNL     1     -39.061 -15.353  25.130  1.00  0.00     0.001 C 
HETATM   28  C14 UNL     1     -37.600 -15.037  25.006  1.00  0.00     0.001 C 
HETATM   29  C15 UNL     1     -37.525 -13.690  24.317  1.00  0.00     0.011 C 
ENDBRANCH  22  25
ENDBRANCH   3  18
TORSDOF 6
ENDMDL
MODEL 4
REMARK VINA RESULT: -9.093592950      1.107      1.158
REMARK  6 active torsions:
REMARK  status: ('A' for Active; 'I' for Inactive)
REMARK    1  A    between atoms: C1_2  and  C2_4 
REMARK    2  A    between atoms: C5_8  and  N2_9 
REMARK       I    between atoms: N2_9  and  C6_11 
REMARK    3  A    between atoms: C6_11  and  C7_13 
REMARK    4  A    between atoms: C7_13  and  N3_14 
REMARK       I    between atoms: N3_14  and  C8_16 
REMARK    5  A    between atoms: C8_16  and  C9_18 
REMARK    6  A    between atoms: C10_22  and  C11_23 
ROOT
HETATM    1  N3  UNL     1     -38.658  -7.330  23.789  1.00  0.00    -0.347 N 
ATOM      2  H3  UNL     1     -39.106  -7.489  24.691  1.00  0.00     0.163 HD
HETATM    3  C8  UNL     1     -38.474  -8.401  22.908  1.00  0.00     0.272 C 
HETATM    4  O3  UNL     1     -37.923  -8.274  21.764  1.00  0.00    -0.266 OA
ENDROOT
BRANCH   1   5
HETATM    5  C7  UNL     1     -38.220  -6.006  23.434  1.00  0.00     0.226 C 
BRANCH   5   6
HETATM    6  C6  UNL     1     -38.459  -4.992  24.470  1.00  0.00     0.240 C 
HETATM    7  N2  UNL     1     -37.355  -4.394  25.137  1.00  0.00    -0.319 N 
ATOM      8  H2  UNL     1     -36.402  -4.665  24.894  1.00  0.00     0.169 HD
HETATM    9  O2  UNL     1     -39.611  -4.636  24.785  1.00  0.00    -0.271 OA
BRANCH   7  10
HETATM   10  C5  UNL     1     -37.589  -3.400  26.159  1.00  0.00     0.091 A 
HETATM   11  C2  UNL     1     -37.709  -3.493  27.509  1.00  0.00     0.063 A 
HETATM   12  C3  UNL     1     -37.933  -2.356  28.191  1.00  0.00     0.026 A 
HETATM   13  C4  UNL     1     -38.025  -1.195  27.479  1.00  0.00     0.053 A 
HETATM   14  S1  UNL     1     -37.798  -1.701  25.878  1.00  0.00    -0.083 SA
BRANCH  11  15
HETATM   15  C1  UNL     1     -37.596  -4.808  28.201  1.00  0.00     0.267 C 
HETATM   16  N1  UNL     1     -36.685  -4.980  29.301  1.00  0.00    -0.057 NA
HETATM   17  O1  UNL     1     -38.254  -5.810  27.890  1.00  0.00    -0.271 OA
ENDBRANCH  11  15
ENDBRANCH   7  10
ENDBRANCH   5   6
ENDBRANCH   1   5
BRANCH   3  18
HETATM   18  C9  UNL     1     -38.902  -9.773  23.220  1.00  0.00     0.146 A 
HETATM   19  N4  UNL     1     -39.973 -10.411  22.713  1.00  0.00    -0.254 N 
HETATM   20  O4  UNL     1     -40.069 -11.607  23.192  1.00  0.00    -0.240 OA
ATOM     21  H4  UNL     1     -40.622 -10.005  22.040  1.00  0.00     0.195 HD
HETATM   22  C10 UNL     1     -39.080 -11.837  24.040  1.00  0.00     0.104 A 
HETATM   23  C16 UNL     1     -38.336 -10.696  24.071  1.00  0.00     0.100 A 
HETATM   24 CL1  UNL     1     -36.896 -10.386  25.008  1.00  0.00    -0.079 Cl
BRANCH  22  25
HETATM   25  C11 UNL     1     -38.815 -13.069  24.808  1.00  0.00     0.047 C 
HETATM   26  C12 UNL     1     -39.841 -14.128  24.614  1.00  0.00     0.011 C 
HETATM   27  C13 UNL     1     -39.144 -15.373  25.129  1.00  0.00     0.001 C 
HETATM   28  C14 UNL     1     -37.671 -15.106  25.038  1.00  0.00     0.001 C 
HETATM   29  C15 UNL     1     -37.536 -13.752  24.373  1.00  0.00     0.011 C 
ENDBRANCH  22  25
ENDBRANCH   3  18
TORSDOF 6
ENDMDL
MODEL 5
REMARK VINA RESULT: -9.048928660      2.098      2.915
REMARK  6 active torsions:
REMARK  status: ('A' for Active; 'I' for Inactive)
REMARK    1  A    between atoms: C1_2  and  C2_4 
REMARK    2  A    between atoms: C5_8  and  N2_9 
REMARK       I    between atoms: N2_9  and  C6_11 
REMARK    3  A    between atoms: C6_11  and  C7_13 
REMARK    4  A    between atoms: C7_13  and  N3_14 
REMARK       I    between atoms: N3_14  and  C8_16 
REMARK    5  A    between atoms: C8_16  and  C9_18 
REMARK    6  A    between atoms: C10_22  and  C11_23 
ROOT
HETATM    1  N3  UNL     1     -38.641  -7.673  23.871  1.00  0.00    -0.347 N 
ATOM      2  H3  UNL     1     -38.684  -7.784  24.883  1.00  0.00     0.163 HD
HETATM    3  C8  UNL     1     -38.261  -8.756  23.071  1.00  0.00     0.272 C 
HETATM    4  O3  UNL     1     -38.187  -8.689  21.799  1.00  0.00    -0.266 OA
ENDROOT
BRANCH   1   5
HETATM    5  C7  UNL     1     -38.970  -6.404  23.277  1.00  0.00     0.226 C 
BRANCH   5   6
HETATM    6  C6  UNL     1     -38.657  -5.243  24.120  1.00  0.00     0.240 C 
HETATM    7  N2  UNL     1     -39.364  -5.048  25.339  1.00  0.00    -0.319 N 
ATOM      8  H2  UNL     1     -40.082  -5.712  25.627  1.00  0.00     0.169 HD
HETATM    9  O2  UNL     1     -37.782  -4.416  23.798  1.00  0.00    -0.271 OA
BRANCH   7  10
HETATM   10  C5  UNL     1     -39.059  -3.903  26.167  1.00  0.00     0.091 A 
HETATM   11  C2  UNL     1     -39.596  -2.657  26.232  1.00  0.00     0.063 A 
HETATM   12  C3  UNL     1     -39.074  -1.803  27.129  1.00  0.00     0.026 A 
HETATM   13  C4  UNL     1     -38.044  -2.248  27.907  1.00  0.00     0.053 A 
HETATM   14  S1  UNL     1     -37.820  -3.843  27.380  1.00  0.00    -0.083 SA
BRANCH  11  15
HETATM   15  C1  UNL     1     -40.720  -2.259  25.338  1.00  0.00     0.267 C 
HETATM   16  N1  UNL     1     -41.902  -1.643  25.879  1.00  0.00    -0.057 NA
HETATM   17  O1  UNL     1     -40.717  -2.423  24.111  1.00  0.00    -0.271 OA
ENDBRANCH  11  15
ENDBRANCH   7  10
ENDBRANCH   5   6
ENDBRANCH   1   5
BRANCH   3  18
HETATM   18  C9  UNL     1     -37.913 -10.074  23.626  1.00  0.00     0.146 A 
HETATM   19  N4  UNL     1     -36.775 -10.395  24.269  1.00  0.00    -0.254 N 
HETATM   20  O4  UNL     1     -36.782 -11.635  24.629  1.00  0.00    -0.240 OA
ATOM     21  H4  UNL     1     -36.010  -9.745  24.448  1.00  0.00     0.195 HD
HETATM   22  C10 UNL     1     -37.911 -12.212  24.252  1.00  0.00     0.104 A 
HETATM   23  C16 UNL     1     -38.635 -11.246  23.620  1.00  0.00     0.100 A 
HETATM   24 CL1  UNL     1     -40.217 -11.398  22.899  1.00  0.00    -0.079 Cl
BRANCH  22  25
HETATM   25  C11 UNL     1     -38.325 -13.612  24.462  1.00  0.00     0.047 C 
HETATM   26  C12 UNL     1     -37.217 -14.508  24.887  1.00  0.00     0.011 C 
HETATM   27  C13 UNL     1     -37.950 -15.719  25.433  1.00  0.00     0.001 C 
HETATM   28  C14 UNL     1     -39.321 -15.248  25.820  1.00  0.00     0.001 C 
HETATM   29  C15 UNL     1     -39.326 -13.751  25.589  1.00  0.00     0.011 C 
ENDBRANCH  22  25
ENDBRANCH   3  18
TORSDOF 6
ENDMDL
