MODEL 1
REMARK VINA RESULT: -9.178200254      0.000      0.000
REMARK  6 active torsions:
REMARK  status: ('A' for Active; 'I' for Inactive)
REMARK    1  A    between atoms: C2_2  and  C3_3 
REMARK    2  A    between atoms: C3_3  and  O1_4 
REMARK    3  A    between atoms: C3_3  and  C4_6 
REMARK    4  A    between atoms: C4_6  and  N1_7 
REMARK    5  A    between atoms: C8_17  and  C9_18 
REMARK    6  A    between atoms: C11_22  and  N5_23 
ROOT
HETATM    1  C9  UNL     1      -0.374  34.706  23.458  1.00  0.00     0.123 A 
HETATM    2  N4  UNL     1       0.783  35.347  23.219  1.00  0.00    -0.336 N 
ATOM      3  H4  UNL     1       1.595  35.330  23.836  1.00  0.00     0.168 HD
HETATM    4  C10 UNL     1       0.721  36.009  22.060  1.00  0.00     0.123 A 
HETATM    5  C11 UNL     1       1.590  36.805  21.352  1.00  0.00     0.135 A 
HETATM    6  N6  UNL     1       1.229  37.336  20.197  1.00  0.00    -0.337 N 
ATOM      7  H6  UNL     1       1.883  37.926  19.681  1.00  0.00     0.168 HD
HETATM    8  C19 UNL     1      -0.003  37.101  19.699  1.00  0.00     0.183 A 
HETATM    9  N7  UNL     1      -0.894  36.333  20.345  1.00  0.00    -0.337 N 
ATOM     10  H7  UNL     1      -1.822  36.164  19.958  1.00  0.00     0.168 HD
HETATM   11  C20 UNL     1      -0.526  35.793  21.519  1.00  0.00     0.139 A 
HETATM   12  N8  UNL     1      -1.166  34.988  22.409  1.00  0.00    -0.326 N 
ATOM     13  H8  UNL     1      -2.120  34.645  22.295  1.00  0.00     0.169 HD
ENDROOT
BRANCH   1  14
HETATM   14  C8  UNL     1      -0.736  33.872  24.599  1.00  0.00     0.067 A 
HETATM   15  C5  UNL     1       0.218  33.101  25.237  1.00  0.00     0.118 A 
HETATM   16  N1  UNL     1       1.408  33.144  24.797  1.00  0.00    -0.373 N 
HETATM   17  N2  UNL     1      -0.092  32.318  26.298  1.00  0.00    -0.318 N 
ATOM     18  H1  UNL     1       1.576  33.752  23.995  1.00  0.00     0.161 HD
HETATM   19  C6  UNL     1      -1.354  32.285  26.748  1.00  0.00     0.180 A 
ATOM     20  H2  UNL     1       0.631  31.758  26.752  1.00  0.00     0.170 HD
HETATM   21 CL1  UNL     1      -1.826  31.294  28.118  1.00  0.00    -0.045 Cl
HETATM   22  N3  UNL     1      -2.284  33.034  26.129  1.00  0.00    -0.342 N 
HETATM   23  C7  UNL     1      -2.026  33.819  25.082  1.00  0.00     0.109 A 
ATOM     24  H3  UNL     1      -3.240  33.001  26.480  1.00  0.00     0.167 HD
BRANCH  16  25
HETATM   25  C4  UNL     1       2.538  32.432  25.306  1.00  0.00     0.153 C 
BRANCH  25  26
HETATM   26  C3  UNL     1       3.213  31.567  24.276  1.00  0.00     0.135 C 
BRANCH  26  27
HETATM   27  C2  UNL     1       4.014  30.503  25.037  1.00  0.00     0.029 C 
HETATM   28  C1  UNL     1       4.560  29.461  24.087  1.00  0.00     0.007 C 
ENDBRANCH  26  27
BRANCH  26  29
HETATM   29  O1  UNL     1       4.148  32.275  23.520  1.00  0.00    -0.394 OA
ATOM     30  H1  UNL     1       3.972  33.193  23.689  1.00  0.00     0.210 HD
ENDBRANCH  26  29
ENDBRANCH  25  26
ENDBRANCH  16  25
ENDBRANCH   1  14
BRANCH   5  31
HETATM   31  N5  UNL     1       2.878  37.043  21.889  1.00  0.00    -0.365 N 
HETATM   32  C12 UNL     1       2.836  38.205  22.743  1.00  0.00     0.124 C 
HETATM   33  C13 UNL     1       3.786  39.308  22.337  1.00  0.00     0.020 C 
HETATM   34  C14 UNL     1       5.203  38.892  22.353  1.00  0.00     0.002 C 
HETATM   35  C15 UNL     1       5.776  38.433  21.065  1.00  0.00     0.000 C 
HETATM   36  C16 UNL     1       4.792  37.965  20.046  1.00  0.00     0.002 C 
HETATM   37  C17 UNL     1       4.462  36.493  20.177  1.00  0.00     0.020 C 
HETATM   38  C18 UNL     1       3.878  36.112  21.490  1.00  0.00     0.124 C 
ENDBRANCH   5  31
TORSDOF 6
ENDMDL
MODEL 2
REMARK VINA RESULT: -9.058959821      1.463      2.301
REMARK  6 active torsions:
REMARK  status: ('A' for Active; 'I' for Inactive)
REMARK    1  A    between atoms: C2_2  and  C3_3 
REMARK    2  A    between atoms: C3_3  and  O1_4 
REMARK    3  A    between atoms: C3_3  and  C4_6 
REMARK    4  A    between atoms: C4_6  and  N1_7 
REMARK    5  A    between atoms: C8_17  and  C9_18 
REMARK    6  A    between atoms: C11_22  and  N5_23 
ROOT
HETATM    1  C9  UNL     1      -0.474  34.541  23.879  1.00  0.00     0.123 A 
HETATM    2  N4  UNL     1       0.579  35.378  23.853  1.00  0.00    -0.336 N 
ATOM      3  H4  UNL     1       1.235  35.510  24.623  1.00  0.00     0.168 HD
HETATM    4  C10 UNL     1       0.646  36.010  22.677  1.00  0.00     0.123 A 
HETATM    5  C11 UNL     1       1.491  36.943  22.128  1.00  0.00     0.135 A 
HETATM    6  N6  UNL     1       1.293  37.394  20.901  1.00  0.00    -0.337 N 
ATOM      7  H6  UNL     1       1.928  38.087  20.504  1.00  0.00     0.168 HD
HETATM    8  C19 UNL     1       0.252  36.938  20.172  1.00  0.00     0.183 A 
HETATM    9  N7  UNL     1      -0.607  36.027  20.657  1.00  0.00    -0.337 N 
ATOM     10  H7  UNL     1      -1.390  35.692  20.096  1.00  0.00     0.168 HD
HETATM   11  C20 UNL     1      -0.404  35.571  21.904  1.00  0.00     0.139 A 
HETATM   12  N8  UNL     1      -1.066  34.670  22.679  1.00  0.00    -0.326 N 
ATOM     13  H8  UNL     1      -1.900  34.161  22.388  1.00  0.00     0.169 HD
ENDROOT
BRANCH   1  14
HETATM   14  C8  UNL     1      -0.914  33.664  24.957  1.00  0.00     0.067 A 
HETATM   15  C5  UNL     1       0.000  32.910  25.669  1.00  0.00     0.118 A 
HETATM   16  N1  UNL     1       1.225  33.006  25.351  1.00  0.00    -0.373 N 
HETATM   17  N2  UNL     1      -0.383  32.087  26.675  1.00  0.00    -0.318 N 
ATOM     18  H1  UNL     1       1.448  33.641  24.585  1.00  0.00     0.161 HD
HETATM   19  C6  UNL     1      -1.682  31.997  26.995  1.00  0.00     0.180 A 
ATOM     20  H2  UNL     1       0.311  31.540  27.185  1.00  0.00     0.170 HD
HETATM   21 CL1  UNL     1      -2.249  30.953  28.287  1.00  0.00    -0.045 Cl
HETATM   22  N3  UNL     1      -2.573  32.731  26.305  1.00  0.00    -0.342 N 
HETATM   23  C7  UNL     1      -2.243  33.552  25.308  1.00  0.00     0.109 A 
ATOM     24  H3  UNL     1      -3.558  32.654  26.558  1.00  0.00     0.167 HD
BRANCH  16  25
HETATM   25  C4  UNL     1       2.325  32.320  25.953  1.00  0.00     0.153 C 
BRANCH  25  26
HETATM   26  C3  UNL     1       3.350  31.845  24.958  1.00  0.00     0.135 C 
BRANCH  26  27
HETATM   27  C2  UNL     1       3.229  30.318  24.881  1.00  0.00     0.029 C 
HETATM   28  C1  UNL     1       4.563  29.690  24.547  1.00  0.00     0.007 C 
ENDBRANCH  26  27
BRANCH  26  29
HETATM   29  O1  UNL     1       4.655  32.100  25.379  1.00  0.00    -0.394 OA
ATOM     30  H1  UNL     1       4.868  31.405  25.989  1.00  0.00     0.210 HD
ENDBRANCH  26  29
ENDBRANCH  25  26
ENDBRANCH  16  25
ENDBRANCH   1  14
BRANCH   5  31
HETATM   31  N5  UNL     1       2.578  37.412  22.905  1.00  0.00    -0.365 N 
HETATM   32  C12 UNL     1       3.501  36.329  23.145  1.00  0.00     0.124 C 
HETATM   33  C13 UNL     1       3.748  36.038  24.607  1.00  0.00     0.020 C 
HETATM   34  C14 UNL     1       4.326  37.182  25.341  1.00  0.00     0.002 C 
HETATM   35  C15 UNL     1       3.374  38.061  26.061  1.00  0.00     0.000 C 
HETATM   36  C16 UNL     1       1.961  38.020  25.582  1.00  0.00     0.002 C 
HETATM   37  C17 UNL     1       1.688  39.002  24.463  1.00  0.00     0.020 C 
HETATM   38  C18 UNL     1       2.521  38.793  23.249  1.00  0.00     0.124 C 
ENDBRANCH   5  31
TORSDOF 6
ENDMDL
MODEL 3
REMARK VINA RESULT: -8.698950264      1.008      1.435
REMARK  6 active torsions:
REMARK  status: ('A' for Active; 'I' for Inactive)
REMARK    1  A    between atoms: C2_2  and  C3_3 
REMARK    2  A    between atoms: C3_3  and  O1_4 
REMARK    3  A    between atoms: C3_3  and  C4_6 
REMARK    4  A    between atoms: C4_6  and  N1_7 
REMARK    5  A    between atoms: C8_17  and  C9_18 
REMARK    6  A    between atoms: C11_22  and  N5_23 
ROOT
HETATM    1  C9  UNL     1      -0.464  34.650  23.577  1.00  0.00     0.123 A 
HETATM    2  N4  UNL     1       0.683  35.327  23.388  1.00  0.00    -0.336 N 
ATOM      3  H4  UNL     1       1.465  35.340  24.043  1.00  0.00     0.168 HD
HETATM    4  C10 UNL     1       0.654  35.981  22.223  1.00  0.00     0.123 A 
HETATM    5  C11 UNL     1       1.529  36.801  21.552  1.00  0.00     0.135 A 
HETATM    6  N6  UNL     1       1.207  37.314  20.377  1.00  0.00    -0.337 N 
ATOM      7  H6  UNL     1       1.865  37.922  19.889  1.00  0.00     0.168 HD
HETATM    8  C19 UNL     1       0.007  37.036  19.823  1.00  0.00     0.183 A 
HETATM    9  N7  UNL     1      -0.888  36.243  20.432  1.00  0.00    -0.337 N 
ATOM     10  H7  UNL     1      -1.790  36.041  20.002  1.00  0.00     0.168 HD
HETATM   11  C20 UNL     1      -0.558  35.722  21.626  1.00  0.00     0.139 A 
HETATM   12  N8  UNL     1      -1.213  34.901  22.490  1.00  0.00    -0.326 N 
ATOM     13  H8  UNL     1      -2.149  34.526  22.334  1.00  0.00     0.169 HD
ENDROOT
BRANCH   1  14
HETATM   14  C8  UNL     1      -0.851  33.811  24.705  1.00  0.00     0.067 A 
HETATM   15  C5  UNL     1       0.108  33.172  25.468  1.00  0.00     0.118 A 
HETATM   16  N1  UNL     1       1.326  33.338  25.154  1.00  0.00    -0.373 N 
HETATM   17  N2  UNL     1      -0.226  32.387  26.521  1.00  0.00    -0.318 N 
ATOM     18  H1  UNL     1       1.511  33.940  24.351  1.00  0.00     0.161 HD
HETATM   19  C6  UNL     1      -1.518  32.221  26.838  1.00  0.00     0.180 A 
ATOM     20  H2  UNL     1       0.500  31.924  27.069  1.00  0.00     0.170 HD
HETATM   21 CL1  UNL     1      -2.023  31.220  28.188  1.00  0.00    -0.045 Cl
HETATM   22  N3  UNL     1      -2.453  32.843  26.097  1.00  0.00    -0.342 N 
HETATM   23  C7  UNL     1      -2.172  33.623  25.053  1.00  0.00     0.109 A 
ATOM     24  H3  UNL     1      -3.432  32.709  26.347  1.00  0.00     0.167 HD
BRANCH  16  25
HETATM   25  C4  UNL     1       2.466  32.774  25.805  1.00  0.00     0.153 C 
BRANCH  25  26
HETATM   26  C3  UNL     1       3.766  33.093  25.117  1.00  0.00     0.135 C 
BRANCH  26  27
HETATM   27  C2  UNL     1       4.482  34.145  25.972  1.00  0.00     0.029 C 
HETATM   28  C1  UNL     1       4.282  35.530  25.399  1.00  0.00     0.007 C 
ENDBRANCH  26  27
BRANCH  26  29
HETATM   29  O1  UNL     1       3.574  33.687  23.870  1.00  0.00    -0.394 OA
ATOM     30  H1  UNL     1       3.273  34.569  24.049  1.00  0.00     0.210 HD
ENDBRANCH  26  29
ENDBRANCH  25  26
ENDBRANCH  16  25
ENDBRANCH   1  14
BRANCH   5  31
HETATM   31  N5  UNL     1       2.782  37.084  22.147  1.00  0.00    -0.365 N 
HETATM   32  C12 UNL     1       2.630  38.154  23.103  1.00  0.00     0.124 C 
HETATM   33  C13 UNL     1       3.500  39.358  22.829  1.00  0.00     0.020 C 
HETATM   34  C14 UNL     1       4.945  39.051  22.849  1.00  0.00     0.002 C 
HETATM   35  C15 UNL     1       5.582  38.759  21.542  1.00  0.00     0.000 C 
HETATM   36  C16 UNL     1       4.661  38.316  20.455  1.00  0.00     0.002 C 
HETATM   37  C17 UNL     1       4.443  36.818  20.440  1.00  0.00     0.020 C 
HETATM   38  C18 UNL     1       3.860  36.272  21.694  1.00  0.00     0.124 C 
ENDBRANCH   5  31
TORSDOF 6
ENDMDL
MODEL 4
REMARK VINA RESULT: -8.666795152      3.496      6.211
REMARK  6 active torsions:
REMARK  status: ('A' for Active; 'I' for Inactive)
REMARK    1  A    between atoms: C2_2  and  C3_3 
REMARK    2  A    between atoms: C3_3  and  O1_4 
REMARK    3  A    between atoms: C3_3  and  C4_6 
REMARK    4  A    between atoms: C4_6  and  N1_7 
REMARK    5  A    between atoms: C8_17  and  C9_18 
REMARK    6  A    between atoms: C11_22  and  N5_23 
ROOT
HETATM    1  C9  UNL     1       0.654  36.770  24.615  1.00  0.00     0.123 A 
HETATM    2  N4  UNL     1       0.280  35.499  24.845  1.00  0.00    -0.336 N 
ATOM      3  H4  UNL     1       0.444  34.993  25.714  1.00  0.00     0.168 HD
HETATM    4  C10 UNL     1      -0.339  34.993  23.773  1.00  0.00     0.123 A 
HETATM    5  C11 UNL     1      -0.906  33.779  23.468  1.00  0.00     0.135 A 
HETATM    6  N6  UNL     1      -1.459  33.571  22.285  1.00  0.00    -0.337 N 
ATOM      7  H6  UNL     1      -1.877  32.666  22.070  1.00  0.00     0.168 HD
HETATM    8  C19 UNL     1      -1.471  34.556  21.361  1.00  0.00     0.183 A 
HETATM    9  N7  UNL     1      -0.930  35.761  21.602  1.00  0.00    -0.337 N 
ATOM     10  H7  UNL     1      -0.946  36.495  20.895  1.00  0.00     0.168 HD
HETATM   11  C20 UNL     1      -0.370  35.970  22.805  1.00  0.00     0.139 A 
HETATM   12  N8  UNL     1       0.250  37.044  23.363  1.00  0.00    -0.326 N 
ATOM     13  H8  UNL     1       0.389  37.939  22.893  1.00  0.00     0.169 HD
ENDROOT
BRANCH   1  14
HETATM   14  C8  UNL     1       1.351  37.690  25.507  1.00  0.00     0.067 A 
HETATM   15  C5  UNL     1       2.713  37.575  25.711  1.00  0.00     0.118 A 
HETATM   16  N1  UNL     1       3.329  36.648  25.102  1.00  0.00    -0.373 N 
HETATM   17  N2  UNL     1       3.383  38.417  26.535  1.00  0.00    -0.318 N 
ATOM     18  H1  UNL     1       2.767  36.048  24.499  1.00  0.00     0.161 HD
HETATM   19  C6  UNL     1       2.715  39.390  27.170  1.00  0.00     0.180 A 
ATOM     20  H2  UNL     1       4.390  38.312  26.670  1.00  0.00     0.170 HD
HETATM   21 CL1  UNL     1       3.520  40.517  28.250  1.00  0.00    -0.045 Cl
HETATM   22  N3  UNL     1       1.390  39.504  26.972  1.00  0.00    -0.342 N 
HETATM   23  C7  UNL     1       0.689  38.699  26.173  1.00  0.00     0.109 A 
ATOM     24  H3  UNL     1       0.893  40.248  27.462  1.00  0.00     0.167 HD
BRANCH  16  25
HETATM   25  C4  UNL     1       4.726  36.356  25.172  1.00  0.00     0.153 C 
BRANCH  25  26
HETATM   26  C3  UNL     1       5.052  35.204  26.086  1.00  0.00     0.135 C 
BRANCH  26  27
HETATM   27  C2  UNL     1       6.542  35.312  26.431  1.00  0.00     0.029 C 
HETATM   28  C1  UNL     1       6.791  34.905  27.866  1.00  0.00     0.007 C 
ENDBRANCH  26  27
BRANCH  26  29
HETATM   29  O1  UNL     1       4.898  33.969  25.457  1.00  0.00    -0.394 OA
ATOM     30  H1  UNL     1       4.950  34.146  24.526  1.00  0.00     0.210 HD
ENDBRANCH  26  29
ENDBRANCH  25  26
ENDBRANCH  16  25
ENDBRANCH   1  14
BRANCH   5  31
HETATM   31  N5  UNL     1      -0.885  32.757  24.447  1.00  0.00    -0.365 N 
HETATM   32  C12 UNL     1      -1.965  32.963  25.381  1.00  0.00     0.124 C 
HETATM   33  C13 UNL     1      -1.523  33.108  26.818  1.00  0.00     0.020 C 
HETATM   34  C14 UNL     1      -0.813  31.919  27.334  1.00  0.00     0.002 C 
HETATM   35  C15 UNL     1       0.667  31.947  27.266  1.00  0.00     0.000 C 
HETATM   36  C16 UNL     1       1.255  32.888  26.268  1.00  0.00     0.002 C 
HETATM   37  C17 UNL     1       1.418  32.267  24.896  1.00  0.00     0.020 C 
HETATM   38  C18 UNL     1       0.149  31.791  24.286  1.00  0.00     0.124 C 
ENDBRANCH   5  31
TORSDOF 6
ENDMDL
MODEL 5
REMARK VINA RESULT: -8.582527538      2.029      3.072
REMARK  6 active torsions:
REMARK  status: ('A' for Active; 'I' for Inactive)
REMARK    1  A    between atoms: C2_2  and  C3_3 
REMARK    2  A    between atoms: C3_3  and  O1_4 
REMARK    3  A    between atoms: C3_3  and  C4_6 
REMARK    4  A    between atoms: C4_6  and  N1_7 
REMARK    5  A    between atoms: C8_17  and  C9_18 
REMARK    6  A    between atoms: C11_22  and  N5_23 
ROOT
HETATM    1  C9  UNL     1       0.608  35.421  23.619  1.00  0.00     0.123 A 
HETATM    2  N4  UNL     1       1.372  36.442  24.044  1.00  0.00    -0.336 N 
ATOM      3  H4  UNL     1       1.510  36.696  25.022  1.00  0.00     0.168 HD
HETATM    4  C10 UNL     1       1.926  37.077  23.006  1.00  0.00     0.123 A 
HETATM    5  C11 UNL     1       2.767  38.154  22.868  1.00  0.00     0.135 A 
HETATM    6  N6  UNL     1       3.153  38.560  21.671  1.00  0.00    -0.337 N 
ATOM      7  H6  UNL     1       3.777  39.362  21.581  1.00  0.00     0.168 HD
HETATM    8  C19 UNL     1       2.721  37.915  20.566  1.00  0.00     0.183 A 
HETATM    9  N7  UNL     1       1.898  36.857  20.639  1.00  0.00    -0.337 N 
ATOM     10  H7  UNL     1       1.580  36.380  19.797  1.00  0.00     0.168 HD
HETATM   11  C20 UNL     1       1.508  36.446  21.857  1.00  0.00     0.139 A 
HETATM   12  N8  UNL     1       0.701  35.436  22.278  1.00  0.00    -0.326 N 
ATOM     13  H8  UNL     1       0.229  34.777  21.658  1.00  0.00     0.169 HD
ENDROOT
BRANCH   1  14
HETATM   14  C8  UNL     1      -0.171  34.474  24.409  1.00  0.00     0.067 A 
HETATM   15  C5  UNL     1       0.457  33.486  25.143  1.00  0.00     0.118 A 
HETATM   16  N1  UNL     1       1.725  33.431  25.103  1.00  0.00    -0.373 N 
HETATM   17  N2  UNL     1      -0.243  32.595  25.886  1.00  0.00    -0.318 N 
ATOM     18  H1  UNL     1       2.193  34.129  24.526  1.00  0.00     0.161 HD
HETATM   19  C6  UNL     1      -1.581  32.668  25.914  1.00  0.00     0.180 A 
ATOM     20  H2  UNL     1       0.244  31.873  26.418  1.00  0.00     0.170 HD
HETATM   21 CL1  UNL     1      -2.552  31.547  26.855  1.00  0.00    -0.045 Cl
HETATM   22  N3  UNL     1      -2.195  33.629  25.201  1.00  0.00    -0.342 N 
HETATM   23  C7  UNL     1      -1.548  34.526  24.457  1.00  0.00     0.109 A 
ATOM     24  H3  UNL     1      -3.213  33.674  25.231  1.00  0.00     0.167 HD
BRANCH  16  25
HETATM   25  C4  UNL     1       2.566  32.496  25.782  1.00  0.00     0.153 C 
BRANCH  25  26
HETATM   26  C3  UNL     1       3.597  31.861  24.888  1.00  0.00     0.135 C 
BRANCH  26  27
HETATM   27  C2  UNL     1       3.314  30.354  24.875  1.00  0.00     0.029 C 
HETATM   28  C1  UNL     1       4.552  29.578  24.484  1.00  0.00     0.007 C 
ENDBRANCH  26  27
BRANCH  26  29
HETATM   29  O1  UNL     1       4.891  31.998  25.390  1.00  0.00    -0.394 OA
ATOM     30  H1  UNL     1       4.801  31.990  26.335  1.00  0.00     0.210 HD
ENDBRANCH  26  29
ENDBRANCH  25  26
ENDBRANCH  16  25
ENDBRANCH   1  14
BRANCH   5  31
HETATM   31  N5  UNL     1       3.209  38.821  24.036  1.00  0.00    -0.365 N 
HETATM   32  C12 UNL     1       4.185  38.004  24.716  1.00  0.00     0.124 C 
HETATM   33  C13 UNL     1       3.819  37.655  26.140  1.00  0.00     0.020 C 
HETATM   34  C14 UNL     1       3.662  38.839  27.009  1.00  0.00     0.002 C 
HETATM   35  C15 UNL     1       2.285  39.363  27.177  1.00  0.00     0.000 C 
HETATM   36  C16 UNL     1       1.313  38.993  26.108  1.00  0.00     0.002 C 
HETATM   37  C17 UNL     1       1.312  39.967  24.949  1.00  0.00     0.020 C 
HETATM   38  C18 UNL     1       2.622  40.099  24.259  1.00  0.00     0.124 C 
ENDBRANCH   5  31
TORSDOF 6
ENDMDL
