MODEL 1
REMARK VINA RESULT: -7.681596725      0.000      0.000
REMARK  8 active torsions:
REMARK  status: ('A' for Active; 'I' for Inactive)
REMARK    1  A    between atoms: C2_2  and  C3_3 
REMARK    2  A    between atoms: C5_5  and  C7_7 
REMARK    3  A    between atoms: C9_11  and  N1_12 
REMARK    4  A    between atoms: N1_12  and  C10_14 
REMARK    5  A    between atoms: C10_14  and  O3_16 
REMARK    6  A    between atoms: O3_16  and  C11_17 
REMARK    7  A    between atoms: C13_20  and  N2_21 
REMARK    8  A    between atoms: C14_26  and  S2_27 
ROOT
HETATM    1  C10 UNL     1       3.050  35.808  24.144  1.00  0.00     0.218 C 
HETATM    2  S1  UNL     1       4.055  36.459  25.246  1.00  0.00    -0.033 SA
ENDROOT
BRANCH   1   3
HETATM    3  N1  UNL     1       3.287  34.531  23.630  1.00  0.00    -0.335 N 
ATOM      4  H1  UNL     1       3.563  34.445  22.652  1.00  0.00     0.165 HD
BRANCH   3   5
HETATM    5  C9  UNL     1       3.161  33.337  24.412  1.00  0.00     0.224 C 
HETATM    6  C8  UNL     1       1.744  32.854  24.374  1.00  0.00     0.074 C 
HETATM    7  C5  UNL     1       1.547  31.639  25.258  1.00  0.00     0.051 C 
HETATM    8  C4  UNL     1       2.687  30.680  25.138  1.00  0.00     0.052 C 
HETATM    9  C6  UNL     1       0.300  30.919  24.731  1.00  0.00     0.027 C 
HETATM   10  C3  UNL     1       4.024  31.341  24.921  1.00  0.00     0.125 C 
HETATM   11  O4  UNL     1       3.995  32.313  23.954  1.00  0.00    -0.361 OA
BRANCH   7  12
HETATM   12  C7  UNL     1       1.296  32.080  26.634  1.00  0.00     0.181 C 
HETATM   13  O1  UNL     1       1.996  32.986  27.142  1.00  0.00    -0.647 OA
HETATM   14  O2  UNL     1       0.280  31.483  27.362  1.00  0.00    -0.647 OA
ENDBRANCH   7  12
BRANCH  10  15
HETATM   15  C2  UNL     1       5.030  30.245  24.620  1.00  0.00     0.027 C 
HETATM   16  C1  UNL     1       4.446  29.369  23.536  1.00  0.00     0.007 C 
ENDBRANCH  10  15
ENDBRANCH   3   5
ENDBRANCH   1   3
BRANCH   1  17
HETATM   17  O3  UNL     1       1.971  36.603  23.766  1.00  0.00    -0.265 OA
BRANCH  17  18
HETATM   18  C11 UNL     1       1.425  36.623  22.516  1.00  0.00     0.180 A 
HETATM   19  C12 UNL     1       0.187  36.050  22.316  1.00  0.00     0.129 A 
HETATM   20 CL1  UNL     1      -0.675  35.300  23.667  1.00  0.00    -0.076 Cl
HETATM   21  C13 UNL     1      -0.438  36.023  21.094  1.00  0.00     0.127 A 
HETATM   22  N3  UNL     1       0.209  36.591  20.060  1.00  0.00    -0.322 N 
HETATM   23  C14 UNL     1       1.423  37.156  20.249  1.00  0.00     0.149 A 
ATOM     24  H3  UNL     1      -0.216  36.595  19.133  1.00  0.00     0.169 HD
HETATM   25  N4  UNL     1       2.031  37.177  21.451  1.00  0.00    -0.311 N 
HETATM   26  C16 UNL     1       3.354  37.806  21.602  1.00  0.00     0.160 C 
BRANCH  21  27
HETATM   27  N2  UNL     1      -1.602  35.487  20.894  1.00  0.00    -0.384 N 
ATOM     28  H22 UNL     1      -1.657  34.569  20.454  1.00  0.00     0.157 HD
ATOM     29  H21 UNL     1      -2.482  35.933  21.154  1.00  0.00     0.157 HD
ENDBRANCH  21  27
BRANCH  23  30
HETATM   30  S2  UNL     1       2.302  37.921  18.869  1.00  0.00    -0.098 SA
HETATM   31  C15 UNL     1       1.148  38.333  17.535  1.00  0.00     0.099 C 
ENDBRANCH  23  30
ENDBRANCH  17  18
ENDBRANCH   1  17
TORSDOF 8
ENDMDL
MODEL 2
REMARK VINA RESULT: -7.358483565      3.222      4.044
REMARK  8 active torsions:
REMARK  status: ('A' for Active; 'I' for Inactive)
REMARK    1  A    between atoms: C2_2  and  C3_3 
REMARK    2  A    between atoms: C5_5  and  C7_7 
REMARK    3  A    between atoms: C9_11  and  N1_12 
REMARK    4  A    between atoms: N1_12  and  C10_14 
REMARK    5  A    between atoms: C10_14  and  O3_16 
REMARK    6  A    between atoms: O3_16  and  C11_17 
REMARK    7  A    between atoms: C13_20  and  N2_21 
REMARK    8  A    between atoms: C14_26  and  S2_27 
ROOT
HETATM    1  C10 UNL     1       4.142  35.386  24.968  1.00  0.00     0.218 C 
HETATM    2  S1  UNL     1       5.084  35.107  26.266  1.00  0.00    -0.033 SA
ENDROOT
BRANCH   1   3
HETATM    3  N1  UNL     1       3.623  34.324  24.223  1.00  0.00    -0.335 N 
ATOM      4  H1  UNL     1       3.602  34.407  23.207  1.00  0.00     0.165 HD
BRANCH   3   5
HETATM    5  C9  UNL     1       3.118  33.122  24.821  1.00  0.00     0.224 C 
HETATM    6  C8  UNL     1       1.628  33.075  24.680  1.00  0.00     0.074 C 
HETATM    7  C5  UNL     1       1.043  31.861  25.373  1.00  0.00     0.051 C 
HETATM    8  C4  UNL     1       1.875  30.641  25.141  1.00  0.00     0.052 C 
HETATM    9  C6  UNL     1      -0.319  31.604  24.719  1.00  0.00     0.027 C 
HETATM   10  C3  UNL     1       3.354  30.914  25.053  1.00  0.00     0.125 C 
HETATM   11  O4  UNL     1       3.660  31.974  24.238  1.00  0.00    -0.361 OA
BRANCH   7  12
HETATM   12  C7  UNL     1       0.839  32.168  26.793  1.00  0.00     0.181 C 
HETATM   13  O1  UNL     1       1.729  32.765  27.442  1.00  0.00    -0.647 OA
HETATM   14  O2  UNL     1      -0.344  31.791  27.404  1.00  0.00    -0.647 OA
ENDBRANCH   7  12
BRANCH  10  15
HETATM   15  C2  UNL     1       4.030  29.627  24.619  1.00  0.00     0.027 C 
HETATM   16  C1  UNL     1       5.504  29.915  24.450  1.00  0.00     0.007 C 
ENDBRANCH  10  15
ENDBRANCH   3   5
ENDBRANCH   1   3
BRANCH   1  17
HETATM   17  O3  UNL     1       3.905  36.724  24.669  1.00  0.00    -0.265 OA
BRANCH  17  18
HETATM   18  C11 UNL     1       2.925  37.483  25.239  1.00  0.00     0.180 A 
HETATM   19  C12 UNL     1       1.638  37.391  24.753  1.00  0.00     0.129 A 
HETATM   20 CL1  UNL     1       1.271  36.301  23.407  1.00  0.00    -0.076 Cl
HETATM   21  C13 UNL     1       0.590  38.116  25.263  1.00  0.00     0.127 A 
HETATM   22  N3  UNL     1       0.858  38.948  26.286  1.00  0.00    -0.322 N 
HETATM   23  C14 UNL     1       2.118  39.043  26.769  1.00  0.00     0.149 A 
ATOM     24  H3  UNL     1       0.112  39.507  26.697  1.00  0.00     0.169 HD
HETATM   25  N4  UNL     1       3.142  38.329  26.262  1.00  0.00    -0.311 N 
HETATM   26  C16 UNL     1       4.495  38.470  26.825  1.00  0.00     0.160 C 
BRANCH  21  27
HETATM   27  N2  UNL     1      -0.624  38.037  24.814  1.00  0.00    -0.384 N 
ATOM     28  H22 UNL     1      -0.791  37.599  23.908  1.00  0.00     0.157 HD
ATOM     29  H21 UNL     1      -1.437  38.393  25.317  1.00  0.00     0.157 HD
ENDBRANCH  21  27
BRANCH  23  30
HETATM   30  S2  UNL     1       2.492  40.156  28.142  1.00  0.00    -0.098 SA
HETATM   31  C15 UNL     1       2.711  41.850  27.539  1.00  0.00     0.099 C 
ENDBRANCH  23  30
ENDBRANCH  17  18
ENDBRANCH   1  17
TORSDOF 8
ENDMDL
MODEL 3
REMARK VINA RESULT: -7.262552773      3.348      4.599
REMARK  8 active torsions:
REMARK  status: ('A' for Active; 'I' for Inactive)
REMARK    1  A    between atoms: C2_2  and  C3_3 
REMARK    2  A    between atoms: C5_5  and  C7_7 
REMARK    3  A    between atoms: C9_11  and  N1_12 
REMARK    4  A    between atoms: N1_12  and  C10_14 
REMARK    5  A    between atoms: C10_14  and  O3_16 
REMARK    6  A    between atoms: O3_16  and  C11_17 
REMARK    7  A    between atoms: C13_20  and  N2_21 
REMARK    8  A    between atoms: C14_26  and  S2_27 
ROOT
HETATM    1  C10 UNL     1       3.030  35.553  24.208  1.00  0.00     0.218 C 
HETATM    2  S1  UNL     1       2.317  36.331  22.968  1.00  0.00    -0.033 SA
ENDROOT
BRANCH   1   3
HETATM    3  N1  UNL     1       3.608  34.295  24.021  1.00  0.00    -0.335 N 
ATOM      4  H1  UNL     1       4.406  34.216  23.391  1.00  0.00     0.165 HD
BRANCH   3   5
HETATM    5  C9  UNL     1       3.131  33.111  24.673  1.00  0.00     0.224 C 
HETATM    6  C8  UNL     1       1.637  33.054  24.589  1.00  0.00     0.074 C 
HETATM    7  C5  UNL     1       1.084  31.859  25.340  1.00  0.00     0.051 C 
HETATM    8  C4  UNL     1       1.912  30.635  25.114  1.00  0.00     0.052 C 
HETATM    9  C6  UNL     1      -0.300  31.577  24.745  1.00  0.00     0.027 C 
HETATM   10  C3  UNL     1       3.386  30.911  24.962  1.00  0.00     0.125 C 
HETATM   11  O4  UNL     1       3.656  31.947  24.105  1.00  0.00    -0.361 OA
BRANCH   7  12
HETATM   12  C7  UNL     1       0.932  32.208  26.756  1.00  0.00     0.181 C 
HETATM   13  O1  UNL     1       1.834  32.845  27.348  1.00  0.00    -0.647 OA
HETATM   14  O2  UNL     1      -0.217  31.826  27.428  1.00  0.00    -0.647 OA
ENDBRANCH   7  12
BRANCH  10  15
HETATM   15  C2  UNL     1       4.051  29.614  24.542  1.00  0.00     0.027 C 
HETATM   16  C1  UNL     1       5.539  29.866  24.454  1.00  0.00     0.007 C 
ENDBRANCH  10  15
ENDBRANCH   3   5
ENDBRANCH   1   3
BRANCH   1  17
HETATM   17  O3  UNL     1       3.015  36.221  25.428  1.00  0.00    -0.265 OA
BRANCH  17  18
HETATM   18  C11 UNL     1       3.504  37.479  25.629  1.00  0.00     0.180 A 
HETATM   19  C12 UNL     1       4.868  37.667  25.686  1.00  0.00     0.129 A 
HETATM   20 CL1  UNL     1       5.964  36.289  25.501  1.00  0.00    -0.076 Cl
HETATM   21  C13 UNL     1       5.449  38.895  25.884  1.00  0.00     0.127 A 
HETATM   22  N3  UNL     1       4.625  39.948  26.026  1.00  0.00    -0.322 N 
HETATM   23  C14 UNL     1       3.285  39.772  25.971  1.00  0.00     0.149 A 
ATOM     24  H3  UNL     1       5.010  40.880  26.176  1.00  0.00     0.169 HD
HETATM   25  N4  UNL     1       2.722  38.563  25.776  1.00  0.00    -0.311 N 
HETATM   26  C16 UNL     1       1.257  38.427  25.724  1.00  0.00     0.160 C 
BRANCH  21  27
HETATM   27  N2  UNL     1       6.731  39.082  25.940  1.00  0.00    -0.384 N 
ATOM     28  H22 UNL     1       7.283  38.546  26.608  1.00  0.00     0.157 HD
ATOM     29  H21 UNL     1       7.231  39.745  25.347  1.00  0.00     0.157 HD
ENDBRANCH  21  27
BRANCH  23  30
HETATM   30  S2  UNL     1       2.167  41.179  26.159  1.00  0.00    -0.098 SA
HETATM   31  C15 UNL     1       1.831  41.938  24.549  1.00  0.00     0.099 C 
ENDBRANCH  23  30
ENDBRANCH  17  18
ENDBRANCH   1  17
TORSDOF 8
ENDMDL
MODEL 4
REMARK VINA RESULT: -7.204071698      3.558      4.322
REMARK  8 active torsions:
REMARK  status: ('A' for Active; 'I' for Inactive)
REMARK    1  A    between atoms: C2_2  and  C3_3 
REMARK    2  A    between atoms: C5_5  and  C7_7 
REMARK    3  A    between atoms: C9_11  and  N1_12 
REMARK    4  A    between atoms: N1_12  and  C10_14 
REMARK    5  A    between atoms: C10_14  and  O3_16 
REMARK    6  A    between atoms: O3_16  and  C11_17 
REMARK    7  A    between atoms: C13_20  and  N2_21 
REMARK    8  A    between atoms: C14_26  and  S2_27 
ROOT
HETATM    1  C10 UNL     1       4.126  35.345  24.780  1.00  0.00     0.218 C 
HETATM    2  S1  UNL     1       4.932  35.088  26.171  1.00  0.00    -0.033 SA
ENDROOT
BRANCH   1   3
HETATM    3  N1  UNL     1       3.553  34.279  24.082  1.00  0.00    -0.335 N 
ATOM      4  H1  UNL     1       3.479  34.346  23.067  1.00  0.00     0.165 HD
BRANCH   3   5
HETATM    5  C9  UNL     1       3.065  33.094  24.726  1.00  0.00     0.224 C 
HETATM    6  C8  UNL     1       1.572  33.040  24.619  1.00  0.00     0.074 C 
HETATM    7  C5  UNL     1       1.006  31.846  25.360  1.00  0.00     0.051 C 
HETATM    8  C4  UNL     1       1.836  30.621  25.147  1.00  0.00     0.052 C 
HETATM    9  C6  UNL     1      -0.369  31.566  24.744  1.00  0.00     0.027 C 
HETATM   10  C3  UNL     1       3.312  30.894  25.019  1.00  0.00     0.125 C 
HETATM   11  O4  UNL     1       3.597  31.930  24.166  1.00  0.00    -0.361 OA
BRANCH   7  12
HETATM   12  C7  UNL     1       0.832  32.194  26.775  1.00  0.00     0.181 C 
HETATM   13  O1  UNL     1       1.747  32.785  27.394  1.00  0.00    -0.647 OA
HETATM   14  O2  UNL     1      -0.352  31.864  27.413  1.00  0.00    -0.647 OA
ENDBRANCH   7  12
BRANCH  10  15
HETATM   15  C2  UNL     1       3.982  29.596  24.609  1.00  0.00     0.027 C 
HETATM   16  C1  UNL     1       5.452  29.881  24.407  1.00  0.00     0.007 C 
ENDBRANCH  10  15
ENDBRANCH   3   5
ENDBRANCH   1   3
BRANCH   1  17
HETATM   17  O3  UNL     1       4.059  36.668  24.356  1.00  0.00    -0.265 OA
BRANCH  17  18
HETATM   18  C11 UNL     1       3.743  37.724  25.160  1.00  0.00     0.180 A 
HETATM   19  C12 UNL     1       2.437  37.889  25.570  1.00  0.00     0.129 A 
HETATM   20 CL1  UNL     1       1.192  36.741  25.054  1.00  0.00    -0.076 Cl
HETATM   21  C13 UNL     1       2.029  38.920  26.378  1.00  0.00     0.127 A 
HETATM   22  N3  UNL     1       2.967  39.798  26.776  1.00  0.00    -0.322 N 
HETATM   23  C14 UNL     1       4.250  39.643  26.379  1.00  0.00     0.149 A 
ATOM     24  H3  UNL     1       2.711  40.581  27.377  1.00  0.00     0.169 HD
HETATM   25  N4  UNL     1       4.644  38.628  25.585  1.00  0.00    -0.311 N 
HETATM   26  C16 UNL     1       6.055  38.505  25.182  1.00  0.00     0.160 C 
BRANCH  21  27
HETATM   27  N2  UNL     1       0.803  39.084  26.769  1.00  0.00    -0.384 N 
ATOM     28  H22 UNL     1       0.061  39.129  26.071  1.00  0.00     0.157 HD
ATOM     29  H21 UNL     1       0.529  39.174  27.747  1.00  0.00     0.157 HD
ENDBRANCH  21  27
BRANCH  23  30
HETATM   30  S2  UNL     1       5.521  40.814  26.906  1.00  0.00    -0.098 SA
HETATM   31  C15 UNL     1       5.352  42.377  26.005  1.00  0.00     0.099 C 
ENDBRANCH  23  30
ENDBRANCH  17  18
ENDBRANCH   1  17
TORSDOF 8
ENDMDL
MODEL 5
REMARK VINA RESULT: -7.171438280      1.030      1.109
REMARK  8 active torsions:
REMARK  status: ('A' for Active; 'I' for Inactive)
REMARK    1  A    between atoms: C2_2  and  C3_3 
REMARK    2  A    between atoms: C5_5  and  C7_7 
REMARK    3  A    between atoms: C9_11  and  N1_12 
REMARK    4  A    between atoms: N1_12  and  C10_14 
REMARK    5  A    between atoms: C10_14  and  O3_16 
REMARK    6  A    between atoms: O3_16  and  C11_17 
REMARK    7  A    between atoms: C13_20  and  N2_21 
REMARK    8  A    between atoms: C14_26  and  S2_27 
ROOT
HETATM    1  C10 UNL     1       3.535  35.741  24.731  1.00  0.00     0.218 C 
HETATM    2  S1  UNL     1       4.467  36.300  25.943  1.00  0.00    -0.033 SA
ENDROOT
BRANCH   1   3
HETATM    3  N1  UNL     1       3.775  34.485  24.169  1.00  0.00    -0.335 N 
ATOM      4  H1  UNL     1       4.266  34.438  23.276  1.00  0.00     0.165 HD
BRANCH   3   5
HETATM    5  C9  UNL     1       3.365  33.259  24.788  1.00  0.00     0.224 C 
HETATM    6  C8  UNL     1       1.887  33.078  24.623  1.00  0.00     0.074 C 
HETATM    7  C5  UNL     1       1.397  31.835  25.337  1.00  0.00     0.051 C 
HETATM    8  C4  UNL     1       2.336  30.687  25.151  1.00  0.00     0.052 C 
HETATM    9  C6  UNL     1       0.075  31.444  24.666  1.00  0.00     0.027 C 
HETATM   10  C3  UNL     1       3.787  31.086  25.082  1.00  0.00     0.125 C 
HETATM   11  O4  UNL     1       4.015  32.148  24.245  1.00  0.00    -0.361 OA
BRANCH   7  12
HETATM   12  C7  UNL     1       1.140  32.157  26.745  1.00  0.00     0.181 C 
HETATM   13  O1  UNL     1       1.841  33.012  27.333  1.00  0.00    -0.647 OA
HETATM   14  O2  UNL     1       0.115  31.507  27.411  1.00  0.00    -0.647 OA
ENDBRANCH   7  12
BRANCH  10  15
HETATM   15  C2  UNL     1       4.581  29.852  24.693  1.00  0.00     0.027 C 
HETATM   16  C1  UNL     1       4.303  29.566  23.235  1.00  0.00     0.007 C 
ENDBRANCH  10  15
ENDBRANCH   3   5
ENDBRANCH   1   3
BRANCH   1  17
HETATM   17  O3  UNL     1       2.514  36.590  24.313  1.00  0.00    -0.265 OA
BRANCH  17  18
HETATM   18  C11 UNL     1       2.132  36.760  23.014  1.00  0.00     0.180 A 
HETATM   19  C12 UNL     1       0.890  36.315  22.616  1.00  0.00     0.129 A 
HETATM   20 CL1  UNL     1      -0.189  35.531  23.781  1.00  0.00    -0.076 Cl
HETATM   21  C13 UNL     1       0.423  36.443  21.332  1.00  0.00     0.127 A 
HETATM   22  N3  UNL     1       1.236  37.036  20.439  1.00  0.00    -0.322 N 
HETATM   23  C14 UNL     1       2.455  37.477  20.822  1.00  0.00     0.149 A 
ATOM     24  H3  UNL     1       0.932  37.154  19.473  1.00  0.00     0.169 HD
HETATM   25  N4  UNL     1       2.907  37.347  22.085  1.00  0.00    -0.311 N 
HETATM   26  C16 UNL     1       4.244  37.845  22.450  1.00  0.00     0.160 C 
BRANCH  21  27
HETATM   27  N2  UNL     1      -0.743  36.027  20.947  1.00  0.00    -0.384 N 
ATOM     28  H22 UNL     1      -1.200  35.277  21.466  1.00  0.00     0.157 HD
ATOM     29  H21 UNL     1      -1.242  36.408  20.143  1.00  0.00     0.157 HD
ENDBRANCH  21  27
BRANCH  23  30
HETATM   30  S2  UNL     1       3.556  38.277  19.634  1.00  0.00    -0.098 SA
HETATM   31  C15 UNL     1       4.834  37.118  19.080  1.00  0.00     0.099 C 
ENDBRANCH  23  30
ENDBRANCH  17  18
ENDBRANCH   1  17
TORSDOF 8
ENDMDL
