MODEL 1
REMARK VINA RESULT: -5.034011897      0.000      0.000
REMARK  3 active torsions:
REMARK  status: ('A' for Active; 'I' for Inactive)
REMARK    1  A    between atoms: O1_2  and  C2_3 
REMARK    2  A    between atoms: C2_3  and  C3_5 
REMARK    3  A    between atoms: C7_13  and  C8_14 
ROOT
HETATM    1  C3  UNL     1     -16.873  -1.822 -26.051  1.00  0.00     0.172 C 
HETATM    2  C4  UNL     1     -17.633  -2.973 -25.489  1.00  0.00     0.062 C 
HETATM    3  N1  UNL     1     -17.546  -3.710 -24.500  1.00  0.00    -0.396 N 
ATOM      4  H11 UNL     1     -18.066  -4.498 -24.115  1.00  0.00     0.156 HD
ATOM      5  H12 UNL     1     -16.834  -3.667 -23.772  1.00  0.00     0.156 HD
HETATM    6  S1  UNL     1     -18.910  -3.050 -26.795  1.00  0.00    -0.081 SA
HETATM    7  C5  UNL     1     -17.664  -2.727 -28.111  1.00  0.00    -0.015 C 
HETATM    8  C6  UNL     1     -17.957  -3.184 -29.451  1.00  0.00     0.056 C 
HETATM    9  C7  UNL     1     -16.672  -2.081 -27.522  1.00  0.00    -0.040 C 
ENDROOT
BRANCH   1  10
HETATM   10  C2  UNL     1     -17.704  -0.619 -25.794  1.00  0.00     0.273 C 
HETATM   11  O2  UNL     1     -18.175  -0.489 -24.608  1.00  0.00    -0.264 OA
BRANCH  10  12
HETATM   12  O1  UNL     1     -18.014   0.362 -26.695  1.00  0.00    -0.326 OA
HETATM   13  C1  UNL     1     -19.331   0.479 -27.187  1.00  0.00     0.213 C 
ENDBRANCH  10  12
ENDBRANCH   1  10
BRANCH   9  14
HETATM   14  C8  UNL     1     -15.402  -1.656 -28.213  1.00  0.00    -0.026 C 
HETATM   15  C9  UNL     1     -14.483  -1.159 -27.047  1.00  0.00     0.019 C 
HETATM   16  C10 UNL     1     -15.530  -0.465 -29.090  1.00  0.00     0.019 C 
HETATM   17  C11 UNL     1     -14.577  -2.758 -28.765  1.00  0.00     0.019 C 
ENDBRANCH   9  14
TORSDOF 3
ENDMDL
MODEL 2
REMARK VINA RESULT: -5.031302088      2.781      4.364
REMARK  3 active torsions:
REMARK  status: ('A' for Active; 'I' for Inactive)
REMARK    1  A    between atoms: O1_2  and  C2_3 
REMARK    2  A    between atoms: C2_3  and  C3_5 
REMARK    3  A    between atoms: C7_13  and  C8_14 
ROOT
HETATM    1  C3  UNL     1     -15.592  -2.484 -27.191  1.00  0.00     0.172 C 
HETATM    2  C4  UNL     1     -14.774  -1.269 -27.466  1.00  0.00     0.062 C 
HETATM    3  N1  UNL     1     -13.590  -0.938 -27.344  1.00  0.00    -0.396 N 
ATOM      4  H11 UNL     1     -13.030  -0.106 -27.532  1.00  0.00     0.156 HD
ATOM      5  H12 UNL     1     -12.832  -1.514 -26.977  1.00  0.00     0.156 HD
HETATM    6  S1  UNL     1     -16.132  -0.236 -28.123  1.00  0.00    -0.081 SA
HETATM    7  C5  UNL     1     -17.299  -0.856 -26.841  1.00  0.00    -0.015 C 
HETATM    8  C6  UNL     1     -18.425  -0.021 -26.487  1.00  0.00     0.056 C 
HETATM    9  C7  UNL     1     -16.842  -2.042 -26.475  1.00  0.00    -0.040 C 
ENDROOT
BRANCH   1  10
HETATM   10  C2  UNL     1     -15.880  -3.091 -28.514  1.00  0.00     0.273 C 
HETATM   11  O2  UNL     1     -14.937  -3.051 -29.382  1.00  0.00    -0.264 OA
BRANCH  10  12
HETATM   12  O1  UNL     1     -17.049  -3.688 -28.897  1.00  0.00    -0.326 OA
HETATM   13  C1  UNL     1     -17.804  -3.148 -29.959  1.00  0.00     0.213 C 
ENDBRANCH  10  12
ENDBRANCH   1  10
BRANCH   9  14
HETATM   14  C8  UNL     1     -17.460  -2.900 -25.402  1.00  0.00    -0.026 C 
HETATM   15  C9  UNL     1     -18.973  -2.967 -25.794  1.00  0.00     0.019 C 
HETATM   16  C10 UNL     1     -17.475  -2.297 -24.045  1.00  0.00     0.019 C 
HETATM   17  C11 UNL     1     -17.097  -4.337 -25.447  1.00  0.00     0.019 C 
ENDBRANCH   9  14
TORSDOF 3
ENDMDL
MODEL 3
REMARK VINA RESULT: -4.966412916      0.789      1.343
REMARK  3 active torsions:
REMARK  status: ('A' for Active; 'I' for Inactive)
REMARK    1  A    between atoms: O1_2  and  C2_3 
REMARK    2  A    between atoms: C2_3  and  C3_5 
REMARK    3  A    between atoms: C7_13  and  C8_14 
ROOT
HETATM    1  C3  UNL     1     -17.146  -1.727 -26.061  1.00  0.00     0.172 C 
HETATM    2  C4  UNL     1     -17.837  -2.986 -25.665  1.00  0.00     0.062 C 
HETATM    3  N1  UNL     1     -17.748  -3.808 -24.747  1.00  0.00    -0.396 N 
ATOM      4  H11 UNL     1     -18.221  -4.671 -24.476  1.00  0.00     0.156 HD
ATOM      5  H12 UNL     1     -17.088  -3.783 -23.970  1.00  0.00     0.156 HD
HETATM    6  S1  UNL     1     -19.021  -3.031 -27.057  1.00  0.00    -0.081 SA
HETATM    7  C5  UNL     1     -17.729  -2.479 -28.247  1.00  0.00    -0.015 C 
HETATM    8  C6  UNL     1     -17.899  -2.821 -29.642  1.00  0.00     0.056 C 
HETATM    9  C7  UNL     1     -16.833  -1.819 -27.532  1.00  0.00    -0.040 C 
ENDROOT
BRANCH   1  10
HETATM   10  C2  UNL     1     -18.090  -0.626 -25.748  1.00  0.00     0.273 C 
HETATM   11  O2  UNL     1     -18.077   0.385 -26.538  1.00  0.00    -0.264 OA
BRANCH  10  12
HETATM   12  O1  UNL     1     -18.971  -0.584 -24.703  1.00  0.00    -0.326 OA
HETATM   13  C1  UNL     1     -18.577  -0.026 -23.469  1.00  0.00     0.213 C 
ENDBRANCH  10  12
ENDBRANCH   1  10
BRANCH   9  14
HETATM   14  C8  UNL     1     -15.564  -1.227 -28.089  1.00  0.00    -0.026 C 
HETATM   15  C9  UNL     1     -14.664  -1.003 -26.830  1.00  0.00     0.019 C 
HETATM   16  C10 UNL     1     -15.705   0.133 -28.667  1.00  0.00     0.019 C 
HETATM   17  C11 UNL     1     -14.718  -2.159 -28.874  1.00  0.00     0.019 C 
ENDBRANCH   9  14
TORSDOF 3
ENDMDL
MODEL 4
REMARK VINA RESULT: -4.950477574      2.767      4.343
REMARK  3 active torsions:
REMARK  status: ('A' for Active; 'I' for Inactive)
REMARK    1  A    between atoms: O1_2  and  C2_3 
REMARK    2  A    between atoms: C2_3  and  C3_5 
REMARK    3  A    between atoms: C7_13  and  C8_14 
ROOT
HETATM    1  C3  UNL     1     -15.730  -2.370 -27.219  1.00  0.00     0.172 C 
HETATM    2  C4  UNL     1     -14.879  -1.171 -27.455  1.00  0.00     0.062 C 
HETATM    3  N1  UNL     1     -13.701  -0.853 -27.257  1.00  0.00    -0.396 N 
ATOM      4  H11 UNL     1     -13.117  -0.032 -27.418  1.00  0.00     0.156 HD
ATOM      5  H12 UNL     1     -12.978  -1.433 -26.830  1.00  0.00     0.156 HD
HETATM    6  S1  UNL     1     -16.174  -0.132 -28.220  1.00  0.00    -0.081 SA
HETATM    7  C5  UNL     1     -17.434  -0.715 -27.011  1.00  0.00    -0.015 C 
HETATM    8  C6  UNL     1     -18.570   0.140 -26.748  1.00  0.00     0.056 C 
HETATM    9  C7  UNL     1     -17.019  -1.901 -26.597  1.00  0.00    -0.040 C 
ENDROOT
BRANCH   1  10
HETATM   10  C2  UNL     1     -15.935  -2.995 -28.549  1.00  0.00     0.273 C 
HETATM   11  O2  UNL     1     -14.928  -2.999 -29.343  1.00  0.00    -0.264 OA
BRANCH  10  12
HETATM   12  O1  UNL     1     -17.089  -3.566 -29.009  1.00  0.00    -0.326 OA
HETATM   13  C1  UNL     1     -17.734  -3.037 -30.147  1.00  0.00     0.213 C 
ENDBRANCH  10  12
ENDBRANCH   1  10
BRANCH   9  14
HETATM   14  C8  UNL     1     -17.722  -2.733 -25.555  1.00  0.00    -0.026 C 
HETATM   15  C9  UNL     1     -16.967  -4.104 -25.592  1.00  0.00     0.019 C 
HETATM   16  C10 UNL     1     -19.124  -3.096 -25.880  1.00  0.00     0.019 C 
HETATM   17  C11 UNL     1     -17.488  -2.325 -24.149  1.00  0.00     0.019 C 
ENDBRANCH   9  14
TORSDOF 3
ENDMDL
MODEL 5
REMARK VINA RESULT: -4.931485246      2.671      4.596
REMARK  3 active torsions:
REMARK  status: ('A' for Active; 'I' for Inactive)
REMARK    1  A    between atoms: O1_2  and  C2_3 
REMARK    2  A    between atoms: C2_3  and  C3_5 
REMARK    3  A    between atoms: C7_13  and  C8_14 
ROOT
HETATM    1  C3  UNL     1     -16.582  -2.155 -25.460  1.00  0.00     0.172 C 
HETATM    2  C4  UNL     1     -15.833  -1.599 -26.622  1.00  0.00     0.062 C 
HETATM    3  N1  UNL     1     -14.649  -1.391 -26.910  1.00  0.00    -0.396 N 
ATOM      4  H11 UNL     1     -14.136  -1.010 -27.705  1.00  0.00     0.156 HD
ATOM      5  H12 UNL     1     -13.837  -1.587 -26.325  1.00  0.00     0.156 HD
HETATM    6  S1  UNL     1     -17.288  -1.247 -27.670  1.00  0.00    -0.081 SA
HETATM    7  C5  UNL     1     -18.252  -0.635 -26.226  1.00  0.00    -0.015 C 
HETATM    8  C6  UNL     1     -19.332   0.294 -26.474  1.00  0.00     0.056 C 
HETATM    9  C7  UNL     1     -17.726  -1.221 -25.163  1.00  0.00    -0.040 C 
ENDROOT
BRANCH   1  10
HETATM   10  C2  UNL     1     -17.041  -3.503 -25.877  1.00  0.00     0.273 C 
HETATM   11  O2  UNL     1     -17.880  -4.089 -25.104  1.00  0.00    -0.264 OA
BRANCH  10  12
HETATM   12  O1  UNL     1     -16.659  -4.179 -27.002  1.00  0.00    -0.326 OA
HETATM   13  C1  UNL     1     -15.791  -5.287 -26.901  1.00  0.00     0.213 C 
ENDBRANCH  10  12
ENDBRANCH   1  10
BRANCH   9  14
HETATM   14  C8  UNL     1     -18.171  -0.973 -23.745  1.00  0.00    -0.026 C 
HETATM   15  C9  UNL     1     -16.986  -1.508 -22.875  1.00  0.00     0.019 C 
HETATM   16  C10 UNL     1     -19.330  -1.786 -23.298  1.00  0.00     0.019 C 
HETATM   17  C11 UNL     1     -18.203   0.450 -23.326  1.00  0.00     0.019 C 
ENDBRANCH   9  14
TORSDOF 3
ENDMDL
