MODEL 1
REMARK VINA RESULT: -8.074501185      0.000      0.000
REMARK  14 active torsions:
REMARK  status: ('A' for Active; 'I' for Inactive)
REMARK    1  A    between atoms: O1_2  and  C2_3 
REMARK    2  A    between atoms: C4_5  and  C5_6 
REMARK    3  A    between atoms: C6_7  and  C7_8 
REMARK    4  A    between atoms: C7_8  and  O2_9 
REMARK    5  A    between atoms: C9_12  and  O3_13 
REMARK    6  A    between atoms: O3_13  and  C10_14 
REMARK    7  A    between atoms: C11_16  and  C12_17 
REMARK    8  A    between atoms: C12_17  and  O5_18 
REMARK    9  A    between atoms: C13_20  and  O6_21 
REMARK   10  A    between atoms: C14_23  and  O7_24 
REMARK   11  A    between atoms: O7_24  and  C15_25 
REMARK   12  A    between atoms: C18_28  and  O8_29 
REMARK   13  A    between atoms: C19_31  and  O9_32 
REMARK   14  A    between atoms: C21_35  and  O10_36 
ROOT
HETATM    1  C10 UNL     1     -14.142  19.408  25.808  1.00  0.00     0.298 C 
HETATM    2  O4  UNL     1     -14.400  20.493  24.972  1.00  0.00    -0.348 OA
HETATM    3  C11 UNL     1     -13.990  21.647  25.579  1.00  0.00     0.179 C 
HETATM    4  C13 UNL     1     -12.699  21.170  26.265  1.00  0.00     0.183 C 
HETATM    5  C14 UNL     1     -13.250  19.938  26.945  1.00  0.00     0.208 C 
ENDROOT
BRANCH   1   6
HETATM    6  O3  UNL     1     -15.278  18.801  26.288  1.00  0.00    -0.315 OA
BRANCH   6   7
HETATM    7  C9  UNL     1     -16.443  18.665  25.596  1.00  0.00     0.109 A 
HETATM    8  C8  UNL     1     -16.615  18.165  24.328  1.00  0.00     0.051 A 
HETATM    9  C4  UNL     1     -17.827  18.051  23.678  1.00  0.00    -0.031 A 
HETATM   10  C3  UNL     1     -18.951  18.490  24.394  1.00  0.00     0.051 A 
HETATM   11  C2  UNL     1     -18.862  18.995  25.651  1.00  0.00     0.105 A 
HETATM   12  C21 UNL     1     -17.633  19.080  26.237  1.00  0.00     0.135 A 
BRANCH   9  13
HETATM   13  C5  UNL     1     -17.988  17.520  22.338  1.00  0.00     0.009 C 
HETATM   14  C6  UNL     1     -19.156  17.166  21.865  1.00  0.00    -0.000 C 
BRANCH  14  15
HETATM   15  C7  UNL     1     -19.274  16.619  20.461  1.00  0.00     0.191 C 
BRANCH  15  16
HETATM   16  O2  UNL     1     -18.011  16.331  19.955  1.00  0.00    -0.397 OA
ATOM     17  H2  UNL     1     -17.977  15.428  19.660  1.00  0.00     0.209 HD
ENDBRANCH  15  16
ENDBRANCH  14  15
ENDBRANCH   9  13
BRANCH  11  18
HETATM   18  O1  UNL     1     -20.005  19.425  26.338  1.00  0.00    -0.353 OA
HETATM   19  C1  UNL     1     -20.930  18.528  26.888  1.00  0.00     0.210 C 
ENDBRANCH  11  18
BRANCH  12  20
HETATM   20  O10 UNL     1     -17.540  19.593  27.509  1.00  0.00    -0.351 OA
HETATM   21  C22 UNL     1     -16.990  20.885  27.704  1.00  0.00     0.210 C 
ENDBRANCH  12  20
ENDBRANCH   6   7
ENDBRANCH   1   6
BRANCH   5  22
HETATM   22  O7  UNL     1     -12.315  18.993  27.222  1.00  0.00    -0.373 OA
BRANCH  22  23
HETATM   23  C15 UNL     1     -12.129  18.705  28.555  1.00  0.00     0.124 C 
HETATM   24  C16 UNL     1     -13.222  17.944  29.214  1.00  0.00     0.034 C 
HETATM   25  C17 UNL     1     -12.949  17.922  30.710  1.00  0.00     0.036 C 
HETATM   26  C18 UNL     1     -11.554  17.450  31.017  1.00  0.00     0.147 C 
HETATM   27  C19 UNL     1     -10.800  16.971  29.821  1.00  0.00     0.149 C 
HETATM   28  C20 UNL     1     -10.847  17.867  28.636  1.00  0.00     0.066 C 
BRANCH  26  29
HETATM   29  O8  UNL     1     -11.674  16.357  31.905  1.00  0.00    -0.393 OA
ATOM     30  H8  UNL     1     -10.849  16.285  32.369  1.00  0.00     0.210 HD
ENDBRANCH  26  29
BRANCH  27  31
HETATM   31  O9  UNL     1     -11.146  15.640  29.487  1.00  0.00    -0.393 OA
ATOM     32  H9  UNL     1     -12.082  15.496  29.553  1.00  0.00     0.210 HD
ENDBRANCH  27  31
ENDBRANCH  22  23
ENDBRANCH   5  22
BRANCH   3  33
HETATM   33  C12 UNL     1     -13.700  22.766  24.617  1.00  0.00     0.198 C 
BRANCH  33  34
HETATM   34  O5  UNL     1     -13.266  23.865  25.376  1.00  0.00    -0.398 OA
ATOM     35  H5  UNL     1     -12.953  24.522  24.766  1.00  0.00     0.209 HD
ENDBRANCH  33  34
ENDBRANCH   3  33
BRANCH   4  36
HETATM   36  O6  UNL     1     -12.233  22.121  27.156  1.00  0.00    -0.390 OA
ATOM     37  H6  UNL     1     -11.397  21.860  27.524  1.00  0.00     0.210 HD
ENDBRANCH   4  36
TORSDOF 14
ENDMDL
MODEL 2
REMARK VINA RESULT: -7.848564904      1.168      1.529
REMARK  14 active torsions:
REMARK  status: ('A' for Active; 'I' for Inactive)
REMARK    1  A    between atoms: O1_2  and  C2_3 
REMARK    2  A    between atoms: C4_5  and  C5_6 
REMARK    3  A    between atoms: C6_7  and  C7_8 
REMARK    4  A    between atoms: C7_8  and  O2_9 
REMARK    5  A    between atoms: C9_12  and  O3_13 
REMARK    6  A    between atoms: O3_13  and  C10_14 
REMARK    7  A    between atoms: C11_16  and  C12_17 
REMARK    8  A    between atoms: C12_17  and  O5_18 
REMARK    9  A    between atoms: C13_20  and  O6_21 
REMARK   10  A    between atoms: C14_23  and  O7_24 
REMARK   11  A    between atoms: O7_24  and  C15_25 
REMARK   12  A    between atoms: C18_28  and  O8_29 
REMARK   13  A    between atoms: C19_31  and  O9_32 
REMARK   14  A    between atoms: C21_35  and  O10_36 
ROOT
HETATM    1  C10 UNL     1     -15.445  19.020  25.717  1.00  0.00     0.298 C 
HETATM    2  O4  UNL     1     -15.285  20.137  24.897  1.00  0.00    -0.348 OA
HETATM    3  C11 UNL     1     -14.643  21.125  25.589  1.00  0.00     0.179 C 
HETATM    4  C13 UNL     1     -13.631  20.300  26.400  1.00  0.00     0.183 C 
HETATM    5  C14 UNL     1     -14.583  19.273  26.967  1.00  0.00     0.208 C 
ENDROOT
BRANCH   1   6
HETATM    6  O3  UNL     1     -16.754  18.759  26.040  1.00  0.00    -0.315 OA
BRANCH   6   7
HETATM    7  C9  UNL     1     -17.739  18.470  25.145  1.00  0.00     0.109 A 
HETATM    8  C8  UNL     1     -17.599  17.960  23.877  1.00  0.00     0.051 A 
HETATM    9  C4  UNL     1     -18.639  17.687  23.012  1.00  0.00    -0.031 A 
HETATM   10  C3  UNL     1     -19.927  17.962  23.495  1.00  0.00     0.051 A 
HETATM   11  C2  UNL     1     -20.146  18.466  24.737  1.00  0.00     0.105 A 
HETATM   12  C21 UNL     1     -19.074  18.714  25.542  1.00  0.00     0.135 A 
BRANCH   9  13
HETATM   13  C5  UNL     1     -18.470  17.148  21.675  1.00  0.00     0.009 C 
HETATM   14  C6  UNL     1     -19.490  16.868  20.904  1.00  0.00    -0.000 C 
BRANCH  14  15
HETATM   15  C7  UNL     1     -19.264  16.311  19.518  1.00  0.00     0.191 C 
BRANCH  15  16
HETATM   16  O2  UNL     1     -17.901  16.250  19.246  1.00  0.00    -0.397 OA
ATOM     17  H2  UNL     1     -17.745  16.432  18.326  1.00  0.00     0.209 HD
ENDBRANCH  15  16
ENDBRANCH  14  15
ENDBRANCH   9  13
BRANCH  11  18
HETATM   18  O1  UNL     1     -21.447  18.730  25.188  1.00  0.00    -0.353 OA
HETATM   19  C1  UNL     1     -22.583  18.352  24.462  1.00  0.00     0.210 C 
ENDBRANCH  11  18
BRANCH  12  20
HETATM   20  O10 UNL     1     -19.293  19.225  26.799  1.00  0.00    -0.351 OA
HETATM   21  C22 UNL     1     -20.325  18.681  27.605  1.00  0.00     0.210 C 
ENDBRANCH  12  20
ENDBRANCH   6   7
ENDBRANCH   1   6
BRANCH   5  22
HETATM   22  O7  UNL     1     -13.992  18.101  27.314  1.00  0.00    -0.373 OA
BRANCH  22  23
HETATM   23  C15 UNL     1     -13.674  17.960  28.646  1.00  0.00     0.124 C 
HETATM   24  C16 UNL     1     -14.230  16.760  29.323  1.00  0.00     0.034 C 
HETATM   25  C17 UNL     1     -13.968  16.894  30.816  1.00  0.00     0.036 C 
HETATM   26  C18 UNL     1     -12.522  17.192  31.106  1.00  0.00     0.147 C 
HETATM   27  C19 UNL     1     -11.641  17.145  29.902  1.00  0.00     0.149 C 
HETATM   28  C20 UNL     1     -12.143  17.882  28.713  1.00  0.00     0.066 C 
BRANCH  26  29
HETATM   29  O8  UNL     1     -12.068  16.196  32.000  1.00  0.00    -0.393 OA
ATOM     30  H8  UNL     1     -11.894  15.419  31.482  1.00  0.00     0.210 HD
ENDBRANCH  26  29
BRANCH  27  31
HETATM   31  O9  UNL     1     -11.273  15.816  29.578  1.00  0.00    -0.393 OA
ATOM     32  H9  UNL     1     -11.018  15.737  28.667  1.00  0.00     0.210 HD
ENDBRANCH  27  31
ENDBRANCH  22  23
ENDBRANCH   5  22
BRANCH   3  33
HETATM   33  C12 UNL     1     -13.937  22.119  24.709  1.00  0.00     0.198 C 
BRANCH  33  34
HETATM   34  O5  UNL     1     -13.808  23.308  25.445  1.00  0.00    -0.398 OA
ATOM     35  H5  UNL     1     -14.679  23.672  25.548  1.00  0.00     0.209 HD
ENDBRANCH  33  34
ENDBRANCH   3  33
BRANCH   4  36
HETATM   36  O6  UNL     1     -13.027  21.077  27.374  1.00  0.00    -0.390 OA
ATOM     37  H6  UNL     1     -12.152  20.763  27.565  1.00  0.00     0.210 HD
ENDBRANCH   4  36
TORSDOF 14
ENDMDL
MODEL 3
REMARK VINA RESULT: -7.800230654      1.998      4.902
REMARK  14 active torsions:
REMARK  status: ('A' for Active; 'I' for Inactive)
REMARK    1  A    between atoms: O1_2  and  C2_3 
REMARK    2  A    between atoms: C4_5  and  C5_6 
REMARK    3  A    between atoms: C6_7  and  C7_8 
REMARK    4  A    between atoms: C7_8  and  O2_9 
REMARK    5  A    between atoms: C9_12  and  O3_13 
REMARK    6  A    between atoms: O3_13  and  C10_14 
REMARK    7  A    between atoms: C11_16  and  C12_17 
REMARK    8  A    between atoms: C12_17  and  O5_18 
REMARK    9  A    between atoms: C13_20  and  O6_21 
REMARK   10  A    between atoms: C14_23  and  O7_24 
REMARK   11  A    between atoms: O7_24  and  C15_25 
REMARK   12  A    between atoms: C18_28  and  O8_29 
REMARK   13  A    between atoms: C19_31  and  O9_32 
REMARK   14  A    between atoms: C21_35  and  O10_36 
ROOT
HETATM    1  C10 UNL     1     -12.743  18.697  27.082  1.00  0.00     0.298 C 
HETATM    2  O4  UNL     1     -12.190  18.209  28.266  1.00  0.00    -0.348 OA
HETATM    3  C11 UNL     1     -10.916  17.775  28.032  1.00  0.00     0.179 C 
HETATM    4  C13 UNL     1     -10.425  18.840  27.038  1.00  0.00     0.183 C 
HETATM    5  C14 UNL     1     -11.586  18.796  26.071  1.00  0.00     0.208 C 
ENDROOT
BRANCH   1   6
HETATM    6  O3  UNL     1     -13.779  17.931  26.603  1.00  0.00    -0.315 OA
BRANCH   6   7
HETATM    7  C9  UNL     1     -14.983  18.415  26.189  1.00  0.00     0.109 A 
HETATM    8  C8  UNL     1     -15.784  17.928  25.184  1.00  0.00     0.051 A 
HETATM    9  C4  UNL     1     -16.999  18.463  24.809  1.00  0.00    -0.031 A 
HETATM   10  C3  UNL     1     -17.421  19.592  25.527  1.00  0.00     0.051 A 
HETATM   11  C2  UNL     1     -16.685  20.131  26.532  1.00  0.00     0.105 A 
HETATM   12  C21 UNL     1     -15.493  19.554  26.854  1.00  0.00     0.135 A 
BRANCH   9  13
HETATM   13  C5  UNL     1     -17.830  17.934  23.744  1.00  0.00     0.009 C 
HETATM   14  C6  UNL     1     -18.956  18.502  23.392  1.00  0.00    -0.000 C 
BRANCH  14  15
HETATM   15  C7  UNL     1     -19.787  17.915  22.275  1.00  0.00     0.191 C 
BRANCH  15  16
HETATM   16  O2  UNL     1     -19.005  17.071  21.493  1.00  0.00    -0.397 OA
ATOM     17  H2  UNL     1     -19.012  17.365  20.590  1.00  0.00     0.209 HD
ENDBRANCH  15  16
ENDBRANCH  14  15
ENDBRANCH   9  13
BRANCH  11  18
HETATM   18  O1  UNL     1     -17.136  21.260  27.230  1.00  0.00    -0.353 OA
HETATM   19  C1  UNL     1     -16.887  22.565  26.786  1.00  0.00     0.210 C 
ENDBRANCH  11  18
BRANCH  12  20
HETATM   20  O10 UNL     1     -14.746  20.098  27.871  1.00  0.00    -0.351 OA
HETATM   21  C22 UNL     1     -15.041  19.758  29.216  1.00  0.00     0.210 C 
ENDBRANCH  12  20
ENDBRANCH   6   7
ENDBRANCH   1   6
BRANCH   5  22
HETATM   22  O7  UNL     1     -11.753  19.935  25.352  1.00  0.00    -0.373 OA
BRANCH  22  23
HETATM   23  C15 UNL     1     -12.324  20.991  26.025  1.00  0.00     0.124 C 
HETATM   24  C16 UNL     1     -11.380  21.998  26.574  1.00  0.00     0.034 C 
HETATM   25  C17 UNL     1     -12.166  22.948  27.465  1.00  0.00     0.036 C 
HETATM   26  C18 UNL     1     -13.373  23.506  26.761  1.00  0.00     0.147 C 
HETATM   27  C19 UNL     1     -13.458  23.134  25.317  1.00  0.00     0.149 C 
HETATM   28  C20 UNL     1     -13.241  21.695  25.016  1.00  0.00     0.066 C 
BRANCH  26  29
HETATM   29  O8  UNL     1     -13.274  24.915  26.827  1.00  0.00    -0.393 OA
ATOM     30  H8  UNL     1     -14.141  25.262  26.650  1.00  0.00     0.210 HD
ENDBRANCH  26  29
BRANCH  27  31
HETATM   31  O9  UNL     1     -12.640  23.966  24.516  1.00  0.00    -0.393 OA
ATOM     32  H9  UNL     1     -13.038  24.137  23.671  1.00  0.00     0.210 HD
ENDBRANCH  27  31
ENDBRANCH  22  23
ENDBRANCH   5  22
BRANCH   3  33
HETATM   33  C12 UNL     1     -10.049  17.753  29.260  1.00  0.00     0.198 C 
BRANCH  33  34
HETATM   34  O5  UNL     1      -8.861  17.088  28.918  1.00  0.00    -0.398 OA
ATOM     35  H5  UNL     1      -9.085  16.420  28.282  1.00  0.00     0.209 HD
ENDBRANCH  33  34
ENDBRANCH   3  33
BRANCH   4  36
HETATM   36  O6  UNL     1      -9.224  18.462  26.461  1.00  0.00    -0.390 OA
ATOM     37  H6  UNL     1      -9.287  17.592  26.085  1.00  0.00     0.210 HD
ENDBRANCH   4  36
TORSDOF 14
ENDMDL
MODEL 4
REMARK VINA RESULT: -7.720476219      1.398      1.694
REMARK  14 active torsions:
REMARK  status: ('A' for Active; 'I' for Inactive)
REMARK    1  A    between atoms: O1_2  and  C2_3 
REMARK    2  A    between atoms: C4_5  and  C5_6 
REMARK    3  A    between atoms: C6_7  and  C7_8 
REMARK    4  A    between atoms: C7_8  and  O2_9 
REMARK    5  A    between atoms: C9_12  and  O3_13 
REMARK    6  A    between atoms: O3_13  and  C10_14 
REMARK    7  A    between atoms: C11_16  and  C12_17 
REMARK    8  A    between atoms: C12_17  and  O5_18 
REMARK    9  A    between atoms: C13_20  and  O6_21 
REMARK   10  A    between atoms: C14_23  and  O7_24 
REMARK   11  A    between atoms: O7_24  and  C15_25 
REMARK   12  A    between atoms: C18_28  and  O8_29 
REMARK   13  A    between atoms: C19_31  and  O9_32 
REMARK   14  A    between atoms: C21_35  and  O10_36 
ROOT
HETATM    1  C10 UNL     1     -15.495  20.529  24.651  1.00  0.00     0.298 C 
HETATM    2  O4  UNL     1     -15.090  21.588  23.838  1.00  0.00    -0.348 OA
HETATM    3  C11 UNL     1     -14.365  22.480  24.577  1.00  0.00     0.179 C 
HETATM    4  C13 UNL     1     -13.571  21.528  25.485  1.00  0.00     0.183 C 
HETATM    5  C14 UNL     1     -14.720  20.674  25.973  1.00  0.00     0.208 C 
ENDROOT
BRANCH   1   6
HETATM    6  O3  UNL     1     -16.854  20.482  24.855  1.00  0.00    -0.315 OA
BRANCH   6   7
HETATM    7  C9  UNL     1     -17.672  19.471  24.451  1.00  0.00     0.109 A 
HETATM    8  C8  UNL     1     -17.645  18.796  23.255  1.00  0.00     0.051 A 
HETATM    9  C4  UNL     1     -18.504  17.776  22.901  1.00  0.00    -0.031 A 
HETATM   10  C3  UNL     1     -19.468  17.425  23.858  1.00  0.00     0.051 A 
HETATM   11  C2  UNL     1     -19.557  18.046  25.062  1.00  0.00     0.105 A 
HETATM   12  C21 UNL     1     -18.677  19.047  25.350  1.00  0.00     0.135 A 
BRANCH   9  13
HETATM   13  C5  UNL     1     -18.460  17.074  21.631  1.00  0.00     0.009 C 
HETATM   14  C6  UNL     1     -19.536  16.862  20.916  1.00  0.00    -0.000 C 
BRANCH  14  15
HETATM   15  C7  UNL     1     -19.439  16.128  19.599  1.00  0.00     0.191 C 
BRANCH  15  16
HETATM   16  O2  UNL     1     -18.204  16.372  19.007  1.00  0.00    -0.397 OA
ATOM     17  H2  UNL     1     -18.242  16.170  18.079  1.00  0.00     0.209 HD
ENDBRANCH  15  16
ENDBRANCH  14  15
ENDBRANCH   9  13
BRANCH  11  18
HETATM   18  O1  UNL     1     -20.533  17.670  25.996  1.00  0.00    -0.353 OA
HETATM   19  C1  UNL     1     -21.570  16.784  25.680  1.00  0.00     0.210 C 
ENDBRANCH  11  18
BRANCH  12  20
HETATM   20  O10 UNL     1     -18.766  19.677  26.568  1.00  0.00    -0.351 OA
HETATM   21  C22 UNL     1     -17.746  19.480  27.534  1.00  0.00     0.210 C 
ENDBRANCH  12  20
ENDBRANCH   6   7
ENDBRANCH   1   6
BRANCH   5  22
HETATM   22  O7  UNL     1     -14.353  19.433  26.383  1.00  0.00    -0.373 OA
BRANCH  22  23
HETATM   23  C15 UNL     1     -13.758  19.362  27.622  1.00  0.00     0.124 C 
HETATM   24  C16 UNL     1     -14.676  19.170  28.774  1.00  0.00     0.034 C 
HETATM   25  C17 UNL     1     -13.872  19.345  30.054  1.00  0.00     0.036 C 
HETATM   26  C18 UNL     1     -12.635  18.488  30.060  1.00  0.00     0.147 C 
HETATM   27  C19 UNL     1     -12.540  17.555  28.898  1.00  0.00     0.149 C 
HETATM   28  C20 UNL     1     -12.801  18.164  27.568  1.00  0.00     0.066 C 
BRANCH  26  29
HETATM   29  O8  UNL     1     -12.687  17.698  31.231  1.00  0.00    -0.393 OA
ATOM     30  H8  UNL     1     -11.814  17.350  31.369  1.00  0.00     0.210 HD
ENDBRANCH  26  29
BRANCH  27  31
HETATM   31  O9  UNL     1     -13.315  16.389  29.102  1.00  0.00    -0.393 OA
ATOM     32  H9  UNL     1     -12.789  15.602  29.022  1.00  0.00     0.210 HD
ENDBRANCH  27  31
ENDBRANCH  22  23
ENDBRANCH   5  22
BRANCH   3  33
HETATM   33  C12 UNL     1     -13.437  23.331  23.756  1.00  0.00     0.198 C 
BRANCH  33  34
HETATM   34  O5  UNL     1     -12.959  24.353  24.592  1.00  0.00    -0.398 OA
ATOM     35  H5  UNL     1     -12.890  25.139  24.065  1.00  0.00     0.209 HD
ENDBRANCH  33  34
ENDBRANCH   3  33
BRANCH   4  36
HETATM   36  O6  UNL     1     -12.942  22.224  26.503  1.00  0.00    -0.390 OA
ATOM     37  H6  UNL     1     -12.126  22.605  26.199  1.00  0.00     0.210 HD
ENDBRANCH   4  36
TORSDOF 14
ENDMDL
MODEL 5
REMARK VINA RESULT: -7.718860041      1.532      1.827
REMARK  14 active torsions:
REMARK  status: ('A' for Active; 'I' for Inactive)
REMARK    1  A    between atoms: O1_2  and  C2_3 
REMARK    2  A    between atoms: C4_5  and  C5_6 
REMARK    3  A    between atoms: C6_7  and  C7_8 
REMARK    4  A    between atoms: C7_8  and  O2_9 
REMARK    5  A    between atoms: C9_12  and  O3_13 
REMARK    6  A    between atoms: O3_13  and  C10_14 
REMARK    7  A    between atoms: C11_16  and  C12_17 
REMARK    8  A    between atoms: C12_17  and  O5_18 
REMARK    9  A    between atoms: C13_20  and  O6_21 
REMARK   10  A    between atoms: C14_23  and  O7_24 
REMARK   11  A    between atoms: O7_24  and  C15_25 
REMARK   12  A    between atoms: C18_28  and  O8_29 
REMARK   13  A    between atoms: C19_31  and  O9_32 
REMARK   14  A    between atoms: C21_35  and  O10_36 
ROOT
HETATM    1  C10 UNL     1     -14.123  20.066  26.099  1.00  0.00     0.298 C 
HETATM    2  O4  UNL     1     -12.966  20.635  25.567  1.00  0.00    -0.348 OA
HETATM    3  C11 UNL     1     -12.344  21.387  26.524  1.00  0.00     0.179 C 
HETATM    4  C13 UNL     1     -12.575  20.518  27.771  1.00  0.00     0.183 C 
HETATM    5  C14 UNL     1     -14.063  20.301  27.620  1.00  0.00     0.208 C 
ENDROOT
BRANCH   1   6
HETATM    6  O3  UNL     1     -15.282  20.560  25.549  1.00  0.00    -0.315 OA
BRANCH   6   7
HETATM    7  C9  UNL     1     -16.391  19.823  25.267  1.00  0.00     0.109 A 
HETATM    8  C8  UNL     1     -16.644  19.083  24.138  1.00  0.00     0.051 A 
HETATM    9  C4  UNL     1     -17.792  18.353  23.909  1.00  0.00    -0.031 A 
HETATM   10  C3  UNL     1     -18.757  18.390  24.926  1.00  0.00     0.051 A 
HETATM   11  C2  UNL     1     -18.580  19.099  26.071  1.00  0.00     0.105 A 
HETATM   12  C21 UNL     1     -17.421  19.799  26.235  1.00  0.00     0.135 A 
BRANCH   9  13
HETATM   13  C5  UNL     1     -18.041  17.577  22.708  1.00  0.00     0.009 C 
HETATM   14  C6  UNL     1     -19.217  17.542  22.133  1.00  0.00    -0.000 C 
BRANCH  14  15
HETATM   15  C7  UNL     1     -19.427  16.720  20.882  1.00  0.00     0.191 C 
BRANCH  15  16
HETATM   16  O2  UNL     1     -20.366  17.335  20.061  1.00  0.00    -0.397 OA
ATOM     17  H2  UNL     1     -20.047  17.362  19.166  1.00  0.00     0.209 HD
ENDBRANCH  15  16
ENDBRANCH  14  15
ENDBRANCH   9  13
BRANCH  11  18
HETATM   18  O1  UNL     1     -19.564  19.114  27.068  1.00  0.00    -0.353 OA
HETATM   19  C1  UNL     1     -20.834  18.556  26.876  1.00  0.00     0.210 C 
ENDBRANCH  11  18
BRANCH  12  20
HETATM   20  O10 UNL     1     -17.240  20.517  27.393  1.00  0.00    -0.351 OA
HETATM   21  C22 UNL     1     -17.172  21.932  27.335  1.00  0.00     0.210 C 
ENDBRANCH  12  20
ENDBRANCH   6   7
ENDBRANCH   1   6
BRANCH   5  22
HETATM   22  O7  UNL     1     -14.527  19.183  28.236  1.00  0.00    -0.373 OA
BRANCH  22  23
HETATM   23  C15 UNL     1     -13.628  18.530  29.049  1.00  0.00     0.124 C 
HETATM   24  C16 UNL     1     -13.857  18.667  30.511  1.00  0.00     0.034 C 
HETATM   25  C17 UNL     1     -12.654  18.081  31.235  1.00  0.00     0.036 C 
HETATM   26  C18 UNL     1     -12.334  16.691  30.755  1.00  0.00     0.147 C 
HETATM   27  C19 UNL     1     -13.336  16.136  29.797  1.00  0.00     0.149 C 
HETATM   28  C20 UNL     1     -13.727  17.043  28.686  1.00  0.00     0.066 C 
BRANCH  26  29
HETATM   29  O8  UNL     1     -12.331  15.853  31.893  1.00  0.00    -0.393 OA
ATOM     30  H8  UNL     1     -13.096  15.293  31.827  1.00  0.00     0.210 HD
ENDBRANCH  26  29
BRANCH  27  31
HETATM   31  O9  UNL     1     -14.466  15.614  30.470  1.00  0.00    -0.393 OA
ATOM     32  H9  UNL     1     -14.650  14.721  30.203  1.00  0.00     0.210 HD
ENDBRANCH  27  31
ENDBRANCH  22  23
ENDBRANCH   5  22
BRANCH   3  33
HETATM   33  C12 UNL     1     -10.874  21.583  26.277  1.00  0.00     0.198 C 
BRANCH  33  34
HETATM   34  O5  UNL     1     -10.349  20.343  25.882  1.00  0.00    -0.398 OA
ATOM     35  H5  UNL     1      -9.410  20.378  26.020  1.00  0.00     0.209 HD
ENDBRANCH  33  34
ENDBRANCH   3  33
BRANCH   4  36
HETATM   36  O6  UNL     1     -12.242  21.209  28.923  1.00  0.00    -0.390 OA
ATOM     37  H6  UNL     1     -13.007  21.348  29.469  1.00  0.00     0.210 HD
ENDBRANCH   4  36
TORSDOF 14
ENDMDL
