MODEL 1
REMARK VINA RESULT: -7.015186427      0.000      0.000
REMARK  8 active torsions:
REMARK  status: ('A' for Active; 'I' for Inactive)
REMARK    1  A    between atoms: O1_2  and  C2_3 
REMARK    2  A    between atoms: C2_3  and  C3_4 
REMARK    3  A    between atoms: C3_4  and  C4_5 
REMARK    4  A    between atoms: C4_5  and  C5_6 
REMARK    5  A    between atoms: C10_13  and  C11_14 
REMARK    6  A    between atoms: C17_21  and  O2_22 
REMARK    7  A    between atoms: C18_24  and  O3_25 
REMARK    8  A    between atoms: C19_27  and  O4_28 
ROOT
HETATM    1  C4  UNL     1       1.725  34.083 -23.747  1.00  0.00    -0.027 C 
HETATM    2  C6  UNL     1       2.729  34.871 -24.420  1.00  0.00     0.019 C 
HETATM    3  C7  UNL     1       2.271  36.194 -24.935  1.00  0.00     0.094 C 
HETATM    4  C8  UNL     1       2.035  37.158 -23.781  1.00  0.00     0.156 C 
HETATM    5  S1  UNL     1       0.822  38.404 -24.123  1.00  0.00    -0.114 SA
HETATM    6  C9  UNL     1       2.074  39.680 -24.336  1.00  0.00     0.072 C 
HETATM    7  C10 UNL     1       3.262  39.205 -24.015  1.00  0.00     0.022 C 
HETATM    8  N1  UNL     1       3.261  37.875 -23.607  1.00  0.00    -0.367 N 
HETATM    9  C15 UNL     1       4.435  37.246 -23.035  1.00  0.00     0.152 C 
HETATM   10  C16 UNL     1       4.242  35.770 -22.748  1.00  0.00     0.138 C 
HETATM   11  C17 UNL     1       5.431  35.355 -21.905  1.00  0.00     0.174 C 
HETATM   12  C18 UNL     1       6.604  34.917 -22.714  1.00  0.00     0.182 C 
HETATM   13  C19 UNL     1       6.149  33.706 -23.499  1.00  0.00     0.188 C 
HETATM   14  C20 UNL     1       4.889  33.965 -24.269  1.00  0.00     0.099 C 
HETATM   15  N2  UNL     1       4.020  34.930 -23.788  1.00  0.00    -0.352 N 
ENDROOT
BRANCH   1  16
HETATM   16  C3  UNL     1       0.516  33.538 -24.390  1.00  0.00     0.065 C 
BRANCH  16  17
HETATM   17  C2  UNL     1      -0.802  34.196 -24.248  1.00  0.00     0.171 C 
BRANCH  17  18
HETATM   18  O1  UNL     1      -1.829  33.268 -23.964  1.00  0.00    -0.396 OA
HETATM   19  C1  UNL     1      -1.993  33.030 -22.620  1.00  0.00     0.201 C 
ENDBRANCH  17  18
ENDBRANCH  16  17
ENDBRANCH   1  16
BRANCH   1  20
HETATM   20  C5  UNL     1       2.281  32.943 -22.879  1.00  0.00     0.258 C 
HETATM   21  F1  UNL     1       1.377  32.664 -21.864  1.00  0.00    -0.251 F 
ENDBRANCH   1  20
BRANCH  11  22
HETATM   22  O2  UNL     1       5.844  36.375 -21.055  1.00  0.00    -0.391 OA
ATOM     23  H2  UNL     1       5.379  36.354 -20.227  1.00  0.00     0.210 HD
ENDBRANCH  11  22
BRANCH  13  24
HETATM   24  O4  UNL     1       7.214  33.318 -24.312  1.00  0.00    -0.388 OA
ATOM     25  H4  UNL     1       8.008  33.423 -23.802  1.00  0.00     0.210 HD
ENDBRANCH  13  24
BRANCH   7  26
HETATM   26  C11 UNL     1       4.429  40.149 -24.138  1.00  0.00    -0.008 C 
HETATM   27  C12 UNL     1       4.002  41.596 -24.003  1.00  0.00     0.021 C 
HETATM   28  C13 UNL     1       5.477  39.915 -23.101  1.00  0.00     0.021 C 
HETATM   29  C14 UNL     1       4.985  39.955 -25.528  1.00  0.00     0.021 C 
ENDBRANCH   7  26
BRANCH  12  30
HETATM   30  O3  UNL     1       7.163  35.878 -23.510  1.00  0.00    -0.390 OA
ATOM     31  H3  UNL     1       7.102  35.722 -24.445  1.00  0.00     0.210 HD
ENDBRANCH  12  30
TORSDOF 8
ENDMDL
MODEL 2
REMARK VINA RESULT: -6.995183695      0.772      1.276
REMARK  8 active torsions:
REMARK  status: ('A' for Active; 'I' for Inactive)
REMARK    1  A    between atoms: O1_2  and  C2_3 
REMARK    2  A    between atoms: C2_3  and  C3_4 
REMARK    3  A    between atoms: C3_4  and  C4_5 
REMARK    4  A    between atoms: C4_5  and  C5_6 
REMARK    5  A    between atoms: C10_13  and  C11_14 
REMARK    6  A    between atoms: C17_21  and  O2_22 
REMARK    7  A    between atoms: C18_24  and  O3_25 
REMARK    8  A    between atoms: C19_27  and  O4_28 
ROOT
HETATM    1  C4  UNL     1       1.955  33.830 -23.812  1.00  0.00    -0.027 C 
HETATM    2  C6  UNL     1       2.939  34.666 -24.455  1.00  0.00     0.019 C 
HETATM    3  C7  UNL     1       2.428  35.954 -25.006  1.00  0.00     0.094 C 
HETATM    4  C8  UNL     1       2.090  36.918 -23.878  1.00  0.00     0.156 C 
HETATM    5  S1  UNL     1       0.824  38.087 -24.286  1.00  0.00    -0.114 SA
HETATM    6  C9  UNL     1       2.009  39.431 -24.467  1.00  0.00     0.072 C 
HETATM    7  C10 UNL     1       3.208  39.028 -24.091  1.00  0.00     0.022 C 
HETATM    8  N1  UNL     1       3.265  37.705 -23.664  1.00  0.00    -0.367 N 
HETATM    9  C15 UNL     1       4.449  37.152 -23.036  1.00  0.00     0.152 C 
HETATM   10  C16 UNL     1       4.328  35.671 -22.736  1.00  0.00     0.138 C 
HETATM   11  C17 UNL     1       5.504  35.335 -21.840  1.00  0.00     0.174 C 
HETATM   12  C18 UNL     1       6.732  34.956 -22.594  1.00  0.00     0.182 C 
HETATM   13  C19 UNL     1       6.379  33.711 -23.379  1.00  0.00     0.188 C 
HETATM   14  C20 UNL     1       5.139  33.887 -24.202  1.00  0.00     0.099 C 
HETATM   15  N2  UNL     1       4.197  34.807 -23.772  1.00  0.00    -0.352 N 
ENDROOT
BRANCH   1  16
HETATM   16  C3  UNL     1       0.806  33.209 -24.495  1.00  0.00     0.065 C 
BRANCH  16  17
HETATM   17  C2  UNL     1      -0.588  33.579 -24.162  1.00  0.00     0.171 C 
BRANCH  17  18
HETATM   18  O1  UNL     1      -0.951  34.827 -24.715  1.00  0.00    -0.396 OA
HETATM   19  C1  UNL     1      -0.987  34.824 -26.089  1.00  0.00     0.201 C 
ENDBRANCH  17  18
ENDBRANCH  16  17
ENDBRANCH   1  16
BRANCH   1  20
HETATM   20  C5  UNL     1       2.538  32.734 -22.905  1.00  0.00     0.258 C 
HETATM   21  F1  UNL     1       2.750  31.589 -23.659  1.00  0.00    -0.251 F 
ENDBRANCH   1  20
BRANCH  11  22
HETATM   22  O2  UNL     1       5.822  36.388 -20.988  1.00  0.00    -0.391 OA
ATOM     23  H2  UNL     1       6.756  36.557 -20.969  1.00  0.00     0.210 HD
ENDBRANCH  11  22
BRANCH  13  24
HETATM   24  O4  UNL     1       7.497  33.375 -24.142  1.00  0.00    -0.388 OA
ATOM     25  H4  UNL     1       7.702  32.467 -23.954  1.00  0.00     0.210 HD
ENDBRANCH  13  24
BRANCH   7  26
HETATM   26  C11 UNL     1       4.323  40.037 -24.180  1.00  0.00    -0.008 C 
HETATM   27  C12 UNL     1       5.333  39.863 -23.066  1.00  0.00     0.021 C 
HETATM   28  C13 UNL     1       5.082  39.950 -25.463  1.00  0.00     0.021 C 
HETATM   29  C14 UNL     1       3.680  41.393 -24.019  1.00  0.00     0.021 C 
ENDBRANCH   7  26
BRANCH  12  30
HETATM   30  O3  UNL     1       7.268  35.937 -23.380  1.00  0.00    -0.390 OA
ATOM     31  H3  UNL     1       8.015  36.395 -23.012  1.00  0.00     0.210 HD
ENDBRANCH  12  30
TORSDOF 8
ENDMDL
MODEL 3
REMARK VINA RESULT: -6.728529842      4.226      5.694
REMARK  8 active torsions:
REMARK  status: ('A' for Active; 'I' for Inactive)
REMARK    1  A    between atoms: O1_2  and  C2_3 
REMARK    2  A    between atoms: C2_3  and  C3_4 
REMARK    3  A    between atoms: C3_4  and  C4_5 
REMARK    4  A    between atoms: C4_5  and  C5_6 
REMARK    5  A    between atoms: C10_13  and  C11_14 
REMARK    6  A    between atoms: C17_21  and  O2_22 
REMARK    7  A    between atoms: C18_24  and  O3_25 
REMARK    8  A    between atoms: C19_27  and  O4_28 
ROOT
HETATM    1  C4  UNL     1      -0.002  36.441 -26.219  1.00  0.00    -0.027 C 
HETATM    2  C6  UNL     1       0.348  37.805 -26.536  1.00  0.00     0.019 C 
HETATM    3  C7  UNL     1       0.986  38.578 -25.431  1.00  0.00     0.094 C 
HETATM    4  C8  UNL     1       2.405  38.085 -25.189  1.00  0.00     0.156 C 
HETATM    5  S1  UNL     1       2.973  38.320 -23.527  1.00  0.00    -0.114 SA
HETATM    6  C9  UNL     1       4.021  39.708 -23.996  1.00  0.00     0.072 C 
HETATM    7  C10 UNL     1       4.033  39.841 -25.308  1.00  0.00     0.022 C 
HETATM    8  N1  UNL     1       3.254  38.911 -25.990  1.00  0.00    -0.367 N 
HETATM    9  C15 UNL     1       3.299  38.784 -27.433  1.00  0.00     0.152 C 
HETATM   10  C16 UNL     1       2.303  37.776 -27.974  1.00  0.00     0.138 C 
HETATM   11  C17 UNL     1       2.682  37.562 -29.426  1.00  0.00     0.174 C 
HETATM   12  C18 UNL     1       2.026  38.524 -30.356  1.00  0.00     0.182 C 
HETATM   13  C19 UNL     1       0.537  38.288 -30.228  1.00  0.00     0.188 C 
HETATM   14  C20 UNL     1       0.071  38.340 -28.804  1.00  0.00     0.099 C 
HETATM   15  N2  UNL     1       0.980  38.019 -27.810  1.00  0.00    -0.352 N 
ENDROOT
BRANCH   1  16
HETATM   16  C3  UNL     1      -1.004  36.044 -25.213  1.00  0.00     0.065 C 
BRANCH  16  17
HETATM   17  C2  UNL     1      -0.864  34.797 -24.429  1.00  0.00     0.171 C 
BRANCH  17  18
HETATM   18  O1  UNL     1      -2.117  34.221 -24.122  1.00  0.00    -0.396 OA
HETATM   19  C1  UNL     1      -2.070  33.342 -23.066  1.00  0.00     0.201 C 
ENDBRANCH  17  18
ENDBRANCH  16  17
ENDBRANCH   1  16
BRANCH   1  20
HETATM   20  C5  UNL     1      -0.266  35.547 -27.441  1.00  0.00     0.258 C 
HETATM   21  F1  UNL     1      -1.609  35.627 -27.779  1.00  0.00    -0.251 F 
ENDBRANCH   1  20
BRANCH  11  22
HETATM   22  O2  UNL     1       4.057  37.637 -29.618  1.00  0.00    -0.391 OA
ATOM     23  H2  UNL     1       4.425  38.425 -29.234  1.00  0.00     0.210 HD
ENDBRANCH  11  22
BRANCH  13  24
HETATM   24  O4  UNL     1      -0.100  39.223 -31.044  1.00  0.00    -0.388 OA
ATOM     25  H4  UNL     1      -0.953  39.394 -30.662  1.00  0.00     0.210 HD
ENDBRANCH  13  24
BRANCH   7  26
HETATM   26  C11 UNL     1       4.867  40.962 -25.870  1.00  0.00    -0.008 C 
HETATM   27  C12 UNL     1       5.673  40.518 -27.072  1.00  0.00     0.021 C 
HETATM   28  C13 UNL     1       4.048  42.130 -26.312  1.00  0.00     0.021 C 
HETATM   29  C14 UNL     1       5.834  41.357 -24.780  1.00  0.00     0.021 C 
ENDBRANCH   7  26
BRANCH  12  30
HETATM   30  O3  UNL     1       2.366  39.837 -30.183  1.00  0.00    -0.390 OA
ATOM     31  H3  UNL     1       1.798  40.334 -29.607  1.00  0.00     0.210 HD
ENDBRANCH  12  30
TORSDOF 8
ENDMDL
MODEL 4
REMARK VINA RESULT: -6.654117353      3.033      5.959
REMARK  8 active torsions:
REMARK  status: ('A' for Active; 'I' for Inactive)
REMARK    1  A    between atoms: O1_2  and  C2_3 
REMARK    2  A    between atoms: C2_3  and  C3_4 
REMARK    3  A    between atoms: C3_4  and  C4_5 
REMARK    4  A    between atoms: C4_5  and  C5_6 
REMARK    5  A    between atoms: C10_13  and  C11_14 
REMARK    6  A    between atoms: C17_21  and  O2_22 
REMARK    7  A    between atoms: C18_24  and  O3_25 
REMARK    8  A    between atoms: C19_27  and  O4_28 
ROOT
HETATM    1  C4  UNL     1       1.191  37.793 -25.959  1.00  0.00    -0.027 C 
HETATM    2  C6  UNL     1       1.142  37.275 -24.613  1.00  0.00     0.019 C 
HETATM    3  C7  UNL     1      -0.002  36.367 -24.314  1.00  0.00     0.094 C 
HETATM    4  C8  UNL     1       0.188  35.027 -25.011  1.00  0.00     0.156 C 
HETATM    5  S1  UNL     1      -1.328  34.194 -25.391  1.00  0.00    -0.114 SA
HETATM    6  C9  UNL     1      -1.110  33.012 -24.049  1.00  0.00     0.072 C 
HETATM    7  C10 UNL     1       0.078  33.169 -23.499  1.00  0.00     0.022 C 
HETATM    8  N1  UNL     1       0.849  34.180 -24.066  1.00  0.00    -0.367 N 
HETATM    9  C15 UNL     1       2.245  34.366 -23.722  1.00  0.00     0.152 C 
HETATM   10  C16 UNL     1       2.865  35.581 -24.385  1.00  0.00     0.138 C 
HETATM   11  C17 UNL     1       4.358  35.456 -24.156  1.00  0.00     0.174 C 
HETATM   12  C18 UNL     1       4.814  36.074 -22.879  1.00  0.00     0.182 C 
HETATM   13  C19 UNL     1       4.483  37.548 -22.980  1.00  0.00     0.188 C 
HETATM   14  C20 UNL     1       3.048  37.787 -23.343  1.00  0.00     0.099 C 
HETATM   15  N2  UNL     1       2.388  36.809 -24.067  1.00  0.00    -0.352 N 
ENDROOT
BRANCH   1  16
HETATM   16  C3  UNL     1       0.181  38.690 -26.550  1.00  0.00     0.065 C 
BRANCH  16  17
HETATM   17  C2  UNL     1      -0.793  38.207 -27.554  1.00  0.00     0.171 C 
BRANCH  17  18
HETATM   18  O1  UNL     1      -0.173  37.447 -28.571  1.00  0.00    -0.396 OA
HETATM   19  C1  UNL     1       0.318  38.212 -29.601  1.00  0.00     0.201 C 
ENDBRANCH  17  18
ENDBRANCH  16  17
ENDBRANCH   1  16
BRANCH   1  20
HETATM   20  C5  UNL     1       2.552  38.374 -26.374  1.00  0.00     0.258 C 
HETATM   21  F1  UNL     1       2.932  37.816 -27.587  1.00  0.00    -0.251 F 
ENDBRANCH   1  20
BRANCH  11  22
HETATM   22  O2  UNL     1       4.775  34.130 -24.172  1.00  0.00    -0.391 OA
ATOM     23  H2  UNL     1       5.520  34.000 -24.746  1.00  0.00     0.210 HD
ENDBRANCH  11  22
BRANCH  13  24
HETATM   24  O4  UNL     1       4.843  38.135 -21.767  1.00  0.00    -0.388 OA
ATOM     25  H4  UNL     1       5.788  38.072 -21.695  1.00  0.00     0.210 HD
ENDBRANCH  13  24
BRANCH   7  26
HETATM   26  C11 UNL     1       0.424  32.254 -22.354  1.00  0.00    -0.008 C 
HETATM   27  C12 UNL     1       1.004  30.941 -22.835  1.00  0.00     0.021 C 
HETATM   28  C13 UNL     1       1.426  32.848 -21.419  1.00  0.00     0.021 C 
HETATM   29  C14 UNL     1      -0.875  31.957 -21.643  1.00  0.00     0.021 C 
ENDBRANCH   7  26
BRANCH  12  30
HETATM   30  O3  UNL     1       4.321  35.504 -21.738  1.00  0.00    -0.390 OA
ATOM     31  H3  UNL     1       4.953  35.367 -21.042  1.00  0.00     0.210 HD
ENDBRANCH  12  30
TORSDOF 8
ENDMDL
MODEL 5
REMARK VINA RESULT: -6.621441571      2.250      5.225
REMARK  8 active torsions:
REMARK  status: ('A' for Active; 'I' for Inactive)
REMARK    1  A    between atoms: O1_2  and  C2_3 
REMARK    2  A    between atoms: C2_3  and  C3_4 
REMARK    3  A    between atoms: C3_4  and  C4_5 
REMARK    4  A    between atoms: C4_5  and  C5_6 
REMARK    5  A    between atoms: C10_13  and  C11_14 
REMARK    6  A    between atoms: C17_21  and  O2_22 
REMARK    7  A    between atoms: C18_24  and  O3_25 
REMARK    8  A    between atoms: C19_27  and  O4_28 
ROOT
HETATM    1  C4  UNL     1       4.465  33.640 -24.129  1.00  0.00    -0.027 C 
HETATM    2  C6  UNL     1       3.472  34.380 -23.387  1.00  0.00     0.019 C 
HETATM    3  C7  UNL     1       3.960  35.619 -22.717  1.00  0.00     0.094 C 
HETATM    4  C8  UNL     1       4.249  36.701 -23.749  1.00  0.00     0.156 C 
HETATM    5  S1  UNL     1       5.493  37.858 -23.246  1.00  0.00    -0.114 SA
HETATM    6  C9  UNL     1       4.277  39.143 -22.909  1.00  0.00     0.072 C 
HETATM    7  C10 UNL     1       3.082  38.747 -23.303  1.00  0.00     0.022 C 
HETATM    8  N1  UNL     1       3.050  37.473 -23.860  1.00  0.00    -0.367 N 
HETATM    9  C15 UNL     1       1.869  36.952 -24.520  1.00  0.00     0.152 C 
HETATM   10  C16 UNL     1       2.023  35.513 -24.971  1.00  0.00     0.138 C 
HETATM   11  C17 UNL     1       0.838  35.236 -25.876  1.00  0.00     0.174 C 
HETATM   12  C18 UNL     1      -0.364  34.748 -25.143  1.00  0.00     0.182 C 
HETATM   13  C19 UNL     1       0.038  33.441 -24.494  1.00  0.00     0.188 C 
HETATM   14  C20 UNL     1       1.289  33.569 -23.679  1.00  0.00     0.099 C 
HETATM   15  N2  UNL     1       2.197  34.553 -24.030  1.00  0.00    -0.352 N 
ENDROOT
BRANCH   1  16
HETATM   16  C3  UNL     1       5.643  32.987 -23.533  1.00  0.00     0.065 C 
BRANCH  16  17
HETATM   17  C2  UNL     1       6.924  32.876 -24.266  1.00  0.00     0.171 C 
BRANCH  17  18
HETATM   18  O1  UNL     1       7.554  31.631 -24.045  1.00  0.00    -0.396 OA
HETATM   19  C1  UNL     1       6.963  30.592 -24.724  1.00  0.00     0.201 C 
ENDBRANCH  17  18
ENDBRANCH  16  17
ENDBRANCH   1  16
BRANCH   1  20
HETATM   20  C5  UNL     1       3.892  32.626 -25.131  1.00  0.00     0.258 C 
HETATM   21  F1  UNL     1       3.719  31.406 -24.492  1.00  0.00    -0.251 F 
ENDBRANCH   1  20
BRANCH  11  22
HETATM   22  O2  UNL     1       0.475  36.359 -26.611  1.00  0.00    -0.391 OA
ATOM     23  H2  UNL     1      -0.220  36.168 -27.229  1.00  0.00     0.210 HD
ENDBRANCH  11  22
BRANCH  13  24
HETATM   24  O4  UNL     1      -1.056  32.998 -23.749  1.00  0.00    -0.388 OA
ATOM     25  H4  UNL     1      -0.932  33.308 -22.859  1.00  0.00     0.210 HD
ENDBRANCH  13  24
BRANCH   7  26
HETATM   26  C11 UNL     1       1.942  39.709 -23.092  1.00  0.00    -0.008 C 
HETATM   27  C12 UNL     1       1.842  40.721 -24.214  1.00  0.00     0.021 C 
HETATM   28  C13 UNL     1       0.616  39.029 -23.010  1.00  0.00     0.021 C 
HETATM   29  C14 UNL     1       2.251  40.457 -21.817  1.00  0.00     0.021 C 
ENDBRANCH   7  26
BRANCH  12  30
HETATM   30  O3  UNL     1      -0.910  35.630 -24.252  1.00  0.00    -0.390 OA
ATOM     31  H3  UNL     1      -0.343  35.892 -23.536  1.00  0.00     0.210 HD
ENDBRANCH  12  30
TORSDOF 8
ENDMDL
