MODEL 1
REMARK VINA RESULT: -9.182605074      0.000      0.000
REMARK  7 active torsions:
REMARK  status: ('A' for Active; 'I' for Inactive)
REMARK       I    between atoms: N1_5  and  C5_6 
REMARK    1  A    between atoms: C5_6  and  O2_8 
REMARK    2  A    between atoms: O2_8  and  C6_9 
REMARK    3  A    between atoms: C6_9  and  N2_11 
REMARK    4  A    between atoms: N2_11  and  C7_13 
REMARK    5  A    between atoms: C9_18  and  S2_19 
REMARK    6  A    between atoms: S2_19  and  C10_20 
REMARK    7  A    between atoms: C10_20  and  C11_21 
ROOT
HETATM    1  C7  UNL     1     -33.378  -9.846  25.172  1.00  0.00     0.145 A 
HETATM    2  C8  UNL     1     -32.742 -10.971  25.635  1.00  0.00     0.150 A 
HETATM    3  N3  UNL     1     -31.723 -10.840  26.597  1.00  0.00    -0.080 NA
HETATM    4  N4  UNL     1     -33.141 -12.178  25.124  1.00  0.00    -0.323 N 
ATOM      5  H4  UNL     1     -32.681 -13.027  25.453  1.00  0.00     0.169 HD
HETATM    6  C9  UNL     1     -34.098 -12.283  24.221  1.00  0.00     0.148 A 
HETATM    7  N5  UNL     1     -34.717 -11.182  23.772  1.00  0.00    -0.302 N 
ATOM      8  H5  UNL     1     -35.455 -11.269  23.075  1.00  0.00     0.171 HD
HETATM    9  C17 UNL     1     -34.373  -9.948  24.235  1.00  0.00     0.277 A 
HETATM   10  O3  UNL     1     -34.962  -8.934  23.803  1.00  0.00    -0.266 OA
ENDROOT
BRANCH   1  11
HETATM   11  N2  UNL     1     -33.015  -8.572  25.657  1.00  0.00    -0.320 N 
ATOM     12  H2  UNL     1     -32.246  -8.084  25.197  1.00  0.00     0.169 HD
BRANCH  11  13
HETATM   13  C6  UNL     1     -33.652  -7.934  26.743  1.00  0.00     0.224 C 
HETATM   14  S1  UNL     1     -33.176  -8.265  28.254  1.00  0.00    -0.032 SA
BRANCH  13  15
HETATM   15  O2  UNL     1     -34.670  -7.040  26.524  1.00  0.00    -0.233 OA
BRANCH  15  16
HETATM   16  C5  UNL     1     -35.963  -7.377  26.228  1.00  0.00     0.369 C 
HETATM   17  N1  UNL     1     -36.712  -6.638  25.276  1.00  0.00    -0.328 N 
HETATM   18  C4  UNL     1     -38.082  -6.954  24.928  1.00  0.00     0.128 C 
HETATM   19  C18 UNL     1     -36.086  -5.513  24.615  1.00  0.00     0.128 C 
HETATM   20  C3  UNL     1     -38.826  -5.649  24.736  1.00  0.00     0.024 C 
HETATM   21  C2  UNL     1     -38.186  -4.618  25.620  1.00  0.00    -0.015 C 
HETATM   22  C1  UNL     1     -38.994  -3.327  25.647  1.00  0.00     0.010 C 
HETATM   23  C19 UNL     1     -36.817  -4.271  25.052  1.00  0.00     0.024 C 
HETATM   24  O1  UNL     1     -36.445  -8.370  26.843  1.00  0.00    -0.238 OA
ENDBRANCH  15  16
ENDBRANCH  13  15
ENDBRANCH  11  13
ENDBRANCH   1  11
BRANCH   6  25
HETATM   25  S2  UNL     1     -34.583 -13.867  23.588  1.00  0.00    -0.093 SA
BRANCH  25  26
HETATM   26  C10 UNL     1     -35.746 -14.608  24.734  1.00  0.00     0.087 C 
BRANCH  26  27
HETATM   27  C11 UNL     1     -37.182 -14.569  24.268  1.00  0.00    -0.005 C 
HETATM   28  C12 UNL     1     -38.039 -15.595  24.923  1.00  0.00     0.005 C 
HETATM   29  C13 UNL     1     -39.307 -15.031  25.510  1.00  0.00     0.000 C 
HETATM   30  C14 UNL     1     -39.045 -13.815  26.368  1.00  0.00     0.000 C 
HETATM   31  C15 UNL     1     -38.230 -12.768  25.683  1.00  0.00     0.000 C 
HETATM   32  C16 UNL     1     -37.701 -13.171  24.352  1.00  0.00     0.005 C 
ENDBRANCH  26  27
ENDBRANCH  25  26
ENDBRANCH   6  25
TORSDOF 7
ENDMDL
MODEL 2
REMARK VINA RESULT: -8.997851389      2.789      4.120
REMARK  7 active torsions:
REMARK  status: ('A' for Active; 'I' for Inactive)
REMARK       I    between atoms: N1_5  and  C5_6 
REMARK    1  A    between atoms: C5_6  and  O2_8 
REMARK    2  A    between atoms: O2_8  and  C6_9 
REMARK    3  A    between atoms: C6_9  and  N2_11 
REMARK    4  A    between atoms: N2_11  and  C7_13 
REMARK    5  A    between atoms: C9_18  and  S2_19 
REMARK    6  A    between atoms: S2_19  and  C10_20 
REMARK    7  A    between atoms: C10_20  and  C11_21 
ROOT
HETATM    1  C7  UNL     1     -37.230  -7.871  24.334  1.00  0.00     0.145 A 
HETATM    2  C8  UNL     1     -37.362  -8.753  23.288  1.00  0.00     0.150 A 
HETATM    3  N3  UNL     1     -37.683  -8.260  22.010  1.00  0.00    -0.080 NA
HETATM    4  N4  UNL     1     -37.172 -10.083  23.555  1.00  0.00    -0.323 N 
ATOM      5  H4  UNL     1     -37.265 -10.755  22.793  1.00  0.00     0.169 HD
HETATM    6  C9  UNL     1     -36.871 -10.527  24.761  1.00  0.00     0.148 A 
HETATM    7  N5  UNL     1     -36.743  -9.663  25.779  1.00  0.00    -0.302 N 
ATOM      8  H5  UNL     1     -36.511 -10.013  26.708  1.00  0.00     0.171 HD
HETATM    9  C17 UNL     1     -36.918  -8.326  25.588  1.00  0.00     0.277 A 
HETATM   10  O3  UNL     1     -36.794  -7.539  26.551  1.00  0.00    -0.266 OA
ENDROOT
BRANCH   1  11
HETATM   11  N2  UNL     1     -37.414  -6.488  24.126  1.00  0.00    -0.320 N 
ATOM     12  H2  UNL     1     -38.346  -6.159  23.876  1.00  0.00     0.169 HD
BRANCH  11  13
HETATM   13  C6  UNL     1     -36.382  -5.533  24.245  1.00  0.00     0.224 C 
HETATM   14  S1  UNL     1     -35.113  -5.600  23.242  1.00  0.00    -0.032 SA
BRANCH  13  15
HETATM   15  O2  UNL     1     -36.448  -4.552  25.203  1.00  0.00    -0.233 OA
BRANCH  15  16
HETATM   16  C5  UNL     1     -37.605  -3.995  25.679  1.00  0.00     0.369 C 
HETATM   17  N1  UNL     1     -37.660  -2.625  26.043  1.00  0.00    -0.328 N 
HETATM   18  C4  UNL     1     -38.858  -1.988  26.550  1.00  0.00     0.128 C 
HETATM   19  C18 UNL     1     -36.469  -1.816  25.904  1.00  0.00     0.128 C 
HETATM   20  C3  UNL     1     -38.444  -1.016  27.635  1.00  0.00     0.024 C 
HETATM   21  C2  UNL     1     -37.193  -1.543  28.275  1.00  0.00    -0.015 C 
HETATM   22  C1  UNL     1     -36.816  -0.738  29.512  1.00  0.00     0.010 C 
HETATM   23  C19 UNL     1     -36.043  -1.400  27.288  1.00  0.00     0.024 C 
HETATM   24  O1  UNL     1     -38.606  -4.761  25.773  1.00  0.00    -0.238 OA
ENDBRANCH  15  16
ENDBRANCH  13  15
ENDBRANCH  11  13
ENDBRANCH   1  11
BRANCH   6  25
HETATM   25  S2  UNL     1     -36.632 -12.259  25.061  1.00  0.00    -0.093 SA
BRANCH  25  26
HETATM   26  C10 UNL     1     -37.644 -13.182  23.904  1.00  0.00     0.087 C 
BRANCH  26  27
HETATM   27  C11 UNL     1     -37.828 -14.636  24.270  1.00  0.00    -0.005 C 
HETATM   28  C12 UNL     1     -37.007 -15.055  25.440  1.00  0.00     0.005 C 
HETATM   29  C13 UNL     1     -37.800 -15.766  26.505  1.00  0.00     0.000 C 
HETATM   30  C14 UNL     1     -39.055 -15.013  26.878  1.00  0.00     0.000 C 
HETATM   31  C15 UNL     1     -39.900 -14.644  25.703  1.00  0.00     0.000 C 
HETATM   32  C16 UNL     1     -39.285 -14.947  24.382  1.00  0.00     0.005 C 
ENDBRANCH  26  27
ENDBRANCH  25  26
ENDBRANCH   6  25
TORSDOF 7
ENDMDL
MODEL 3
REMARK VINA RESULT: -8.989757540      2.780      4.079
REMARK  7 active torsions:
REMARK  status: ('A' for Active; 'I' for Inactive)
REMARK       I    between atoms: N1_5  and  C5_6 
REMARK    1  A    between atoms: C5_6  and  O2_8 
REMARK    2  A    between atoms: O2_8  and  C6_9 
REMARK    3  A    between atoms: C6_9  and  N2_11 
REMARK    4  A    between atoms: N2_11  and  C7_13 
REMARK    5  A    between atoms: C9_18  and  S2_19 
REMARK    6  A    between atoms: S2_19  and  C10_20 
REMARK    7  A    between atoms: C10_20  and  C11_21 
ROOT
HETATM    1  C7  UNL     1     -37.307  -7.813  24.323  1.00  0.00     0.145 A 
HETATM    2  C8  UNL     1     -37.426  -8.690  23.272  1.00  0.00     0.150 A 
HETATM    3  N3  UNL     1     -37.771  -8.196  22.000  1.00  0.00    -0.080 NA
HETATM    4  N4  UNL     1     -37.199 -10.016  23.527  1.00  0.00    -0.323 N 
ATOM      5  H4  UNL     1     -37.282 -10.685  22.761  1.00  0.00     0.169 HD
HETATM    6  C9  UNL     1     -36.876 -10.461  24.727  1.00  0.00     0.148 A 
HETATM    7  N5  UNL     1     -36.761  -9.603  25.750  1.00  0.00    -0.302 N 
ATOM      8  H5  UNL     1     -36.511  -9.953  26.674  1.00  0.00     0.171 HD
HETATM    9  C17 UNL     1     -36.972  -8.269  25.571  1.00  0.00     0.277 A 
HETATM   10  O3  UNL     1     -36.859  -7.486  26.538  1.00  0.00    -0.266 OA
ENDROOT
BRANCH   1  11
HETATM   11  N2  UNL     1     -37.528  -6.433  24.128  1.00  0.00    -0.320 N 
ATOM     12  H2  UNL     1     -38.492  -6.103  24.086  1.00  0.00     0.169 HD
BRANCH  11  13
HETATM   13  C6  UNL     1     -36.493  -5.485  23.989  1.00  0.00     0.224 C 
HETATM   14  S1  UNL     1     -35.883  -5.180  22.520  1.00  0.00    -0.032 SA
BRANCH  13  15
HETATM   15  O2  UNL     1     -36.003  -4.823  25.087  1.00  0.00    -0.233 OA
BRANCH  15  16
HETATM   16  C5  UNL     1     -36.182  -3.491  25.347  1.00  0.00     0.369 C 
HETATM   17  N1  UNL     1     -37.197  -3.049  26.234  1.00  0.00    -0.328 N 
HETATM   18  C4  UNL     1     -37.427  -1.653  26.542  1.00  0.00     0.128 C 
HETATM   19  C18 UNL     1     -38.049  -4.032  26.866  1.00  0.00     0.128 C 
HETATM   20  C3  UNL     1     -38.922  -1.439  26.645  1.00  0.00     0.024 C 
HETATM   21  C2  UNL     1     -39.594  -2.431  25.741  1.00  0.00    -0.015 C 
HETATM   22  C1  UNL     1     -41.088  -2.156  25.623  1.00  0.00     0.010 C 
HETATM   23  C19 UNL     1     -39.446  -3.820  26.345  1.00  0.00     0.024 C 
HETATM   24  O1  UNL     1     -35.401  -2.689  24.759  1.00  0.00    -0.238 OA
ENDBRANCH  15  16
ENDBRANCH  13  15
ENDBRANCH  11  13
ENDBRANCH   1  11
BRANCH   6  25
HETATM   25  S2  UNL     1     -36.590 -12.189  25.011  1.00  0.00    -0.093 SA
BRANCH  25  26
HETATM   26  C10 UNL     1     -37.617 -13.130  23.882  1.00  0.00     0.087 C 
BRANCH  26  27
HETATM   27  C11 UNL     1     -37.757 -14.589  24.246  1.00  0.00    -0.005 C 
HETATM   28  C12 UNL     1     -36.906 -14.989  25.401  1.00  0.00     0.005 C 
HETATM   29  C13 UNL     1     -37.663 -15.724  26.477  1.00  0.00     0.000 C 
HETATM   30  C14 UNL     1     -38.932 -15.005  26.871  1.00  0.00     0.000 C 
HETATM   31  C15 UNL     1     -39.805 -14.656  25.711  1.00  0.00     0.000 C 
HETATM   32  C16 UNL     1     -39.202 -14.939  24.379  1.00  0.00     0.005 C 
ENDBRANCH  26  27
ENDBRANCH  25  26
ENDBRANCH   6  25
TORSDOF 7
ENDMDL
MODEL 4
REMARK VINA RESULT: -8.967213842      1.003      1.532
REMARK  7 active torsions:
REMARK  status: ('A' for Active; 'I' for Inactive)
REMARK       I    between atoms: N1_5  and  C5_6 
REMARK    1  A    between atoms: C5_6  and  O2_8 
REMARK    2  A    between atoms: O2_8  and  C6_9 
REMARK    3  A    between atoms: C6_9  and  N2_11 
REMARK    4  A    between atoms: N2_11  and  C7_13 
REMARK    5  A    between atoms: C9_18  and  S2_19 
REMARK    6  A    between atoms: S2_19  and  C10_20 
REMARK    7  A    between atoms: C10_20  and  C11_21 
ROOT
HETATM    1  C7  UNL     1     -33.368  -9.763  25.223  1.00  0.00     0.145 A 
HETATM    2  C8  UNL     1     -34.324  -9.893  24.245  1.00  0.00     0.150 A 
HETATM    3  N3  UNL     1     -34.950  -8.740  23.737  1.00  0.00    -0.080 NA
HETATM    4  N4  UNL     1     -34.620 -11.159  23.814  1.00  0.00    -0.323 N 
ATOM      5  H4  UNL     1     -35.327 -11.279  23.090  1.00  0.00     0.169 HD
HETATM    6  C9  UNL     1     -34.022 -12.230  24.303  1.00  0.00     0.148 A 
HETATM    7  N5  UNL     1     -33.090 -12.099  25.257  1.00  0.00    -0.302 N 
ATOM      8  H5  UNL     1     -32.632 -12.930  25.630  1.00  0.00     0.171 HD
HETATM    9  C17 UNL     1     -32.744 -10.871  25.733  1.00  0.00     0.277 A 
HETATM   10  O3  UNL     1     -31.872 -10.772  26.623  1.00  0.00    -0.266 OA
ENDROOT
BRANCH   1  11
HETATM   11  N2  UNL     1     -33.017  -8.486  25.711  1.00  0.00    -0.320 N 
ATOM     12  H2  UNL     1     -32.266  -7.982  25.239  1.00  0.00     0.169 HD
BRANCH  11  13
HETATM   13  C6  UNL     1     -33.643  -7.868  26.813  1.00  0.00     0.224 C 
HETATM   14  S1  UNL     1     -33.127  -8.198  28.312  1.00  0.00    -0.032 SA
BRANCH  13  15
HETATM   15  O2  UNL     1     -34.683  -6.994  26.623  1.00  0.00    -0.233 OA
BRANCH  15  16
HETATM   16  C5  UNL     1     -35.975  -7.355  26.348  1.00  0.00     0.369 C 
HETATM   17  N1  UNL     1     -36.802  -6.545  25.528  1.00  0.00    -0.328 N 
HETATM   18  C4  UNL     1     -38.173  -6.883  25.207  1.00  0.00     0.128 C 
HETATM   19  C18 UNL     1     -36.259  -5.321  24.980  1.00  0.00     0.128 C 
HETATM   20  C3  UNL     1     -38.981  -5.602  25.209  1.00  0.00     0.024 C 
HETATM   21  C2  UNL     1     -38.340  -4.654  26.181  1.00  0.00    -0.015 C 
HETATM   22  C1  UNL     1     -39.200  -3.415  26.401  1.00  0.00     0.010 C 
HETATM   23  C19 UNL     1     -37.019  -4.176  25.597  1.00  0.00     0.024 C 
HETATM   24  O1  UNL     1     -36.381  -8.437  26.860  1.00  0.00    -0.238 OA
ENDBRANCH  15  16
ENDBRANCH  13  15
ENDBRANCH  11  13
ENDBRANCH   1  11
BRANCH   6  25
HETATM   25  S2  UNL     1     -34.436 -13.852  23.715  1.00  0.00    -0.093 SA
BRANCH  25  26
HETATM   26  C10 UNL     1     -35.692 -14.545  24.791  1.00  0.00     0.087 C 
BRANCH  26  27
HETATM   27  C11 UNL     1     -37.090 -14.495  24.220  1.00  0.00    -0.005 C 
HETATM   28  C12 UNL     1     -37.997 -15.526  24.797  1.00  0.00     0.005 C 
HETATM   29  C13 UNL     1     -39.303 -14.964  25.295  1.00  0.00     0.000 C 
HETATM   30  C14 UNL     1     -39.102 -13.760  26.184  1.00  0.00     0.000 C 
HETATM   31  C15 UNL     1     -38.236 -12.707  25.575  1.00  0.00     0.000 C 
HETATM   32  C16 UNL     1     -37.610 -13.096  24.282  1.00  0.00     0.005 C 
ENDBRANCH  26  27
ENDBRANCH  25  26
ENDBRANCH   6  25
TORSDOF 7
ENDMDL
MODEL 5
REMARK VINA RESULT: -8.962423325      0.699      1.021
REMARK  7 active torsions:
REMARK  status: ('A' for Active; 'I' for Inactive)
REMARK       I    between atoms: N1_5  and  C5_6 
REMARK    1  A    between atoms: C5_6  and  O2_8 
REMARK    2  A    between atoms: O2_8  and  C6_9 
REMARK    3  A    between atoms: C6_9  and  N2_11 
REMARK    4  A    between atoms: N2_11  and  C7_13 
REMARK    5  A    between atoms: C9_18  and  S2_19 
REMARK    6  A    between atoms: S2_19  and  C10_20 
REMARK    7  A    between atoms: C10_20  and  C11_21 
ROOT
HETATM    1  C7  UNL     1     -33.403  -9.994  24.959  1.00  0.00     0.145 A 
HETATM    2  C8  UNL     1     -32.734 -11.099  25.428  1.00  0.00     0.150 A 
HETATM    3  N3  UNL     1     -31.578 -10.922  26.210  1.00  0.00    -0.080 NA
HETATM    4  N4  UNL     1     -33.239 -12.329  25.101  1.00  0.00    -0.323 N 
ATOM      5  H4  UNL     1     -32.758 -13.163  25.438  1.00  0.00     0.169 HD
HETATM    6  C9  UNL     1     -34.326 -12.476  24.366  1.00  0.00     0.148 A 
HETATM    7  N5  UNL     1     -34.976 -11.396  23.910  1.00  0.00    -0.302 N 
ATOM      8  H5  UNL     1     -35.814 -11.516  23.343  1.00  0.00     0.171 HD
HETATM    9  C17 UNL     1     -34.532 -10.140  24.196  1.00  0.00     0.277 A 
HETATM   10  O3  UNL     1     -35.153  -9.147  23.761  1.00  0.00    -0.266 OA
ENDROOT
BRANCH   1  11
HETATM   11  N2  UNL     1     -32.936  -8.697  25.260  1.00  0.00    -0.320 N 
ATOM     12  H2  UNL     1     -32.179  -8.316  24.691  1.00  0.00     0.169 HD
BRANCH  11  13
HETATM   13  C6  UNL     1     -33.453  -7.898  26.301  1.00  0.00     0.224 C 
HETATM   14  S1  UNL     1     -32.929  -8.124  27.816  1.00  0.00    -0.032 SA
BRANCH  13  15
HETATM   15  O2  UNL     1     -34.394  -6.935  26.036  1.00  0.00    -0.233 OA
BRANCH  15  16
HETATM   16  C5  UNL     1     -35.748  -7.139  26.032  1.00  0.00     0.369 C 
HETATM   17  N1  UNL     1     -36.598  -6.388  25.179  1.00  0.00    -0.328 N 
HETATM   18  C4  UNL     1     -38.035  -6.565  25.137  1.00  0.00     0.128 C 
HETATM   19  C18 UNL     1     -36.011  -5.394  24.306  1.00  0.00     0.128 C 
HETATM   20  C3  UNL     1     -38.667  -5.199  24.972  1.00  0.00     0.024 C 
HETATM   21  C2  UNL     1     -37.760  -4.190  25.612  1.00  0.00    -0.015 C 
HETATM   22  C1  UNL     1     -38.412  -2.814  25.675  1.00  0.00     0.010 C 
HETATM   23  C19 UNL     1     -36.509  -4.047  24.758  1.00  0.00     0.024 C 
HETATM   24  O1  UNL     1     -36.191  -8.022  26.820  1.00  0.00    -0.238 OA
ENDBRANCH  15  16
ENDBRANCH  13  15
ENDBRANCH  11  13
ENDBRANCH   1  11
BRANCH   6  25
HETATM   25  S2  UNL     1     -34.945 -14.090  23.967  1.00  0.00    -0.093 SA
BRANCH  25  26
HETATM   26  C10 UNL     1     -36.734 -14.058  24.077  1.00  0.00     0.087 C 
BRANCH  26  27
HETATM   27  C11 UNL     1     -37.306 -15.003  25.106  1.00  0.00    -0.005 C 
HETATM   28  C12 UNL     1     -37.542 -14.358  26.428  1.00  0.00     0.005 C 
HETATM   29  C13 UNL     1     -38.928 -14.589  26.970  1.00  0.00     0.000 C 
HETATM   30  C14 UNL     1     -39.997 -14.289  25.944  1.00  0.00     0.000 C 
HETATM   31  C15 UNL     1     -39.782 -14.984  24.640  1.00  0.00     0.000 C 
HETATM   32  C16 UNL     1     -38.489 -15.715  24.536  1.00  0.00     0.005 C 
ENDBRANCH  26  27
ENDBRANCH  25  26
ENDBRANCH   6  25
TORSDOF 7
ENDMDL
