MODEL 1
REMARK VINA RESULT: -8.026922362      0.000      0.000
REMARK  4 active torsions:
REMARK  status: ('A' for Active; 'I' for Inactive)
REMARK    1  A    between atoms: C2_2  and  C4_4 
REMARK    2  A    between atoms: C8_10  and  N1_11 
REMARK    3  A    between atoms: C15_23  and  O1_24 
REMARK    4  A    between atoms: C16_26  and  O2_27 
ROOT
HETATM    1  N1  UNL     1     -41.544   2.593  11.299  1.00  0.00    -0.320 N 
HETATM    2  C9  UNL     1     -40.908   3.714  11.005  1.00  0.00     0.185 A 
HETATM    3  N2  UNL     1     -40.011   3.494  10.057  1.00  0.00    -0.348 N 
ATOM      4  H2  UNL     1     -39.384   4.185   9.645  1.00  0.00     0.167 HD
HETATM    5  C10 UNL     1     -40.080   2.192   9.738  1.00  0.00     0.100 A 
HETATM    6  C11 UNL     1     -39.539   1.221   8.919  1.00  0.00     0.090 A 
HETATM    7  C12 UNL     1     -38.508   1.376   7.949  1.00  0.00     0.103 C 
HETATM    8  N3  UNL     1     -37.657   1.500   7.176  1.00  0.00    -0.191 NA
HETATM    9  C13 UNL     1     -40.199   0.048   9.221  1.00  0.00     0.115 A 
HETATM   10  N4  UNL     1     -41.104   0.294  10.186  1.00  0.00    -0.349 N 
ATOM     11  H4  UNL     1     -41.731  -0.396  10.599  1.00  0.00     0.167 HD
HETATM   12  C14 UNL     1     -41.050   1.613  10.522  1.00  0.00     0.137 A 
ENDROOT
BRANCH   1  13
HETATM   13  C8  UNL     1     -42.596   2.330  12.259  1.00  0.00     0.124 C 
HETATM   14  C7  UNL     1     -43.588   3.473  12.359  1.00  0.00     0.044 C 
HETATM   15  C6  UNL     1     -43.824   3.697  13.822  1.00  0.00     0.033 A 
HETATM   16  C4  UNL     1     -44.971   4.420  14.353  1.00  0.00     0.043 A 
HETATM   17  C5  UNL     1     -43.577   5.048  14.377  1.00  0.00     0.129 A 
HETATM   18  C16 UNL     1     -43.315   2.455  14.479  1.00  0.00     0.161 C 
HETATM   19 CL1  UNL     1     -42.709   5.130  15.909  1.00  0.00    -0.100 Cl
HETATM   20 CL2  UNL     1     -43.216   6.316  13.179  1.00  0.00    -0.100 Cl
HETATM   21  C15 UNL     1     -42.034   2.195  13.680  1.00  0.00     0.171 C 
BRANCH  16  22
HETATM   22  C2  UNL     1     -45.947   5.189  13.521  1.00  0.00    -0.015 C 
HETATM   23  C1  UNL     1     -46.872   4.283  12.729  1.00  0.00     0.010 C 
HETATM   24  C3  UNL     1     -46.772   6.056  14.450  1.00  0.00     0.010 C 
ENDBRANCH  16  22
BRANCH  18  25
HETATM   25  O2  UNL     1     -43.078   2.572  15.825  1.00  0.00    -0.392 OA
ATOM     26  H2  UNL     1     -43.017   1.747  16.292  1.00  0.00     0.210 HD
ENDBRANCH  18  25
BRANCH  21  27
HETATM   27  O1  UNL     1     -41.519   0.942  13.914  1.00  0.00    -0.391 OA
ATOM     28  H1  UNL     1     -40.857   0.950  14.595  1.00  0.00     0.210 HD
ENDBRANCH  21  27
ENDBRANCH   1  13
TORSDOF 4
ENDMDL
MODEL 2
REMARK VINA RESULT: -7.937448066      2.500      3.690
REMARK  4 active torsions:
REMARK  status: ('A' for Active; 'I' for Inactive)
REMARK    1  A    between atoms: C2_2  and  C4_4 
REMARK    2  A    between atoms: C8_10  and  N1_11 
REMARK    3  A    between atoms: C15_23  and  O1_24 
REMARK    4  A    between atoms: C16_26  and  O2_27 
ROOT
HETATM    1  N1  UNL     1     -41.956   1.570  12.130  1.00  0.00    -0.320 N 
HETATM    2  C9  UNL     1     -42.943   0.704  12.282  1.00  0.00     0.185 A 
HETATM    3  N2  UNL     1     -43.043  -0.066  11.210  1.00  0.00    -0.348 N 
ATOM      4  H2  UNL     1     -43.719  -0.816  11.064  1.00  0.00     0.167 HD
HETATM    5  C10 UNL     1     -42.088   0.324  10.350  1.00  0.00     0.100 A 
HETATM    6  C11 UNL     1     -41.547   0.071   9.105  1.00  0.00     0.090 A 
HETATM    7  C12 UNL     1     -41.954  -0.917   8.164  1.00  0.00     0.103 C 
HETATM    8  N3  UNL     1     -42.298  -1.707   7.393  1.00  0.00    -0.191 NA
HETATM    9  C13 UNL     1     -40.516   0.972   8.940  1.00  0.00     0.115 A 
HETATM   10  N4  UNL     1     -40.433   1.743  10.040  1.00  0.00    -0.349 N 
ATOM     11  H4  UNL     1     -39.758   2.494  10.187  1.00  0.00     0.167 HD
HETATM   12  C14 UNL     1     -41.395   1.362  10.927  1.00  0.00     0.137 A 
ENDROOT
BRANCH   1  13
HETATM   13  C8  UNL     1     -41.466   2.605  13.017  1.00  0.00     0.124 C 
HETATM   14  C7  UNL     1     -42.003   2.461  14.428  1.00  0.00     0.044 C 
HETATM   15  C6  UNL     1     -42.426   3.833  14.857  1.00  0.00     0.033 A 
HETATM   16  C4  UNL     1     -42.633   4.216  16.247  1.00  0.00     0.043 A 
HETATM   17  C5  UNL     1     -43.824   4.031  15.307  1.00  0.00     0.129 A 
HETATM   18  C16 UNL     1     -41.758   4.754  13.888  1.00  0.00     0.161 C 
HETATM   19 CL1  UNL     1     -44.657   5.462  14.700  1.00  0.00    -0.100 Cl
HETATM   20 CL2  UNL     1     -44.794   2.547  15.474  1.00  0.00    -0.100 Cl
HETATM   21  C15 UNL     1     -41.945   3.993  12.572  1.00  0.00     0.171 C 
BRANCH  16  22
HETATM   22  C2  UNL     1     -42.640   3.260  17.397  1.00  0.00    -0.015 C 
HETATM   23  C1  UNL     1     -41.246   2.990  17.933  1.00  0.00     0.010 C 
HETATM   24  C3  UNL     1     -43.491   3.859  18.498  1.00  0.00     0.010 C 
ENDBRANCH  16  22
BRANCH  18  25
HETATM   25  O2  UNL     1     -42.283   6.020  13.842  1.00  0.00    -0.392 OA
ATOM     26  H2  UNL     1     -42.134   6.483  13.025  1.00  0.00     0.210 HD
ENDBRANCH  18  25
BRANCH  21  27
HETATM   27  O1  UNL     1     -41.170   4.506  11.559  1.00  0.00    -0.391 OA
ATOM     28  H1  UNL     1     -41.307   5.439  11.444  1.00  0.00     0.210 HD
ENDBRANCH  21  27
ENDBRANCH   1  13
TORSDOF 4
ENDMDL
MODEL 3
REMARK VINA RESULT: -7.882737345      2.357      2.823
REMARK  4 active torsions:
REMARK  status: ('A' for Active; 'I' for Inactive)
REMARK    1  A    between atoms: C2_2  and  C4_4 
REMARK    2  A    between atoms: C8_10  and  N1_11 
REMARK    3  A    between atoms: C15_23  and  O1_24 
REMARK    4  A    between atoms: C16_26  and  O2_27 
ROOT
HETATM    1  N1  UNL     1     -41.595   2.902  11.852  1.00  0.00    -0.320 N 
HETATM    2  C9  UNL     1     -40.784   3.295  10.886  1.00  0.00     0.185 A 
HETATM    3  N2  UNL     1     -40.749   2.388   9.923  1.00  0.00    -0.348 N 
ATOM      4  H2  UNL     1     -40.204   2.438   9.062  1.00  0.00     0.167 HD
HETATM    5  C10 UNL     1     -41.565   1.387  10.291  1.00  0.00     0.100 A 
HETATM    6  C11 UNL     1     -42.060   0.159   9.898  1.00  0.00     0.090 A 
HETATM    7  C12 UNL     1     -41.769  -0.554   8.700  1.00  0.00     0.103 C 
HETATM    8  N3  UNL     1     -41.517  -1.140   7.736  1.00  0.00    -0.191 NA
HETATM    9  C13 UNL     1     -42.907  -0.257  10.903  1.00  0.00     0.115 A 
HETATM   10  N4  UNL     1     -42.927   0.680  11.870  1.00  0.00    -0.349 N 
ATOM     11  H4  UNL     1     -43.471   0.629  12.732  1.00  0.00     0.167 HD
HETATM   12  C14 UNL     1     -42.105   1.706  11.514  1.00  0.00     0.137 A 
ENDROOT
BRANCH   1  13
HETATM   13  C8  UNL     1     -41.956   3.546  13.099  1.00  0.00     0.124 C 
HETATM   14  C7  UNL     1     -43.429   3.397  13.423  1.00  0.00     0.044 C 
HETATM   15  C6  UNL     1     -43.900   4.748  13.869  1.00  0.00     0.033 A 
HETATM   16  C4  UNL     1     -45.124   4.968  14.627  1.00  0.00     0.043 A 
HETATM   17  C5  UNL     1     -45.039   5.369  13.154  1.00  0.00     0.129 A 
HETATM   18  C16 UNL     1     -42.646   5.498  14.182  1.00  0.00     0.161 C 
HETATM   19 CL1  UNL     1     -44.884   7.077  12.747  1.00  0.00    -0.100 Cl
HETATM   20 CL2  UNL     1     -45.855   4.329  11.960  1.00  0.00    -0.100 Cl
HETATM   21  C15 UNL     1     -41.738   5.063  13.028  1.00  0.00     0.171 C 
BRANCH  16  22
HETATM   22  C2  UNL     1     -46.157   3.919  14.891  1.00  0.00    -0.015 C 
HETATM   23  C1  UNL     1     -45.830   3.081  16.113  1.00  0.00     0.010 C 
HETATM   24  C3  UNL     1     -47.485   4.614  15.103  1.00  0.00     0.010 C 
ENDBRANCH  16  22
BRANCH  18  25
HETATM   25  O2  UNL     1     -42.791   6.861  14.250  1.00  0.00    -0.392 OA
ATOM     26  H2  UNL     1     -43.245   7.175  15.023  1.00  0.00     0.210 HD
ENDBRANCH  18  25
BRANCH  21  27
HETATM   27  O1  UNL     1     -40.424   5.406  13.241  1.00  0.00    -0.391 OA
ATOM     28  H1  UNL     1     -40.036   5.820  12.479  1.00  0.00     0.210 HD
ENDBRANCH  21  27
ENDBRANCH   1  13
TORSDOF 4
ENDMDL
MODEL 4
REMARK VINA RESULT: -7.696675704      2.898      4.061
REMARK  4 active torsions:
REMARK  status: ('A' for Active; 'I' for Inactive)
REMARK    1  A    between atoms: C2_2  and  C4_4 
REMARK    2  A    between atoms: C8_10  and  N1_11 
REMARK    3  A    between atoms: C15_23  and  O1_24 
REMARK    4  A    between atoms: C16_26  and  O2_27 
ROOT
HETATM    1  N1  UNL     1     -41.956   4.787  13.657  1.00  0.00    -0.320 N 
HETATM    2  C9  UNL     1     -40.644   4.929  13.602  1.00  0.00     0.185 A 
HETATM    3  N2  UNL     1     -40.145   4.182  12.629  1.00  0.00    -0.348 N 
ATOM      4  H2  UNL     1     -39.162   4.104  12.370  1.00  0.00     0.167 HD
HETATM    5  C10 UNL     1     -41.175   3.547  12.048  1.00  0.00     0.100 A 
HETATM    6  C11 UNL     1     -41.505   2.656  11.046  1.00  0.00     0.090 A 
HETATM    7  C12 UNL     1     -40.625   2.012  10.130  1.00  0.00     0.103 C 
HETATM    8  N3  UNL     1     -39.907   1.476   9.399  1.00  0.00    -0.191 NA
HETATM    9  C13 UNL     1     -42.874   2.504  11.098  1.00  0.00     0.115 A 
HETATM   10  N4  UNL     1     -43.359   3.270  12.093  1.00  0.00    -0.349 N 
ATOM     11  H4  UNL     1     -44.342   3.348  12.354  1.00  0.00     0.167 HD
HETATM   12  C14 UNL     1     -42.328   3.925  12.695  1.00  0.00     0.137 A 
ENDROOT
BRANCH   1  13
HETATM   13  C8  UNL     1     -42.933   5.389  14.541  1.00  0.00     0.124 C 
HETATM   14  C7  UNL     1     -43.625   4.367  15.422  1.00  0.00     0.044 C 
HETATM   15  C6  UNL     1     -45.086   4.702  15.384  1.00  0.00     0.033 A 
HETATM   16  C4  UNL     1     -46.048   4.230  16.371  1.00  0.00     0.043 A 
HETATM   17  C5  UNL     1     -46.039   3.652  14.955  1.00  0.00     0.129 A 
HETATM   18  C16 UNL     1     -45.138   6.098  14.853  1.00  0.00     0.161 C 
HETATM   19 CL1  UNL     1     -47.305   4.142  13.830  1.00  0.00    -0.100 Cl
HETATM   20 CL2  UNL     1     -45.341   2.030  14.724  1.00  0.00    -0.100 Cl
HETATM   21  C15 UNL     1     -44.075   6.041  13.751  1.00  0.00     0.171 C 
BRANCH  16  22
HETATM   22  C2  UNL     1     -45.751   3.210  17.423  1.00  0.00    -0.015 C 
HETATM   23  C1  UNL     1     -44.839   3.749  18.510  1.00  0.00     0.010 C 
HETATM   24  C3  UNL     1     -47.065   2.780  18.041  1.00  0.00     0.010 C 
ENDBRANCH  16  22
BRANCH  18  25
HETATM   25  O2  UNL     1     -46.365   6.487  14.379  1.00  0.00    -0.392 OA
ATOM     26  H2  UNL     1     -47.087   5.924  14.632  1.00  0.00     0.210 HD
ENDBRANCH  18  25
BRANCH  21  27
HETATM   27  O1  UNL     1     -43.737   7.290  13.288  1.00  0.00    -0.391 OA
ATOM     28  H1  UNL     1     -43.413   7.264  12.396  1.00  0.00     0.210 HD
ENDBRANCH  21  27
ENDBRANCH   1  13
TORSDOF 4
ENDMDL
MODEL 5
REMARK VINA RESULT: -7.445706902      1.713      2.726
REMARK  4 active torsions:
REMARK  status: ('A' for Active; 'I' for Inactive)
REMARK    1  A    between atoms: C2_2  and  C4_4 
REMARK    2  A    between atoms: C8_10  and  N1_11 
REMARK    3  A    between atoms: C15_23  and  O1_24 
REMARK    4  A    between atoms: C16_26  and  O2_27 
ROOT
HETATM    1  N1  UNL     1     -42.539   1.973  12.776  1.00  0.00    -0.320 N 
HETATM    2  C9  UNL     1     -42.412   0.692  12.475  1.00  0.00     0.185 A 
HETATM    3  N2  UNL     1     -41.593   0.544  11.446  1.00  0.00    -0.348 N 
ATOM      4  H2  UNL     1     -41.321  -0.337  11.011  1.00  0.00     0.167 HD
HETATM    5  C10 UNL     1     -41.186   1.771  11.083  1.00  0.00     0.100 A 
HETATM    6  C11 UNL     1     -40.394   2.455  10.181  1.00  0.00     0.090 A 
HETATM    7  C12 UNL     1     -39.596   1.909   9.135  1.00  0.00     0.103 C 
HETATM    8  N3  UNL     1     -38.964   1.466   8.274  1.00  0.00    -0.191 NA
HETATM    9  C13 UNL     1     -40.522   3.792  10.490  1.00  0.00     0.115 A 
HETATM   10  N4  UNL     1     -41.359   3.919  11.537  1.00  0.00    -0.349 N 
ATOM     11  H4  UNL     1     -41.633   4.800  11.972  1.00  0.00     0.167 HD
HETATM   12  C14 UNL     1     -41.782   2.683  11.921  1.00  0.00     0.137 A 
ENDROOT
BRANCH   1  13
HETATM   13  C8  UNL     1     -43.317   2.626  13.808  1.00  0.00     0.124 C 
HETATM   14  C7  UNL     1     -44.761   2.840  13.398  1.00  0.00     0.044 C 
HETATM   15  C6  UNL     1     -45.106   4.243  13.794  1.00  0.00     0.033 A 
HETATM   16  C4  UNL     1     -46.472   4.729  13.937  1.00  0.00     0.043 A 
HETATM   17  C5  UNL     1     -45.612   5.166  12.751  1.00  0.00     0.129 A 
HETATM   18  C16 UNL     1     -44.036   4.635  14.761  1.00  0.00     0.161 C 
HETATM   19 CL1  UNL     1     -44.942   6.797  12.743  1.00  0.00    -0.100 Cl
HETATM   20 CL2  UNL     1     -45.943   4.425  11.165  1.00  0.00    -0.100 Cl
HETATM   21  C15 UNL     1     -42.793   4.040  14.092  1.00  0.00     0.171 C 
BRANCH  16  22
HETATM   22  C2  UNL     1     -47.690   3.965  13.527  1.00  0.00    -0.015 C 
HETATM   23  C1  UNL     1     -48.058   2.884  14.528  1.00  0.00     0.010 C 
HETATM   24  C3  UNL     1     -48.838   4.945  13.407  1.00  0.00     0.010 C 
ENDBRANCH  16  22
BRANCH  18  25
HETATM   25  O2  UNL     1     -43.921   5.985  14.975  1.00  0.00    -0.392 OA
ATOM     26  H2  UNL     1     -43.032   6.292  15.115  1.00  0.00     0.210 HD
ENDBRANCH  18  25
BRANCH  21  27
HETATM   27  O1  UNL     1     -41.705   4.028  14.932  1.00  0.00    -0.391 OA
ATOM     28  H1  UNL     1     -40.979   3.536  14.567  1.00  0.00     0.210 HD
ENDBRANCH  21  27
ENDBRANCH   1  13
TORSDOF 4
ENDMDL
