MODEL 1
REMARK VINA RESULT: -8.217105822      0.000      0.000
REMARK  8 active torsions:
REMARK  status: ('A' for Active; 'I' for Inactive)
REMARK    1  A    between atoms: C4_4  and  C5_5 
REMARK    2  A    between atoms: C9_10  and  N1_11 
REMARK    3  A    between atoms: C12_16  and  N3_17 
REMARK    4  A    between atoms: N3_17  and  C13_19 
REMARK    5  A    between atoms: C13_19  and  C14_20 
REMARK    6  A    between atoms: C14_20  and  O1_21 
REMARK    7  A    between atoms: C14_20  and  C15_23 
REMARK    8  A    between atoms: C15_23  and  N4_24 
ROOT
HETATM    1  N1  UNL     1      -1.492   6.272  12.638  1.00  0.00    -0.322 N 
HETATM    2  C10 UNL     1      -0.669   5.183  12.577  1.00  0.00     0.185 A 
HETATM    3  N2  UNL     1      -1.142   4.193  13.346  1.00  0.00    -0.346 N 
ATOM      4  H2  UNL     1      -0.712   3.276  13.473  1.00  0.00     0.167 HD
HETATM    5  C11 UNL     1      -2.274   4.613  13.921  1.00  0.00     0.122 A 
HETATM    6  C12 UNL     1      -3.196   4.026  14.814  1.00  0.00     0.137 A 
HETATM    7  N5  UNL     1      -4.236   4.794  15.170  1.00  0.00    -0.337 N 
ATOM      8  H5  UNL     1      -4.915   4.388  15.813  1.00  0.00     0.168 HD
HETATM    9  C22 UNL     1      -4.460   6.034  14.759  1.00  0.00     0.183 A 
HETATM   10  N6  UNL     1      -3.574   6.591  13.903  1.00  0.00    -0.336 N 
ATOM     11  H6  UNL     1      -3.722   7.544  13.569  1.00  0.00     0.168 HD
HETATM   12  C23 UNL     1      -2.493   5.892  13.487  1.00  0.00     0.141 A 
ENDROOT
BRANCH   6  13
HETATM   13  N3  UNL     1      -2.979   2.870  15.190  1.00  0.00    -0.351 N 
ATOM     14  H3  UNL     1      -2.016   2.632  14.954  1.00  0.00     0.166 HD
BRANCH  13  15
HETATM   15  C13 UNL     1      -3.552   1.786  15.809  1.00  0.00     0.096 C 
BRANCH  15  16
HETATM   16  C14 UNL     1      -4.640   1.020  15.077  1.00  0.00     0.184 C 
BRANCH  16  17
HETATM   17  O1  UNL     1      -4.665  -0.318  15.309  1.00  0.00    -0.389 OA
ATOM     18  H1  UNL     1      -5.441  -0.769  14.996  1.00  0.00     0.210 HD
ENDBRANCH  16  17
BRANCH  16  19
HETATM   19  C15 UNL     1      -4.631   1.406  13.642  1.00  0.00     0.309 C 
BRANCH  19  20
HETATM   20  N4  UNL     1      -3.663   0.796  12.795  1.00  0.00     0.096 N 
HETATM   21  C16 UNL     1      -3.149   1.785  11.831  1.00  0.00     0.303 C 
HETATM   22  C17 UNL     1      -2.072   1.097  11.036  1.00  0.00     0.146 C 
HETATM   23  C18 UNL     1      -1.338   2.117  10.179  1.00  0.00     0.041 C 
HETATM   24  O2  UNL     1      -2.670   0.201  10.202  1.00  0.00    -0.378 OA
HETATM   25  C19 UNL     1      -3.825  -0.383  10.609  1.00  0.00     0.146 C 
HETATM   26  C20 UNL     1      -5.029   0.105   9.811  1.00  0.00     0.041 C 
HETATM   27  C21 UNL     1      -4.104  -0.386  12.087  1.00  0.00     0.303 C 
ENDBRANCH  19  20
ENDBRANCH  16  19
ENDBRANCH  15  16
ENDBRANCH  13  15
ENDBRANCH   6  13
BRANCH   1  28
HETATM   28  C9  UNL     1      -1.364   7.506  11.960  1.00  0.00     0.103 C 
HETATM   29  C5  UNL     1      -2.072   7.736  10.686  1.00  0.00     0.047 C 
HETATM   30  C6  UNL     1      -1.882   9.265  10.525  1.00  0.00     0.049 C 
HETATM   31  C7  UNL     1      -1.823   9.835  11.912  1.00  0.00     0.172 C 
HETATM   32  F1  UNL     1      -0.673  10.643  11.979  1.00  0.00    -0.249 F 
HETATM   33  C8  UNL     1      -1.729   8.688  12.862  1.00  0.00     0.063 C 
BRANCH  29  34
HETATM   34  C4  UNL     1      -3.490   7.409  10.616  1.00  0.00    -0.028 A 
HETATM   35  C3  UNL     1      -4.519   8.260  10.958  1.00  0.00     0.034 A 
HETATM   36  C2  UNL     1      -5.722   7.615  10.808  1.00  0.00     0.006 A 
HETATM   37  C1  UNL     1      -7.068   8.179  11.069  1.00  0.00     0.068 C 
HETATM   38  N7  UNL     1      -5.417   6.374  10.373  1.00  0.00    -0.363 N 
HETATM   39  C24 UNL     1      -4.079   6.228  10.250  1.00  0.00     0.012 A 
ATOM     40  H7  UNL     1      -6.102   5.647  10.166  1.00  0.00     0.165 HD
HETATM   41  C25 UNL     1      -3.445   4.983   9.754  1.00  0.00     0.068 C 
ENDBRANCH  29  34
ENDBRANCH   1  28
TORSDOF 8
ENDMDL
MODEL 2
REMARK VINA RESULT: -8.185716391      1.683      3.295
REMARK  8 active torsions:
REMARK  status: ('A' for Active; 'I' for Inactive)
REMARK    1  A    between atoms: C4_4  and  C5_5 
REMARK    2  A    between atoms: C9_10  and  N1_11 
REMARK    3  A    between atoms: C12_16  and  N3_17 
REMARK    4  A    between atoms: N3_17  and  C13_19 
REMARK    5  A    between atoms: C13_19  and  C14_20 
REMARK    6  A    between atoms: C14_20  and  O1_21 
REMARK    7  A    between atoms: C14_20  and  C15_23 
REMARK    8  A    between atoms: C15_23  and  N4_24 
ROOT
HETATM    1  N1  UNL     1      -1.946   6.085  12.478  1.00  0.00    -0.322 N 
HETATM    2  C10 UNL     1      -0.925   5.253  12.844  1.00  0.00     0.185 A 
HETATM    3  N2  UNL     1      -1.349   4.358  13.746  1.00  0.00    -0.346 N 
ATOM      4  H2  UNL     1      -0.781   3.628  14.177  1.00  0.00     0.167 HD
HETATM    5  C11 UNL     1      -2.645   4.585  13.984  1.00  0.00     0.122 A 
HETATM    6  C12 UNL     1      -3.608   3.981  14.821  1.00  0.00     0.137 A 
HETATM    7  N5  UNL     1      -4.838   4.516  14.778  1.00  0.00    -0.337 N 
ATOM      8  H5  UNL     1      -5.549   4.092  15.374  1.00  0.00     0.168 HD
HETATM    9  C22 UNL     1      -5.211   5.544  14.030  1.00  0.00     0.183 A 
HETATM   10  N6  UNL     1      -4.284   6.118  13.231  1.00  0.00    -0.336 N 
ATOM     11  H6  UNL     1      -4.543   6.911  12.643  1.00  0.00     0.168 HD
HETATM   12  C23 UNL     1      -3.015   5.647  13.205  1.00  0.00     0.141 A 
ENDROOT
BRANCH   6  13
HETATM   13  N3  UNL     1      -3.252   3.023  15.513  1.00  0.00    -0.351 N 
ATOM     14  H3  UNL     1      -2.631   3.370  16.245  1.00  0.00     0.166 HD
BRANCH  13  15
HETATM   15  C13 UNL     1      -3.380   1.664  15.665  1.00  0.00     0.096 C 
BRANCH  15  16
HETATM   16  C14 UNL     1      -4.604   0.978  15.084  1.00  0.00     0.184 C 
BRANCH  16  17
HETATM   17  O1  UNL     1      -4.743  -0.334  15.406  1.00  0.00    -0.389 OA
ATOM     18  H1  UNL     1      -5.262  -0.849  14.799  1.00  0.00     0.210 HD
ENDBRANCH  16  17
BRANCH  16  19
HETATM   19  C15 UNL     1      -4.690   1.277  13.631  1.00  0.00     0.309 C 
BRANCH  19  20
HETATM   20  N4  UNL     1      -3.639   0.809  12.791  1.00  0.00     0.096 N 
HETATM   21  C16 UNL     1      -3.242   1.871  11.851  1.00  0.00     0.303 C 
HETATM   22  C17 UNL     1      -2.074   1.338  11.065  1.00  0.00     0.146 C 
HETATM   23  C18 UNL     1      -1.463   2.457  10.235  1.00  0.00     0.041 C 
HETATM   24  O2  UNL     1      -2.540   0.388  10.207  1.00  0.00    -0.378 OA
HETATM   25  C19 UNL     1      -3.618  -0.344  10.586  1.00  0.00     0.146 C 
HETATM   26  C20 UNL     1      -4.863   0.001   9.775  1.00  0.00     0.041 C 
HETATM   27  C21 UNL     1      -3.916  -0.408  12.059  1.00  0.00     0.303 C 
ENDBRANCH  19  20
ENDBRANCH  16  19
ENDBRANCH  15  16
ENDBRANCH  13  15
ENDBRANCH   6  13
BRANCH   1  28
HETATM   28  C9  UNL     1      -1.920   7.142  11.539  1.00  0.00     0.103 C 
HETATM   29  C5  UNL     1      -1.917   8.546  11.994  1.00  0.00     0.047 C 
HETATM   30  C6  UNL     1      -1.570   9.275  10.671  1.00  0.00     0.049 C 
HETATM   31  C7  UNL     1      -0.710   8.334   9.880  1.00  0.00     0.172 C 
HETATM   32  F1  UNL     1      -1.270   8.244   8.593  1.00  0.00    -0.249 F 
HETATM   33  C8  UNL     1      -0.740   7.012  10.572  1.00  0.00     0.063 C 
BRANCH  29  34
HETATM   34  C4  UNL     1      -0.968   8.933  13.029  1.00  0.00    -0.028 A 
HETATM   35  C3  UNL     1       0.299   9.427  12.801  1.00  0.00     0.034 A 
HETATM   36  C2  UNL     1       0.931   9.650  13.999  1.00  0.00     0.006 A 
HETATM   37  C1  UNL     1       2.302  10.180  14.191  1.00  0.00     0.068 C 
HETATM   38  N7  UNL     1       0.044   9.290  14.951  1.00  0.00    -0.363 N 
HETATM   39  C24 UNL     1      -1.106   8.856  14.389  1.00  0.00     0.012 A 
ATOM     40  H7  UNL     1       0.218   9.339  15.955  1.00  0.00     0.165 HD
HETATM   41  C25 UNL     1      -2.282   8.429  15.186  1.00  0.00     0.068 C 
ENDBRANCH  29  34
ENDBRANCH   1  28
TORSDOF 8
ENDMDL
MODEL 3
REMARK VINA RESULT: -8.137100965      1.810      3.888
REMARK  8 active torsions:
REMARK  status: ('A' for Active; 'I' for Inactive)
REMARK    1  A    between atoms: C4_4  and  C5_5 
REMARK    2  A    between atoms: C9_10  and  N1_11 
REMARK    3  A    between atoms: C12_16  and  N3_17 
REMARK    4  A    between atoms: N3_17  and  C13_19 
REMARK    5  A    between atoms: C13_19  and  C14_20 
REMARK    6  A    between atoms: C14_20  and  O1_21 
REMARK    7  A    between atoms: C14_20  and  C15_23 
REMARK    8  A    between atoms: C15_23  and  N4_24 
ROOT
HETATM    1  N1  UNL     1      -1.035   6.207  13.117  1.00  0.00    -0.322 N 
HETATM    2  C10 UNL     1      -1.617   5.289  13.944  1.00  0.00     0.185 A 
HETATM    3  N2  UNL     1      -1.554   4.064  13.405  1.00  0.00    -0.346 N 
ATOM      4  H2  UNL     1      -1.917   3.207  13.823  1.00  0.00     0.167 HD
HETATM    5  C11 UNL     1      -0.934   4.157  12.224  1.00  0.00     0.122 A 
HETATM    6  C12 UNL     1      -0.587   3.224  11.223  1.00  0.00     0.137 A 
HETATM    7  N5  UNL     1       0.047   3.725  10.152  1.00  0.00    -0.337 N 
ATOM      8  H5  UNL     1       0.308   3.067   9.417  1.00  0.00     0.168 HD
HETATM    9  C22 UNL     1       0.363   4.998   9.962  1.00  0.00     0.183 A 
HETATM   10  N6  UNL     1       0.028   5.887  10.924  1.00  0.00    -0.336 N 
ATOM     11  H6  UNL     1       0.260   6.873  10.807  1.00  0.00     0.168 HD
HETATM   12  C23 UNL     1      -0.613   5.475  12.043  1.00  0.00     0.141 A 
ENDROOT
BRANCH   6  13
HETATM   13  N3  UNL     1      -0.885   2.041  11.408  1.00  0.00    -0.351 N 
ATOM     14  H3  UNL     1      -0.323   1.687  12.183  1.00  0.00     0.166 HD
BRANCH  13  15
HETATM   15  C13 UNL     1      -1.691   1.023  10.960  1.00  0.00     0.096 C 
BRANCH  15  16
HETATM   16  C14 UNL     1      -2.946   0.688  11.745  1.00  0.00     0.184 C 
BRANCH  16  17
HETATM   17  O1  UNL     1      -3.598  -0.435  11.347  1.00  0.00    -0.389 OA
ATOM     18  H1  UNL     1      -4.195  -0.806  11.986  1.00  0.00     0.210 HD
ENDBRANCH  16  17
BRANCH  16  19
HETATM   19  C15 UNL     1      -3.798   1.902  11.851  1.00  0.00     0.309 C 
BRANCH  19  20
HETATM   20  N4  UNL     1      -4.748   1.958  12.911  1.00  0.00     0.096 N 
HETATM   21  C16 UNL     1      -4.889   3.346  13.381  1.00  0.00     0.303 C 
HETATM   22  C17 UNL     1      -5.969   3.341  14.430  1.00  0.00     0.146 C 
HETATM   23  C18 UNL     1      -6.331   4.771  14.798  1.00  0.00     0.041 C 
HETATM   24  O2  UNL     1      -5.473   2.734  15.544  1.00  0.00    -0.378 OA
HETATM   25  C19 UNL     1      -4.544   1.758  15.383  1.00  0.00     0.146 C 
HETATM   26  C20 UNL     1      -3.161   2.194  15.855  1.00  0.00     0.041 C 
HETATM   27  C21 UNL     1      -4.484   1.089  14.037  1.00  0.00     0.303 C 
ENDBRANCH  19  20
ENDBRANCH  16  19
ENDBRANCH  15  16
ENDBRANCH  13  15
ENDBRANCH   6  13
BRANCH   1  28
HETATM   28  C9  UNL     1      -0.873   7.596  13.325  1.00  0.00     0.103 C 
HETATM   29  C5  UNL     1      -1.225   8.557  12.263  1.00  0.00     0.047 C 
HETATM   30  C6  UNL     1      -1.182   9.888  13.056  1.00  0.00     0.049 C 
HETATM   31  C7  UNL     1      -1.576   9.556  14.465  1.00  0.00     0.172 C 
HETATM   32  F1  UNL     1      -0.595  10.107  15.310  1.00  0.00    -0.249 F 
HETATM   33  C8  UNL     1      -1.611   8.069  14.581  1.00  0.00     0.063 C 
BRANCH  29  34
HETATM   34  C4  UNL     1      -2.519   8.419  11.609  1.00  0.00    -0.028 A 
HETATM   35  C3  UNL     1      -3.609   7.760  12.135  1.00  0.00     0.034 A 
HETATM   36  C2  UNL     1      -4.648   7.791  11.237  1.00  0.00     0.006 A 
HETATM   37  C1  UNL     1      -5.995   7.199  11.420  1.00  0.00     0.068 C 
HETATM   38  N7  UNL     1      -4.183   8.472  10.168  1.00  0.00    -0.363 N 
HETATM   39  C24 UNL     1      -2.904   8.860  10.371  1.00  0.00     0.012 A 
ATOM     40  H7  UNL     1      -4.722   8.666   9.325  1.00  0.00     0.165 HD
HETATM   41  C25 UNL     1      -2.138   9.661   9.385  1.00  0.00     0.068 C 
ENDBRANCH  29  34
ENDBRANCH   1  28
TORSDOF 8
ENDMDL
MODEL 4
REMARK VINA RESULT: -8.128623245      3.264      6.183
REMARK  8 active torsions:
REMARK  status: ('A' for Active; 'I' for Inactive)
REMARK    1  A    between atoms: C4_4  and  C5_5 
REMARK    2  A    between atoms: C9_10  and  N1_11 
REMARK    3  A    between atoms: C12_16  and  N3_17 
REMARK    4  A    between atoms: N3_17  and  C13_19 
REMARK    5  A    between atoms: C13_19  and  C14_20 
REMARK    6  A    between atoms: C14_20  and  O1_21 
REMARK    7  A    between atoms: C14_20  and  C15_23 
REMARK    8  A    between atoms: C15_23  and  N4_24 
ROOT
HETATM    1  N1  UNL     1      -2.630   4.696  14.169  1.00  0.00    -0.322 N 
HETATM    2  C10 UNL     1      -1.590   4.128  13.488  1.00  0.00     0.185 A 
HETATM    3  N2  UNL     1      -0.749   5.072  13.044  1.00  0.00    -0.346 N 
ATOM      4  H2  UNL     1       0.105   4.909  12.508  1.00  0.00     0.167 HD
HETATM    5  C11 UNL     1      -1.219   6.265  13.423  1.00  0.00     0.122 A 
HETATM    6  C12 UNL     1      -0.775   7.594  13.250  1.00  0.00     0.137 A 
HETATM    7  N5  UNL     1      -1.549   8.544  13.795  1.00  0.00    -0.337 N 
ATOM      8  H5  UNL     1      -1.245   9.512  13.682  1.00  0.00     0.168 HD
HETATM    9  C22 UNL     1      -2.673   8.339  14.467  1.00  0.00     0.183 A 
HETATM   10  N6  UNL     1      -3.093   7.064  14.630  1.00  0.00    -0.336 N 
ATOM     11  H6  UNL     1      -3.954   6.876  15.144  1.00  0.00     0.168 HD
HETATM   12  C23 UNL     1      -2.377   6.037  14.116  1.00  0.00     0.141 A 
ENDROOT
BRANCH   6  13
HETATM   13  N3  UNL     1       0.272   7.775  12.623  1.00  0.00    -0.351 N 
ATOM     14  H3  UNL     1       1.012   7.990  13.292  1.00  0.00     0.166 HD
BRANCH  13  15
HETATM   15  C13 UNL     1       0.813   7.796  11.361  1.00  0.00     0.096 C 
BRANCH  15  16
HETATM   16  C14 UNL     1       1.973   6.867  11.049  1.00  0.00     0.184 C 
BRANCH  16  17
HETATM   17  O1  UNL     1       3.203   7.443  11.077  1.00  0.00    -0.389 OA
ATOM     18  H1  UNL     1       3.791   7.177  10.380  1.00  0.00     0.210 HD
ENDBRANCH  16  17
BRANCH  16  19
HETATM   19  C15 UNL     1       1.669   6.099   9.813  1.00  0.00     0.309 C 
BRANCH  19  20
HETATM   20  N4  UNL     1       0.369   5.530   9.687  1.00  0.00     0.096 N 
HETATM   21  C16 UNL     1       0.431   4.083   9.957  1.00  0.00     0.303 C 
HETATM   22  C17 UNL     1      -0.983   3.570   9.896  1.00  0.00     0.146 C 
HETATM   23  C18 UNL     1      -1.027   2.132  10.389  1.00  0.00     0.041 C 
HETATM   24  O2  UNL     1      -1.380   3.579   8.593  1.00  0.00    -0.378 OA
HETATM   25  C19 UNL     1      -0.864   4.528   7.772  1.00  0.00     0.146 C 
HETATM   26  C20 UNL     1       0.101   3.940   6.747  1.00  0.00     0.041 C 
HETATM   27  C21 UNL     1      -0.296   5.759   8.423  1.00  0.00     0.303 C 
ENDBRANCH  19  20
ENDBRANCH  16  19
ENDBRANCH  15  16
ENDBRANCH  13  15
ENDBRANCH   6  13
BRANCH   1  28
HETATM   28  C9  UNL     1      -3.712   4.051  14.811  1.00  0.00     0.103 C 
HETATM   29  C5  UNL     1      -4.939   3.723  14.060  1.00  0.00     0.047 C 
HETATM   30  C6  UNL     1      -5.649   2.784  15.068  1.00  0.00     0.049 C 
HETATM   31  C7  UNL     1      -4.565   2.086  15.835  1.00  0.00     0.172 C 
HETATM   32  F1  UNL     1      -4.861   2.239  17.202  1.00  0.00    -0.249 F 
HETATM   33  C8  UNL     1      -3.274   2.749  15.488  1.00  0.00     0.063 C 
BRANCH  29  34
HETATM   34  C4  UNL     1      -4.802   3.048  12.776  1.00  0.00    -0.028 A 
HETATM   35  C3  UNL     1      -4.882   1.686  12.581  1.00  0.00     0.034 A 
HETATM   36  C2  UNL     1      -4.669   1.394  11.257  1.00  0.00     0.006 A 
HETATM   37  C1  UNL     1      -4.673   0.049  10.635  1.00  0.00     0.068 C 
HETATM   38  N7  UNL     1      -4.461   2.583  10.652  1.00  0.00    -0.363 N 
HETATM   39  C24 UNL     1      -4.537   3.593  11.548  1.00  0.00     0.012 A 
ATOM     40  H7  UNL     1      -4.272   2.703   9.657  1.00  0.00     0.165 HD
HETATM   41  C25 UNL     1      -4.391   5.019  11.170  1.00  0.00     0.068 C 
ENDBRANCH  29  34
ENDBRANCH   1  28
TORSDOF 8
ENDMDL
MODEL 5
REMARK VINA RESULT: -8.110225012      3.865      6.802
REMARK  8 active torsions:
REMARK  status: ('A' for Active; 'I' for Inactive)
REMARK    1  A    between atoms: C4_4  and  C5_5 
REMARK    2  A    between atoms: C9_10  and  N1_11 
REMARK    3  A    between atoms: C12_16  and  N3_17 
REMARK    4  A    between atoms: N3_17  and  C13_19 
REMARK    5  A    between atoms: C13_19  and  C14_20 
REMARK    6  A    between atoms: C14_20  and  O1_21 
REMARK    7  A    between atoms: C14_20  and  C15_23 
REMARK    8  A    between atoms: C15_23  and  N4_24 
ROOT
HETATM    1  N1  UNL     1      -2.886   4.424  14.111  1.00  0.00    -0.322 N 
HETATM    2  C10 UNL     1      -1.574   4.045  14.162  1.00  0.00     0.185 A 
HETATM    3  N2  UNL     1      -0.805   4.930  13.513  1.00  0.00    -0.346 N 
ATOM      4  H2  UNL     1       0.209   4.876  13.406  1.00  0.00     0.167 HD
HETATM    5  C11 UNL     1      -1.593   5.896  13.030  1.00  0.00     0.122 A 
HETATM    6  C12 UNL     1      -1.359   7.067  12.277  1.00  0.00     0.137 A 
HETATM    7  N5  UNL     1      -2.444   7.797  11.978  1.00  0.00    -0.337 N 
ATOM      8  H5  UNL     1      -2.297   8.648  11.436  1.00  0.00     0.168 HD
HETATM    9  C22 UNL     1      -3.691   7.510  12.325  1.00  0.00     0.183 A 
HETATM   10  N6  UNL     1      -3.909   6.388  13.046  1.00  0.00    -0.336 N 
ATOM     11  H6  UNL     1      -4.858   6.143  13.328  1.00  0.00     0.168 HD
HETATM   12  C23 UNL     1      -2.875   5.588  13.396  1.00  0.00     0.141 A 
ENDROOT
BRANCH   6  13
HETATM   13  N3  UNL     1      -0.195   7.326  11.959  1.00  0.00    -0.351 N 
ATOM     14  H3  UNL     1       0.218   7.901  12.695  1.00  0.00     0.166 HD
BRANCH  13  15
HETATM   15  C13 UNL     1       0.753   7.129  10.984  1.00  0.00     0.096 C 
BRANCH  15  16
HETATM   16  C14 UNL     1       1.433   5.775  10.892  1.00  0.00     0.184 C 
BRANCH  16  17
HETATM   17  O1  UNL     1       1.916   5.287  12.064  1.00  0.00    -0.389 OA
ATOM     18  H1  UNL     1       1.431   4.557  12.431  1.00  0.00     0.210 HD
ENDBRANCH  16  17
BRANCH  16  19
HETATM   19  C15 UNL     1       2.409   5.791   9.772  1.00  0.00     0.309 C 
BRANCH  19  20
HETATM   20  N4  UNL     1       2.637   4.573   9.069  1.00  0.00     0.096 N 
HETATM   21  C16 UNL     1       3.716   4.760   8.084  1.00  0.00     0.303 C 
HETATM   22  C17 UNL     1       3.962   3.417   7.451  1.00  0.00     0.146 C 
HETATM   23  C18 UNL     1       5.214   3.478   6.590  1.00  0.00     0.041 C 
HETATM   24  O2  UNL     1       2.907   3.135   6.636  1.00  0.00    -0.378 OA
HETATM   25  C19 UNL     1       1.686   3.619   6.977  1.00  0.00     0.146 C 
HETATM   26  C20 UNL     1       1.221   4.724   6.034  1.00  0.00     0.041 C 
HETATM   27  C21 UNL     1       1.480   3.999   8.418  1.00  0.00     0.303 C 
ENDBRANCH  19  20
ENDBRANCH  16  19
ENDBRANCH  15  16
ENDBRANCH  13  15
ENDBRANCH   6  13
BRANCH   1  28
HETATM   28  C9  UNL     1      -4.006   3.782  14.688  1.00  0.00     0.103 C 
HETATM   29  C5  UNL     1      -5.016   3.128  13.833  1.00  0.00     0.047 C 
HETATM   30  C6  UNL     1      -5.818   2.333  14.894  1.00  0.00     0.049 C 
HETATM   31  C7  UNL     1      -4.847   1.978  15.982  1.00  0.00     0.172 C 
HETATM   32  F1  UNL     1      -5.429   2.374  17.200  1.00  0.00    -0.249 F 
HETATM   33  C8  UNL     1      -3.586   2.731  15.719  1.00  0.00     0.063 C 
BRANCH  29  34
HETATM   34  C4  UNL     1      -4.554   2.223  12.789  1.00  0.00    -0.028 A 
HETATM   35  C3  UNL     1      -4.336   0.871  12.949  1.00  0.00     0.034 A 
HETATM   36  C2  UNL     1      -3.868   0.336  11.774  1.00  0.00     0.006 A 
HETATM   37  C1  UNL     1      -3.514  -1.083  11.527  1.00  0.00     0.068 C 
HETATM   38  N7  UNL     1      -3.805   1.366  10.905  1.00  0.00    -0.363 N 
HETATM   39  C24 UNL     1      -4.214   2.512  11.495  1.00  0.00     0.012 A 
ATOM     40  H7  UNL     1      -3.492   1.291   9.937  1.00  0.00     0.165 HD
HETATM   41  C25 UNL     1      -4.291   3.807  10.775  1.00  0.00     0.068 C 
ENDBRANCH  29  34
ENDBRANCH   1  28
TORSDOF 8
ENDMDL
