MODEL 1
REMARK VINA RESULT: -10.304332598      0.000      0.000
REMARK  13 active torsions:
REMARK  status: ('A' for Active; 'I' for Inactive)
REMARK    1  A    between atoms: O1_2  and  C2_3 
REMARK    2  A    between atoms: C4_5  and  O2_6 
REMARK    3  A    between atoms: O2_6  and  C5_7 
REMARK    4  A    between atoms: C7_9  and  C8_10 
REMARK    5  A    between atoms: C13_15  and  O3_16 
REMARK    6  A    between atoms: C15_18  and  O4_19 
REMARK    7  A    between atoms: O4_19  and  C16_20 
REMARK    8  A    between atoms: C16_20  and  C17_21 
REMARK    9  A    between atoms: C17_21  and  C18_22 
REMARK   10  A    between atoms: C17_21  and  N1_27 
REMARK   11  A    between atoms: C18_22  and  C19_23 
REMARK   12  A    between atoms: N2_30  and  S1_31 
REMARK   13  A    between atoms: S1_31  and  C25_34 
ROOT
HETATM    1  C17 UNL     1      16.507  22.707  15.110  1.00  0.00     0.112 C 
ENDROOT
BRANCH   1   2
HETATM    2  C16 UNL     1      17.281  23.994  15.421  1.00  0.00     0.201 C 
BRANCH   2   3
HETATM    3  O4  UNL     1      18.645  23.870  15.144  1.00  0.00    -0.346 OA
BRANCH   3   4
HETATM    4  C15 UNL     1      19.441  25.006  15.386  1.00  0.00     0.103 A 
HETATM    5  C4  UNL     1      20.127  25.113  16.603  1.00  0.00     0.112 A 
HETATM    6  C3  UNL     1      20.897  26.220  16.830  1.00  0.00     0.077 A 
HETATM    7  C2  UNL     1      20.994  27.212  15.876  1.00  0.00     0.076 A 
HETATM    8  C32 UNL     1      20.337  27.145  14.669  1.00  0.00    -0.026 A 
HETATM    9  C31 UNL     1      19.566  26.020  14.460  1.00  0.00     0.049 A 
HETATM   10  C33 UNL     1      20.425  28.197  13.625  1.00  0.00     0.051 C 
BRANCH   5  11
HETATM   11  O2  UNL     1      19.968  24.075  17.485  1.00  0.00    -0.305 OA
BRANCH  11  12
HETATM   12  C5  UNL     1      20.025  24.130  18.857  1.00  0.00     0.110 A 
HETATM   13  C6  UNL     1      21.251  24.271  19.512  1.00  0.00     0.047 A 
HETATM   14  C7  UNL     1      21.316  24.327  20.882  1.00  0.00    -0.052 A 
HETATM   15  C11 UNL     1      20.157  24.243  21.639  1.00  0.00     0.010 A 
HETATM   16  C12 UNL     1      18.945  24.103  20.995  1.00  0.00     0.040 A 
HETATM   17  C13 UNL     1      18.874  24.047  19.603  1.00  0.00     0.102 A 
BRANCH  14  18
HETATM   18  C8  UNL     1      22.609  24.480  21.588  1.00  0.00     0.010 C 
HETATM   19  C9  UNL     1      23.797  24.081  20.770  1.00  0.00     0.015 C 
HETATM   20  C10 UNL     1      22.683  25.961  21.982  1.00  0.00     0.015 C 
ENDBRANCH  14  18
BRANCH  17  21
HETATM   21  O3  UNL     1      17.661  23.910  18.951  1.00  0.00    -0.353 OA
HETATM   22  C14 UNL     1      16.926  25.081  18.656  1.00  0.00     0.210 C 
ENDBRANCH  17  21
ENDBRANCH  11  12
ENDBRANCH   5  11
BRANCH   7  23
HETATM   23  O1  UNL     1      21.780  28.364  16.078  1.00  0.00    -0.355 OA
HETATM   24  C1  UNL     1      23.191  28.285  16.009  1.00  0.00     0.210 C 
ENDBRANCH   7  23
ENDBRANCH   3   4
ENDBRANCH   2   3
ENDBRANCH   1   2
BRANCH   1  25
HETATM   25  C18 UNL     1      15.325  23.155  14.314  1.00  0.00     0.036 C 
BRANCH  25  26
HETATM   26  C19 UNL     1      14.757  22.269  13.291  1.00  0.00    -0.050 C 
HETATM   27  C20 UNL     1      13.373  21.819  13.854  1.00  0.00     0.014 C 
HETATM   28  C21 UNL     1      15.443  21.014  12.924  1.00  0.00     0.014 C 
HETATM   29  C22 UNL     1      14.385  23.026  12.013  1.00  0.00     0.014 C 
ENDBRANCH  25  26
ENDBRANCH   1  25
BRANCH   1  30
HETATM   30  N1  UNL     1      16.179  22.082  16.400  1.00  0.00    -0.339 N 
HETATM   31  C23 UNL     1      14.962  22.474  17.079  1.00  0.00     0.147 C 
HETATM   32  C24 UNL     1      15.022  21.864  18.491  1.00  0.00     0.161 C 
HETATM   33  N2  UNL     1      15.275  20.488  18.339  1.00  0.00    -0.274 N 
HETATM   34  C29 UNL     1      16.528  20.074  17.855  1.00  0.00     0.177 C 
HETATM   35  C30 UNL     1      17.083  21.149  16.999  1.00  0.00     0.260 C 
HETATM   36  O8  UNL     1      18.310  21.271  16.780  1.00  0.00    -0.267 OA
BRANCH  33  37
HETATM   37  S1  UNL     1      14.159  19.368  18.857  1.00  0.00     0.282 S 
HETATM   38  O5  UNL     1      14.757  17.975  18.681  1.00  0.00    -0.198 OA
HETATM   39  O6  UNL     1      14.010  19.511  20.368  1.00  0.00    -0.198 OA
BRANCH  37  40
HETATM   40  C25 UNL     1      12.608  19.396  18.080  1.00  0.00     0.176 A 
HETATM   41  N3  UNL     1      12.144  20.272  17.175  1.00  0.00    -0.296 N 
HETATM   42  C26 UNL     1      10.893  19.960  16.811  1.00  0.00     0.325 A 
ATOM     43  H3  UNL     1      12.672  21.067  16.815  1.00  0.00     0.171 HD
HETATM   44  O7  UNL     1      10.121  20.531  15.991  1.00  0.00    -0.247 OA
HETATM   45  N4  UNL     1      10.552  18.858  17.498  1.00  0.00    -0.310 N 
HETATM   46  C27 UNL     1      11.587  18.499  18.279  1.00  0.00     0.050 A 
ATOM     47  H4  UNL     1       9.657  18.374  17.437  1.00  0.00     0.170 HD
HETATM   48  C28 UNL     1      11.517  17.307  19.165  1.00  0.00     0.071 C 
ENDBRANCH  37  40
ENDBRANCH  33  37
ENDBRANCH   1  30
TORSDOF 13
ENDMDL
MODEL 2
REMARK VINA RESULT: -10.264078638      0.991      1.236
REMARK  13 active torsions:
REMARK  status: ('A' for Active; 'I' for Inactive)
REMARK    1  A    between atoms: O1_2  and  C2_3 
REMARK    2  A    between atoms: C4_5  and  O2_6 
REMARK    3  A    between atoms: O2_6  and  C5_7 
REMARK    4  A    between atoms: C7_9  and  C8_10 
REMARK    5  A    between atoms: C13_15  and  O3_16 
REMARK    6  A    between atoms: C15_18  and  O4_19 
REMARK    7  A    between atoms: O4_19  and  C16_20 
REMARK    8  A    between atoms: C16_20  and  C17_21 
REMARK    9  A    between atoms: C17_21  and  C18_22 
REMARK   10  A    between atoms: C17_21  and  N1_27 
REMARK   11  A    between atoms: C18_22  and  C19_23 
REMARK   12  A    between atoms: N2_30  and  S1_31 
REMARK   13  A    between atoms: S1_31  and  C25_34 
ROOT
HETATM    1  C17 UNL     1      16.211  23.017  15.485  1.00  0.00     0.112 C 
ENDROOT
BRANCH   1   2
HETATM    2  C16 UNL     1      16.668  24.405  15.949  1.00  0.00     0.201 C 
BRANCH   2   3
HETATM    3  O4  UNL     1      17.770  24.339  16.805  1.00  0.00    -0.346 OA
BRANCH   3   4
HETATM    4  C15 UNL     1      18.747  25.342  16.650  1.00  0.00     0.103 A 
HETATM    5  C4  UNL     1      19.559  25.680  17.741  1.00  0.00     0.112 A 
HETATM    6  C3  UNL     1      20.503  26.655  17.582  1.00  0.00     0.077 A 
HETATM    7  C2  UNL     1      20.651  27.294  16.367  1.00  0.00     0.076 A 
HETATM    8  C32 UNL     1      19.875  26.992  15.272  1.00  0.00    -0.026 A 
HETATM    9  C31 UNL     1      18.928  26.005  15.454  1.00  0.00     0.049 A 
HETATM   10  C33 UNL     1      20.014  27.663  13.956  1.00  0.00     0.051 C 
BRANCH   5  11
HETATM   11  O2  UNL     1      19.336  24.988  18.904  1.00  0.00    -0.305 OA
BRANCH  11  12
HETATM   12  C5  UNL     1      20.277  24.484  19.768  1.00  0.00     0.110 A 
HETATM   13  C6  UNL     1      21.199  25.331  20.388  1.00  0.00     0.047 A 
HETATM   14  C7  UNL     1      22.142  24.835  21.253  1.00  0.00    -0.052 A 
HETATM   15  C11 UNL     1      22.192  23.476  21.525  1.00  0.00     0.010 A 
HETATM   16  C12 UNL     1      21.282  22.637  20.916  1.00  0.00     0.040 A 
HETATM   17  C13 UNL     1      20.322  23.137  20.036  1.00  0.00     0.102 A 
BRANCH  14  18
HETATM   18  C8  UNL     1      23.123  25.724  21.918  1.00  0.00     0.010 C 
HETATM   19  C9  UNL     1      24.104  26.354  20.980  1.00  0.00     0.015 C 
HETATM   20  C10 UNL     1      22.283  26.790  22.634  1.00  0.00     0.015 C 
ENDBRANCH  14  18
BRANCH  17  21
HETATM   21  O3  UNL     1      19.405  22.301  19.424  1.00  0.00    -0.353 OA
HETATM   22  C14 UNL     1      18.603  21.474  20.244  1.00  0.00     0.210 C 
ENDBRANCH  17  21
ENDBRANCH  11  12
ENDBRANCH   5  11
BRANCH   7  23
HETATM   23  O1  UNL     1      21.616  28.303  16.170  1.00  0.00    -0.355 OA
HETATM   24  C1  UNL     1      22.995  27.984  16.194  1.00  0.00     0.210 C 
ENDBRANCH   7  23
ENDBRANCH   3   4
ENDBRANCH   2   3
ENDBRANCH   1   2
BRANCH   1  25
HETATM   25  C18 UNL     1      14.981  23.271  14.676  1.00  0.00     0.036 C 
BRANCH  25  26
HETATM   26  C19 UNL     1      14.588  22.320  13.628  1.00  0.00    -0.050 C 
HETATM   27  C20 UNL     1      13.218  21.735  14.092  1.00  0.00     0.014 C 
HETATM   28  C21 UNL     1      15.425  21.140  13.337  1.00  0.00     0.014 C 
HETATM   29  C22 UNL     1      14.241  23.022  12.312  1.00  0.00     0.014 C 
ENDBRANCH  25  26
ENDBRANCH   1  25
BRANCH   1  30
HETATM   30  N1  UNL     1      15.995  22.210  16.694  1.00  0.00    -0.339 N 
HETATM   31  C23 UNL     1      14.911  22.560  17.587  1.00  0.00     0.147 C 
HETATM   32  C24 UNL     1      15.096  21.723  18.865  1.00  0.00     0.161 C 
HETATM   33  N2  UNL     1      15.209  20.377  18.467  1.00  0.00    -0.274 N 
HETATM   34  C29 UNL     1      16.352  19.970  17.756  1.00  0.00     0.177 C 
HETATM   35  C30 UNL     1      16.885  21.134  17.010  1.00  0.00     0.260 C 
HETATM   36  O8  UNL     1      18.081  21.213  16.646  1.00  0.00    -0.267 OA
BRANCH  33  37
HETATM   37  S1  UNL     1      14.077  19.261  18.953  1.00  0.00     0.282 S 
HETATM   38  O5  UNL     1      14.664  17.864  18.766  1.00  0.00    -0.198 OA
HETATM   39  O6  UNL     1      13.908  19.383  20.464  1.00  0.00    -0.198 OA
BRANCH  37  40
HETATM   40  C25 UNL     1      12.536  19.314  18.156  1.00  0.00     0.176 A 
HETATM   41  N3  UNL     1      12.062  20.252  17.322  1.00  0.00    -0.296 N 
HETATM   42  C26 UNL     1      10.826  19.939  16.910  1.00  0.00     0.325 A 
ATOM     43  H3  UNL     1      12.573  21.089  17.039  1.00  0.00     0.171 HD
HETATM   44  O7  UNL     1      10.049  20.558  16.130  1.00  0.00    -0.247 OA
HETATM   45  N4  UNL     1      10.506  18.775  17.495  1.00  0.00    -0.310 N 
HETATM   46  C27 UNL     1      11.538  18.377  18.260  1.00  0.00     0.050 A 
ATOM     47  H4  UNL     1       9.625  18.273  17.379  1.00  0.00     0.170 HD
HETATM   48  C28 UNL     1      11.489  17.112  19.040  1.00  0.00     0.071 C 
ENDBRANCH  37  40
ENDBRANCH  33  37
ENDBRANCH   1  30
TORSDOF 13
ENDMDL
MODEL 3
REMARK VINA RESULT: -10.072957944      1.377      3.974
REMARK  13 active torsions:
REMARK  status: ('A' for Active; 'I' for Inactive)
REMARK    1  A    between atoms: O1_2  and  C2_3 
REMARK    2  A    between atoms: C4_5  and  O2_6 
REMARK    3  A    between atoms: O2_6  and  C5_7 
REMARK    4  A    between atoms: C7_9  and  C8_10 
REMARK    5  A    between atoms: C13_15  and  O3_16 
REMARK    6  A    between atoms: C15_18  and  O4_19 
REMARK    7  A    between atoms: O4_19  and  C16_20 
REMARK    8  A    between atoms: C16_20  and  C17_21 
REMARK    9  A    between atoms: C17_21  and  C18_22 
REMARK   10  A    between atoms: C17_21  and  N1_27 
REMARK   11  A    between atoms: C18_22  and  C19_23 
REMARK   12  A    between atoms: N2_30  and  S1_31 
REMARK   13  A    between atoms: S1_31  and  C25_34 
ROOT
HETATM    1  C17 UNL     1      16.820  22.844  16.016  1.00  0.00     0.112 C 
ENDROOT
BRANCH   1   2
HETATM    2  C16 UNL     1      17.486  24.080  16.632  1.00  0.00     0.201 C 
BRANCH   2   3
HETATM    3  O4  UNL     1      18.877  23.959  16.687  1.00  0.00    -0.346 OA
BRANCH   3   4
HETATM    4  C15 UNL     1      19.473  24.120  17.953  1.00  0.00     0.103 A 
HETATM    5  C4  UNL     1      19.982  25.373  18.314  1.00  0.00     0.112 A 
HETATM    6  C3  UNL     1      20.560  25.520  19.545  1.00  0.00     0.077 A 
HETATM    7  C2  UNL     1      20.638  24.450  20.412  1.00  0.00     0.076 A 
HETATM    8  C32 UNL     1      20.151  23.203  20.095  1.00  0.00    -0.026 A 
HETATM    9  C31 UNL     1      19.572  23.076  18.850  1.00  0.00     0.049 A 
HETATM   10  C33 UNL     1      20.222  22.036  21.010  1.00  0.00     0.051 C 
BRANCH   5  11
HETATM   11  O2  UNL     1      19.855  26.374  17.384  1.00  0.00    -0.305 OA
BRANCH  11  12
HETATM   12  C5  UNL     1      20.828  26.866  16.549  1.00  0.00     0.110 A 
HETATM   13  C6  UNL     1      22.116  27.117  17.029  1.00  0.00     0.047 A 
HETATM   14  C7  UNL     1      23.094  27.608  16.201  1.00  0.00    -0.052 A 
HETATM   15  C11 UNL     1      22.814  27.862  14.867  1.00  0.00     0.010 A 
HETATM   16  C12 UNL     1      21.544  27.614  14.389  1.00  0.00     0.040 A 
HETATM   17  C13 UNL     1      20.548  27.115  15.228  1.00  0.00     0.102 A 
BRANCH  14  18
HETATM   18  C8  UNL     1      24.464  27.876  16.698  1.00  0.00     0.010 C 
HETATM   19  C9  UNL     1      25.411  26.732  16.513  1.00  0.00     0.015 C 
HETATM   20  C10 UNL     1      24.939  29.115  15.927  1.00  0.00     0.015 C 
ENDBRANCH  14  18
BRANCH  17  21
HETATM   21  O3  UNL     1      19.272  26.862  14.754  1.00  0.00    -0.353 OA
HETATM   22  C14 UNL     1      19.105  25.828  13.805  1.00  0.00     0.210 C 
ENDBRANCH  17  21
ENDBRANCH  11  12
ENDBRANCH   5  11
BRANCH   7  23
HETATM   23  O1  UNL     1      21.226  24.568  21.688  1.00  0.00    -0.355 OA
HETATM   24  C1  UNL     1      21.953  25.733  22.032  1.00  0.00     0.210 C 
ENDBRANCH   7  23
ENDBRANCH   3   4
ENDBRANCH   2   3
ENDBRANCH   1   2
BRANCH   1  25
HETATM   25  C18 UNL     1      15.712  23.388  15.173  1.00  0.00     0.036 C 
BRANCH  25  26
HETATM   26  C19 UNL     1      15.048  22.519  14.194  1.00  0.00    -0.050 C 
HETATM   27  C20 UNL     1      13.519  22.741  14.414  1.00  0.00     0.014 C 
HETATM   28  C21 UNL     1      15.230  21.055  14.248  1.00  0.00     0.014 C 
HETATM   29  C22 UNL     1      15.267  22.997  12.755  1.00  0.00     0.014 C 
ENDBRANCH  25  26
ENDBRANCH   1  25
BRANCH   1  30
HETATM   30  N1  UNL     1      16.382  21.992  17.132  1.00  0.00    -0.339 N 
HETATM   31  C23 UNL     1      15.296  22.445  17.975  1.00  0.00     0.147 C 
HETATM   32  C24 UNL     1      15.242  21.493  19.183  1.00  0.00     0.161 C 
HETATM   33  N2  UNL     1      15.176  20.181  18.675  1.00  0.00    -0.274 N 
HETATM   34  C29 UNL     1      16.296  19.650  18.012  1.00  0.00     0.177 C 
HETATM   35  C30 UNL     1      17.064  20.766  17.411  1.00  0.00     0.260 C 
HETATM   36  O8  UNL     1      18.283  20.676  17.139  1.00  0.00    -0.267 OA
BRANCH  33  37
HETATM   37  S1  UNL     1      13.847  19.230  18.981  1.00  0.00     0.282 S 
HETATM   38  O5  UNL     1      14.279  17.766  18.927  1.00  0.00    -0.198 OA
HETATM   39  O6  UNL     1      13.442  19.434  20.437  1.00  0.00    -0.198 OA
BRANCH  37  40
HETATM   40  C25 UNL     1      12.483  19.433  17.929  1.00  0.00     0.176 A 
HETATM   41  N3  UNL     1      12.357  20.259  16.878  1.00  0.00    -0.296 N 
HETATM   42  C26 UNL     1      11.148  20.128  16.315  1.00  0.00     0.325 A 
ATOM     43  H3  UNL     1      13.082  20.899  16.553  1.00  0.00     0.171 HD
HETATM   44  O7  UNL     1      10.650  20.721  15.317  1.00  0.00    -0.247 OA
HETATM   45  N4  UNL     1      10.490  19.197  17.021  1.00  0.00    -0.310 N 
HETATM   46  C27 UNL     1      11.289  18.761  18.011  1.00  0.00     0.050 A 
ATOM     47  H4  UNL     1       9.540  18.873  16.837  1.00  0.00     0.170 HD
HETATM   48  C28 UNL     1      10.841  17.717  18.971  1.00  0.00     0.071 C 
ENDBRANCH  37  40
ENDBRANCH  33  37
ENDBRANCH   1  30
TORSDOF 13
ENDMDL
MODEL 4
REMARK VINA RESULT: -9.998695948      1.786      2.353
REMARK  13 active torsions:
REMARK  status: ('A' for Active; 'I' for Inactive)
REMARK    1  A    between atoms: O1_2  and  C2_3 
REMARK    2  A    between atoms: C4_5  and  O2_6 
REMARK    3  A    between atoms: O2_6  and  C5_7 
REMARK    4  A    between atoms: C7_9  and  C8_10 
REMARK    5  A    between atoms: C13_15  and  O3_16 
REMARK    6  A    between atoms: C15_18  and  O4_19 
REMARK    7  A    between atoms: O4_19  and  C16_20 
REMARK    8  A    between atoms: C16_20  and  C17_21 
REMARK    9  A    between atoms: C17_21  and  C18_22 
REMARK   10  A    between atoms: C17_21  and  N1_27 
REMARK   11  A    between atoms: C18_22  and  C19_23 
REMARK   12  A    between atoms: N2_30  and  S1_31 
REMARK   13  A    between atoms: S1_31  and  C25_34 
ROOT
HETATM    1  C17 UNL     1      15.724  21.981  16.593  1.00  0.00     0.112 C 
ENDROOT
BRANCH   1   2
HETATM    2  C16 UNL     1      16.349  23.219  17.246  1.00  0.00     0.201 C 
BRANCH   2   3
HETATM    3  O4  UNL     1      17.741  23.128  17.327  1.00  0.00    -0.346 OA
BRANCH   3   4
HETATM    4  C15 UNL     1      18.473  24.212  16.804  1.00  0.00     0.103 A 
HETATM    5  C4  UNL     1      19.165  25.057  17.682  1.00  0.00     0.112 A 
HETATM    6  C3  UNL     1      19.873  26.106  17.165  1.00  0.00     0.077 A 
HETATM    7  C2  UNL     1      19.901  26.327  15.803  1.00  0.00     0.076 A 
HETATM    8  C32 UNL     1      19.235  25.522  14.908  1.00  0.00    -0.026 A 
HETATM    9  C31 UNL     1      18.528  24.468  15.450  1.00  0.00     0.049 A 
HETATM   10  C33 UNL     1      19.251  25.737  13.440  1.00  0.00     0.051 C 
BRANCH   5  11
HETATM   11  O2  UNL     1      19.076  24.753  19.016  1.00  0.00    -0.305 OA
BRANCH  11  12
HETATM   12  C5  UNL     1      20.112  24.537  19.893  1.00  0.00     0.110 A 
HETATM   13  C6  UNL     1      20.817  25.612  20.439  1.00  0.00     0.047 A 
HETATM   14  C7  UNL     1      21.852  25.404  21.317  1.00  0.00    -0.052 A 
HETATM   15  C11 UNL     1      22.213  24.115  21.675  1.00  0.00     0.010 A 
HETATM   16  C12 UNL     1      21.519  23.050  21.138  1.00  0.00     0.040 A 
HETATM   17  C13 UNL     1      20.466  23.257  20.247  1.00  0.00     0.102 A 
BRANCH  14  18
HETATM   18  C8  UNL     1      22.605  26.537  21.904  1.00  0.00     0.010 C 
HETATM   19  C9  UNL     1      22.095  26.977  23.240  1.00  0.00     0.015 C 
HETATM   20  C10 UNL     1      24.057  26.050  22.001  1.00  0.00     0.015 C 
ENDBRANCH  14  18
BRANCH  17  21
HETATM   21  O3  UNL     1      19.764  22.194  19.707  1.00  0.00    -0.353 OA
HETATM   22  C14 UNL     1      18.829  21.524  20.530  1.00  0.00     0.210 C 
ENDBRANCH  17  21
ENDBRANCH  11  12
ENDBRANCH   5  11
BRANCH   7  23
HETATM   23  O1  UNL     1      20.622  27.399  15.239  1.00  0.00    -0.355 OA
HETATM   24  C1  UNL     1      21.676  28.008  15.962  1.00  0.00     0.210 C 
ENDBRANCH   7  23
ENDBRANCH   3   4
ENDBRANCH   2   3
ENDBRANCH   1   2
BRANCH   1  25
HETATM   25  C18 UNL     1      14.648  22.519  15.707  1.00  0.00     0.036 C 
BRANCH  25  26
HETATM   26  C19 UNL     1      14.718  22.297  14.257  1.00  0.00    -0.050 C 
HETATM   27  C20 UNL     1      14.731  20.748  14.075  1.00  0.00     0.014 C 
HETATM   28  C21 UNL     1      15.878  22.780  13.482  1.00  0.00     0.014 C 
HETATM   29  C22 UNL     1      13.430  22.722  13.545  1.00  0.00     0.014 C 
ENDBRANCH  25  26
ENDBRANCH   1  25
BRANCH   1  30
HETATM   30  N1  UNL     1      15.249  21.115  17.682  1.00  0.00    -0.339 N 
HETATM   31  C23 UNL     1      14.098  21.530  18.455  1.00  0.00     0.147 C 
HETATM   32  C24 UNL     1      14.003  20.578  19.661  1.00  0.00     0.161 C 
HETATM   33  N2  UNL     1      14.014  19.265  19.155  1.00  0.00    -0.274 N 
HETATM   34  C29 UNL     1      15.191  18.772  18.563  1.00  0.00     0.177 C 
HETATM   35  C30 UNL     1      15.954  19.914  18.007  1.00  0.00     0.260 C 
HETATM   36  O8  UNL     1      17.190  19.867  17.810  1.00  0.00    -0.267 OA
BRANCH  33  37
HETATM   37  S1  UNL     1      12.703  18.268  19.381  1.00  0.00     0.282 S 
HETATM   38  O5  UNL     1      13.135  17.094  20.256  1.00  0.00    -0.198 OA
HETATM   39  O6  UNL     1      11.687  19.009  20.245  1.00  0.00    -0.198 OA
BRANCH  37  40
HETATM   40  C25 UNL     1      11.949  17.633  17.953  1.00  0.00     0.176 A 
HETATM   41  N3  UNL     1      11.951  16.369  17.502  1.00  0.00    -0.296 N 
HETATM   42  C26 UNL     1      11.257  16.272  16.360  1.00  0.00     0.325 A 
ATOM     43  H3  UNL     1      12.419  15.589  17.964  1.00  0.00     0.171 HD
HETATM   44  O7  UNL     1      11.028  15.266  15.633  1.00  0.00    -0.247 OA
HETATM   45  N4  UNL     1      10.800  17.502  16.079  1.00  0.00    -0.310 N 
HETATM   46  C27 UNL     1      11.212  18.347  17.041  1.00  0.00     0.050 A 
ATOM     47  H4  UNL     1      10.232  17.755  15.269  1.00  0.00     0.170 HD
HETATM   48  C28 UNL     1      10.862  19.792  17.012  1.00  0.00     0.071 C 
ENDBRANCH  37  40
ENDBRANCH  33  37
ENDBRANCH   1  30
TORSDOF 13
ENDMDL
MODEL 5
REMARK VINA RESULT: -9.848524704      3.119     10.541
REMARK  13 active torsions:
REMARK  status: ('A' for Active; 'I' for Inactive)
REMARK    1  A    between atoms: O1_2  and  C2_3 
REMARK    2  A    between atoms: C4_5  and  O2_6 
REMARK    3  A    between atoms: O2_6  and  C5_7 
REMARK    4  A    between atoms: C7_9  and  C8_10 
REMARK    5  A    between atoms: C13_15  and  O3_16 
REMARK    6  A    between atoms: C15_18  and  O4_19 
REMARK    7  A    between atoms: O4_19  and  C16_20 
REMARK    8  A    between atoms: C16_20  and  C17_21 
REMARK    9  A    between atoms: C17_21  and  C18_22 
REMARK   10  A    between atoms: C17_21  and  N1_27 
REMARK   11  A    between atoms: C18_22  and  C19_23 
REMARK   12  A    between atoms: N2_30  and  S1_31 
REMARK   13  A    between atoms: S1_31  and  C25_34 
ROOT
HETATM    1  C17 UNL     1      17.497  22.303  18.679  1.00  0.00     0.112 C 
ENDROOT
BRANCH   1   2
HETATM    2  C16 UNL     1      16.024  21.901  18.828  1.00  0.00     0.201 C 
BRANCH   2   3
HETATM    3  O4  UNL     1      15.739  20.693  18.186  1.00  0.00    -0.346 OA
BRANCH   3   4
HETATM    4  C15 UNL     1      14.488  20.111  18.470  1.00  0.00     0.103 A 
HETATM    5  C4  UNL     1      13.463  20.194  17.519  1.00  0.00     0.112 A 
HETATM    6  C3  UNL     1      12.253  19.626  17.804  1.00  0.00     0.077 A 
HETATM    7  C2  UNL     1      12.047  18.985  19.008  1.00  0.00     0.076 A 
HETATM    8  C32 UNL     1      13.027  18.881  19.969  1.00  0.00    -0.026 A 
HETATM    9  C31 UNL     1      14.241  19.460  19.661  1.00  0.00     0.049 A 
HETATM   10  C33 UNL     1      12.832  18.196  21.271  1.00  0.00     0.051 C 
BRANCH   5  11
HETATM   11  O2  UNL     1      13.766  20.850  16.353  1.00  0.00    -0.305 OA
BRANCH  11  12
HETATM   12  C5  UNL     1      13.009  20.909  15.208  1.00  0.00     0.110 A 
HETATM   13  C6  UNL     1      12.430  19.753  14.679  1.00  0.00     0.047 A 
HETATM   14  C7  UNL     1      11.672  19.804  13.535  1.00  0.00    -0.052 A 
HETATM   15  C11 UNL     1      11.471  21.013  12.887  1.00  0.00     0.010 A 
HETATM   16  C12 UNL     1      12.040  22.157  13.407  1.00  0.00     0.040 A 
HETATM   17  C13 UNL     1      12.811  22.109  14.569  1.00  0.00     0.102 A 
BRANCH  14  18
HETATM   18  C8  UNL     1      11.051  18.586  12.967  1.00  0.00     0.010 C 
HETATM   19  C9  UNL     1      10.606  18.738  11.546  1.00  0.00     0.015 C 
HETATM   20  C10 UNL     1      12.117  17.490  13.096  1.00  0.00     0.015 C 
ENDBRANCH  14  18
BRANCH  17  21
HETATM   21  O3  UNL     1      13.383  23.253  15.098  1.00  0.00    -0.353 OA
HETATM   22  C14 UNL     1      14.556  23.756  14.489  1.00  0.00     0.210 C 
ENDBRANCH  17  21
ENDBRANCH  11  12
ENDBRANCH   5  11
BRANCH   7  23
HETATM   23  O1  UNL     1      10.811  18.388  19.332  1.00  0.00    -0.355 OA
HETATM   24  C1  UNL     1      10.360  17.253  18.618  1.00  0.00     0.210 C 
ENDBRANCH   7  23
ENDBRANCH   3   4
ENDBRANCH   2   3
ENDBRANCH   1   2
BRANCH   1  25
HETATM   25  C18 UNL     1      17.876  22.865  20.010  1.00  0.00     0.036 C 
BRANCH  25  26
HETATM   26  C19 UNL     1      19.270  22.790  20.463  1.00  0.00    -0.050 C 
HETATM   27  C20 UNL     1      19.402  23.871  21.580  1.00  0.00     0.014 C 
HETATM   28  C21 UNL     1      20.376  23.076  19.528  1.00  0.00     0.014 C 
HETATM   29  C22 UNL     1      19.568  21.483  21.204  1.00  0.00     0.014 C 
ENDBRANCH  25  26
ENDBRANCH   1  25
BRANCH   1  30
HETATM   30  N1  UNL     1      17.569  23.259  17.565  1.00  0.00    -0.339 N 
HETATM   31  C23 UNL     1      17.418  24.671  17.842  1.00  0.00     0.147 C 
HETATM   32  C24 UNL     1      17.277  25.381  16.483  1.00  0.00     0.161 C 
HETATM   33  N2  UNL     1      18.371  24.981  15.691  1.00  0.00    -0.274 N 
HETATM   34  C29 UNL     1      18.442  23.648  15.250  1.00  0.00     0.177 C 
HETATM   35  C30 UNL     1      17.726  22.789  16.222  1.00  0.00     0.260 C 
HETATM   36  O8  UNL     1      17.254  21.671  15.915  1.00  0.00    -0.267 OA
BRANCH  33  37
HETATM   37  S1  UNL     1      19.483  26.102  15.171  1.00  0.00     0.282 S 
HETATM   38  O5  UNL     1      20.360  25.452  14.103  1.00  0.00    -0.198 OA
HETATM   39  O6  UNL     1      18.736  27.194  14.410  1.00  0.00    -0.198 OA
BRANCH  37  40
HETATM   40  C25 UNL     1      20.519  26.793  16.378  1.00  0.00     0.176 A 
HETATM   41  N3  UNL     1      20.455  26.650  17.711  1.00  0.00    -0.296 N 
HETATM   42  C26 UNL     1      21.434  27.343  18.310  1.00  0.00     0.325 A 
ATOM     43  H3  UNL     1      19.757  26.091  18.202  1.00  0.00     0.171 HD
HETATM   44  O7  UNL     1      21.710  27.462  19.536  1.00  0.00    -0.247 OA
HETATM   45  N4  UNL     1      22.138  27.940  17.336  1.00  0.00    -0.310 N 
HETATM   46  C27 UNL     1      21.594  27.616  16.149  1.00  0.00     0.050 A 
ATOM     47  H4  UNL     1      22.951  28.540  17.473  1.00  0.00     0.170 HD
HETATM   48  C28 UNL     1      22.156  28.124  14.869  1.00  0.00     0.071 C 
ENDBRANCH  37  40
ENDBRANCH  33  37
ENDBRANCH   1  30
TORSDOF 13
ENDMDL
