MODEL 1
REMARK VINA RESULT: -10.391298495      0.000      0.000
REMARK  12 active torsions:
REMARK  status: ('A' for Active; 'I' for Inactive)
REMARK    1  A    between atoms: C2_2  and  N1_3 
REMARK    2  A    between atoms: N1_3  and  C4_5 
REMARK    3  A    between atoms: C4_5  and  C5_6 
REMARK    4  A    between atoms: C5_6  and  N2_7 
REMARK       I    between atoms: N2_7  and  C6_9 
REMARK    5  A    between atoms: C6_9  and  C7_11 
REMARK    6  A    between atoms: C10_14  and  C11_15 
REMARK    7  A    between atoms: C11_15  and  N3_16 
REMARK    8  A    between atoms: C16_23  and  N5_24 
REMARK       I    between atoms: N5_24  and  C17_26 
REMARK    9  A    between atoms: C17_26  and  C18_28 
REMARK   10  A    between atoms: C18_28  and  N6_29 
REMARK   11  A    between atoms: C21_32  and  C22_33 
REMARK   12  A    between atoms: C22_33  and  C23_35 
ROOT
HETATM    1  N3  UNL     1      19.164  24.935  18.208  1.00  0.00    -0.299 N 
HETATM    2  C12 UNL     1      19.340  24.877  19.532  1.00  0.00     0.099 C 
HETATM    3  C13 UNL     1      19.551  23.837  20.421  1.00  0.00     0.020 C 
HETATM    4  C14 UNL     1      18.814  22.655  20.404  1.00  0.00     0.032 C 
HETATM    5  C15 UNL     1      18.088  22.139  19.327  1.00  0.00     0.049 A 
HETATM    6  N4  UNL     1      17.300  21.056  19.357  1.00  0.00    -0.342 N 
ATOM      7  H4  UNL     1      17.125  20.468  20.172  1.00  0.00     0.167 HD
HETATM    8  C16 UNL     1      16.776  20.877  18.118  1.00  0.00     0.109 A 
HETATM    9  C30 UNL     1      17.232  21.861  17.272  1.00  0.00     0.068 A 
HETATM   10  C31 UNL     1      18.067  22.692  17.984  1.00  0.00     0.063 A 
HETATM   11  C32 UNL     1      18.724  23.834  17.511  1.00  0.00     0.264 C 
HETATM   12  O4  UNL     1      18.915  23.813  16.307  1.00  0.00    -0.267 OA
ENDROOT
BRANCH   1  13
HETATM   13  C11 UNL     1      19.339  26.155  17.515  1.00  0.00     0.112 C 
BRANCH  13  14
HETATM   14  C10 UNL     1      20.642  26.674  17.133  1.00  0.00    -0.009 A 
HETATM   15  C9  UNL     1      21.739  26.565  17.989  1.00  0.00     0.014 A 
HETATM   16  C8  UNL     1      22.954  27.066  17.716  1.00  0.00     0.019 A 
HETATM   17  C7  UNL     1      23.204  27.734  16.539  1.00  0.00     0.043 A 
HETATM   18  C38 UNL     1      22.158  27.867  15.665  1.00  0.00    -0.009 A 
HETATM   19  C33 UNL     1      20.884  27.342  15.950  1.00  0.00    -0.013 A 
HETATM   20  C37 UNL     1      22.331  28.524  14.459  1.00  0.00     0.013 A 
HETATM   21  C34 UNL     1      19.922  27.524  14.982  1.00  0.00     0.013 A 
HETATM   22  C35 UNL     1      20.094  28.174  13.784  1.00  0.00     0.001 A 
HETATM   23  C36 UNL     1      21.328  28.692  13.513  1.00  0.00     0.001 A 
BRANCH  17  24
HETATM   24  C6  UNL     1      24.559  28.151  16.169  1.00  0.00     0.252 C 
HETATM   25  N2  UNL     1      25.439  27.175  15.612  1.00  0.00    -0.355 N 
ATOM     26  H2  UNL     1      25.074  26.229  15.499  1.00  0.00     0.162 HD
HETATM   27  O1  UNL     1      24.879  29.341  16.368  1.00  0.00    -0.268 OA
BRANCH  25  28
HETATM   28  C5  UNL     1      26.794  27.408  15.198  1.00  0.00     0.153 C 
BRANCH  28  29
HETATM   29  C4  UNL     1      27.816  26.619  16.007  1.00  0.00     0.291 C 
BRANCH  29  30
HETATM   30  N1  UNL     1      27.418  26.650  17.428  1.00  0.00     0.085 N 
HETATM   31  C3  UNL     1      28.489  27.407  18.089  1.00  0.00     0.309 C 
BRANCH  30  32
HETATM   32  C2  UNL     1      27.518  25.267  17.914  1.00  0.00     0.267 C 
HETATM   33  C1  UNL     1      26.151  24.662  18.126  1.00  0.00     0.037 C 
ENDBRANCH  30  32
ENDBRANCH  29  30
ENDBRANCH  28  29
ENDBRANCH  25  28
ENDBRANCH  17  24
ENDBRANCH  13  14
ENDBRANCH   1  13
BRANCH   8  34
HETATM   34  N5  UNL     1      15.850  19.819  17.780  1.00  0.00    -0.312 N 
HETATM   35  C17 UNL     1      14.615  19.688  18.452  1.00  0.00     0.241 C 
HETATM   36  O2  UNL     1      14.301  20.519  19.336  1.00  0.00    -0.271 OA
ATOM     37  H5  UNL     1      16.093  19.157  17.043  1.00  0.00     0.170 HD
BRANCH  35  38
HETATM   38  C18 UNL     1      13.724  18.556  18.080  1.00  0.00     0.230 C 
BRANCH  38  39
HETATM   39  N6  UNL     1      12.507  19.087  17.456  1.00  0.00    -0.357 N 
HETATM   40  C19 UNL     1      11.231  18.959  17.855  1.00  0.00     0.092 A 
HETATM   41  C20 UNL     1      10.446  19.621  16.957  1.00  0.00     0.034 A 
HETATM   42  C21 UNL     1      11.266  20.189  15.956  1.00  0.00     0.032 A 
HETATM   43  C29 UNL     1      12.543  19.821  16.324  1.00  0.00     0.106 A 
BRANCH  42  44
HETATM   44  C22 UNL     1      10.782  20.988  14.848  1.00  0.00     0.193 C 
HETATM   45  O3  UNL     1       9.606  21.456  14.961  1.00  0.00    -0.287 OA
BRANCH  44  46
HETATM   46  C23 UNL     1      11.555  21.261  13.666  1.00  0.00     0.015 A 
HETATM   47  C24 UNL     1      11.703  20.391  12.619  1.00  0.00     0.015 A 
HETATM   48  C25 UNL     1      12.443  20.719  11.503  1.00  0.00     0.001 A 
HETATM   49  C26 UNL     1      13.066  21.934  11.389  1.00  0.00     0.000 A 
HETATM   50  C27 UNL     1      12.939  22.837  12.419  1.00  0.00     0.001 A 
HETATM   51  C28 UNL     1      12.202  22.498  13.522  1.00  0.00     0.015 A 
ENDBRANCH  44  46
ENDBRANCH  42  44
ENDBRANCH  38  39
ENDBRANCH  35  38
ENDBRANCH   8  34
TORSDOF 12
ENDMDL
MODEL 2
REMARK VINA RESULT: -10.326607204      1.793      2.477
REMARK  12 active torsions:
REMARK  status: ('A' for Active; 'I' for Inactive)
REMARK    1  A    between atoms: C2_2  and  N1_3 
REMARK    2  A    between atoms: N1_3  and  C4_5 
REMARK    3  A    between atoms: C4_5  and  C5_6 
REMARK    4  A    between atoms: C5_6  and  N2_7 
REMARK       I    between atoms: N2_7  and  C6_9 
REMARK    5  A    between atoms: C6_9  and  C7_11 
REMARK    6  A    between atoms: C10_14  and  C11_15 
REMARK    7  A    between atoms: C11_15  and  N3_16 
REMARK    8  A    between atoms: C16_23  and  N5_24 
REMARK       I    between atoms: N5_24  and  C17_26 
REMARK    9  A    between atoms: C17_26  and  C18_28 
REMARK   10  A    between atoms: C18_28  and  N6_29 
REMARK   11  A    between atoms: C21_32  and  C22_33 
REMARK   12  A    between atoms: C22_33  and  C23_35 
ROOT
HETATM    1  N3  UNL     1      19.145  24.936  18.199  1.00  0.00    -0.299 N 
HETATM    2  C12 UNL     1      19.342  24.866  19.520  1.00  0.00     0.099 C 
HETATM    3  C13 UNL     1      19.573  23.819  20.396  1.00  0.00     0.020 C 
HETATM    4  C14 UNL     1      18.842  22.633  20.379  1.00  0.00     0.032 C 
HETATM    5  C15 UNL     1      18.101  22.124  19.309  1.00  0.00     0.049 A 
HETATM    6  N4  UNL     1      17.320  21.037  19.342  1.00  0.00    -0.342 N 
ATOM      7  H4  UNL     1      17.160  20.441  20.153  1.00  0.00     0.167 HD
HETATM    8  C16 UNL     1      16.777  20.867  18.109  1.00  0.00     0.109 A 
HETATM    9  C30 UNL     1      17.214  21.861  17.265  1.00  0.00     0.068 A 
HETATM   10  C31 UNL     1      18.056  22.689  17.971  1.00  0.00     0.063 A 
HETATM   11  C32 UNL     1      18.701  23.839  17.499  1.00  0.00     0.264 C 
HETATM   12  O4  UNL     1      18.873  23.830  16.292  1.00  0.00    -0.267 OA
ENDROOT
BRANCH   1  13
HETATM   13  C11 UNL     1      19.304  26.163  17.515  1.00  0.00     0.112 C 
BRANCH  13  14
HETATM   14  C10 UNL     1      20.597  26.687  17.108  1.00  0.00    -0.009 A 
HETATM   15  C9  UNL     1      21.708  26.591  17.947  1.00  0.00     0.014 A 
HETATM   16  C8  UNL     1      22.915  27.097  17.650  1.00  0.00     0.019 A 
HETATM   17  C7  UNL     1      23.142  27.758  16.465  1.00  0.00     0.043 A 
HETATM   18  C38 UNL     1      22.082  27.878  15.606  1.00  0.00    -0.009 A 
HETATM   19  C33 UNL     1      20.816  27.347  15.917  1.00  0.00    -0.013 A 
HETATM   20  C37 UNL     1      22.231  28.527  14.394  1.00  0.00     0.013 A 
HETATM   21  C34 UNL     1      19.837  27.516  14.963  1.00  0.00     0.013 A 
HETATM   22  C35 UNL     1      19.986  28.158  13.757  1.00  0.00     0.001 A 
HETATM   23  C36 UNL     1      21.212  28.682  13.462  1.00  0.00     0.001 A 
BRANCH  17  24
HETATM   24  C6  UNL     1      24.488  28.180  16.069  1.00  0.00     0.252 C 
HETATM   25  N2  UNL     1      24.877  29.530  16.324  1.00  0.00    -0.355 N 
ATOM     26  H2  UNL     1      24.191  30.135  16.775  1.00  0.00     0.162 HD
HETATM   27  O1  UNL     1      25.227  27.337  15.518  1.00  0.00    -0.268 OA
BRANCH  25  28
HETATM   28  C5  UNL     1      26.150  30.110  16.002  1.00  0.00     0.153 C 
BRANCH  28  29
HETATM   29  C4  UNL     1      26.423  31.415  16.741  1.00  0.00     0.291 C 
BRANCH  29  30
HETATM   30  N1  UNL     1      25.305  32.344  16.486  1.00  0.00     0.085 N 
HETATM   31  C3  UNL     1      25.838  33.291  15.498  1.00  0.00     0.309 C 
BRANCH  30  32
HETATM   32  C2  UNL     1      25.105  33.099  17.730  1.00  0.00     0.267 C 
HETATM   33  C1  UNL     1      24.115  34.223  17.534  1.00  0.00     0.037 C 
ENDBRANCH  30  32
ENDBRANCH  29  30
ENDBRANCH  28  29
ENDBRANCH  25  28
ENDBRANCH  17  24
ENDBRANCH  13  14
ENDBRANCH   1  13
BRANCH   8  34
HETATM   34  N5  UNL     1      15.851  19.807  17.776  1.00  0.00    -0.312 N 
HETATM   35  C17 UNL     1      14.623  19.669  18.459  1.00  0.00     0.241 C 
HETATM   36  O2  UNL     1      14.315  20.495  19.350  1.00  0.00    -0.271 OA
ATOM     37  H5  UNL     1      16.089  19.148  17.034  1.00  0.00     0.170 HD
BRANCH  35  38
HETATM   38  C18 UNL     1      13.732  18.536  18.091  1.00  0.00     0.230 C 
BRANCH  38  39
HETATM   39  N6  UNL     1      12.514  19.065  17.468  1.00  0.00    -0.357 N 
HETATM   40  C19 UNL     1      11.237  18.925  17.861  1.00  0.00     0.092 A 
HETATM   41  C20 UNL     1      10.451  19.590  16.966  1.00  0.00     0.034 A 
HETATM   42  C21 UNL     1      11.272  20.172  15.973  1.00  0.00     0.032 A 
HETATM   43  C29 UNL     1      12.550  19.808  16.342  1.00  0.00     0.106 A 
BRANCH  42  44
HETATM   44  C22 UNL     1      10.786  20.977  14.871  1.00  0.00     0.193 C 
HETATM   45  O3  UNL     1       9.614  21.453  14.991  1.00  0.00    -0.287 OA
BRANCH  44  46
HETATM   46  C23 UNL     1      11.555  21.250  13.685  1.00  0.00     0.015 A 
HETATM   47  C24 UNL     1      11.710  20.374  12.644  1.00  0.00     0.015 A 
HETATM   48  C25 UNL     1      12.445  20.701  11.525  1.00  0.00     0.001 A 
HETATM   49  C26 UNL     1      13.055  21.922  11.401  1.00  0.00     0.000 A 
HETATM   50  C27 UNL     1      12.921  22.830  12.424  1.00  0.00     0.001 A 
HETATM   51  C28 UNL     1      12.189  22.493  13.531  1.00  0.00     0.015 A 
ENDBRANCH  44  46
ENDBRANCH  42  44
ENDBRANCH  38  39
ENDBRANCH  35  38
ENDBRANCH   8  34
TORSDOF 12
ENDMDL
MODEL 3
REMARK VINA RESULT: -10.160036610      1.659      1.927
REMARK  12 active torsions:
REMARK  status: ('A' for Active; 'I' for Inactive)
REMARK    1  A    between atoms: C2_2  and  N1_3 
REMARK    2  A    between atoms: N1_3  and  C4_5 
REMARK    3  A    between atoms: C4_5  and  C5_6 
REMARK    4  A    between atoms: C5_6  and  N2_7 
REMARK       I    between atoms: N2_7  and  C6_9 
REMARK    5  A    between atoms: C6_9  and  C7_11 
REMARK    6  A    between atoms: C10_14  and  C11_15 
REMARK    7  A    between atoms: C11_15  and  N3_16 
REMARK    8  A    between atoms: C16_23  and  N5_24 
REMARK       I    between atoms: N5_24  and  C17_26 
REMARK    9  A    between atoms: C17_26  and  C18_28 
REMARK   10  A    between atoms: C18_28  and  N6_29 
REMARK   11  A    between atoms: C21_32  and  C22_33 
REMARK   12  A    between atoms: C22_33  and  C23_35 
ROOT
HETATM    1  N3  UNL     1      18.276  24.570  17.981  1.00  0.00    -0.299 N 
HETATM    2  C12 UNL     1      18.947  24.019  18.998  1.00  0.00     0.099 C 
HETATM    3  C13 UNL     1      19.085  22.719  19.457  1.00  0.00     0.020 C 
HETATM    4  C14 UNL     1      18.011  21.845  19.611  1.00  0.00     0.032 C 
HETATM    5  C15 UNL     1      16.766  21.934  18.982  1.00  0.00     0.049 A 
HETATM    6  N4  UNL     1      15.709  21.146  19.218  1.00  0.00    -0.342 N 
ATOM      7  H4  UNL     1      15.673  20.380  19.891  1.00  0.00     0.167 HD
HETATM    8  C16 UNL     1      14.694  21.542  18.408  1.00  0.00     0.109 A 
HETATM    9  C30 UNL     1      15.101  22.605  17.636  1.00  0.00     0.068 A 
HETATM   10  C31 UNL     1      16.406  22.899  17.957  1.00  0.00     0.063 A 
HETATM   11  C32 UNL     1      17.196  23.925  17.424  1.00  0.00     0.264 C 
HETATM   12  O4  UNL     1      16.845  24.269  16.309  1.00  0.00    -0.267 OA
ENDROOT
BRANCH   1  13
HETATM   13  C11 UNL     1      18.607  25.864  17.522  1.00  0.00     0.112 C 
BRANCH  13  14
HETATM   14  C10 UNL     1      19.970  26.286  17.242  1.00  0.00    -0.009 A 
HETATM   15  C9  UNL     1      20.993  26.072  18.168  1.00  0.00     0.014 A 
HETATM   16  C8  UNL     1      22.260  26.479  17.990  1.00  0.00     0.019 A 
HETATM   17  C7  UNL     1      22.643  27.149  16.851  1.00  0.00     0.043 A 
HETATM   18  C38 UNL     1      21.674  27.382  15.911  1.00  0.00    -0.009 A 
HETATM   19  C33 UNL     1      20.346  26.955  16.096  1.00  0.00    -0.013 A 
HETATM   20  C37 UNL     1      21.981  28.048  14.737  1.00  0.00     0.013 A 
HETATM   21  C34 UNL     1      19.470  27.233  15.070  1.00  0.00     0.013 A 
HETATM   22  C35 UNL     1      19.776  27.891  13.903  1.00  0.00     0.001 A 
HETATM   23  C36 UNL     1      21.063  28.314  13.729  1.00  0.00     0.001 A 
BRANCH  17  24
HETATM   24  C6  UNL     1      24.048  27.464  16.583  1.00  0.00     0.252 C 
HETATM   25  N2  UNL     1      24.553  28.729  17.013  1.00  0.00    -0.355 N 
ATOM     26  H2  UNL     1      23.902  29.352  17.490  1.00  0.00     0.162 HD
HETATM   27  O1  UNL     1      24.734  26.610  15.982  1.00  0.00    -0.268 OA
BRANCH  25  28
HETATM   28  C5  UNL     1      25.897  29.199  16.832  1.00  0.00     0.153 C 
BRANCH  28  29
HETATM   29  C4  UNL     1      26.846  28.753  17.938  1.00  0.00     0.291 C 
BRANCH  29  30
HETATM   30  N1  UNL     1      26.075  28.596  19.187  1.00  0.00     0.085 N 
HETATM   31  C3  UNL     1      26.514  29.716  20.029  1.00  0.00     0.309 C 
BRANCH  30  32
HETATM   32  C2  UNL     1      26.569  27.369  19.825  1.00  0.00     0.267 C 
HETATM   33  C1  UNL     1      25.512  26.291  19.833  1.00  0.00     0.037 C 
ENDBRANCH  30  32
ENDBRANCH  29  30
ENDBRANCH  28  29
ENDBRANCH  25  28
ENDBRANCH  17  24
ENDBRANCH  13  14
ENDBRANCH   1  13
BRANCH   8  34
HETATM   34  N5  UNL     1      13.380  20.939  18.409  1.00  0.00    -0.312 N 
HETATM   35  C17 UNL     1      13.215  19.548  18.230  1.00  0.00     0.241 C 
HETATM   36  O2  UNL     1      14.225  18.817  18.097  1.00  0.00    -0.271 OA
ATOM     37  H5  UNL     1      12.557  21.528  18.542  1.00  0.00     0.170 HD
BRANCH  35  38
HETATM   38  C18 UNL     1      11.834  18.996  18.206  1.00  0.00     0.230 C 
BRANCH  38  39
HETATM   39  N6  UNL     1      11.482  18.643  16.826  1.00  0.00    -0.357 N 
HETATM   40  C19 UNL     1      11.140  17.445  16.324  1.00  0.00     0.092 A 
HETATM   41  C20 UNL     1      10.904  17.606  14.989  1.00  0.00     0.034 A 
HETATM   42  C21 UNL     1      11.105  18.961  14.644  1.00  0.00     0.032 A 
HETATM   43  C29 UNL     1      11.464  19.558  15.834  1.00  0.00     0.106 A 
BRANCH  42  44
HETATM   44  C22 UNL     1      10.920  19.509  13.315  1.00  0.00     0.193 C 
HETATM   45  O3  UNL     1      10.030  18.959  12.595  1.00  0.00    -0.287 OA
BRANCH  44  46
HETATM   46  C23 UNL     1      11.680  20.615  12.798  1.00  0.00     0.015 A 
HETATM   47  C24 UNL     1      11.472  21.926  13.138  1.00  0.00     0.015 A 
HETATM   48  C25 UNL     1      12.247  22.941  12.621  1.00  0.00     0.001 A 
HETATM   49  C26 UNL     1      13.266  22.687  11.742  1.00  0.00     0.000 A 
HETATM   50  C27 UNL     1      13.509  21.383  11.377  1.00  0.00     0.001 A 
HETATM   51  C28 UNL     1      12.731  20.384  11.896  1.00  0.00     0.015 A 
ENDBRANCH  44  46
ENDBRANCH  42  44
ENDBRANCH  38  39
ENDBRANCH  35  38
ENDBRANCH   8  34
TORSDOF 12
ENDMDL
MODEL 4
REMARK VINA RESULT: -10.118798832      2.166      3.928
REMARK  12 active torsions:
REMARK  status: ('A' for Active; 'I' for Inactive)
REMARK    1  A    between atoms: C2_2  and  N1_3 
REMARK    2  A    between atoms: N1_3  and  C4_5 
REMARK    3  A    between atoms: C4_5  and  C5_6 
REMARK    4  A    between atoms: C5_6  and  N2_7 
REMARK       I    between atoms: N2_7  and  C6_9 
REMARK    5  A    between atoms: C6_9  and  C7_11 
REMARK    6  A    between atoms: C10_14  and  C11_15 
REMARK    7  A    between atoms: C11_15  and  N3_16 
REMARK    8  A    between atoms: C16_23  and  N5_24 
REMARK       I    between atoms: N5_24  and  C17_26 
REMARK    9  A    between atoms: C17_26  and  C18_28 
REMARK   10  A    between atoms: C18_28  and  N6_29 
REMARK   11  A    between atoms: C21_32  and  C22_33 
REMARK   12  A    between atoms: C22_33  and  C23_35 
ROOT
HETATM    1  N3  UNL     1      18.080  24.428  17.256  1.00  0.00    -0.299 N 
HETATM    2  C12 UNL     1      18.048  23.778  18.425  1.00  0.00     0.099 C 
HETATM    3  C13 UNL     1      18.005  22.438  18.769  1.00  0.00     0.020 C 
HETATM    4  C14 UNL     1      17.151  21.519  18.164  1.00  0.00     0.032 C 
HETATM    5  C15 UNL     1      16.541  21.646  16.912  1.00  0.00     0.049 A 
HETATM    6  N4  UNL     1      15.640  20.804  16.389  1.00  0.00    -0.342 N 
ATOM      7  H4  UNL     1      15.280  19.961  16.837  1.00  0.00     0.167 HD
HETATM    8  C16 UNL     1      15.291  21.265  15.161  1.00  0.00     0.109 A 
HETATM    9  C30 UNL     1      15.976  22.425  14.886  1.00  0.00     0.068 A 
HETATM   10  C31 UNL     1      16.783  22.717  15.961  1.00  0.00     0.063 A 
HETATM   11  C32 UNL     1      17.629  23.824  16.106  1.00  0.00     0.264 C 
HETATM   12  O4  UNL     1      17.995  24.289  15.041  1.00  0.00    -0.267 OA
ENDROOT
BRANCH   1  13
HETATM   13  C11 UNL     1      18.493  25.778  17.199  1.00  0.00     0.112 C 
BRANCH  13  14
HETATM   14  C10 UNL     1      19.883  26.181  17.058  1.00  0.00    -0.009 A 
HETATM   15  C9  UNL     1      20.822  25.882  18.046  1.00  0.00     0.014 A 
HETATM   16  C8  UNL     1      22.107  26.267  17.998  1.00  0.00     0.019 A 
HETATM   17  C7  UNL     1      22.596  26.999  16.939  1.00  0.00     0.043 A 
HETATM   18  C38 UNL     1      21.712  27.316  15.942  1.00  0.00    -0.009 A 
HETATM   19  C33 UNL     1      20.364  26.913  15.992  1.00  0.00    -0.013 A 
HETATM   20  C37 UNL     1      22.127  28.048  14.844  1.00  0.00     0.013 A 
HETATM   21  C34 UNL     1      19.582  27.278  14.919  1.00  0.00     0.013 A 
HETATM   22  C35 UNL     1      19.995  28.002  13.827  1.00  0.00     0.001 A 
HETATM   23  C36 UNL     1      21.300  28.402  13.785  1.00  0.00     0.001 A 
BRANCH  17  24
HETATM   24  C6  UNL     1      24.025  27.293  16.807  1.00  0.00     0.252 C 
HETATM   25  N2  UNL     1      24.526  28.494  17.394  1.00  0.00    -0.355 N 
ATOM     26  H2  UNL     1      23.856  29.089  17.882  1.00  0.00     0.162 HD
HETATM   27  O1  UNL     1      24.733  26.481  16.176  1.00  0.00    -0.268 OA
BRANCH  25  28
HETATM   28  C5  UNL     1      25.891  28.937  17.359  1.00  0.00     0.153 C 
BRANCH  28  29
HETATM   29  C4  UNL     1      26.717  28.440  18.539  1.00  0.00     0.291 C 
BRANCH  29  30
HETATM   30  N1  UNL     1      25.819  28.238  19.693  1.00  0.00     0.085 N 
HETATM   31  C3  UNL     1      26.164  29.326  20.617  1.00  0.00     0.309 C 
BRANCH  30  32
HETATM   32  C2  UNL     1      26.246  26.988  20.333  1.00  0.00     0.267 C 
HETATM   33  C1  UNL     1      25.337  25.842  19.958  1.00  0.00     0.037 C 
ENDBRANCH  30  32
ENDBRANCH  29  30
ENDBRANCH  28  29
ENDBRANCH  25  28
ENDBRANCH  17  24
ENDBRANCH  13  14
ENDBRANCH   1  13
BRANCH   8  34
HETATM   34  N5  UNL     1      14.313  20.626  14.309  1.00  0.00    -0.312 N 
HETATM   35  C17 UNL     1      12.980  21.088  14.254  1.00  0.00     0.241 C 
HETATM   36  O2  UNL     1      12.643  22.087  14.932  1.00  0.00    -0.271 OA
ATOM     37  H5  UNL     1      14.591  19.827  13.737  1.00  0.00     0.170 HD
BRANCH  35  38
HETATM   38  C18 UNL     1      12.015  20.363  13.384  1.00  0.00     0.230 C 
BRANCH  38  39
HETATM   39  N6  UNL     1      11.536  19.169  14.089  1.00  0.00    -0.357 N 
HETATM   40  C19 UNL     1      11.095  18.008  13.577  1.00  0.00     0.092 A 
HETATM   41  C20 UNL     1      10.754  17.196  14.619  1.00  0.00     0.034 A 
HETATM   42  C21 UNL     1      10.994  17.878  15.834  1.00  0.00     0.032 A 
HETATM   43  C29 UNL     1      11.482  19.105  15.436  1.00  0.00     0.106 A 
BRANCH  42  44
HETATM   44  C22 UNL     1      10.773  17.317  17.151  1.00  0.00     0.193 C 
HETATM   45  O3  UNL     1       9.703  16.651  17.310  1.00  0.00    -0.287 OA
BRANCH  44  46
HETATM   46  C23 UNL     1      11.689  17.479  18.249  1.00  0.00     0.015 A 
HETATM   47  C24 UNL     1      13.027  17.191  18.191  1.00  0.00     0.015 A 
HETATM   48  C25 UNL     1      13.858  17.384  19.274  1.00  0.00     0.001 A 
HETATM   49  C26 UNL     1      13.383  17.878  20.461  1.00  0.00     0.000 A 
HETATM   50  C27 UNL     1      12.046  18.182  20.558  1.00  0.00     0.001 A 
HETATM   51  C28 UNL     1      11.231  17.983  19.476  1.00  0.00     0.015 A 
ENDBRANCH  44  46
ENDBRANCH  42  44
ENDBRANCH  38  39
ENDBRANCH  35  38
ENDBRANCH   8  34
TORSDOF 12
ENDMDL
MODEL 5
REMARK VINA RESULT: -10.113787049      1.891      2.505
REMARK  12 active torsions:
REMARK  status: ('A' for Active; 'I' for Inactive)
REMARK    1  A    between atoms: C2_2  and  N1_3 
REMARK    2  A    between atoms: N1_3  and  C4_5 
REMARK    3  A    between atoms: C4_5  and  C5_6 
REMARK    4  A    between atoms: C5_6  and  N2_7 
REMARK       I    between atoms: N2_7  and  C6_9 
REMARK    5  A    between atoms: C6_9  and  C7_11 
REMARK    6  A    between atoms: C10_14  and  C11_15 
REMARK    7  A    between atoms: C11_15  and  N3_16 
REMARK    8  A    between atoms: C16_23  and  N5_24 
REMARK       I    between atoms: N5_24  and  C17_26 
REMARK    9  A    between atoms: C17_26  and  C18_28 
REMARK   10  A    between atoms: C18_28  and  N6_29 
REMARK   11  A    between atoms: C21_32  and  C22_33 
REMARK   12  A    between atoms: C22_33  and  C23_35 
ROOT
HETATM    1  N3  UNL     1      18.228  24.584  18.011  1.00  0.00    -0.299 N 
HETATM    2  C12 UNL     1      18.871  24.066  19.063  1.00  0.00     0.099 C 
HETATM    3  C13 UNL     1      18.998  22.781  19.564  1.00  0.00     0.020 C 
HETATM    4  C14 UNL     1      17.923  21.908  19.712  1.00  0.00     0.032 C 
HETATM    5  C15 UNL     1      16.696  21.973  19.044  1.00  0.00     0.049 A 
HETATM    6  N4  UNL     1      15.635  21.189  19.272  1.00  0.00    -0.342 N 
ATOM      7  H4  UNL     1      15.582  20.443  19.966  1.00  0.00     0.167 HD
HETATM    8  C16 UNL     1      14.643  21.557  18.422  1.00  0.00     0.109 A 
HETATM    9  C30 UNL     1      15.070  22.598  17.631  1.00  0.00     0.068 A 
HETATM   10  C31 UNL     1      16.365  22.907  17.981  1.00  0.00     0.063 A 
HETATM   11  C32 UNL     1      17.167  23.920  17.441  1.00  0.00     0.264 C 
HETATM   12  O4  UNL     1      16.848  24.229  16.306  1.00  0.00    -0.267 OA
ENDROOT
BRANCH   1  13
HETATM   13  C11 UNL     1      18.569  25.866  17.524  1.00  0.00     0.112 C 
BRANCH  13  14
HETATM   14  C10 UNL     1      19.937  26.275  17.246  1.00  0.00    -0.009 A 
HETATM   15  C9  UNL     1      20.957  26.047  18.171  1.00  0.00     0.014 A 
HETATM   16  C8  UNL     1      22.228  26.443  17.995  1.00  0.00     0.019 A 
HETATM   17  C7  UNL     1      22.617  27.113  16.859  1.00  0.00     0.043 A 
HETATM   18  C38 UNL     1      21.652  27.359  15.920  1.00  0.00    -0.009 A 
HETATM   19  C33 UNL     1      20.319  26.945  16.103  1.00  0.00    -0.013 A 
HETATM   20  C37 UNL     1      21.966  28.027  14.749  1.00  0.00     0.013 A 
HETATM   21  C34 UNL     1      19.447  27.235  15.077  1.00  0.00     0.013 A 
HETATM   22  C35 UNL     1      19.760  27.895  13.913  1.00  0.00     0.001 A 
HETATM   23  C36 UNL     1      21.051  28.306  13.742  1.00  0.00     0.001 A 
BRANCH  17  24
HETATM   24  C6  UNL     1      24.027  27.415  16.593  1.00  0.00     0.252 C 
HETATM   25  N2  UNL     1      24.529  28.695  16.977  1.00  0.00    -0.355 N 
ATOM     26  H2  UNL     1      23.874  29.338  17.422  1.00  0.00     0.162 HD
HETATM   27  O1  UNL     1      24.716  26.537  16.034  1.00  0.00    -0.268 OA
BRANCH  25  28
HETATM   28  C5  UNL     1      25.876  29.155  16.791  1.00  0.00     0.153 C 
BRANCH  28  29
HETATM   29  C4  UNL     1      26.011  30.194  15.684  1.00  0.00     0.291 C 
BRANCH  29  30
HETATM   30  N1  UNL     1      26.894  31.277  16.158  1.00  0.00     0.085 N 
HETATM   31  C3  UNL     1      28.025  30.578  16.782  1.00  0.00     0.309 C 
BRANCH  30  32
HETATM   32  C2  UNL     1      26.170  31.957  17.239  1.00  0.00     0.267 C 
HETATM   33  C1  UNL     1      25.011  32.761  16.700  1.00  0.00     0.037 C 
ENDBRANCH  30  32
ENDBRANCH  29  30
ENDBRANCH  28  29
ENDBRANCH  25  28
ENDBRANCH  17  24
ENDBRANCH  13  14
ENDBRANCH   1  13
BRANCH   8  34
HETATM   34  N5  UNL     1      13.332  20.949  18.402  1.00  0.00    -0.312 N 
HETATM   35  C17 UNL     1      13.177  19.553  18.262  1.00  0.00     0.241 C 
HETATM   36  O2  UNL     1      14.192  18.822  18.183  1.00  0.00    -0.271 OA
ATOM     37  H5  UNL     1      12.504  21.539  18.490  1.00  0.00     0.170 HD
BRANCH  35  38
HETATM   38  C18 UNL     1      11.798  18.996  18.213  1.00  0.00     0.230 C 
BRANCH  38  39
HETATM   39  N6  UNL     1      11.471  18.644  16.827  1.00  0.00    -0.357 N 
HETATM   40  C19 UNL     1      11.170  17.441  16.311  1.00  0.00     0.092 A 
HETATM   41  C20 UNL     1      10.943  17.606  14.975  1.00  0.00     0.034 A 
HETATM   42  C21 UNL     1      11.107  18.970  14.643  1.00  0.00     0.032 A 
HETATM   43  C29 UNL     1      11.437  19.567  15.842  1.00  0.00     0.106 A 
BRANCH  42  44
HETATM   44  C22 UNL     1      10.921  19.523  13.317  1.00  0.00     0.193 C 
HETATM   45  O3  UNL     1      10.021  18.984  12.601  1.00  0.00    -0.287 OA
BRANCH  44  46
HETATM   46  C23 UNL     1      11.689  20.623  12.799  1.00  0.00     0.015 A 
HETATM   47  C24 UNL     1      11.457  21.940  13.098  1.00  0.00     0.015 A 
HETATM   48  C25 UNL     1      12.241  22.950  12.583  1.00  0.00     0.001 A 
HETATM   49  C26 UNL     1      13.293  22.683  11.746  1.00  0.00     0.000 A 
HETATM   50  C27 UNL     1      13.560  21.373  11.423  1.00  0.00     0.001 A 
HETATM   51  C28 UNL     1      12.773  20.380  11.940  1.00  0.00     0.015 A 
ENDBRANCH  44  46
ENDBRANCH  42  44
ENDBRANCH  38  39
ENDBRANCH  35  38
ENDBRANCH   8  34
TORSDOF 12
ENDMDL
