MODEL 1
REMARK VINA RESULT: -9.058540792      0.000      0.000
REMARK  5 active torsions:
REMARK  status: ('A' for Active; 'I' for Inactive)
REMARK    1  A    between atoms: O1_2  and  C2_3 
REMARK    2  A    between atoms: C4_5  and  N1_6 
REMARK       I    between atoms: N1_6  and  C5_8 
REMARK    3  A    between atoms: C5_8  and  O3_10 
REMARK    4  A    between atoms: O3_10  and  C6_11 
REMARK    5  A    between atoms: C12_19  and  C13_20 
ROOT
HETATM    1  N1  UNL     1     -14.461 -51.976 -21.016  1.00  0.00    -0.328 N 
ATOM      2  H1  UNL     1     -14.087 -51.104 -21.390  1.00  0.00     0.165 HD
HETATM    3  C5  UNL     1     -14.861 -52.040 -19.662  1.00  0.00     0.361 C 
HETATM    4  O2  UNL     1     -15.319 -53.125 -19.224  1.00  0.00    -0.238 OA
ENDROOT
BRANCH   3   5
HETATM    5  O3  UNL     1     -14.769 -50.962 -18.800  1.00  0.00    -0.296 OA
BRANCH   5   6
HETATM    6  C6  UNL     1     -15.392 -51.055 -17.533  1.00  0.00     0.164 C 
HETATM    7  C7  UNL     1     -16.267 -49.894 -17.221  1.00  0.00     0.201 C 
HETATM    8  O4  UNL     1     -15.852 -49.297 -16.064  1.00  0.00    -0.382 OA
HETATM    9  C8  UNL     1     -14.620 -49.765 -15.703  1.00  0.00     0.133 C 
HETATM   10  C9  UNL     1     -14.330 -51.022 -16.486  1.00  0.00     0.053 C 
HETATM   11  C16 UNL     1     -13.530 -49.053 -16.518  1.00  0.00     0.028 C 
HETATM   12  C10 UNL     1     -13.022 -50.387 -16.901  1.00  0.00     0.026 C 
HETATM   13  C11 UNL     1     -11.856 -50.896 -16.143  1.00  0.00     0.174 C 
HETATM   14  O5  UNL     1     -11.085 -49.942 -15.528  1.00  0.00    -0.374 OA
HETATM   15  C12 UNL     1     -11.800 -49.089 -14.711  1.00  0.00     0.226 C 
HETATM   16  C14 UNL     1     -12.670 -48.241 -15.629  1.00  0.00     0.028 C 
HETATM   17  C15 UNL     1     -13.439 -47.233 -14.801  1.00  0.00     0.014 C 
BRANCH  15  18
HETATM   18  C13 UNL     1     -10.866 -48.171 -14.017  1.00  0.00     0.203 C 
HETATM   19  O6  UNL     1      -9.831 -47.778 -14.605  1.00  0.00    -0.646 OA
HETATM   20  O7  UNL     1     -11.074 -47.710 -12.728  1.00  0.00    -0.646 OA
ENDBRANCH  15  18
ENDBRANCH   5   6
ENDBRANCH   3   5
BRANCH   1  21
HETATM   21  C4  UNL     1     -14.578 -53.153 -21.893  1.00  0.00     0.038 C 
HETATM   22  C3  UNL     1     -15.997 -53.522 -22.059  1.00  0.00     0.063 C 
HETATM   23  C2  UNL     1     -16.239 -53.580 -23.565  1.00  0.00     0.127 C 
HETATM   24  C25 UNL     1     -14.905 -53.405 -24.227  1.00  0.00     0.017 C 
HETATM   25  C24 UNL     1     -14.315 -54.577 -24.884  1.00  0.00     0.012 C 
HETATM   26  C26 UNL     1     -14.096 -52.638 -23.260  1.00  0.00     0.038 C 
HETATM   27  C22 UNL     1     -13.781 -55.729 -24.175  1.00  0.00    -0.014 C 
HETATM   28  C21 UNL     1     -12.255 -55.721 -23.996  1.00  0.00     0.005 C 
HETATM   29  C23 UNL     1     -14.358 -56.140 -22.883  1.00  0.00     0.009 C 
HETATM   30  C20 UNL     1     -11.851 -56.654 -22.858  1.00  0.00     0.001 C 
HETATM   31  C19 UNL     1     -12.368 -56.208 -21.521  1.00  0.00     0.005 C 
HETATM   32  C18 UNL     1     -13.769 -55.572 -21.656  1.00  0.00    -0.012 C 
HETATM   33  C17 UNL     1     -13.617 -54.156 -21.435  1.00  0.00     0.035 C 
BRANCH  23  34
HETATM   34  O1  UNL     1     -17.091 -52.498 -23.863  1.00  0.00    -0.390 OA
HETATM   35  C1  UNL     1     -17.756 -52.653 -25.059  1.00  0.00     0.202 C 
ENDBRANCH  23  34
ENDBRANCH   1  21
TORSDOF 5
ENDMDL
MODEL 2
REMARK VINA RESULT: -8.935125942      1.668      3.268
REMARK  5 active torsions:
REMARK  status: ('A' for Active; 'I' for Inactive)
REMARK    1  A    between atoms: O1_2  and  C2_3 
REMARK    2  A    between atoms: C4_5  and  N1_6 
REMARK       I    between atoms: N1_6  and  C5_8 
REMARK    3  A    between atoms: C5_8  and  O3_10 
REMARK    4  A    between atoms: O3_10  and  C6_11 
REMARK    5  A    between atoms: C12_19  and  C13_20 
ROOT
HETATM    1  N1  UNL     1     -14.080 -53.559 -20.422  1.00  0.00    -0.328 N 
ATOM      2  H1  UNL     1     -14.188 -54.038 -19.528  1.00  0.00     0.165 HD
HETATM    3  C5  UNL     1     -13.879 -52.160 -20.445  1.00  0.00     0.361 C 
HETATM    4  O2  UNL     1     -13.749 -51.592 -21.557  1.00  0.00    -0.238 OA
ENDROOT
BRANCH   3   5
HETATM    5  O3  UNL     1     -13.821 -51.391 -19.296  1.00  0.00    -0.296 OA
BRANCH   5   6
HETATM    6  C6  UNL     1     -14.325 -51.936 -18.092  1.00  0.00     0.164 C 
HETATM    7  C7  UNL     1     -15.720 -51.513 -17.794  1.00  0.00     0.201 C 
HETATM    8  O4  UNL     1     -15.767 -50.895 -16.576  1.00  0.00    -0.382 OA
HETATM    9  C8  UNL     1     -14.505 -50.608 -16.139  1.00  0.00     0.133 C 
HETATM   10  C9  UNL     1     -13.516 -51.400 -16.960  1.00  0.00     0.053 C 
HETATM   11  C16 UNL     1     -13.991 -49.332 -16.822  1.00  0.00     0.028 C 
HETATM   12  C10 UNL     1     -12.794 -50.098 -17.231  1.00  0.00     0.026 C 
HETATM   13  C11 UNL     1     -11.577 -49.919 -16.407  1.00  0.00     0.174 C 
HETATM   14  O5  UNL     1     -11.518 -48.756 -15.680  1.00  0.00    -0.374 OA
HETATM   15  C12 UNL     1     -12.623 -48.540 -14.882  1.00  0.00     0.226 C 
HETATM   16  C14 UNL     1     -13.787 -48.259 -15.823  1.00  0.00     0.028 C 
HETATM   17  C15 UNL     1     -15.026 -47.948 -15.011  1.00  0.00     0.014 C 
BRANCH  15  18
HETATM   18  C13 UNL     1     -12.413 -47.321 -14.066  1.00  0.00     0.203 C 
HETATM   19  O6  UNL     1     -11.552 -47.325 -13.155  1.00  0.00    -0.646 OA
HETATM   20  O7  UNL     1     -13.129 -46.151 -14.253  1.00  0.00    -0.646 OA
ENDBRANCH  15  18
ENDBRANCH   5   6
ENDBRANCH   3   5
BRANCH   1  21
HETATM   21  C4  UNL     1     -14.135 -54.332 -21.674  1.00  0.00     0.038 C 
HETATM   22  C3  UNL     1     -12.770 -54.635 -22.143  1.00  0.00     0.063 C 
HETATM   23  C2  UNL     1     -12.724 -56.148 -22.343  1.00  0.00     0.127 C 
HETATM   24  C25 UNL     1     -14.121 -56.656 -22.142  1.00  0.00     0.017 C 
HETATM   25  C24 UNL     1     -14.849 -57.126 -23.326  1.00  0.00     0.012 C 
HETATM   26  C26 UNL     1     -14.761 -55.672 -21.247  1.00  0.00     0.038 C 
HETATM   27  C22 UNL     1     -15.346 -56.255 -24.379  1.00  0.00    -0.014 C 
HETATM   28  C21 UNL     1     -16.835 -55.891 -24.262  1.00  0.00     0.005 C 
HETATM   29  C23 UNL     1     -14.631 -55.010 -24.714  1.00  0.00     0.009 C 
HETATM   30  C20 UNL     1     -17.138 -54.632 -25.068  1.00  0.00     0.001 C 
HETATM   31  C19 UNL     1     -16.433 -53.415 -24.544  1.00  0.00     0.005 C 
HETATM   32  C18 UNL     1     -15.030 -53.778 -24.009  1.00  0.00    -0.012 C 
HETATM   33  C17 UNL     1     -15.080 -53.670 -22.573  1.00  0.00     0.035 C 
BRANCH  23  34
HETATM   34  O1  UNL     1     -11.863 -56.646 -21.345  1.00  0.00    -0.390 OA
HETATM   35  C1  UNL     1     -10.738 -55.872 -21.173  1.00  0.00     0.202 C 
ENDBRANCH  23  34
ENDBRANCH   1  21
TORSDOF 5
ENDMDL
MODEL 3
REMARK VINA RESULT: -8.820495373      1.780      3.441
REMARK  5 active torsions:
REMARK  status: ('A' for Active; 'I' for Inactive)
REMARK    1  A    between atoms: O1_2  and  C2_3 
REMARK    2  A    between atoms: C4_5  and  N1_6 
REMARK       I    between atoms: N1_6  and  C5_8 
REMARK    3  A    between atoms: C5_8  and  O3_10 
REMARK    4  A    between atoms: O3_10  and  C6_11 
REMARK    5  A    between atoms: C12_19  and  C13_20 
ROOT
HETATM    1  N1  UNL     1     -15.217 -51.118 -19.865  1.00  0.00    -0.328 N 
ATOM      2  H1  UNL     1     -14.565 -51.303 -19.103  1.00  0.00     0.165 HD
HETATM    3  C5  UNL     1     -15.968 -49.920 -19.865  1.00  0.00     0.361 C 
HETATM    4  O2  UNL     1     -16.764 -49.713 -20.814  1.00  0.00    -0.238 OA
ENDROOT
BRANCH   3   5
HETATM    5  O3  UNL     1     -15.864 -48.969 -18.866  1.00  0.00    -0.296 OA
BRANCH   5   6
HETATM    6  C6  UNL     1     -16.459 -49.239 -17.611  1.00  0.00     0.164 C 
HETATM    7  C7  UNL     1     -17.028 -48.030 -16.958  1.00  0.00     0.201 C 
HETATM    8  O4  UNL     1     -16.455 -47.854 -15.729  1.00  0.00    -0.382 OA
HETATM    9  C8  UNL     1     -15.359 -48.659 -15.595  1.00  0.00     0.133 C 
HETATM   10  C9  UNL     1     -15.395 -49.709 -16.680  1.00  0.00     0.053 C 
HETATM   11  C16 UNL     1     -14.153 -48.025 -16.303  1.00  0.00     0.028 C 
HETATM   12  C10 UNL     1     -13.984 -49.297 -17.037  1.00  0.00     0.026 C 
HETATM   13  C11 UNL     1     -12.953 -50.228 -16.524  1.00  0.00     0.174 C 
HETATM   14  O5  UNL     1     -11.963 -49.657 -15.764  1.00  0.00    -0.374 OA
HETATM   15  C12 UNL     1     -12.435 -48.902 -14.708  1.00  0.00     0.226 C 
HETATM   16  C14 UNL     1     -13.103 -47.677 -15.319  1.00  0.00     0.028 C 
HETATM   17  C15 UNL     1     -13.592 -46.768 -14.213  1.00  0.00     0.014 C 
BRANCH  15  18
HETATM   18  C13 UNL     1     -11.295 -48.421 -13.894  1.00  0.00     0.203 C 
HETATM   19  O6  UNL     1     -11.304 -48.590 -12.652  1.00  0.00    -0.646 OA
HETATM   20  O7  UNL     1     -10.193 -47.780 -14.437  1.00  0.00    -0.646 OA
ENDBRANCH  15  18
ENDBRANCH   5   6
ENDBRANCH   3   5
BRANCH   1  21
HETATM   21  C4  UNL     1     -15.365 -52.099 -20.952  1.00  0.00     0.038 C 
HETATM   22  C3  UNL     1     -14.197 -52.039 -21.852  1.00  0.00     0.063 C 
HETATM   23  C2  UNL     1     -13.664 -53.466 -21.940  1.00  0.00     0.127 C 
HETATM   24  C25 UNL     1     -14.643 -54.342 -21.216  1.00  0.00     0.017 C 
HETATM   25  C24 UNL     1     -15.472 -55.243 -22.025  1.00  0.00     0.012 C 
HETATM   26  C26 UNL     1     -15.293 -53.456 -20.230  1.00  0.00     0.038 C 
HETATM   27  C22 UNL     1     -16.551 -54.801 -22.895  1.00  0.00    -0.014 C 
HETATM   28  C21 UNL     1     -17.956 -54.915 -22.283  1.00  0.00     0.005 C 
HETATM   29  C23 UNL     1     -16.481 -53.486 -23.556  1.00  0.00     0.009 C 
HETATM   30  C20 UNL     1     -18.930 -54.003 -23.022  1.00  0.00     0.001 C 
HETATM   31  C19 UNL     1     -18.597 -52.547 -22.878  1.00  0.00     0.005 C 
HETATM   32  C18 UNL     1     -17.068 -52.331 -22.852  1.00  0.00    -0.012 C 
HETATM   33  C17 UNL     1     -16.712 -51.964 -21.504  1.00  0.00     0.035 C 
BRANCH  23  34
HETATM   34  O1  UNL     1     -12.419 -53.457 -21.278  1.00  0.00    -0.390 OA
HETATM   35  C1  UNL     1     -11.766 -54.666 -21.349  1.00  0.00     0.202 C 
ENDBRANCH  23  34
ENDBRANCH   1  21
TORSDOF 5
ENDMDL
MODEL 4
REMARK VINA RESULT: -8.686979508      2.256      4.079
REMARK  5 active torsions:
REMARK  status: ('A' for Active; 'I' for Inactive)
REMARK    1  A    between atoms: O1_2  and  C2_3 
REMARK    2  A    between atoms: C4_5  and  N1_6 
REMARK       I    between atoms: N1_6  and  C5_8 
REMARK    3  A    between atoms: C5_8  and  O3_10 
REMARK    4  A    between atoms: O3_10  and  C6_11 
REMARK    5  A    between atoms: C12_19  and  C13_20 
ROOT
HETATM    1  N1  UNL     1     -16.479 -51.231 -19.361  1.00  0.00    -0.328 N 
ATOM      2  H1  UNL     1     -16.135 -51.638 -18.491  1.00  0.00     0.165 HD
HETATM    3  C5  UNL     1     -16.511 -49.825 -19.508  1.00  0.00     0.361 C 
HETATM    4  O2  UNL     1     -16.939 -49.347 -20.588  1.00  0.00    -0.238 OA
ENDROOT
BRANCH   3   5
HETATM    5  O3  UNL     1     -16.094 -48.956 -18.516  1.00  0.00    -0.296 OA
BRANCH   5   6
HETATM    6  C6  UNL     1     -16.595 -49.135 -17.206  1.00  0.00     0.164 C 
HETATM    7  C7  UNL     1     -17.079 -47.874 -16.583  1.00  0.00     0.201 C 
HETATM    8  O4  UNL     1     -16.407 -47.645 -15.416  1.00  0.00    -0.382 OA
HETATM    9  C8  UNL     1     -15.326 -48.475 -15.318  1.00  0.00     0.133 C 
HETATM   10  C9  UNL     1     -15.473 -49.584 -16.332  1.00  0.00     0.053 C 
HETATM   11  C16 UNL     1     -14.163 -47.919 -16.153  1.00  0.00     0.028 C 
HETATM   12  C10 UNL     1     -14.085 -49.236 -16.821  1.00  0.00     0.026 C 
HETATM   13  C11 UNL     1     -13.041 -50.166 -16.334  1.00  0.00     0.174 C 
HETATM   14  O5  UNL     1     -11.980 -49.582 -15.688  1.00  0.00    -0.374 OA
HETATM   15  C12 UNL     1     -12.348 -48.754 -14.646  1.00  0.00     0.226 C 
HETATM   16  C14 UNL     1     -13.030 -47.547 -15.276  1.00  0.00     0.028 C 
HETATM   17  C15 UNL     1     -13.407 -46.561 -14.191  1.00  0.00     0.014 C 
BRANCH  15  18
HETATM   18  C13 UNL     1     -11.135 -48.262 -13.953  1.00  0.00     0.203 C 
HETATM   19  O6  UNL     1     -11.137 -48.150 -12.704  1.00  0.00    -0.646 OA
HETATM   20  O7  UNL     1      -9.972 -47.910 -14.618  1.00  0.00    -0.646 OA
ENDBRANCH  15  18
ENDBRANCH   5   6
ENDBRANCH   3   5
BRANCH   1  21
HETATM   21  C4  UNL     1     -16.936 -52.113 -20.447  1.00  0.00     0.038 C 
HETATM   22  C3  UNL     1     -15.961 -52.100 -21.554  1.00  0.00     0.063 C 
HETATM   23  C2  UNL     1     -15.611 -53.562 -21.819  1.00  0.00     0.127 C 
HETATM   24  C25 UNL     1     -16.523 -54.390 -20.964  1.00  0.00     0.017 C 
HETATM   25  C24 UNL     1     -17.584 -55.147 -21.639  1.00  0.00     0.012 C 
HETATM   26  C26 UNL     1     -16.874 -53.519 -19.824  1.00  0.00     0.038 C 
HETATM   27  C22 UNL     1     -18.754 -54.543 -22.256  1.00  0.00    -0.014 C 
HETATM   28  C21 UNL     1     -20.021 -54.566 -21.386  1.00  0.00     0.005 C 
HETATM   29  C23 UNL     1     -18.671 -53.197 -22.848  1.00  0.00     0.009 C 
HETATM   30  C20 UNL     1     -21.014 -53.514 -21.870  1.00  0.00     0.001 C 
HETATM   31  C19 UNL     1     -20.505 -52.111 -21.719  1.00  0.00     0.005 C 
HETATM   32  C18 UNL     1     -18.984 -52.044 -21.983  1.00  0.00    -0.012 C 
HETATM   33  C17 UNL     1     -18.341 -51.811 -20.715  1.00  0.00     0.035 C 
BRANCH  23  34
HETATM   34  O1  UNL     1     -14.270 -53.719 -21.416  1.00  0.00    -0.390 OA
HETATM   35  C1  UNL     1     -13.497 -52.612 -21.684  1.00  0.00     0.202 C 
ENDBRANCH  23  34
ENDBRANCH   1  21
TORSDOF 5
ENDMDL
MODEL 5
REMARK VINA RESULT: -8.671625424      1.390      3.262
REMARK  5 active torsions:
REMARK  status: ('A' for Active; 'I' for Inactive)
REMARK    1  A    between atoms: O1_2  and  C2_3 
REMARK    2  A    between atoms: C4_5  and  N1_6 
REMARK       I    between atoms: N1_6  and  C5_8 
REMARK    3  A    between atoms: C5_8  and  O3_10 
REMARK    4  A    between atoms: O3_10  and  C6_11 
REMARK    5  A    between atoms: C12_19  and  C13_20 
ROOT
HETATM    1  N1  UNL     1     -15.157 -53.095 -20.405  1.00  0.00    -0.328 N 
ATOM      2  H1  UNL     1     -15.609 -53.388 -19.539  1.00  0.00     0.165 HD
HETATM    3  C5  UNL     1     -14.344 -51.938 -20.410  1.00  0.00     0.361 C 
HETATM    4  O2  UNL     1     -13.796 -51.596 -21.487  1.00  0.00    -0.238 OA
ENDROOT
BRANCH   3   5
HETATM    5  O3  UNL     1     -14.127 -51.167 -19.281  1.00  0.00    -0.296 OA
BRANCH   5   6
HETATM    6  C6  UNL     1     -14.780 -51.530 -18.080  1.00  0.00     0.164 C 
HETATM    7  C7  UNL     1     -15.866 -50.589 -17.693  1.00  0.00     0.201 C 
HETATM    8  O4  UNL     1     -15.620 -50.084 -16.448  1.00  0.00    -0.382 OA
HETATM    9  C8  UNL     1     -14.342 -50.371 -16.061  1.00  0.00     0.133 C 
HETATM   10  C9  UNL     1     -13.792 -51.447 -16.966  1.00  0.00     0.053 C 
HETATM   11  C16 UNL     1     -13.363 -49.381 -16.709  1.00  0.00     0.028 C 
HETATM   12  C10 UNL     1     -12.603 -50.545 -17.212  1.00  0.00     0.026 C 
HETATM   13  C11 UNL     1     -11.400 -50.936 -16.442  1.00  0.00     0.174 C 
HETATM   14  O5  UNL     1     -10.845 -49.949 -15.667  1.00  0.00    -0.374 OA
HETATM   15  C12 UNL     1     -11.740 -49.346 -14.805  1.00  0.00     0.226 C 
HETATM   16  C14 UNL     1     -12.707 -48.553 -15.674  1.00  0.00     0.028 C 
HETATM   17  C15 UNL     1     -13.683 -47.810 -14.787  1.00  0.00     0.014 C 
BRANCH  15  18
HETATM   18  C13 UNL     1     -11.022 -48.377 -13.946  1.00  0.00     0.203 C 
HETATM   19  O6  UNL     1     -11.260 -48.344 -12.715  1.00  0.00    -0.646 OA
HETATM   20  O7  UNL     1     -10.083 -47.483 -14.432  1.00  0.00    -0.646 OA
ENDBRANCH  15  18
ENDBRANCH   5   6
ENDBRANCH   3   5
BRANCH   1  21
HETATM   21  C4  UNL     1     -15.356 -53.880 -21.634  1.00  0.00     0.038 C 
HETATM   22  C3  UNL     1     -14.113 -54.591 -21.988  1.00  0.00     0.063 C 
HETATM   23  C2  UNL     1     -14.501 -56.059 -22.140  1.00  0.00     0.127 C 
HETATM   24  C25 UNL     1     -15.995 -56.128 -22.031  1.00  0.00     0.017 C 
HETATM   25  C24 UNL     1     -16.751 -56.425 -23.253  1.00  0.00     0.012 C 
HETATM   26  C26 UNL     1     -16.374 -54.957 -21.217  1.00  0.00     0.038 C 
HETATM   27  C22 UNL     1     -16.902 -55.501 -24.366  1.00  0.00    -0.014 C 
HETATM   28  C21 UNL     1     -18.223 -54.715 -24.373  1.00  0.00     0.005 C 
HETATM   29  C23 UNL     1     -15.833 -54.537 -24.682  1.00  0.00     0.009 C 
HETATM   30  C20 UNL     1     -18.089 -53.464 -25.236  1.00  0.00     0.001 C 
HETATM   31  C19 UNL     1     -17.093 -52.480 -24.696  1.00  0.00     0.005 C 
HETATM   32  C18 UNL     1     -15.896 -53.208 -24.046  1.00  0.00    -0.012 C 
HETATM   33  C17 UNL     1     -16.005 -53.019 -22.621  1.00  0.00     0.035 C 
BRANCH  23  34
HETATM   34  O1  UNL     1     -13.890 -56.736 -21.065  1.00  0.00    -0.390 OA
HETATM   35  C1  UNL     1     -12.547 -56.961 -21.267  1.00  0.00     0.202 C 
ENDBRANCH  23  34
ENDBRANCH   1  21
TORSDOF 5
ENDMDL
