MODEL 1
REMARK VINA RESULT: -9.283733616      0.000      0.000
REMARK  8 active torsions:
REMARK  status: ('A' for Active; 'I' for Inactive)
REMARK    1  A    between atoms: O1_2  and  S1_3 
REMARK    2  A    between atoms: S1_3  and  C2_6 
REMARK    3  A    between atoms: C5_9  and  N1_10 
REMARK    4  A    between atoms: N2_12  and  N3_14 
REMARK    5  A    between atoms: N3_14  and  C6_16 
REMARK    6  A    between atoms: C7_17  and  O4_18 
REMARK    7  A    between atoms: N4_20  and  C8_21 
REMARK    8  A    between atoms: C8_21  and  O5_22 
ROOT
HETATM    1  N3  UNL     1      25.868 131.631  18.019  1.00  0.00    -0.277 N 
ATOM      2  H3  UNL     1      25.752 130.878  18.696  1.00  0.00     0.189 HD
ENDROOT
BRANCH   1   3
HETATM    3  N2  UNL     1      25.294 131.528  16.756  1.00  0.00    -0.242 N 
HETATM    4  N1  UNL     1      25.504 130.508  16.051  1.00  0.00    -0.287 N 
ATOM      5  H1  UNL     1      25.087 130.425  15.123  1.00  0.00     0.188 HD
ATOM      6  H2  UNL     1      24.703 132.280  16.402  1.00  0.00     0.208 HD
BRANCH   4   7
HETATM    7  C5  UNL     1      26.328 129.476  16.565  1.00  0.00     0.049 A 
HETATM    8  C4  UNL     1      27.606 129.282  16.082  1.00  0.00     0.032 A 
HETATM    9  C3  UNL     1      28.437 128.292  16.554  1.00  0.00     0.028 A 
HETATM   10  C2  UNL     1      27.988 127.460  17.541  1.00  0.00     0.086 A 
HETATM   11  C12 UNL     1      26.720 127.639  18.033  1.00  0.00     0.028 A 
HETATM   12  C11 UNL     1      25.881 128.637  17.558  1.00  0.00     0.032 A 
BRANCH  10  13
HETATM   13  S1  UNL     1      28.983 126.205  18.169  1.00  0.00     0.297 S 
HETATM   14  O2  UNL     1      30.465 126.508  18.016  1.00  0.00    -0.193 OA
HETATM   15  O3  UNL     1      28.743 124.944  17.353  1.00  0.00    -0.193 OA
BRANCH  13  16
HETATM   16  O1  UNL     1      28.707 125.845  19.763  1.00  0.00    -0.277 OA
HETATM   17  C1  UNL     1      27.965 124.701  19.963  1.00  0.00     0.225 C 
ENDBRANCH  13  16
ENDBRANCH  10  13
ENDBRANCH   4   7
ENDBRANCH   1   3
BRANCH   1  18
HETATM   18  C6  UNL     1      26.629 132.805  18.365  1.00  0.00     0.169 A 
HETATM   19  C7  UNL     1      26.194 133.633  19.357  1.00  0.00     0.182 A 
HETATM   20  N4  UNL     1      26.879 134.750  19.717  1.00  0.00    -0.256 N 
HETATM   21  C9  UNL     1      28.005 135.025  19.071  1.00  0.00     0.333 A 
HETATM   22  O6  UNL     1      28.646 136.072  19.408  1.00  0.00    -0.246 OA
HETATM   23  N5  UNL     1      28.464 134.231  18.087  1.00  0.00    -0.273 N 
HETATM   24  C10 UNL     1      27.800 133.112  17.710  1.00  0.00     0.281 A 
ATOM     25  H5  UNL     1      29.334 134.478  17.613  1.00  0.00     0.173 HD
HETATM   26  O7  UNL     1      28.213 132.356  16.792  1.00  0.00    -0.265 OA
BRANCH  19  27
HETATM   27  O4  UNL     1      25.008 133.312  20.013  1.00  0.00    -0.344 OA
ATOM     28  H4  UNL     1      24.502 134.016  20.401  1.00  0.00     0.219 HD
ENDBRANCH  19  27
BRANCH  20  29
HETATM   29  C8  UNL     1      26.323 135.552  20.779  1.00  0.00     0.302 C 
BRANCH  29  30
HETATM   30  O5  UNL     1      26.793 135.020  21.985  1.00  0.00    -0.382 OA
ATOM     31  H5  UNL     1      26.980 135.753  22.560  1.00  0.00     0.211 HD
ENDBRANCH  29  30
ENDBRANCH  20  29
ENDBRANCH   1  18
TORSDOF 8
ENDMDL
MODEL 2
REMARK VINA RESULT: -9.031241361      0.852      2.247
REMARK  8 active torsions:
REMARK  status: ('A' for Active; 'I' for Inactive)
REMARK    1  A    between atoms: O1_2  and  S1_3 
REMARK    2  A    between atoms: S1_3  and  C2_6 
REMARK    3  A    between atoms: C5_9  and  N1_10 
REMARK    4  A    between atoms: N2_12  and  N3_14 
REMARK    5  A    between atoms: N3_14  and  C6_16 
REMARK    6  A    between atoms: C7_17  and  O4_18 
REMARK    7  A    between atoms: N4_20  and  C8_21 
REMARK    8  A    between atoms: C8_21  and  O5_22 
ROOT
HETATM    1  N3  UNL     1      25.745 131.779  18.272  1.00  0.00    -0.277 N 
ATOM      2  H3  UNL     1      25.653 131.005  18.930  1.00  0.00     0.189 HD
ENDROOT
BRANCH   1   3
HETATM    3  N2  UNL     1      25.141 131.707  17.021  1.00  0.00    -0.242 N 
HETATM    4  N1  UNL     1      25.350 130.715  16.277  1.00  0.00    -0.287 N 
ATOM      5  H1  UNL     1      24.912 130.654  15.358  1.00  0.00     0.188 HD
ATOM      6  H2  UNL     1      24.528 132.460  16.707  1.00  0.00     0.208 HD
BRANCH   4   7
HETATM    7  C5  UNL     1      26.206 129.681  16.737  1.00  0.00     0.049 A 
HETATM    8  C4  UNL     1      27.514 129.599  16.305  1.00  0.00     0.032 A 
HETATM    9  C3  UNL     1      28.374 128.612  16.726  1.00  0.00     0.028 A 
HETATM   10  C2  UNL     1      27.927 127.669  17.608  1.00  0.00     0.086 A 
HETATM   11  C12 UNL     1      26.628 127.736  18.047  1.00  0.00     0.028 A 
HETATM   12  C11 UNL     1      25.759 128.730  17.623  1.00  0.00     0.032 A 
BRANCH  10  13
HETATM   13  S1  UNL     1      28.959 126.412  18.168  1.00  0.00     0.297 S 
HETATM   14  O2  UNL     1      30.430 126.742  17.980  1.00  0.00    -0.193 OA
HETATM   15  O3  UNL     1      28.713 125.171  17.323  1.00  0.00    -0.193 OA
BRANCH  13  16
HETATM   16  O1  UNL     1      28.737 126.002  19.759  1.00  0.00    -0.277 OA
HETATM   17  C1  UNL     1      27.986 124.862  19.948  1.00  0.00     0.225 C 
ENDBRANCH  13  16
ENDBRANCH  10  13
ENDBRANCH   4   7
ENDBRANCH   1   3
BRANCH   1  18
HETATM   18  C6  UNL     1      26.503 132.950  18.634  1.00  0.00     0.169 A 
HETATM   19  C7  UNL     1      27.496 133.402  17.816  1.00  0.00     0.182 A 
HETATM   20  N4  UNL     1      28.235 134.502  18.118  1.00  0.00    -0.256 N 
HETATM   21  C9  UNL     1      27.966 135.142  19.249  1.00  0.00     0.333 A 
HETATM   22  O6  UNL     1      28.659 136.172  19.532  1.00  0.00    -0.246 OA
HETATM   23  N5  UNL     1      26.993 134.725  20.080  1.00  0.00    -0.273 N 
HETATM   24  C10 UNL     1      26.243 133.632  19.802  1.00  0.00     0.281 A 
ATOM     25  H5  UNL     1      26.817 135.244  20.941  1.00  0.00     0.173 HD
HETATM   26  O7  UNL     1      25.328 133.225  20.566  1.00  0.00    -0.265 OA
BRANCH  19  27
HETATM   27  O4  UNL     1      27.750 132.704  16.638  1.00  0.00    -0.344 OA
ATOM     28  H4  UNL     1      28.654 132.521  16.408  1.00  0.00     0.219 HD
ENDBRANCH  19  27
BRANCH  20  29
HETATM   29  C8  UNL     1      29.259 134.887  17.179  1.00  0.00     0.302 C 
BRANCH  29  30
HETATM   30  O5  UNL     1      28.615 135.464  16.080  1.00  0.00    -0.382 OA
ATOM     31  H5  UNL     1      29.030 136.304  15.922  1.00  0.00     0.211 HD
ENDBRANCH  29  30
ENDBRANCH  20  29
ENDBRANCH   1  18
TORSDOF 8
ENDMDL
MODEL 3
REMARK VINA RESULT: -8.995659741      1.091      1.297
REMARK  8 active torsions:
REMARK  status: ('A' for Active; 'I' for Inactive)
REMARK    1  A    between atoms: O1_2  and  S1_3 
REMARK    2  A    between atoms: S1_3  and  C2_6 
REMARK    3  A    between atoms: C5_9  and  N1_10 
REMARK    4  A    between atoms: N2_12  and  N3_14 
REMARK    5  A    between atoms: N3_14  and  C6_16 
REMARK    6  A    between atoms: C7_17  and  O4_18 
REMARK    7  A    between atoms: N4_20  and  C8_21 
REMARK    8  A    between atoms: C8_21  and  O5_22 
ROOT
HETATM    1  N3  UNL     1      27.359 132.195  17.058  1.00  0.00    -0.277 N 
ATOM      2  H3  UNL     1      28.231 131.681  16.935  1.00  0.00     0.189 HD
ENDROOT
BRANCH   1   3
HETATM    3  N2  UNL     1      26.289 131.969  16.199  1.00  0.00    -0.242 N 
HETATM    4  N1  UNL     1      25.959 130.793  15.900  1.00  0.00    -0.287 N 
ATOM      5  H1  UNL     1      25.175 130.618  15.270  1.00  0.00     0.188 HD
ATOM      6  H2  UNL     1      25.771 132.758  15.810  1.00  0.00     0.208 HD
BRANCH   4   7
HETATM    7  C5  UNL     1      26.693 129.713  16.454  1.00  0.00     0.049 A 
HETATM    8  C4  UNL     1      27.914 129.342  15.928  1.00  0.00     0.032 A 
HETATM    9  C3  UNL     1      28.656 128.301  16.435  1.00  0.00     0.028 A 
HETATM   10  C2  UNL     1      28.174 127.598  17.503  1.00  0.00     0.086 A 
HETATM   11  C12 UNL     1      26.961 127.953  18.038  1.00  0.00     0.028 A 
HETATM   12  C11 UNL     1      26.212 129.002  17.527  1.00  0.00     0.032 A 
BRANCH  10  13
HETATM   13  S1  UNL     1      29.059 126.287  18.178  1.00  0.00     0.297 S 
HETATM   14  O2  UNL     1      30.562 126.490  18.083  1.00  0.00    -0.193 OA
HETATM   15  O3  UNL     1      28.769 125.036  17.362  1.00  0.00    -0.193 OA
BRANCH  13  16
HETATM   16  O1  UNL     1      28.697 125.960  19.763  1.00  0.00    -0.277 OA
HETATM   17  C1  UNL     1      27.966 124.807  19.948  1.00  0.00     0.225 C 
ENDBRANCH  13  16
ENDBRANCH  10  13
ENDBRANCH   4   7
ENDBRANCH   1   3
BRANCH   1  18
HETATM   18  C6  UNL     1      27.230 133.158  18.122  1.00  0.00     0.169 A 
HETATM   19  C7  UNL     1      26.185 133.078  18.994  1.00  0.00     0.182 A 
HETATM   20  N4  UNL     1      26.024 133.965  20.012  1.00  0.00    -0.256 N 
HETATM   21  C9  UNL     1      26.925 134.931  20.144  1.00  0.00     0.333 A 
HETATM   22  O6  UNL     1      26.774 135.761  21.097  1.00  0.00    -0.246 OA
HETATM   23  N5  UNL     1      27.969 135.041  19.302  1.00  0.00    -0.273 N 
HETATM   24  C10 UNL     1      28.151 134.170  18.280  1.00  0.00     0.281 A 
ATOM     25  H5  UNL     1      28.639 135.798  19.436  1.00  0.00     0.173 HD
HETATM   26  O7  UNL     1      29.121 134.255  17.482  1.00  0.00    -0.265 OA
BRANCH  19  27
HETATM   27  O4  UNL     1      25.260 132.052  18.824  1.00  0.00    -0.344 OA
ATOM     28  H4  UNL     1      24.350 132.224  19.035  1.00  0.00     0.219 HD
ENDBRANCH  19  27
BRANCH  20  29
HETATM   29  C8  UNL     1      24.882 133.783  20.871  1.00  0.00     0.302 C 
BRANCH  29  30
HETATM   30  O5  UNL     1      25.211 132.780  21.789  1.00  0.00    -0.382 OA
ATOM     31  H5  UNL     1      24.419 132.283  21.957  1.00  0.00     0.211 HD
ENDBRANCH  29  30
ENDBRANCH  20  29
ENDBRANCH   1  18
TORSDOF 8
ENDMDL
MODEL 4
REMARK VINA RESULT: -8.879511371      1.189      1.875
REMARK  8 active torsions:
REMARK  status: ('A' for Active; 'I' for Inactive)
REMARK    1  A    between atoms: O1_2  and  S1_3 
REMARK    2  A    between atoms: S1_3  and  C2_6 
REMARK    3  A    between atoms: C5_9  and  N1_10 
REMARK    4  A    between atoms: N2_12  and  N3_14 
REMARK    5  A    between atoms: N3_14  and  C6_16 
REMARK    6  A    between atoms: C7_17  and  O4_18 
REMARK    7  A    between atoms: N4_20  and  C8_21 
REMARK    8  A    between atoms: C8_21  and  O5_22 
ROOT
HETATM    1  N3  UNL     1      27.355 132.186  17.048  1.00  0.00    -0.277 N 
ATOM      2  H3  UNL     1      28.221 131.661  16.931  1.00  0.00     0.189 HD
ENDROOT
BRANCH   1   3
HETATM    3  N2  UNL     1      26.288 131.976  16.180  1.00  0.00    -0.242 N 
HETATM    4  N1  UNL     1      25.956 130.805  15.863  1.00  0.00    -0.287 N 
ATOM      5  H1  UNL     1      25.175 130.642  15.226  1.00  0.00     0.188 HD
ATOM      6  H2  UNL     1      25.775 132.772  15.801  1.00  0.00     0.208 HD
BRANCH   4   7
HETATM    7  C5  UNL     1      26.684 129.715  16.404  1.00  0.00     0.049 A 
HETATM    8  C4  UNL     1      26.204 129.011  17.489  1.00  0.00     0.032 A 
HETATM    9  C3  UNL     1      26.880 127.949  18.043  1.00  0.00     0.028 A 
HETATM   10  C2  UNL     1      28.077 127.566  17.506  1.00  0.00     0.086 A 
HETATM   11  C12 UNL     1      28.569 128.256  16.426  1.00  0.00     0.028 A 
HETATM   12  C11 UNL     1      27.889 129.328  15.866  1.00  0.00     0.032 A 
BRANCH  10  13
HETATM   13  S1  UNL     1      28.965 126.246  18.158  1.00  0.00     0.297 S 
HETATM   14  O2  UNL     1      28.718 126.059  19.646  1.00  0.00    -0.193 OA
HETATM   15  O3  UNL     1      30.450 126.551  18.031  1.00  0.00    -0.193 OA
BRANCH  13  16
HETATM   16  O1  UNL     1      28.674 124.792  17.415  1.00  0.00    -0.277 OA
HETATM   17  C1  UNL     1      27.432 124.260  17.683  1.00  0.00     0.225 C 
ENDBRANCH  13  16
ENDBRANCH  10  13
ENDBRANCH   4   7
ENDBRANCH   1   3
BRANCH   1  18
HETATM   18  C6  UNL     1      27.231 133.149  18.113  1.00  0.00     0.169 A 
HETATM   19  C7  UNL     1      26.187 133.071  18.987  1.00  0.00     0.182 A 
HETATM   20  N4  UNL     1      26.031 133.957  20.006  1.00  0.00    -0.256 N 
HETATM   21  C9  UNL     1      26.935 134.920  20.137  1.00  0.00     0.333 A 
HETATM   22  O6  UNL     1      26.788 135.750  21.091  1.00  0.00    -0.246 OA
HETATM   23  N5  UNL     1      27.977 135.028  19.293  1.00  0.00    -0.273 N 
HETATM   24  C10 UNL     1      28.155 134.157  18.271  1.00  0.00     0.281 A 
ATOM     25  H5  UNL     1      28.650 135.783  19.427  1.00  0.00     0.173 HD
HETATM   26  O7  UNL     1      29.124 134.240  17.471  1.00  0.00    -0.265 OA
BRANCH  19  27
HETATM   27  O4  UNL     1      25.259 132.047  18.818  1.00  0.00    -0.344 OA
ATOM     28  H4  UNL     1      24.443 132.093  19.303  1.00  0.00     0.219 HD
ENDBRANCH  19  27
BRANCH  20  29
HETATM   29  C8  UNL     1      24.889 133.778  20.867  1.00  0.00     0.302 C 
BRANCH  29  30
HETATM   30  O5  UNL     1      25.222 132.781  21.791  1.00  0.00    -0.382 OA
ATOM     31  H5  UNL     1      24.698 132.934  22.568  1.00  0.00     0.211 HD
ENDBRANCH  29  30
ENDBRANCH  20  29
ENDBRANCH   1  18
TORSDOF 8
ENDMDL
MODEL 5
REMARK VINA RESULT: -8.438705589      1.052      1.258
REMARK  8 active torsions:
REMARK  status: ('A' for Active; 'I' for Inactive)
REMARK    1  A    between atoms: O1_2  and  S1_3 
REMARK    2  A    between atoms: S1_3  and  C2_6 
REMARK    3  A    between atoms: C5_9  and  N1_10 
REMARK    4  A    between atoms: N2_12  and  N3_14 
REMARK    5  A    between atoms: N3_14  and  C6_16 
REMARK    6  A    between atoms: C7_17  and  O4_18 
REMARK    7  A    between atoms: N4_20  and  C8_21 
REMARK    8  A    between atoms: C8_21  and  O5_22 
ROOT
HETATM    1  N3  UNL     1      25.572 131.422  17.273  1.00  0.00    -0.277 N 
ATOM      2  H3  UNL     1      25.440 130.901  18.139  1.00  0.00     0.189 HD
ENDROOT
BRANCH   1   3
HETATM    3  N2  UNL     1      24.876 131.056  16.125  1.00  0.00    -0.242 N 
HETATM    4  N1  UNL     1      25.062 129.924  15.611  1.00  0.00    -0.287 N 
ATOM      5  H1  UNL     1      24.556 129.647  14.769  1.00  0.00     0.188 HD
ATOM      6  H2  UNL     1      24.215 131.707  15.701  1.00  0.00     0.208 HD
BRANCH   4   7
HETATM    7  C5  UNL     1      25.986 129.036  16.221  1.00  0.00     0.049 A 
HETATM    8  C4  UNL     1      27.161 128.691  15.586  1.00  0.00     0.032 A 
HETATM    9  C3  UNL     1      28.082 127.834  16.143  1.00  0.00     0.028 A 
HETATM   10  C2  UNL     1      27.832 127.296  17.375  1.00  0.00     0.086 A 
HETATM   11  C12 UNL     1      26.668 127.629  18.019  1.00  0.00     0.028 A 
HETATM   12  C11 UNL     1      25.738 128.493  17.459  1.00  0.00     0.032 A 
BRANCH  10  13
HETATM   13  S1  UNL     1      28.948 126.220  18.118  1.00  0.00     0.297 S 
HETATM   14  O2  UNL     1      30.389 126.675  17.959  1.00  0.00    -0.193 OA
HETATM   15  O3  UNL     1      28.869 124.876  17.410  1.00  0.00    -0.193 OA
BRANCH  13  16
HETATM   16  O1  UNL     1      28.679 125.964  19.734  1.00  0.00    -0.277 OA
HETATM   17  C1  UNL     1      27.959 124.822  20.012  1.00  0.00     0.225 C 
ENDBRANCH  13  16
ENDBRANCH  10  13
ENDBRANCH   4   7
ENDBRANCH   1   3
BRANCH   1  18
HETATM   18  C6  UNL     1      26.480 132.540  17.233  1.00  0.00     0.169 A 
HETATM   19  C7  UNL     1      26.527 133.420  18.273  1.00  0.00     0.182 A 
HETATM   20  N4  UNL     1      27.368 134.488  18.278  1.00  0.00    -0.256 N 
HETATM   21  C9  UNL     1      28.160 134.661  17.227  1.00  0.00     0.333 A 
HETATM   22  O6  UNL     1      28.948 135.662  17.232  1.00  0.00    -0.246 OA
HETATM   23  N5  UNL     1      28.141 133.814  16.183  1.00  0.00    -0.273 N 
HETATM   24  C10 UNL     1      27.312 132.742  16.154  1.00  0.00     0.281 A 
ATOM     25  H5  UNL     1      28.764 133.982  15.393  1.00  0.00     0.173 HD
HETATM   26  O7  UNL     1      27.279 131.937  15.187  1.00  0.00    -0.265 OA
BRANCH  19  27
HETATM   27  O4  UNL     1      25.681 133.206  19.358  1.00  0.00    -0.344 OA
ATOM     28  H4  UNL     1      25.718 132.367  19.801  1.00  0.00     0.219 HD
ENDBRANCH  19  27
BRANCH  20  29
HETATM   29  C8  UNL     1      27.331 135.352  19.432  1.00  0.00     0.302 C 
BRANCH  29  30
HETATM   30  O5  UNL     1      28.632 135.412  19.943  1.00  0.00    -0.382 OA
ATOM     31  H5  UNL     1      28.560 135.636  20.863  1.00  0.00     0.211 HD
ENDBRANCH  29  30
ENDBRANCH  20  29
ENDBRANCH   1  18
TORSDOF 8
ENDMDL
