MODEL 1
REMARK VINA RESULT: -7.098677499      0.000      0.000
REMARK  7 active torsions:
REMARK  status: ('A' for Active; 'I' for Inactive)
REMARK    1  A    between atoms: O1_2  and  C2_3 
REMARK    2  A    between atoms: C4_5  and  N1_6 
REMARK    3  A    between atoms: N1_6  and  C5_7 
REMARK    4  A    between atoms: C14_21  and  C15_22 
REMARK    5  A    between atoms: C15_22  and  C16_23 
REMARK    6  A    between atoms: C23_31  and  O2_32 
REMARK    7  A    between atoms: C25_34  and  O3_35 
ROOT
HETATM    1  C16 UNL     1      24.098 -31.091   2.003  1.00  0.00     0.128 C 
HETATM    2  C17 UNL     1      23.494 -31.130   0.662  1.00  0.00     0.059 C 
HETATM    3  N4  UNL     1      23.025 -31.178  -0.388  1.00  0.00    -0.197 NA
ENDROOT
BRANCH   1   4
HETATM    4  C15 UNL     1      25.585 -30.829   1.812  1.00  0.00     0.055 C 
BRANCH   4   5
HETATM    5  C14 UNL     1      26.326 -31.268   3.025  1.00  0.00    -0.027 A 
HETATM    6  C13 UNL     1      26.571 -30.406   4.073  1.00  0.00     0.068 A 
HETATM    7  C12 UNL     1      27.268 -30.805   5.221  1.00  0.00     0.069 A 
HETATM    8 CL2  UNL     1      26.016 -28.751   4.000  1.00  0.00    -0.081 Cl
HETATM    9  N3  UNL     1      27.495 -29.953   6.235  1.00  0.00    -0.353 N 
HETATM   10  C21 UNL     1      27.729 -32.092   5.320  1.00  0.00     0.035 A 
HETATM   11  C11 UNL     1      28.150 -30.276   7.356  1.00  0.00     0.048 A 
ATOM     12  H3  UNL     1      27.145 -28.999   6.145  1.00  0.00     0.166 HD
HETATM   13  C6  UNL     1      28.628 -31.554   7.496  1.00  0.00     0.034 A 
HETATM   14  C10 UNL     1      28.358 -29.354   8.383  1.00  0.00     0.056 A 
HETATM   15  C5  UNL     1      28.427 -32.504   6.471  1.00  0.00     0.132 A 
HETATM   16  C7  UNL     1      29.298 -31.897   8.643  1.00  0.00     0.045 A 
HETATM   17  C8  UNL     1      29.518 -31.007   9.673  1.00  0.00     0.069 A 
HETATM   18  N2  UNL     1      30.218 -31.442  10.831  1.00  0.00    -0.101 NA
HETATM   19  C9  UNL     1      29.031 -29.721   9.523  1.00  0.00     0.060 A 
HETATM   20 CL1  UNL     1      29.272 -28.538  10.784  1.00  0.00    -0.082 Cl
HETATM   21  C20 UNL     1      27.488 -32.975   4.269  1.00  0.00     0.024 A 
HETATM   22  C18 UNL     1      26.800 -32.574   3.141  1.00  0.00    -0.053 A 
HETATM   23  C19 UNL     1      26.524 -33.497   2.004  1.00  0.00     0.049 C 
BRANCH  15  24
HETATM   24  N1  UNL     1      28.847 -33.600   6.560  1.00  0.00    -0.404 NA
BRANCH  24  25
HETATM   25  C4  UNL     1      29.372 -34.808   6.576  1.00  0.00     0.113 A 
HETATM   26  C3  UNL     1      28.662 -36.006   6.407  1.00  0.00     0.084 A 
HETATM   27  C2  UNL     1      29.244 -37.247   6.423  1.00  0.00     0.107 A 
HETATM   28  C25 UNL     1      30.602 -37.347   6.612  1.00  0.00     0.135 A 
HETATM   29  C23 UNL     1      31.361 -36.213   6.785  1.00  0.00     0.107 A 
HETATM   30  C22 UNL     1      30.760 -34.973   6.767  1.00  0.00     0.084 A 
BRANCH  27  31
HETATM   31  O1  UNL     1      28.507 -38.400   6.253  1.00  0.00    -0.353 OA
HETATM   32  C1  UNL     1      28.468 -39.124   5.038  1.00  0.00     0.210 C 
ENDBRANCH  27  31
BRANCH  28  33
HETATM   33  O3  UNL     1      31.247 -38.584   6.636  1.00  0.00    -0.351 OA
HETATM   34  C26 UNL     1      31.417 -39.343   7.792  1.00  0.00     0.210 C 
ENDBRANCH  28  33
BRANCH  29  35
HETATM   35  O2  UNL     1      32.719 -36.391   6.974  1.00  0.00    -0.353 OA
HETATM   36  C24 UNL     1      33.666 -36.106   6.009  1.00  0.00     0.210 C 
ENDBRANCH  29  35
ENDBRANCH  24  25
ENDBRANCH  15  24
ENDBRANCH   4   5
ENDBRANCH   1   4
TORSDOF 7
ENDMDL
MODEL 2
REMARK VINA RESULT: -7.002533861      1.321      2.111
REMARK  7 active torsions:
REMARK  status: ('A' for Active; 'I' for Inactive)
REMARK    1  A    between atoms: O1_2  and  C2_3 
REMARK    2  A    between atoms: C4_5  and  N1_6 
REMARK    3  A    between atoms: N1_6  and  C5_7 
REMARK    4  A    between atoms: C14_21  and  C15_22 
REMARK    5  A    between atoms: C15_22  and  C16_23 
REMARK    6  A    between atoms: C23_31  and  O2_32 
REMARK    7  A    between atoms: C25_34  and  O3_35 
ROOT
HETATM    1  C16 UNL     1      24.258 -30.818   2.375  1.00  0.00     0.128 C 
HETATM    2  C17 UNL     1      23.633 -30.825   1.044  1.00  0.00     0.059 C 
HETATM    3  N4  UNL     1      23.145 -30.848   0.001  1.00  0.00    -0.197 NA
ENDROOT
BRANCH   1   4
HETATM    4  C15 UNL     1      25.756 -30.659   2.161  1.00  0.00     0.055 C 
BRANCH   4   5
HETATM    5  C14 UNL     1      26.480 -31.056   3.398  1.00  0.00    -0.027 A 
HETATM    6  C13 UNL     1      26.735 -30.152   4.408  1.00  0.00     0.068 A 
HETATM    7  C12 UNL     1      27.415 -30.511   5.577  1.00  0.00     0.069 A 
HETATM    8 CL2  UNL     1      26.213 -28.491   4.255  1.00  0.00    -0.081 Cl
HETATM    9  N3  UNL     1      27.652 -29.617   6.554  1.00  0.00    -0.353 N 
HETATM   10  C21 UNL     1      27.851 -31.800   5.739  1.00  0.00     0.035 A 
HETATM   11  C11 UNL     1      28.292 -29.902   7.694  1.00  0.00     0.048 A 
ATOM     12  H3  UNL     1      27.321 -28.662   6.417  1.00  0.00     0.166 HD
HETATM   13  C6  UNL     1      28.744 -31.181   7.896  1.00  0.00     0.034 A 
HETATM   14  C10 UNL     1      28.511 -28.938   8.679  1.00  0.00     0.056 A 
HETATM   15  C5  UNL     1      28.533 -32.172   6.913  1.00  0.00     0.132 A 
HETATM   16  C7  UNL     1      29.400 -31.484   9.062  1.00  0.00     0.045 A 
HETATM   17  C8  UNL     1      29.630 -30.552  10.052  1.00  0.00     0.069 A 
HETATM   18  N2  UNL     1      30.313 -30.947  11.235  1.00  0.00    -0.101 NA
HETATM   19  C9  UNL     1      29.169 -29.265   9.839  1.00  0.00     0.060 A 
HETATM   20 CL1  UNL     1      29.424 -28.030  11.047  1.00  0.00    -0.082 Cl
HETATM   21  C20 UNL     1      27.600 -32.726   4.728  1.00  0.00     0.024 A 
HETATM   22  C18 UNL     1      26.927 -32.364   3.577  1.00  0.00    -0.053 A 
HETATM   23  C19 UNL     1      26.642 -33.333   2.482  1.00  0.00     0.049 C 
BRANCH  15  24
HETATM   24  N1  UNL     1      28.931 -33.271   7.055  1.00  0.00    -0.404 NA
BRANCH  24  25
HETATM   25  C4  UNL     1      29.362 -34.489   7.314  1.00  0.00     0.113 A 
HETATM   26  C3  UNL     1      30.407 -35.142   6.644  1.00  0.00     0.084 A 
HETATM   27  C2  UNL     1      30.833 -36.409   6.945  1.00  0.00     0.107 A 
HETATM   28  C25 UNL     1      30.216 -37.098   7.963  1.00  0.00     0.135 A 
HETATM   29  C23 UNL     1      29.183 -36.519   8.662  1.00  0.00     0.107 A 
HETATM   30  C22 UNL     1      28.766 -35.244   8.346  1.00  0.00     0.084 A 
BRANCH  27  31
HETATM   31  O1  UNL     1      31.865 -37.013   6.259  1.00  0.00    -0.353 OA
HETATM   32  C1  UNL     1      33.072 -36.351   5.931  1.00  0.00     0.210 C 
ENDBRANCH  27  31
BRANCH  28  33
HETATM   33  O3  UNL     1      30.609 -38.390   8.314  1.00  0.00    -0.351 OA
HETATM   34  C26 UNL     1      31.658 -38.667   9.189  1.00  0.00     0.210 C 
ENDBRANCH  28  33
BRANCH  29  35
HETATM   35  O2  UNL     1      28.609 -37.273   9.669  1.00  0.00    -0.353 OA
HETATM   36  C24 UNL     1      28.607 -36.896  10.998  1.00  0.00     0.210 C 
ENDBRANCH  29  35
ENDBRANCH  24  25
ENDBRANCH  15  24
ENDBRANCH   4   5
ENDBRANCH   1   4
TORSDOF 7
ENDMDL
MODEL 3
REMARK VINA RESULT: -6.986850209      0.083      2.021
REMARK  7 active torsions:
REMARK  status: ('A' for Active; 'I' for Inactive)
REMARK    1  A    between atoms: O1_2  and  C2_3 
REMARK    2  A    between atoms: C4_5  and  N1_6 
REMARK    3  A    between atoms: N1_6  and  C5_7 
REMARK    4  A    between atoms: C14_21  and  C15_22 
REMARK    5  A    between atoms: C15_22  and  C16_23 
REMARK    6  A    between atoms: C23_31  and  O2_32 
REMARK    7  A    between atoms: C25_34  and  O3_35 
ROOT
HETATM    1  C16 UNL     1      24.085 -31.151   1.945  1.00  0.00     0.128 C 
HETATM    2  C17 UNL     1      23.496 -31.228   0.600  1.00  0.00     0.059 C 
HETATM    3  N4  UNL     1      23.038 -31.306  -0.454  1.00  0.00    -0.197 NA
ENDROOT
BRANCH   1   4
HETATM    4  C15 UNL     1      25.564 -30.843   1.765  1.00  0.00     0.055 C 
BRANCH   4   5
HETATM    5  C14 UNL     1      26.314 -31.284   2.971  1.00  0.00    -0.027 A 
HETATM    6  C13 UNL     1      26.546 -30.431   4.030  1.00  0.00     0.068 A 
HETATM    7  C12 UNL     1      27.251 -30.832   5.171  1.00  0.00     0.069 A 
HETATM    8 CL2  UNL     1      25.962 -28.785   3.978  1.00  0.00    -0.081 Cl
HETATM    9  N3  UNL     1      27.464 -29.988   6.196  1.00  0.00    -0.353 N 
HETATM   10  C21 UNL     1      27.735 -32.111   5.254  1.00  0.00     0.035 A 
HETATM   11  C11 UNL     1      28.126 -30.314   7.313  1.00  0.00     0.048 A 
ATOM     12  H3  UNL     1      27.097 -29.040   6.118  1.00  0.00     0.166 HD
HETATM   13  C6  UNL     1      28.627 -31.585   7.436  1.00  0.00     0.034 A 
HETATM   14  C10 UNL     1      28.318 -29.401   8.351  1.00  0.00     0.056 A 
HETATM   15  C5  UNL     1      28.442 -32.525   6.399  1.00  0.00     0.132 A 
HETATM   16  C7  UNL     1      29.304 -31.930   8.577  1.00  0.00     0.045 A 
HETATM   17  C8  UNL     1      29.509 -31.049   9.619  1.00  0.00     0.069 A 
HETATM   18  N2  UNL     1      30.219 -31.487  10.771  1.00  0.00    -0.101 NA
HETATM   19  C9  UNL     1      29.000 -29.770   9.485  1.00  0.00     0.060 A 
HETATM   20 CL1  UNL     1      29.221 -28.599  10.761  1.00  0.00    -0.082 Cl
HETATM   21  C20 UNL     1      27.509 -32.985   4.193  1.00  0.00     0.024 A 
HETATM   22  C18 UNL     1      26.812 -32.582   3.070  1.00  0.00    -0.053 A 
HETATM   23  C19 UNL     1      26.551 -33.496   1.922  1.00  0.00     0.049 C 
BRANCH  15  24
HETATM   24  N1  UNL     1      28.882 -33.614   6.474  1.00  0.00    -0.404 NA
BRANCH  24  25
HETATM   25  C4  UNL     1      29.457 -34.799   6.512  1.00  0.00     0.113 A 
HETATM   26  C3  UNL     1      30.827 -35.032   6.698  1.00  0.00     0.084 A 
HETATM   27  C2  UNL     1      31.390 -36.281   6.738  1.00  0.00     0.107 A 
HETATM   28  C25 UNL     1      30.583 -37.384   6.592  1.00  0.00     0.135 A 
HETATM   29  C23 UNL     1      29.229 -37.230   6.405  1.00  0.00     0.107 A 
HETATM   30  C22 UNL     1      28.679 -35.966   6.366  1.00  0.00     0.084 A 
BRANCH  27  31
HETATM   31  O1  UNL     1      32.744 -36.465   6.923  1.00  0.00    -0.353 OA
HETATM   32  C1  UNL     1      33.721 -36.021   6.000  1.00  0.00     0.210 C 
ENDBRANCH  27  31
BRANCH  28  33
HETATM   33  O3  UNL     1      31.101 -38.679   6.626  1.00  0.00    -0.351 OA
HETATM   34  C26 UNL     1      31.382 -39.368   7.805  1.00  0.00     0.210 C 
ENDBRANCH  28  33
BRANCH  29  35
HETATM   35  O2  UNL     1      28.481 -38.383   6.262  1.00  0.00    -0.353 OA
HETATM   36  C24 UNL     1      28.401 -39.099   5.083  1.00  0.00     0.210 C 
ENDBRANCH  29  35
ENDBRANCH  24  25
ENDBRANCH  15  24
ENDBRANCH   4   5
ENDBRANCH   1   4
TORSDOF 7
ENDMDL
MODEL 4
REMARK VINA RESULT: -6.749500563      1.667      6.035
REMARK  7 active torsions:
REMARK  status: ('A' for Active; 'I' for Inactive)
REMARK    1  A    between atoms: O1_2  and  C2_3 
REMARK    2  A    between atoms: C4_5  and  N1_6 
REMARK    3  A    between atoms: N1_6  and  C5_7 
REMARK    4  A    between atoms: C14_21  and  C15_22 
REMARK    5  A    between atoms: C15_22  and  C16_23 
REMARK    6  A    between atoms: C23_31  and  O2_32 
REMARK    7  A    between atoms: C25_34  and  O3_35 
ROOT
HETATM    1  C16 UNL     1      30.390 -28.275  10.236  1.00  0.00     0.128 C 
HETATM    2  C17 UNL     1      30.659 -27.613   8.951  1.00  0.00     0.059 C 
HETATM    3  N4  UNL     1      30.864 -27.080   7.951  1.00  0.00    -0.197 NA
ENDROOT
BRANCH   1   4
HETATM    4  C15 UNL     1      28.938 -28.731  10.205  1.00  0.00     0.055 C 
BRANCH   4   5
HETATM    5  C14 UNL     1      28.755 -29.730   9.119  1.00  0.00    -0.027 A 
HETATM    6  C13 UNL     1      27.964 -29.466   8.020  1.00  0.00     0.068 A 
HETATM    7  C12 UNL     1      27.781 -30.396   6.990  1.00  0.00     0.069 A 
HETATM    8 CL2  UNL     1      27.141 -27.931   7.877  1.00  0.00    -0.081 Cl
HETATM    9  N3  UNL     1      27.010 -30.120   5.924  1.00  0.00    -0.353 N 
HETATM   10  C21 UNL     1      28.401 -31.617   7.061  1.00  0.00     0.035 A 
HETATM   11  C11 UNL     1      26.801 -30.966   4.908  1.00  0.00     0.048 A 
ATOM     12  H3  UNL     1      26.556 -29.208   5.886  1.00  0.00     0.166 HD
HETATM   13  C6  UNL     1      27.404 -32.198   4.940  1.00  0.00     0.034 A 
HETATM   14  C10 UNL     1      25.992 -30.630   3.821  1.00  0.00     0.056 A 
HETATM   15  C5  UNL     1      28.227 -32.558   6.029  1.00  0.00     0.132 A 
HETATM   16  C7  UNL     1      27.198 -33.071   3.903  1.00  0.00     0.045 A 
HETATM   17  C8  UNL     1      26.405 -32.767   2.816  1.00  0.00     0.069 A 
HETATM   18  N2  UNL     1      26.246 -33.727   1.779  1.00  0.00    -0.101 NA
HETATM   19  C9  UNL     1      25.802 -31.521   2.793  1.00  0.00     0.060 A 
HETATM   20 CL1  UNL     1      24.783 -31.065   1.452  1.00  0.00    -0.082 Cl
HETATM   21  C20 UNL     1      29.204 -31.899   8.165  1.00  0.00     0.024 A 
HETATM   22  C18 UNL     1      29.380 -30.975   9.177  1.00  0.00    -0.053 A 
HETATM   23  C19 UNL     1      30.235 -31.247  10.366  1.00  0.00     0.049 C 
BRANCH  15  24
HETATM   24  N1  UNL     1      28.737 -33.617   6.088  1.00  0.00    -0.404 NA
BRANCH  24  25
HETATM   25  C4  UNL     1      29.349 -34.774   6.242  1.00  0.00     0.113 A 
HETATM   26  C3  UNL     1      30.717 -34.941   6.502  1.00  0.00     0.084 A 
HETATM   27  C2  UNL     1      31.319 -36.162   6.663  1.00  0.00     0.107 A 
HETATM   28  C25 UNL     1      30.556 -37.302   6.570  1.00  0.00     0.135 A 
HETATM   29  C23 UNL     1      29.208 -37.212   6.316  1.00  0.00     0.107 A 
HETATM   30  C22 UNL     1      28.618 -35.977   6.156  1.00  0.00     0.084 A 
BRANCH  27  31
HETATM   31  O1  UNL     1      32.669 -36.281   6.917  1.00  0.00    -0.353 OA
HETATM   32  C1  UNL     1      33.664 -36.102   5.927  1.00  0.00     0.210 C 
ENDBRANCH  27  31
BRANCH  28  33
HETATM   33  O3  UNL     1      31.116 -38.571   6.726  1.00  0.00    -0.351 OA
HETATM   34  C26 UNL     1      31.363 -39.158   7.966  1.00  0.00     0.210 C 
ENDBRANCH  28  33
BRANCH  29  35
HETATM   35  O2  UNL     1      28.506 -38.400   6.232  1.00  0.00    -0.353 OA
HETATM   36  C24 UNL     1      28.387 -39.136   5.069  1.00  0.00     0.210 C 
ENDBRANCH  29  35
ENDBRANCH  24  25
ENDBRANCH  15  24
ENDBRANCH   4   5
ENDBRANCH   1   4
TORSDOF 7
ENDMDL
MODEL 5
REMARK VINA RESULT: -6.648174502      4.095      6.792
REMARK  7 active torsions:
REMARK  status: ('A' for Active; 'I' for Inactive)
REMARK    1  A    between atoms: O1_2  and  C2_3 
REMARK    2  A    between atoms: C4_5  and  N1_6 
REMARK    3  A    between atoms: N1_6  and  C5_7 
REMARK    4  A    between atoms: C14_21  and  C15_22 
REMARK    5  A    between atoms: C15_22  and  C16_23 
REMARK    6  A    between atoms: C23_31  and  O2_32 
REMARK    7  A    between atoms: C25_34  and  O3_35 
ROOT
HETATM    1  C16 UNL     1      24.559 -30.617   2.777  1.00  0.00     0.128 C 
HETATM    2  C17 UNL     1      23.987 -30.853   1.443  1.00  0.00     0.059 C 
HETATM    3  N4  UNL     1      23.541 -31.055   0.400  1.00  0.00    -0.197 NA
ENDROOT
BRANCH   1   4
HETATM    4  C15 UNL     1      26.065 -30.486   2.597  1.00  0.00     0.055 C 
BRANCH   4   5
HETATM    5  C14 UNL     1      26.747 -30.794   3.882  1.00  0.00    -0.027 A 
HETATM    6  C13 UNL     1      27.056 -32.088   4.245  1.00  0.00     0.068 A 
HETATM    7  C12 UNL     1      27.698 -32.392   5.452  1.00  0.00     0.069 A 
HETATM    8 CL2  UNL     1      26.642 -33.419   3.193  1.00  0.00    -0.081 Cl
HETATM    9  N3  UNL     1      27.995 -33.659   5.788  1.00  0.00    -0.353 N 
HETATM   10  C21 UNL     1      28.036 -31.381   6.313  1.00  0.00     0.035 A 
HETATM   11  C11 UNL     1      28.610 -34.011   6.923  1.00  0.00     0.048 A 
ATOM     12  H3  UNL     1      27.736 -34.399   5.136  1.00  0.00     0.166 HD
HETATM   13  C6  UNL     1      28.966 -33.030   7.813  1.00  0.00     0.034 A 
HETATM   14  C10 UNL     1      28.899 -35.343   7.225  1.00  0.00     0.056 A 
HETATM   15  C5  UNL     1      28.685 -31.676   7.527  1.00  0.00     0.132 A 
HETATM   16  C7  UNL     1      29.599 -33.379   8.979  1.00  0.00     0.045 A 
HETATM   17  C8  UNL     1      29.897 -34.686   9.303  1.00  0.00     0.069 A 
HETATM   18  N2  UNL     1      30.560 -34.965  10.530  1.00  0.00    -0.101 NA
HETATM   19  C9  UNL     1      29.535 -35.669   8.399  1.00  0.00     0.060 A 
HETATM   20 CL1  UNL     1      29.878 -37.346   8.740  1.00  0.00    -0.082 Cl
HETATM   21  C20 UNL     1      27.731 -30.068   5.961  1.00  0.00     0.024 A 
HETATM   22  C18 UNL     1      27.098 -29.776   4.768  1.00  0.00    -0.053 A 
HETATM   23  C19 UNL     1      26.764 -28.381   4.363  1.00  0.00     0.049 C 
BRANCH  15  24
HETATM   24  N1  UNL     1      28.961 -30.819   8.286  1.00  0.00    -0.404 NA
BRANCH  24  25
HETATM   25  C4  UNL     1      29.349 -29.917   9.164  1.00  0.00     0.113 A 
HETATM   26  C3  UNL     1      30.133 -28.789   8.881  1.00  0.00     0.084 A 
HETATM   27  C2  UNL     1      30.511 -27.867   9.821  1.00  0.00     0.107 A 
HETATM   28  C25 UNL     1      30.109 -28.036  11.125  1.00  0.00     0.135 A 
HETATM   29  C23 UNL     1      29.339 -29.121  11.475  1.00  0.00     0.107 A 
HETATM   30  C22 UNL     1      28.967 -30.040  10.517  1.00  0.00     0.084 A 
BRANCH  27  31
HETATM   31  O1  UNL     1      31.284 -26.771   9.498  1.00  0.00    -0.353 OA
HETATM   32  C1  UNL     1      31.599 -26.409   8.167  1.00  0.00     0.210 C 
ENDBRANCH  27  31
BRANCH  28  33
HETATM   33  O3  UNL     1      30.464 -27.129  12.123  1.00  0.00    -0.351 OA
HETATM   34  C26 UNL     1      31.648 -27.209  12.854  1.00  0.00     0.210 C 
ENDBRANCH  28  33
BRANCH  29  35
HETATM   35  O2  UNL     1      28.975 -29.228  12.804  1.00  0.00    -0.353 OA
HETATM   36  C24 UNL     1      29.392 -30.255  13.629  1.00  0.00     0.210 C 
ENDBRANCH  29  35
ENDBRANCH  24  25
ENDBRANCH  15  24
ENDBRANCH   4   5
ENDBRANCH   1   4
TORSDOF 7
ENDMDL
