MODEL 1
REMARK VINA RESULT: -7.284049409      0.000      0.000
REMARK  9 active torsions:
REMARK  status: ('A' for Active; 'I' for Inactive)
REMARK    1  A    between atoms: C2_2  and  C3_4 
REMARK    2  A    between atoms: C3_4  and  O2_5 
REMARK    3  A    between atoms: C6_9  and  O3_10 
REMARK    4  A    between atoms: C10_15  and  C12_17 
REMARK    5  A    between atoms: C12_17  and  C13_18 
REMARK    6  A    between atoms: C13_18  and  C14_19 
REMARK    7  A    between atoms: C14_19  and  C15_20 
REMARK    8  A    between atoms: C15_20  and  C16_21 
REMARK    9  A    between atoms: C20_27  and  C21_28 
ROOT
HETATM    1  C3  UNL     1       0.379  -8.221 -25.557  1.00  0.00     0.130 C 
HETATM    2  C4  UNL     1      -0.237  -6.972 -26.135  1.00  0.00     0.049 C 
HETATM    3  C5  UNL     1       0.602  -6.573 -27.330  1.00  0.00     0.036 C 
HETATM    4  C6  UNL     1       0.274  -7.622 -28.372  1.00  0.00     0.127 C 
HETATM    5  C7  UNL     1       0.738  -8.991 -27.957  1.00  0.00    -0.002 C 
HETATM    6  C8  UNL     1      -0.257  -9.972 -28.594  1.00  0.00     0.019 C 
HETATM    7  C9  UNL     1       2.061  -9.224 -28.673  1.00  0.00     0.022 C 
HETATM    8  C10 UNL     1       3.049  -9.694 -27.646  1.00  0.00    -0.038 C 
HETATM    9  C11 UNL     1       3.362 -11.134 -27.913  1.00  0.00     0.015 C 
HETATM   10  C17 UNL     1       2.449  -9.369 -26.343  1.00  0.00     0.015 C 
HETATM   11  C18 UNL     1       2.167 -10.479 -25.392  1.00  0.00     0.042 C 
HETATM   12  C19 UNL     1       0.807 -10.584 -26.008  1.00  0.00    -0.060 C 
HETATM   13  C20 UNL     1      -0.030 -11.604 -25.993  1.00  0.00     0.088 C 
HETATM   14  C22 UNL     1       0.929  -9.199 -26.519  1.00  0.00     0.036 C 
ENDROOT
BRANCH   8  15
HETATM   15  C12 UNL     1       4.382  -8.958 -27.876  1.00  0.00     0.010 C 
BRANCH  15  16
HETATM   16  C13 UNL     1       4.195  -8.078 -29.089  1.00  0.00     0.001 C 
BRANCH  16  17
HETATM   17  C14 UNL     1       5.269  -8.326 -30.130  1.00  0.00     0.010 C 
BRANCH  17  18
HETATM   18  C15 UNL     1       4.543  -8.714 -31.408  1.00  0.00     0.113 C 
BRANCH  18  19
HETATM   19  C16 UNL     1       4.921 -10.085 -31.836  1.00  0.00     0.172 C 
HETATM   20  O4  UNL     1       4.593 -11.109 -31.192  1.00  0.00    -0.648 OA
HETATM   21  O5  UNL     1       5.666 -10.259 -32.990  1.00  0.00    -0.648 OA
ENDBRANCH  18  19
ENDBRANCH  17  18
ENDBRANCH  16  17
ENDBRANCH  15  16
ENDBRANCH   8  15
BRANCH   4  22
HETATM   22  O3  UNL     1      -1.107  -7.612 -28.560  1.00  0.00    -0.395 OA
ATOM     23  H3  UNL     1      -1.270  -7.487 -29.488  1.00  0.00     0.210 HD
ENDBRANCH   4  22
BRANCH   1  24
HETATM   24  C2  UNL     1      -0.649  -8.754 -24.617  1.00  0.00     0.158 C 
HETATM   25  C1  UNL     1      -2.102  -8.838 -24.938  1.00  0.00     0.094 C 
HETATM   26  O1  UNL     1      -0.315  -9.152 -23.514  1.00  0.00    -0.295 OA
ENDBRANCH   1  24
BRANCH   1  27
HETATM   27  O2  UNL     1       1.434  -7.758 -24.724  1.00  0.00    -0.381 OA
ATOM     28  H2  UNL     1       1.279  -6.825 -24.628  1.00  0.00     0.211 HD
ENDBRANCH   1  27
BRANCH  13  29
HETATM   29  C21 UNL     1       0.228 -12.874 -25.341  1.00  0.00     0.198 C 
HETATM   30  O6  UNL     1       0.382 -13.955 -25.968  1.00  0.00    -0.644 OA
HETATM   31  O7  UNL     1       0.315 -12.936 -23.952  1.00  0.00    -0.644 OA
ENDBRANCH  13  29
TORSDOF 9
ENDMDL
MODEL 2
REMARK VINA RESULT: -6.944772744      2.801      4.773
REMARK  9 active torsions:
REMARK  status: ('A' for Active; 'I' for Inactive)
REMARK    1  A    between atoms: C2_2  and  C3_4 
REMARK    2  A    between atoms: C3_4  and  O2_5 
REMARK    3  A    between atoms: C6_9  and  O3_10 
REMARK    4  A    between atoms: C10_15  and  C12_17 
REMARK    5  A    between atoms: C12_17  and  C13_18 
REMARK    6  A    between atoms: C13_18  and  C14_19 
REMARK    7  A    between atoms: C14_19  and  C15_20 
REMARK    8  A    between atoms: C15_20  and  C16_21 
REMARK    9  A    between atoms: C20_27  and  C21_28 
ROOT
HETATM    1  C3  UNL     1      -0.779  -9.067 -24.036  1.00  0.00     0.130 C 
HETATM    2  C4  UNL     1      -2.155  -8.459 -23.937  1.00  0.00     0.049 C 
HETATM    3  C5  UNL     1      -2.357  -7.610 -25.173  1.00  0.00     0.036 C 
HETATM    4  C6  UNL     1      -2.516  -8.621 -26.289  1.00  0.00     0.127 C 
HETATM    5  C7  UNL     1      -1.258  -9.415 -26.512  1.00  0.00    -0.002 C 
HETATM    6  C8  UNL     1      -1.723 -10.792 -27.007  1.00  0.00     0.019 C 
HETATM    7  C9  UNL     1      -0.554  -8.768 -27.697  1.00  0.00     0.022 C 
HETATM    8  C10 UNL     1       0.875  -8.540 -27.299  1.00  0.00    -0.038 C 
HETATM    9  C11 UNL     1       1.740  -9.472 -28.088  1.00  0.00     0.015 C 
HETATM   10  C17 UNL     1       0.904  -8.675 -25.836  1.00  0.00     0.015 C 
HETATM   11  C18 UNL     1       1.760  -9.734 -25.234  1.00  0.00     0.042 C 
HETATM   12  C19 UNL     1       0.578 -10.651 -25.310  1.00  0.00    -0.060 C 
HETATM   13  C20 UNL     1       0.554 -11.969 -25.301  1.00  0.00     0.088 C 
HETATM   14  C22 UNL     1      -0.327  -9.480 -25.381  1.00  0.00     0.036 C 
ENDROOT
BRANCH   8  15
HETATM   15  C12 UNL     1       1.293  -7.133 -27.765  1.00  0.00     0.010 C 
BRANCH  15  16
HETATM   16  C13 UNL     1       0.144  -6.576 -28.572  1.00  0.00     0.001 C 
BRANCH  16  17
HETATM   17  C14 UNL     1      -0.159  -5.139 -28.194  1.00  0.00     0.010 C 
BRANCH  17  18
HETATM   18  C15 UNL     1      -1.640  -5.093 -27.849  1.00  0.00     0.113 C 
BRANCH  18  19
HETATM   19  C16 UNL     1      -1.875  -4.261 -26.642  1.00  0.00     0.172 C 
HETATM   20  O4  UNL     1      -1.032  -3.437 -26.214  1.00  0.00    -0.648 OA
HETATM   21  O5  UNL     1      -3.067  -4.384 -25.949  1.00  0.00    -0.648 OA
ENDBRANCH  18  19
ENDBRANCH  17  18
ENDBRANCH  16  17
ENDBRANCH  15  16
ENDBRANCH   8  15
BRANCH   4  22
HETATM   22  O3  UNL     1      -3.570  -9.466 -25.946  1.00  0.00    -0.395 OA
ATOM     23  H3  UNL     1      -4.117  -9.004 -25.322  1.00  0.00     0.210 HD
ENDBRANCH   4  22
BRANCH   1  24
HETATM   24  C2  UNL     1      -0.757 -10.135 -22.995  1.00  0.00     0.158 C 
HETATM   25  C1  UNL     1      -1.805 -11.186 -22.864  1.00  0.00     0.094 C 
HETATM   26  O1  UNL     1       0.158 -10.180 -22.190  1.00  0.00    -0.295 OA
ENDBRANCH   1  24
BRANCH   1  27
HETATM   27  O2  UNL     1       0.101  -8.062 -23.549  1.00  0.00    -0.381 OA
ATOM     28  H2  UNL     1      -0.460  -7.444 -23.094  1.00  0.00     0.211 HD
ENDBRANCH   1  27
BRANCH  13  29
HETATM   29  C21 UNL     1       1.729 -12.816 -25.210  1.00  0.00     0.198 C 
HETATM   30  O6  UNL     1       2.149 -13.304 -24.128  1.00  0.00    -0.644 OA
HETATM   31  O7  UNL     1       2.453 -13.123 -26.360  1.00  0.00    -0.644 OA
ENDBRANCH  13  29
TORSDOF 9
ENDMDL
MODEL 3
REMARK VINA RESULT: -6.944110244      1.928      4.238
REMARK  9 active torsions:
REMARK  status: ('A' for Active; 'I' for Inactive)
REMARK    1  A    between atoms: C2_2  and  C3_4 
REMARK    2  A    between atoms: C3_4  and  O2_5 
REMARK    3  A    between atoms: C6_9  and  O3_10 
REMARK    4  A    between atoms: C10_15  and  C12_17 
REMARK    5  A    between atoms: C12_17  and  C13_18 
REMARK    6  A    between atoms: C13_18  and  C14_19 
REMARK    7  A    between atoms: C14_19  and  C15_20 
REMARK    8  A    between atoms: C15_20  and  C16_21 
REMARK    9  A    between atoms: C20_27  and  C21_28 
ROOT
HETATM    1  C3  UNL     1      -0.542 -10.437 -26.414  1.00  0.00     0.130 C 
HETATM    2  C4  UNL     1      -0.046 -11.673 -25.707  1.00  0.00     0.049 C 
HETATM    3  C5  UNL     1       1.350 -11.951 -26.223  1.00  0.00     0.036 C 
HETATM    4  C6  UNL     1       2.192 -10.852 -25.608  1.00  0.00     0.127 C 
HETATM    5  C7  UNL     1       1.805  -9.493 -26.123  1.00  0.00    -0.002 C 
HETATM    6  C8  UNL     1       2.092  -8.521 -24.969  1.00  0.00     0.019 C 
HETATM    7  C9  UNL     1       2.813  -9.150 -27.211  1.00  0.00     0.022 C 
HETATM    8  C10 UNL     1       2.036  -8.703 -28.414  1.00  0.00    -0.038 C 
HETATM    9  C11 UNL     1       2.264  -7.235 -28.606  1.00  0.00     0.015 C 
HETATM   10  C17 UNL     1       0.653  -9.142 -28.179  1.00  0.00     0.015 C 
HETATM   11  C18 UNL     1      -0.421  -8.112 -28.117  1.00  0.00     0.042 C 
HETATM   12  C19 UNL     1      -0.179  -8.031 -26.642  1.00  0.00    -0.060 C 
HETATM   13  C20 UNL     1      -0.484  -7.056 -25.807  1.00  0.00     0.088 C 
HETATM   14  C22 UNL     1       0.450  -9.372 -26.670  1.00  0.00     0.036 C 
ENDROOT
BRANCH   8  15
HETATM   15  C12 UNL     1       2.652  -9.358 -29.665  1.00  0.00     0.010 C 
BRANCH  15  16
HETATM   16  C13 UNL     1       3.640  -8.369 -30.239  1.00  0.00     0.001 C 
BRANCH  16  17
HETATM   17  C14 UNL     1       4.647  -9.049 -31.146  1.00  0.00     0.010 C 
BRANCH  17  18
HETATM   18  C15 UNL     1       4.990 -10.374 -30.486  1.00  0.00     0.113 C 
BRANCH  18  19
HETATM   19  C16 UNL     1       6.230 -10.256 -29.677  1.00  0.00     0.172 C 
HETATM   20  O4  UNL     1       7.375 -10.373 -30.174  1.00  0.00    -0.648 OA
HETATM   21  O5  UNL     1       6.138 -10.005 -28.319  1.00  0.00    -0.648 OA
ENDBRANCH  18  19
ENDBRANCH  17  18
ENDBRANCH  16  17
ENDBRANCH  15  16
ENDBRANCH   8  15
BRANCH   4  22
HETATM   22  O3  UNL     1       2.024 -10.916 -24.226  1.00  0.00    -0.395 OA
ATOM     23  H3  UNL     1       2.771 -10.488 -23.826  1.00  0.00     0.210 HD
ENDBRANCH   4  22
BRANCH   1  24
HETATM   24  C2  UNL     1      -1.750 -10.018 -25.646  1.00  0.00     0.158 C 
HETATM   25  C1  UNL     1      -1.762  -9.803 -24.172  1.00  0.00     0.094 C 
HETATM   26  O1  UNL     1      -2.805  -9.830 -26.228  1.00  0.00    -0.295 OA
ENDBRANCH   1  24
BRANCH   1  27
HETATM   27  O2  UNL     1      -1.043 -10.904 -27.660  1.00  0.00    -0.381 OA
ATOM     28  H2  UNL     1      -1.596 -11.645 -27.440  1.00  0.00     0.211 HD
ENDBRANCH   1  27
BRANCH  13  29
HETATM   29  C21 UNL     1      -1.144  -5.821 -26.187  1.00  0.00     0.198 C 
HETATM   30  O6  UNL     1      -0.571  -4.897 -26.823  1.00  0.00    -0.644 OA
HETATM   31  O7  UNL     1      -2.478  -5.615 -25.846  1.00  0.00    -0.644 OA
ENDBRANCH  13  29
TORSDOF 9
ENDMDL
MODEL 4
REMARK VINA RESULT: -6.851535289      2.324      5.668
REMARK  9 active torsions:
REMARK  status: ('A' for Active; 'I' for Inactive)
REMARK    1  A    between atoms: C2_2  and  C3_4 
REMARK    2  A    between atoms: C3_4  and  O2_5 
REMARK    3  A    between atoms: C6_9  and  O3_10 
REMARK    4  A    between atoms: C10_15  and  C12_17 
REMARK    5  A    between atoms: C12_17  and  C13_18 
REMARK    6  A    between atoms: C13_18  and  C14_19 
REMARK    7  A    between atoms: C14_19  and  C15_20 
REMARK    8  A    between atoms: C15_20  and  C16_21 
REMARK    9  A    between atoms: C20_27  and  C21_28 
ROOT
HETATM    1  C3  UNL     1       0.278 -10.212 -25.011  1.00  0.00     0.130 C 
HETATM    2  C4  UNL     1      -1.136 -10.559 -24.618  1.00  0.00     0.049 C 
HETATM    3  C5  UNL     1      -2.025  -9.446 -25.129  1.00  0.00     0.036 C 
HETATM    4  C6  UNL     1      -2.035  -9.647 -26.631  1.00  0.00     0.127 C 
HETATM    5  C7  UNL     1      -0.676  -9.425 -27.236  1.00  0.00    -0.002 C 
HETATM    6  C8  UNL     1      -0.615 -10.354 -28.457  1.00  0.00     0.019 C 
HETATM    7  C9  UNL     1      -0.689  -8.009 -27.796  1.00  0.00     0.022 C 
HETATM    8  C10 UNL     1       0.546  -7.319 -27.296  1.00  0.00    -0.038 C 
HETATM    9  C11 UNL     1       1.470  -7.104 -28.453  1.00  0.00     0.015 C 
HETATM   10  C17 UNL     1       1.041  -8.149 -26.187  1.00  0.00     0.015 C 
HETATM   11  C18 UNL     1       2.403  -8.741 -26.293  1.00  0.00     0.042 C 
HETATM   12  C19 UNL     1       1.769  -9.940 -26.928  1.00  0.00    -0.060 C 
HETATM   13  C20 UNL     1       2.325 -10.860 -27.693  1.00  0.00     0.088 C 
HETATM   14  C22 UNL     1       0.466  -9.570 -26.328  1.00  0.00     0.036 C 
ENDROOT
BRANCH   8  15
HETATM   15  C12 UNL     1       0.161  -5.900 -26.837  1.00  0.00     0.010 C 
BRANCH  15  16
HETATM   16  C13 UNL     1      -0.147  -5.103 -28.082  1.00  0.00     0.001 C 
BRANCH  16  17
HETATM   17  C14 UNL     1      -1.441  -4.325 -27.941  1.00  0.00     0.010 C 
BRANCH  17  18
HETATM   18  C15 UNL     1      -1.456  -3.775 -26.524  1.00  0.00     0.113 C 
BRANCH  18  19
HETATM   19  C16 UNL     1      -2.696  -4.178 -25.813  1.00  0.00     0.172 C 
HETATM   20  O4  UNL     1      -3.376  -5.176 -26.153  1.00  0.00    -0.648 OA
HETATM   21  O5  UNL     1      -3.134  -3.437 -24.729  1.00  0.00    -0.648 OA
ENDBRANCH  18  19
ENDBRANCH  17  18
ENDBRANCH  16  17
ENDBRANCH  15  16
ENDBRANCH   8  15
BRANCH   4  22
HETATM   22  O3  UNL     1      -2.473 -10.946 -26.879  1.00  0.00    -0.395 OA
ATOM     23  H3  UNL     1      -3.319 -11.050 -26.460  1.00  0.00     0.210 HD
ENDBRANCH   4  22
BRANCH   1  24
HETATM   24  C2  UNL     1       1.054 -11.467 -24.792  1.00  0.00     0.158 C 
HETATM   25  C1  UNL     1       0.632 -12.802 -25.302  1.00  0.00     0.094 C 
HETATM   26  O1  UNL     1       2.098 -11.434 -24.163  1.00  0.00    -0.295 OA
ENDBRANCH   1  24
BRANCH   1  27
HETATM   27  O2  UNL     1       0.731  -9.320 -24.000  1.00  0.00    -0.381 OA
ATOM     28  H2  UNL     1       0.102  -8.607 -24.002  1.00  0.00     0.211 HD
ENDBRANCH   1  27
BRANCH  13  29
HETATM   29  C21 UNL     1       3.724 -10.878 -28.078  1.00  0.00     0.198 C 
HETATM   30  O6  UNL     1       4.542 -11.746 -27.673  1.00  0.00    -0.644 OA
HETATM   31  O7  UNL     1       4.220  -9.900 -28.936  1.00  0.00    -0.644 OA
ENDBRANCH  13  29
TORSDOF 9
ENDMDL
MODEL 5
REMARK VINA RESULT: -6.809992005      2.469      3.074
REMARK  9 active torsions:
REMARK  status: ('A' for Active; 'I' for Inactive)
REMARK    1  A    between atoms: C2_2  and  C3_4 
REMARK    2  A    between atoms: C3_4  and  O2_5 
REMARK    3  A    between atoms: C6_9  and  O3_10 
REMARK    4  A    between atoms: C10_15  and  C12_17 
REMARK    5  A    between atoms: C12_17  and  C13_18 
REMARK    6  A    between atoms: C13_18  and  C14_19 
REMARK    7  A    between atoms: C14_19  and  C15_20 
REMARK    8  A    between atoms: C15_20  and  C16_21 
REMARK    9  A    between atoms: C20_27  and  C21_28 
ROOT
HETATM    1  C3  UNL     1       0.007  -8.395 -24.910  1.00  0.00     0.130 C 
HETATM    2  C4  UNL     1      -0.862  -7.201 -25.214  1.00  0.00     0.049 C 
HETATM    3  C5  UNL     1      -0.358  -6.602 -26.509  1.00  0.00     0.036 C 
HETATM    4  C6  UNL     1      -0.782  -7.603 -27.563  1.00  0.00     0.127 C 
HETATM    5  C7  UNL     1      -0.083  -8.924 -27.398  1.00  0.00    -0.002 C 
HETATM    6  C8  UNL     1      -1.072  -9.979 -27.913  1.00  0.00     0.019 C 
HETATM    7  C9  UNL     1       1.069  -8.920 -28.394  1.00  0.00     0.022 C 
HETATM    8  C10 UNL     1       2.306  -9.329 -27.648  1.00  0.00    -0.038 C 
HETATM    9  C11 UNL     1       2.718 -10.688 -28.123  1.00  0.00     0.015 C 
HETATM   10  C17 UNL     1       1.973  -9.189 -26.223  1.00  0.00     0.015 C 
HETATM   11  C18 UNL     1       2.037 -10.396 -25.354  1.00  0.00     0.042 C 
HETATM   12  C19 UNL     1       0.597 -10.637 -25.682  1.00  0.00    -0.060 C 
HETATM   13  C20 UNL     1      -0.093 -11.759 -25.599  1.00  0.00     0.088 C 
HETATM   14  C22 UNL     1       0.442  -9.213 -26.060  1.00  0.00     0.036 C 
ENDROOT
BRANCH   8  15
HETATM   15  C12 UNL     1       3.461  -8.403 -28.072  1.00  0.00     0.010 C 
BRANCH  15  16
HETATM   16  C13 UNL     1       3.002  -7.662 -29.306  1.00  0.00     0.001 C 
BRANCH  16  17
HETATM   17  C14 UNL     1       2.937  -6.166 -29.068  1.00  0.00     0.010 C 
BRANCH  17  18
HETATM   18  C15 UNL     1       1.630  -5.692 -29.682  1.00  0.00     0.113 C 
BRANCH  18  19
HETATM   19  C16 UNL     1       1.233  -4.373 -29.128  1.00  0.00     0.172 C 
HETATM   20  O4  UNL     1       2.033  -3.413 -29.028  1.00  0.00    -0.648 OA
HETATM   21  O5  UNL     1      -0.068  -4.176 -28.699  1.00  0.00    -0.648 OA
ENDBRANCH  18  19
ENDBRANCH  17  18
ENDBRANCH  16  17
ENDBRANCH  15  16
ENDBRANCH   8  15
BRANCH   4  22
HETATM   22  O3  UNL     1      -2.162  -7.767 -27.459  1.00  0.00    -0.395 OA
ATOM     23  H3  UNL     1      -2.349  -8.080 -26.582  1.00  0.00     0.210 HD
ENDBRANCH   4  22
BRANCH   1  24
HETATM   24  C2  UNL     1      -0.721  -9.133 -23.836  1.00  0.00     0.158 C 
HETATM   25  C1  UNL     1      -2.203  -9.280 -23.790  1.00  0.00     0.094 C 
HETATM   26  O1  UNL     1      -0.097  -9.658 -22.930  1.00  0.00    -0.295 OA
ENDBRANCH   1  24
BRANCH   1  27
HETATM   27  O2  UNL     1       1.158  -7.858 -24.270  1.00  0.00    -0.381 OA
ATOM     28  H2  UNL     1       0.906  -7.754 -23.360  1.00  0.00     0.211 HD
ENDBRANCH   1  27
BRANCH  13  29
HETATM   29  C21 UNL     1       0.448 -13.029 -25.150  1.00  0.00     0.198 C 
HETATM   30  O6  UNL     1       0.915 -13.213 -23.995  1.00  0.00    -0.644 OA
HETATM   31  O7  UNL     1       0.469 -14.119 -26.017  1.00  0.00    -0.644 OA
ENDBRANCH  13  29
TORSDOF 9
ENDMDL
