MODEL 1
REMARK VINA RESULT: -8.021367240      0.000      0.000
REMARK  12 active torsions:
REMARK  status: ('A' for Active; 'I' for Inactive)
REMARK    1  A    between atoms: C3_3  and  N1_4 
REMARK    2  A    between atoms: N1_4  and  C4_5 
REMARK    3  A    between atoms: N1_4  and  C11_16 
REMARK    4  A    between atoms: C7_8  and  C8_9 
REMARK    5  A    between atoms: C17_24  and  S1_25 
REMARK    6  A    between atoms: S1_25  and  C18_26 
REMARK    7  A    between atoms: C18_26  and  C19_27 
REMARK    8  A    between atoms: C19_27  and  C20_28 
REMARK    9  A    between atoms: C20_28  and  N5_29 
REMARK   10  A    between atoms: N5_29  and  C21_32 
REMARK   11  A    between atoms: C21_32  and  C22_33 
REMARK   12  A    between atoms: C25_36  and  N6_37 
ROOT
HETATM    1  C1  UNL     1      10.524  38.203  -0.452  1.00  0.00     0.014 C 
HETATM    2  C2  UNL     1       9.868  38.214  -1.461  1.00  0.00    -0.097 C 
HETATM    3  C3  UNL     1       9.054  38.205  -2.709  1.00  0.00     0.240 C 
ENDROOT
BRANCH   3   4
HETATM    4  N1  UNL     1       9.292  39.391  -3.464  1.00  0.00    -0.172 N 
BRANCH   4   5
HETATM    5  C4  UNL     1       8.634  40.587  -3.067  1.00  0.00     0.052 A 
HETATM    6  C5  UNL     1       9.086  41.355  -2.016  1.00  0.00     0.031 A 
HETATM    7  C6  UNL     1       8.419  42.521  -1.648  1.00  0.00     0.017 A 
HETATM    8  C7  UNL     1       7.294  42.974  -2.289  1.00  0.00     0.005 A 
HETATM    9  C9  UNL     1       6.848  42.180  -3.357  1.00  0.00     0.017 A 
HETATM   10  C10 UNL     1       7.489  41.029  -3.737  1.00  0.00     0.031 A 
BRANCH   8  11
HETATM   11  C8  UNL     1       6.576  44.179  -1.931  1.00  0.00     0.120 C 
HETATM   12  N2  UNL     1       6.923  44.891  -0.945  1.00  0.00    -0.387 N 
ATOM     13  H22 UNL     1       7.729  44.607  -0.389  1.00  0.00     0.157 HD
ATOM     14  H21 UNL     1       6.418  45.740  -0.693  1.00  0.00     0.157 HD
HETATM   15  N3  UNL     1       5.461  44.572  -2.702  1.00  0.00    -0.082 NA
ENDBRANCH   8  11
ENDBRANCH   4   5
BRANCH   4  16
HETATM   16  C11 UNL     1      10.151  39.418  -4.578  1.00  0.00     0.687 A 
HETATM   17  N4  UNL     1      10.207  40.579  -5.293  1.00  0.00    -0.190 N 
HETATM   18  C12 UNL     1      10.970  40.768  -6.372  1.00  0.00     0.064 A 
ATOM     19  H4  UNL     1       9.625  41.357  -4.981  1.00  0.00     0.184 HD
HETATM   20  C13 UNL     1      10.973  41.983  -7.053  1.00  0.00     0.031 A 
HETATM   21  C24 UNL     1      11.748  39.726  -6.788  1.00  0.00     0.053 A 
HETATM   22  C14 UNL     1      11.779  42.077  -8.137  1.00  0.00     0.010 A 
HETATM   23  C15 UNL     1      12.570  41.030  -8.567  1.00  0.00    -0.044 A 
HETATM   24  C16 UNL     1      13.411  41.297  -9.762  1.00  0.00     0.049 C 
HETATM   25  C17 UNL     1      12.590  39.826  -7.924  1.00  0.00     0.022 A 
HETATM   26  C25 UNL     1      11.699  38.547  -6.073  1.00  0.00     0.128 A 
HETATM   27  N7  UNL     1      10.913  38.383  -4.979  1.00  0.00    -0.176 N 
ATOM     28  H7  UNL     1      10.899  37.498  -4.473  1.00  0.00     0.186 HD
BRANCH  25  29
HETATM   29  S1  UNL     1      13.519  38.406  -8.352  1.00  0.00    -0.128 SA
BRANCH  29  30
HETATM   30  C18 UNL     1      13.210  37.593  -9.887  1.00  0.00     0.081 C 
BRANCH  30  31
HETATM   31  C19 UNL     1      14.355  36.644 -10.264  1.00  0.00     0.038 C 
BRANCH  31  32
HETATM   32  C20 UNL     1      14.097  35.915 -11.523  1.00  0.00     0.233 C 
BRANCH  32  33
HETATM   33  N5  UNL     1      15.168  35.898 -12.466  1.00  0.00    -0.072 N 
ATOM     34  H52 UNL     1      15.995  35.461 -12.060  1.00  0.00     0.277 HD
ATOM     35  H51 UNL     1      14.973  35.236 -13.216  1.00  0.00     0.277 HD
BRANCH  33  36
HETATM   36  C21 UNL     1      15.495  37.188 -13.005  1.00  0.00     0.259 C 
BRANCH  36  37
HETATM   37  C22 UNL     1      14.324  37.883 -13.585  1.00  0.00    -0.010 C 
HETATM   38  C23 UNL     1      14.170  39.176 -13.362  1.00  0.00     0.008 C 
ENDBRANCH  36  37
ENDBRANCH  33  36
ENDBRANCH  32  33
ENDBRANCH  31  32
ENDBRANCH  30  31
ENDBRANCH  29  30
ENDBRANCH  25  29
BRANCH  26  39
HETATM   39  N6  UNL     1      12.429  37.548  -6.453  1.00  0.00    -0.384 N 
ATOM     40  H62 UNL     1      13.131  37.714  -7.175  1.00  0.00     0.157 HD
ATOM     41  H61 UNL     1      12.283  36.634  -6.024  1.00  0.00     0.157 HD
ENDBRANCH  26  39
ENDBRANCH   4  16
ENDBRANCH   3   4
TORSDOF 12
ENDMDL
MODEL 2
REMARK VINA RESULT: -7.978506477      3.238     11.607
REMARK  12 active torsions:
REMARK  status: ('A' for Active; 'I' for Inactive)
REMARK    1  A    between atoms: C3_3  and  N1_4 
REMARK    2  A    between atoms: N1_4  and  C4_5 
REMARK    3  A    between atoms: N1_4  and  C11_16 
REMARK    4  A    between atoms: C7_8  and  C8_9 
REMARK    5  A    between atoms: C17_24  and  S1_25 
REMARK    6  A    between atoms: S1_25  and  C18_26 
REMARK    7  A    between atoms: C18_26  and  C19_27 
REMARK    8  A    between atoms: C19_27  and  C20_28 
REMARK    9  A    between atoms: C20_28  and  N5_29 
REMARK   10  A    between atoms: N5_29  and  C21_32 
REMARK   11  A    between atoms: C21_32  and  C22_33 
REMARK   12  A    between atoms: C25_36  and  N6_37 
ROOT
HETATM    1  C1  UNL     1      18.051  40.574 -12.157  1.00  0.00     0.014 C 
HETATM    2  C2  UNL     1      17.837  39.504 -12.664  1.00  0.00    -0.097 C 
HETATM    3  C3  UNL     1      17.593  38.182 -13.306  1.00  0.00     0.240 C 
ENDROOT
BRANCH   3   4
HETATM    4  N1  UNL     1      16.214  37.830 -13.205  1.00  0.00    -0.172 N 
BRANCH   4   5
HETATM    5  C4  UNL     1      15.650  37.012 -14.222  1.00  0.00     0.052 A 
HETATM    6  C5  UNL     1      16.399  36.542 -15.279  1.00  0.00     0.031 A 
HETATM    7  C6  UNL     1      15.818  35.745 -16.263  1.00  0.00     0.017 A 
HETATM    8  C7  UNL     1      14.495  35.383 -16.249  1.00  0.00     0.005 A 
HETATM    9  C9  UNL     1      13.748  35.871 -15.166  1.00  0.00     0.017 A 
HETATM   10  C10 UNL     1      14.299  36.657 -14.185  1.00  0.00     0.031 A 
BRANCH   8  11
HETATM   11  C8  UNL     1      13.860  34.559 -17.255  1.00  0.00     0.120 C 
HETATM   12  N2  UNL     1      13.605  33.338 -17.050  1.00  0.00    -0.387 N 
ATOM     13  H22 UNL     1      13.855  32.924 -16.152  1.00  0.00     0.157 HD
ATOM     14  H21 UNL     1      13.158  32.756 -17.759  1.00  0.00     0.157 HD
HETATM   15  N3  UNL     1      13.514  35.132 -18.498  1.00  0.00    -0.082 NA
ENDBRANCH   8  11
ENDBRANCH   4   5
BRANCH   4  16
HETATM   16  C11 UNL     1      15.402  38.258 -12.140  1.00  0.00     0.687 A 
HETATM   17  N4  UNL     1      14.834  39.494 -12.248  1.00  0.00    -0.190 N 
HETATM   18  C12 UNL     1      14.038  40.045 -11.328  1.00  0.00     0.064 A 
ATOM     19  H4  UNL     1      15.031  40.035 -13.090  1.00  0.00     0.184 HD
HETATM   20  C13 UNL     1      13.495  41.315 -11.508  1.00  0.00     0.031 A 
HETATM   21  C24 UNL     1      13.776  39.321 -10.201  1.00  0.00     0.053 A 
HETATM   22  C14 UNL     1      12.702  41.789 -10.518  1.00  0.00     0.010 A 
HETATM   23  C15 UNL     1      12.429  41.065  -9.374  1.00  0.00    -0.044 A 
HETATM   24  C16 UNL     1      11.527  41.716  -8.390  1.00  0.00     0.049 C 
HETATM   25  C17 UNL     1      12.946  39.818  -9.166  1.00  0.00     0.022 A 
HETATM   26  C25 UNL     1      14.345  38.069 -10.080  1.00  0.00     0.128 A 
HETATM   27  N7  UNL     1      15.151  37.534 -11.032  1.00  0.00    -0.176 N 
ATOM     28  H7  UNL     1      15.557  36.606 -10.912  1.00  0.00     0.186 HD
BRANCH  25  29
HETATM   29  S1  UNL     1      12.710  38.788  -7.771  1.00  0.00    -0.128 SA
BRANCH  29  30
HETATM   30  C18 UNL     1      11.331  39.065  -6.706  1.00  0.00     0.081 C 
BRANCH  30  31
HETATM   31  C19 UNL     1      11.374  38.148  -5.476  1.00  0.00     0.038 C 
BRANCH  31  32
HETATM   32  C20 UNL     1      10.505  38.626  -4.381  1.00  0.00     0.233 C 
BRANCH  32  33
HETATM   33  N5  UNL     1      11.159  38.909  -3.144  1.00  0.00    -0.072 N 
ATOM     34  H52 UNL     1      12.095  38.505  -3.134  1.00  0.00     0.277 HD
ATOM     35  H51 UNL     1      11.398  39.899  -3.084  1.00  0.00     0.277 HD
BRANCH  33  36
HETATM   36  C21 UNL     1      10.422  38.499  -1.983  1.00  0.00     0.259 C 
BRANCH  36  37
HETATM   37  C22 UNL     1       9.620  37.275  -2.213  1.00  0.00    -0.010 C 
HETATM   38  C23 UNL     1       9.683  36.293  -1.333  1.00  0.00     0.008 C 
ENDBRANCH  36  37
ENDBRANCH  33  36
ENDBRANCH  32  33
ENDBRANCH  31  32
ENDBRANCH  30  31
ENDBRANCH  29  30
ENDBRANCH  25  29
BRANCH  26  39
HETATM   39  N6  UNL     1      14.108  37.368  -9.019  1.00  0.00    -0.384 N 
ATOM     40  H62 UNL     1      13.596  36.493  -9.127  1.00  0.00     0.157 HD
ATOM     41  H61 UNL     1      14.437  37.708  -8.115  1.00  0.00     0.157 HD
ENDBRANCH  26  39
ENDBRANCH   4  16
ENDBRANCH   3   4
TORSDOF 12
ENDMDL
MODEL 3
REMARK VINA RESULT: -7.825619821      3.822      7.026
REMARK  12 active torsions:
REMARK  status: ('A' for Active; 'I' for Inactive)
REMARK    1  A    between atoms: C3_3  and  N1_4 
REMARK    2  A    between atoms: N1_4  and  C4_5 
REMARK    3  A    between atoms: N1_4  and  C11_16 
REMARK    4  A    between atoms: C7_8  and  C8_9 
REMARK    5  A    between atoms: C17_24  and  S1_25 
REMARK    6  A    between atoms: S1_25  and  C18_26 
REMARK    7  A    between atoms: C18_26  and  C19_27 
REMARK    8  A    between atoms: C19_27  and  C20_28 
REMARK    9  A    between atoms: C20_28  and  N5_29 
REMARK   10  A    between atoms: N5_29  and  C21_32 
REMARK   11  A    between atoms: C21_32  and  C22_33 
REMARK   12  A    between atoms: C25_36  and  N6_37 
ROOT
HETATM    1  C1  UNL     1      15.896  44.155  -7.919  1.00  0.00     0.014 C 
HETATM    2  C2  UNL     1      14.903  43.776  -8.485  1.00  0.00    -0.097 C 
HETATM    3  C3  UNL     1      13.665  43.328  -9.180  1.00  0.00     0.240 C 
ENDROOT
BRANCH   3   4
HETATM    4  N1  UNL     1      13.646  41.905  -9.291  1.00  0.00    -0.172 N 
BRANCH   4   5
HETATM    5  C4  UNL     1      12.954  41.160  -8.298  1.00  0.00     0.052 A 
HETATM    6  C5  UNL     1      12.065  41.753  -7.427  1.00  0.00     0.031 A 
HETATM    7  C6  UNL     1      11.405  40.997  -6.462  1.00  0.00     0.017 A 
HETATM    8  C7  UNL     1      11.589  39.646  -6.312  1.00  0.00     0.005 A 
HETATM    9  C9  UNL     1      12.498  39.059  -7.206  1.00  0.00     0.017 A 
HETATM   10  C10 UNL     1      13.159  39.783  -8.166  1.00  0.00     0.031 A 
BRANCH   8  11
HETATM   11  C8  UNL     1      10.920  38.833  -5.319  1.00  0.00     0.120 C 
HETATM   12  N2  UNL     1      11.321  38.785  -4.120  1.00  0.00    -0.387 N 
ATOM     13  H22 UNL     1      12.136  39.333  -3.849  1.00  0.00     0.157 HD
ATOM     14  H21 UNL     1      10.850  38.212  -3.420  1.00  0.00     0.157 HD
HETATM   15  N3  UNL     1       9.791  38.074  -5.696  1.00  0.00    -0.082 NA
ENDBRANCH   8  11
ENDBRANCH   4   5
BRANCH   4  16
HETATM   16  C11 UNL     1      14.280  41.221 -10.343  1.00  0.00     0.687 A 
HETATM   17  N4  UNL     1      15.639  41.318 -10.419  1.00  0.00    -0.190 N 
HETATM   18  C12 UNL     1      16.390  40.730 -11.354  1.00  0.00     0.064 A 
ATOM     19  H4  UNL     1      16.115  41.880  -9.712  1.00  0.00     0.184 HD
HETATM   20  C13 UNL     1      17.775  40.877 -11.368  1.00  0.00     0.031 A 
HETATM   21  C24 UNL     1      15.752  39.981 -12.300  1.00  0.00     0.053 A 
HETATM   22  C14 UNL     1      18.448  40.243 -12.357  1.00  0.00     0.010 A 
HETATM   23  C15 UNL     1      17.815  39.482 -13.319  1.00  0.00    -0.044 A 
HETATM   24  C16 UNL     1      18.695  38.838 -14.325  1.00  0.00     0.049 C 
HETATM   25  C17 UNL     1      16.459  39.319 -13.335  1.00  0.00     0.022 A 
HETATM   26  C25 UNL     1      14.377  39.876 -12.234  1.00  0.00     0.128 A 
HETATM   27  N7  UNL     1      13.639  40.485 -11.271  1.00  0.00    -0.176 N 
ATOM     28  H7  UNL     1      12.624  40.388 -11.251  1.00  0.00     0.186 HD
BRANCH  25  29
HETATM   29  S1  UNL     1      15.510  38.406 -14.488  1.00  0.00    -0.128 SA
BRANCH  29  30
HETATM   30  C18 UNL     1      15.869  36.700 -14.755  1.00  0.00     0.081 C 
BRANCH  30  31
HETATM   31  C19 UNL     1      14.659  35.951 -15.328  1.00  0.00     0.038 C 
BRANCH  31  32
HETATM   32  C20 UNL     1      13.546  35.849 -14.361  1.00  0.00     0.233 C 
BRANCH  32  33
HETATM   33  N5  UNL     1      13.833  35.147 -13.152  1.00  0.00    -0.072 N 
ATOM     34  H52 UNL     1      13.416  34.217 -13.171  1.00  0.00     0.277 HD
ATOM     35  H51 UNL     1      14.820  34.894 -13.111  1.00  0.00     0.277 HD
BRANCH  33  36
HETATM   36  C21 UNL     1      13.445  35.848 -11.961  1.00  0.00     0.259 C 
BRANCH  36  37
HETATM   37  C22 UNL     1      14.593  36.172 -11.084  1.00  0.00    -0.010 C 
HETATM   38  C23 UNL     1      14.385  36.886  -9.992  1.00  0.00     0.008 C 
ENDBRANCH  36  37
ENDBRANCH  33  36
ENDBRANCH  32  33
ENDBRANCH  31  32
ENDBRANCH  30  31
ENDBRANCH  29  30
ENDBRANCH  25  29
BRANCH  26  39
HETATM   39  N6  UNL     1      13.755  39.169 -13.122  1.00  0.00    -0.384 N 
ATOM     40  H62 UNL     1      13.665  38.166 -12.959  1.00  0.00     0.157 HD
ATOM     41  H61 UNL     1      13.378  39.631 -13.949  1.00  0.00     0.157 HD
ENDBRANCH  26  39
ENDBRANCH   4  16
ENDBRANCH   3   4
TORSDOF 12
ENDMDL
MODEL 4
REMARK VINA RESULT: -7.810377197      5.847      8.556
REMARK  12 active torsions:
REMARK  status: ('A' for Active; 'I' for Inactive)
REMARK    1  A    between atoms: C3_3  and  N1_4 
REMARK    2  A    between atoms: N1_4  and  C4_5 
REMARK    3  A    between atoms: N1_4  and  C11_16 
REMARK    4  A    between atoms: C7_8  and  C8_9 
REMARK    5  A    between atoms: C17_24  and  S1_25 
REMARK    6  A    between atoms: S1_25  and  C18_26 
REMARK    7  A    between atoms: C18_26  and  C19_27 
REMARK    8  A    between atoms: C19_27  and  C20_28 
REMARK    9  A    between atoms: C20_28  and  N5_29 
REMARK   10  A    between atoms: N5_29  and  C21_32 
REMARK   11  A    between atoms: C21_32  and  C22_33 
REMARK   12  A    between atoms: C25_36  and  N6_37 
ROOT
HETATM    1  C1  UNL     1      11.278  43.011  -8.139  1.00  0.00     0.014 C 
HETATM    2  C2  UNL     1      11.848  43.295  -9.160  1.00  0.00    -0.097 C 
HETATM    3  C3  UNL     1      12.532  43.656 -10.433  1.00  0.00     0.240 C 
ENDROOT
BRANCH   3   4
HETATM    4  N1  UNL     1      13.762  42.943 -10.553  1.00  0.00    -0.172 N 
BRANCH   4   5
HETATM    5  C4  UNL     1      14.942  43.540 -10.032  1.00  0.00     0.052 A 
HETATM    6  C5  UNL     1      15.679  44.453 -10.755  1.00  0.00     0.031 A 
HETATM    7  C6  UNL     1      16.833  45.020 -10.220  1.00  0.00     0.017 A 
HETATM    8  C7  UNL     1      17.305  44.717  -8.968  1.00  0.00     0.005 A 
HETATM    9  C9  UNL     1      16.542  43.785  -8.246  1.00  0.00     0.017 A 
HETATM   10  C10 UNL     1      15.403  43.215  -8.753  1.00  0.00     0.031 A 
BRANCH   8  11
HETATM   11  C8  UNL     1      18.500  45.286  -8.383  1.00  0.00     0.120 C 
HETATM   12  N2  UNL     1      19.634  45.151  -8.925  1.00  0.00    -0.387 N 
ATOM     13  H22 UNL     1      19.707  44.627  -9.797  1.00  0.00     0.157 HD
ATOM     14  H21 UNL     1      20.477  45.552  -8.513  1.00  0.00     0.157 HD
HETATM   15  N3  UNL     1      18.398  46.012  -7.176  1.00  0.00    -0.082 NA
ENDBRANCH   8  11
ENDBRANCH   4   5
BRANCH   4  16
HETATM   16  C11 UNL     1      13.845  41.678 -11.162  1.00  0.00     0.687 A 
HETATM   17  N4  UNL     1      13.531  40.595 -10.393  1.00  0.00    -0.190 N 
HETATM   18  C12 UNL     1      13.559  39.329 -10.819  1.00  0.00     0.064 A 
ATOM     19  H4  UNL     1      13.255  40.764  -9.425  1.00  0.00     0.184 HD
HETATM   20  C13 UNL     1      13.225  38.274  -9.973  1.00  0.00     0.031 A 
HETATM   21  C24 UNL     1      13.928  39.105 -12.113  1.00  0.00     0.053 A 
HETATM   22  C14 UNL     1      13.285  37.027 -10.497  1.00  0.00     0.010 A 
HETATM   23  C15 UNL     1      13.656  36.787 -11.804  1.00  0.00    -0.044 A 
HETATM   24  C16 UNL     1      13.656  35.365 -12.232  1.00  0.00     0.049 C 
HETATM   25  C17 UNL     1      13.991  37.798 -12.659  1.00  0.00     0.022 A 
HETATM   26  C25 UNL     1      14.249  40.192 -12.900  1.00  0.00     0.128 A 
HETATM   27  N7  UNL     1      14.212  41.468 -12.441  1.00  0.00    -0.176 N 
ATOM     28  H7  UNL     1      14.457  42.250 -13.048  1.00  0.00     0.186 HD
BRANCH  25  29
HETATM   29  S1  UNL     1      14.496  37.657 -14.329  1.00  0.00    -0.128 SA
BRANCH  29  30
HETATM   30  C18 UNL     1      15.935  36.718 -14.727  1.00  0.00     0.081 C 
BRANCH  30  31
HETATM   31  C19 UNL     1      16.994  36.810 -13.620  1.00  0.00     0.038 C 
BRANCH  31  32
HETATM   32  C20 UNL     1      17.676  38.121 -13.596  1.00  0.00     0.233 C 
BRANCH  32  33
HETATM   33  N5  UNL     1      17.554  38.865 -12.384  1.00  0.00    -0.072 N 
ATOM     34  H52 UNL     1      16.608  38.788 -12.011  1.00  0.00     0.277 HD
ATOM     35  H51 UNL     1      18.073  38.413 -11.632  1.00  0.00     0.277 HD
BRANCH  33  36
HETATM   36  C21 UNL     1      17.937  40.244 -12.501  1.00  0.00     0.259 C 
BRANCH  36  37
HETATM   37  C22 UNL     1      17.689  41.017 -11.263  1.00  0.00    -0.010 C 
HETATM   38  C23 UNL     1      18.637  41.813 -10.803  1.00  0.00     0.008 C 
ENDBRANCH  36  37
ENDBRANCH  33  36
ENDBRANCH  32  33
ENDBRANCH  31  32
ENDBRANCH  30  31
ENDBRANCH  29  30
ENDBRANCH  25  29
BRANCH  26  39
HETATM   39  N6  UNL     1      14.602  39.998 -14.130  1.00  0.00    -0.384 N 
ATOM     40  H62 UNL     1      13.909  39.614 -14.773  1.00  0.00     0.157 HD
ATOM     41  H61 UNL     1      15.552  40.232 -14.417  1.00  0.00     0.157 HD
ENDBRANCH  26  39
ENDBRANCH   4  16
ENDBRANCH   3   4
TORSDOF 12
ENDMDL
MODEL 5
REMARK VINA RESULT: -7.605247344      5.337     11.331
REMARK  12 active torsions:
REMARK  status: ('A' for Active; 'I' for Inactive)
REMARK    1  A    between atoms: C3_3  and  N1_4 
REMARK    2  A    between atoms: N1_4  and  C4_5 
REMARK    3  A    between atoms: N1_4  and  C11_16 
REMARK    4  A    between atoms: C7_8  and  C8_9 
REMARK    5  A    between atoms: C17_24  and  S1_25 
REMARK    6  A    between atoms: S1_25  and  C18_26 
REMARK    7  A    between atoms: C18_26  and  C19_27 
REMARK    8  A    between atoms: C19_27  and  C20_28 
REMARK    9  A    between atoms: C20_28  and  N5_29 
REMARK   10  A    between atoms: N5_29  and  C21_32 
REMARK   11  A    between atoms: C21_32  and  C22_33 
REMARK   12  A    between atoms: C25_36  and  N6_37 
ROOT
HETATM    1  C1  UNL     1      18.259  40.688 -12.968  1.00  0.00     0.014 C 
HETATM    2  C2  UNL     1      17.948  39.527 -13.033  1.00  0.00    -0.097 C 
HETATM    3  C3  UNL     1      17.585  38.085 -13.122  1.00  0.00     0.240 C 
ENDROOT
BRANCH   3   4
HETATM    4  N1  UNL     1      16.167  37.931 -13.148  1.00  0.00    -0.172 N 
BRANCH   4   5
HETATM    5  C4  UNL     1      15.595  37.117 -14.163  1.00  0.00     0.052 A 
HETATM    6  C5  UNL     1      16.288  36.777 -15.304  1.00  0.00     0.031 A 
HETATM    7  C6  UNL     1      15.700  35.979 -16.282  1.00  0.00     0.017 A 
HETATM    8  C7  UNL     1      14.422  35.491 -16.183  1.00  0.00     0.005 A 
HETATM    9  C9  UNL     1      13.731  35.847 -15.014  1.00  0.00     0.017 A 
HETATM   10  C10 UNL     1      14.290  36.630 -14.037  1.00  0.00     0.031 A 
BRANCH   8  11
HETATM   11  C8  UNL     1      13.782  34.662 -17.181  1.00  0.00     0.120 C 
HETATM   12  N2  UNL     1      13.540  33.438 -16.974  1.00  0.00    -0.387 N 
ATOM     13  H22 UNL     1      13.807  33.026 -16.080  1.00  0.00     0.157 HD
ATOM     14  H21 UNL     1      13.089  32.854 -17.677  1.00  0.00     0.157 HD
HETATM   15  N3  UNL     1      13.413  35.234 -18.418  1.00  0.00    -0.082 NA
ENDBRANCH   8  11
ENDBRANCH   4   5
BRANCH   4  16
HETATM   16  C11 UNL     1      15.323  38.551 -12.209  1.00  0.00     0.687 A 
HETATM   17  N4  UNL     1      15.035  37.851 -11.073  1.00  0.00    -0.190 N 
HETATM   18  C12 UNL     1      14.253  38.296 -10.087  1.00  0.00     0.064 A 
ATOM     19  H4  UNL     1      15.445  36.922 -10.972  1.00  0.00     0.184 HD
HETATM   20  C13 UNL     1      14.003  37.522  -8.956  1.00  0.00     0.031 A 
HETATM   21  C24 UNL     1      13.705  39.538 -10.224  1.00  0.00     0.053 A 
HETATM   22  C14 UNL     1      13.196  38.060  -8.011  1.00  0.00     0.010 A 
HETATM   23  C15 UNL     1      12.636  39.315  -8.139  1.00  0.00    -0.044 A 
HETATM   24  C16 UNL     1      11.788  39.769  -7.008  1.00  0.00     0.049 C 
HETATM   25  C17 UNL     1      12.860  40.100  -9.234  1.00  0.00     0.022 A 
HETATM   26  C25 UNL     1      13.989  40.256 -11.369  1.00  0.00     0.128 A 
HETATM   27  N7  UNL     1      14.787  39.778 -12.357  1.00  0.00    -0.176 N 
ATOM     28  H7  UNL     1      14.977  40.333 -13.190  1.00  0.00     0.186 HD
BRANCH  25  29
HETATM   29  S1  UNL     1      12.214  41.694  -9.551  1.00  0.00    -0.128 SA
BRANCH  29  30
HETATM   30  C18 UNL     1      12.512  43.000  -8.403  1.00  0.00     0.081 C 
BRANCH  30  31
HETATM   31  C19 UNL     1      13.817  42.780  -7.626  1.00  0.00     0.038 C 
BRANCH  31  32
HETATM   32  C20 UNL     1      14.369  44.037  -7.078  1.00  0.00     0.233 C 
BRANCH  32  33
HETATM   33  N5  UNL     1      15.740  44.297  -7.374  1.00  0.00    -0.072 N 
ATOM     34  H52 UNL     1      16.082  45.085  -6.825  1.00  0.00     0.277 HD
ATOM     35  H51 UNL     1      16.334  43.557  -7.002  1.00  0.00     0.277 HD
BRANCH  33  36
HETATM   36  C21 UNL     1      16.010  44.503  -8.769  1.00  0.00     0.259 C 
BRANCH  36  37
HETATM   37  C22 UNL     1      17.067  43.607  -9.290  1.00  0.00    -0.010 C 
HETATM   38  C23 UNL     1      16.725  42.596 -10.068  1.00  0.00     0.008 C 
ENDBRANCH  36  37
ENDBRANCH  33  36
ENDBRANCH  32  33
ENDBRANCH  31  32
ENDBRANCH  30  31
ENDBRANCH  29  30
ENDBRANCH  25  29
BRANCH  26  39
HETATM   39  N6  UNL     1      13.477  41.435 -11.517  1.00  0.00    -0.384 N 
ATOM     40  H62 UNL     1      14.115  42.228 -11.591  1.00  0.00     0.157 HD
ATOM     41  H61 UNL     1      12.463  41.535 -11.555  1.00  0.00     0.157 HD
ENDBRANCH  26  39
ENDBRANCH   4  16
ENDBRANCH   3   4
TORSDOF 12
ENDMDL
