MODEL 1
REMARK VINA RESULT: -8.673459300      0.000      0.000
REMARK  14 active torsions:
REMARK  status: ('A' for Active; 'I' for Inactive)
REMARK    1  A    between atoms: C4_4  and  C5_5 
REMARK    2  A    between atoms: C7_11  and  C8_12 
REMARK    3  A    between atoms: C10_16  and  S1_17 
REMARK    4  A    between atoms: S1_17  and  C11_18 
REMARK    5  A    between atoms: C11_18  and  C12_19 
REMARK    6  A    between atoms: C12_19  and  C13_20 
REMARK    7  A    between atoms: C13_20  and  C14_21 
REMARK    8  A    between atoms: C14_21  and  C15_22 
REMARK    9  A    between atoms: C15_22  and  N4_23 
REMARK   10  A    between atoms: C18_26  and  N5_27 
REMARK   11  A    between atoms: N5_27  and  C19_29 
REMARK   12  A    between atoms: C19_29  and  O1_30 
REMARK   13  A    between atoms: C19_29  and  N6_32 
REMARK   14  A    between atoms: N6_32  and  O2_34 
ROOT
HETATM    1  S1  UNL     1      10.518  39.473  -5.585  1.00  0.00    -0.094 SA
ENDROOT
BRANCH   1   2
HETATM    2  C10 UNL     1      11.729  38.765  -6.611  1.00  0.00     0.144 A 
HETATM    3  N3  UNL     1      12.748  37.963  -6.324  1.00  0.00    -0.344 N 
HETATM    4  C9  UNL     1      13.415  37.678  -7.466  1.00  0.00     0.120 A 
ATOM      5  H3  UNL     1      12.988  37.619  -5.395  1.00  0.00     0.167 HD
HETATM    6  C8  UNL     1      12.798  38.319  -8.512  1.00  0.00     0.060 A 
HETATM    7  N7  UNL     1      11.775  38.975  -7.967  1.00  0.00    -0.335 N 
ATOM      8  H7  UNL     1      11.115  39.554  -8.487  1.00  0.00     0.168 HD
BRANCH   6   9
HETATM    9  C7  UNL     1      13.206  38.270  -9.911  1.00  0.00    -0.007 A 
HETATM   10  C6  UNL     1      13.270  37.072 -10.589  1.00  0.00     0.028 A 
HETATM   11  C4  UNL     1      13.661  37.075 -11.908  1.00  0.00     0.006 A 
HETATM   12  C3  UNL     1      13.978  38.295 -12.514  1.00  0.00     0.021 A 
HETATM   13  C2  UNL     1      13.915  39.479 -11.850  1.00  0.00    -0.060 A 
HETATM   14  C1  UNL     1      14.250  40.803 -12.467  1.00  0.00     0.048 C 
HETATM   15  C21 UNL     1      13.526  39.458 -10.538  1.00  0.00     0.020 A 
BRANCH  11  16
HETATM   16  C5  UNL     1      13.757  35.863 -12.690  1.00  0.00     0.120 C 
HETATM   17  N1  UNL     1      14.635  35.732 -13.606  1.00  0.00    -0.387 N 
ATOM     18  H12 UNL     1      15.279  36.503 -13.785  1.00  0.00     0.157 HD
ATOM     19  H11 UNL     1      14.703  34.877 -14.157  1.00  0.00     0.157 HD
HETATM   20  N2  UNL     1      12.861  34.792 -12.441  1.00  0.00    -0.082 NA
ENDBRANCH  11  16
ENDBRANCH   6   9
ENDBRANCH   1   2
BRANCH   1  21
HETATM   21  C11 UNL     1      10.060  38.726  -4.079  1.00  0.00     0.082 C 
BRANCH  21  22
HETATM   22  C12 UNL     1       8.765  39.095  -3.500  1.00  0.00     0.010 C 
BRANCH  22  23
HETATM   23  C13 UNL     1       8.636  40.504  -3.013  1.00  0.00     0.002 C 
BRANCH  23  24
HETATM   24  C14 UNL     1       7.498  41.114  -3.851  1.00  0.00     0.020 C 
BRANCH  24  25
HETATM   25  C15 UNL     1       6.884  42.296  -3.168  1.00  0.00     0.126 C 
BRANCH  25  26
HETATM   26  N4  UNL     1       5.701  42.683  -3.905  1.00  0.00    -0.350 N 
HETATM   27  C16 UNL     1       5.623  43.527  -5.082  1.00  0.00     0.128 C 
HETATM   28  C17 UNL     1       4.392  44.351  -4.811  1.00  0.00     0.054 C 
HETATM   29  C18 UNL     1       3.440  43.367  -4.180  1.00  0.00     0.179 C 
HETATM   30  C20 UNL     1       4.353  42.319  -3.641  1.00  0.00     0.242 C 
HETATM   31  O3  UNL     1       3.990  41.283  -3.049  1.00  0.00    -0.271 OA
BRANCH  29  32
HETATM   32  N5  UNL     1       2.511  42.805  -5.110  1.00  0.00    -0.342 N 
ATOM     33  H5  UNL     1       2.772  42.710  -6.092  1.00  0.00     0.164 HD
BRANCH  32  34
HETATM   34  C19 UNL     1       1.239  42.383  -4.681  1.00  0.00     0.237 C 
BRANCH  34  35
HETATM   35  O1  UNL     1       0.133  43.171  -4.891  1.00  0.00    -0.331 OA
ATOM     36  H1  UNL     1      -0.491  43.324  -4.191  1.00  0.00     0.221 HD
ENDBRANCH  34  35
BRANCH  34  37
HETATM   37  N6  UNL     1       1.116  41.252  -4.089  1.00  0.00    -0.233 N 
ATOM     38  H6  UNL     1       1.097  40.406  -4.658  1.00  0.00     0.198 HD
BRANCH  37  39
HETATM   39  O2  UNL     1       1.010  41.126  -2.724  1.00  0.00    -0.287 OA
ATOM     40  H2  UNL     1       0.323  40.624  -2.301  1.00  0.00     0.244 HD
ENDBRANCH  37  39
ENDBRANCH  34  37
ENDBRANCH  32  34
ENDBRANCH  29  32
ENDBRANCH  25  26
ENDBRANCH  24  25
ENDBRANCH  23  24
ENDBRANCH  22  23
ENDBRANCH  21  22
ENDBRANCH   1  21
TORSDOF 14
ENDMDL
MODEL 2
REMARK VINA RESULT: -8.364431886      3.328      4.109
REMARK  14 active torsions:
REMARK  status: ('A' for Active; 'I' for Inactive)
REMARK    1  A    between atoms: C4_4  and  C5_5 
REMARK    2  A    between atoms: C7_11  and  C8_12 
REMARK    3  A    between atoms: C10_16  and  S1_17 
REMARK    4  A    between atoms: S1_17  and  C11_18 
REMARK    5  A    between atoms: C11_18  and  C12_19 
REMARK    6  A    between atoms: C12_19  and  C13_20 
REMARK    7  A    between atoms: C13_20  and  C14_21 
REMARK    8  A    between atoms: C14_21  and  C15_22 
REMARK    9  A    between atoms: C15_22  and  N4_23 
REMARK   10  A    between atoms: C18_26  and  N5_27 
REMARK   11  A    between atoms: N5_27  and  C19_29 
REMARK   12  A    between atoms: C19_29  and  O1_30 
REMARK   13  A    between atoms: C19_29  and  N6_32 
REMARK   14  A    between atoms: N6_32  and  O2_34 
ROOT
HETATM    1  S1  UNL     1      10.305  38.458  -4.855  1.00  0.00    -0.094 SA
ENDROOT
BRANCH   1   2
HETATM    2  C10 UNL     1      11.320  39.157  -6.081  1.00  0.00     0.144 A 
HETATM    3  N3  UNL     1      11.936  40.332  -6.130  1.00  0.00    -0.344 N 
HETATM    4  C9  UNL     1      12.614  40.423  -7.298  1.00  0.00     0.120 A 
ATOM      5  H3  UNL     1      11.903  41.050  -5.406  1.00  0.00     0.167 HD
HETATM    6  C8  UNL     1      12.423  39.266  -8.012  1.00  0.00     0.060 A 
HETATM    7  N7  UNL     1      11.632  38.510  -7.251  1.00  0.00    -0.335 N 
ATOM      8  H7  UNL     1      11.303  37.578  -7.504  1.00  0.00     0.168 HD
BRANCH   6   9
HETATM    9  C7  UNL     1      12.983  38.963  -9.323  1.00  0.00    -0.007 A 
HETATM   10  C6  UNL     1      13.130  37.661  -9.748  1.00  0.00     0.028 A 
HETATM   11  C4  UNL     1      13.663  37.425 -10.994  1.00  0.00     0.006 A 
HETATM   12  C3  UNL     1      14.036  38.516 -11.786  1.00  0.00     0.021 A 
HETATM   13  C2  UNL     1      13.892  39.802 -11.372  1.00  0.00    -0.060 A 
HETATM   14  C1  UNL     1      14.282  40.994 -12.192  1.00  0.00     0.048 C 
HETATM   15  C21 UNL     1      13.361  40.020 -10.129  1.00  0.00     0.020 A 
BRANCH  11  16
HETATM   16  C5  UNL     1      13.854  36.089 -11.514  1.00  0.00     0.120 C 
HETATM   17  N1  UNL     1      14.984  35.503 -11.440  1.00  0.00    -0.387 N 
ATOM     18  H12 UNL     1      15.765  35.993 -11.003  1.00  0.00     0.157 HD
ATOM     19  H11 UNL     1      15.119  34.561 -11.806  1.00  0.00     0.157 HD
HETATM   20  N2  UNL     1      12.768  35.408 -12.121  1.00  0.00    -0.082 NA
ENDBRANCH  11  16
ENDBRANCH   6   9
ENDBRANCH   1   2
BRANCH   1  21
HETATM   21  C11 UNL     1      10.526  38.843  -3.170  1.00  0.00     0.082 C 
BRANCH  21  22
HETATM   22  C12 UNL     1       9.382  39.396  -2.441  1.00  0.00     0.010 C 
BRANCH  22  23
HETATM   23  C13 UNL     1       9.700  40.378  -1.357  1.00  0.00     0.002 C 
BRANCH  23  24
HETATM   24  C14 UNL     1       8.961  41.668  -1.757  1.00  0.00     0.020 C 
BRANCH  24  25
HETATM   25  C15 UNL     1       7.845  41.389  -2.716  1.00  0.00     0.126 C 
BRANCH  25  26
HETATM   26  N4  UNL     1       7.774  42.483  -3.660  1.00  0.00    -0.350 N 
HETATM   27  C16 UNL     1       7.143  43.776  -3.477  1.00  0.00     0.128 C 
HETATM   28  C17 UNL     1       6.500  44.017  -4.817  1.00  0.00     0.054 C 
HETATM   29  C18 UNL     1       7.519  43.494  -5.797  1.00  0.00     0.179 C 
HETATM   30  C20 UNL     1       8.309  42.534  -4.975  1.00  0.00     0.242 C 
HETATM   31  O3  UNL     1       9.288  41.876  -5.380  1.00  0.00    -0.271 OA
BRANCH  29  32
HETATM   32  N5  UNL     1       8.360  44.517  -6.336  1.00  0.00    -0.342 N 
ATOM     33  H5  UNL     1       8.667  45.287  -5.741  1.00  0.00     0.164 HD
BRANCH  32  34
HETATM   34  C19 UNL     1       8.767  44.469  -7.683  1.00  0.00     0.237 C 
BRANCH  34  35
HETATM   35  O1  UNL     1       8.072  45.157  -8.648  1.00  0.00    -0.331 OA
ATOM     36  H1  UNL     1       7.176  44.923  -8.858  1.00  0.00     0.221 HD
ENDBRANCH  34  35
BRANCH  34  37
HETATM   37  N6  UNL     1       9.796  43.776  -8.006  1.00  0.00    -0.233 N 
ATOM     38  H6  UNL     1       9.808  43.320  -8.919  1.00  0.00     0.198 HD
BRANCH  37  39
HETATM   39  O2  UNL     1      10.885  43.617  -7.181  1.00  0.00    -0.287 OA
ATOM     40  H2  UNL     1      11.649  44.181  -7.215  1.00  0.00     0.244 HD
ENDBRANCH  37  39
ENDBRANCH  34  37
ENDBRANCH  32  34
ENDBRANCH  29  32
ENDBRANCH  25  26
ENDBRANCH  24  25
ENDBRANCH  23  24
ENDBRANCH  22  23
ENDBRANCH  21  22
ENDBRANCH   1  21
TORSDOF 14
ENDMDL
MODEL 3
REMARK VINA RESULT: -8.332760860      6.078     12.318
REMARK  14 active torsions:
REMARK  status: ('A' for Active; 'I' for Inactive)
REMARK    1  A    between atoms: C4_4  and  C5_5 
REMARK    2  A    between atoms: C7_11  and  C8_12 
REMARK    3  A    between atoms: C10_16  and  S1_17 
REMARK    4  A    between atoms: S1_17  and  C11_18 
REMARK    5  A    between atoms: C11_18  and  C12_19 
REMARK    6  A    between atoms: C12_19  and  C13_20 
REMARK    7  A    between atoms: C13_20  and  C14_21 
REMARK    8  A    between atoms: C14_21  and  C15_22 
REMARK    9  A    between atoms: C15_22  and  N4_23 
REMARK   10  A    between atoms: C18_26  and  N5_27 
REMARK   11  A    between atoms: N5_27  and  C19_29 
REMARK   12  A    between atoms: C19_29  and  O1_30 
REMARK   13  A    between atoms: C19_29  and  N6_32 
REMARK   14  A    between atoms: N6_32  and  O2_34 
ROOT
HETATM    1  S1  UNL     1      13.123  41.373  -8.418  1.00  0.00    -0.094 SA
ENDROOT
BRANCH   1   2
HETATM    2  C10 UNL     1      12.262  40.182  -7.491  1.00  0.00     0.144 A 
HETATM    3  N3  UNL     1      12.113  38.876  -7.681  1.00  0.00    -0.344 N 
HETATM    4  C9  UNL     1      11.349  38.372  -6.685  1.00  0.00     0.120 A 
ATOM      5  H3  UNL     1      12.510  38.340  -8.454  1.00  0.00     0.167 HD
HETATM    6  C8  UNL     1      11.004  39.392  -5.832  1.00  0.00     0.060 A 
HETATM    7  N7  UNL     1      11.570  40.484  -6.344  1.00  0.00    -0.335 N 
ATOM      8  H7  UNL     1      11.500  41.417  -5.938  1.00  0.00     0.168 HD
BRANCH   6   9
HETATM    9  C7  UNL     1      10.186  39.269  -4.632  1.00  0.00    -0.007 A 
HETATM   10  C6  UNL     1      10.259  38.146  -3.837  1.00  0.00     0.028 A 
HETATM   11  C4  UNL     1       9.468  38.074  -2.714  1.00  0.00     0.006 A 
HETATM   12  C3  UNL     1       8.619  39.145  -2.418  1.00  0.00     0.021 A 
HETATM   13  C2  UNL     1       8.544  40.255  -3.197  1.00  0.00    -0.060 A 
HETATM   14  C1  UNL     1       7.645  41.419  -2.913  1.00  0.00     0.048 C 
HETATM   15  C21 UNL     1       9.337  40.310  -4.312  1.00  0.00     0.020 A 
BRANCH  11  16
HETATM   16  C5  UNL     1       9.482  36.930  -1.828  1.00  0.00     0.120 C 
HETATM   17  N1  UNL     1      10.563  36.305  -1.570  1.00  0.00    -0.387 N 
ATOM     18  H12 UNL     1      11.432  36.623  -2.000  1.00  0.00     0.157 HD
ATOM     19  H11 UNL     1      10.573  35.499  -0.945  1.00  0.00     0.157 HD
HETATM   20  N2  UNL     1       8.274  36.489  -1.231  1.00  0.00    -0.082 NA
ENDBRANCH  11  16
ENDBRANCH   6   9
ENDBRANCH   1   2
BRANCH   1  21
HETATM   21  C11 UNL     1      13.570  41.079 -10.076  1.00  0.00     0.082 C 
BRANCH  21  22
HETATM   22  C12 UNL     1      14.350  39.875 -10.370  1.00  0.00     0.010 C 
BRANCH  22  23
HETATM   23  C13 UNL     1      13.852  39.022 -11.495  1.00  0.00     0.002 C 
BRANCH  23  24
HETATM   24  C14 UNL     1      13.363  37.724 -10.826  1.00  0.00     0.020 C 
BRANCH  24  25
HETATM   25  C15 UNL     1      14.400  36.646 -10.892  1.00  0.00     0.126 C 
BRANCH  25  26
HETATM   26  N4  UNL     1      14.706  36.396 -12.284  1.00  0.00    -0.350 N 
HETATM   27  C16 UNL     1      15.960  36.626 -12.975  1.00  0.00     0.128 C 
HETATM   28  C17 UNL     1      15.505  37.169 -14.304  1.00  0.00     0.054 C 
HETATM   29  C18 UNL     1      14.286  36.342 -14.624  1.00  0.00     0.179 C 
HETATM   30  C20 UNL     1      13.845  35.866 -13.283  1.00  0.00     0.242 C 
HETATM   31  O3  UNL     1      12.870  35.118 -13.069  1.00  0.00    -0.271 OA
BRANCH  29  32
HETATM   32  N5  UNL     1      14.564  35.240 -15.492  1.00  0.00    -0.342 N 
ATOM     33  H5  UNL     1      15.428  34.710 -15.377  1.00  0.00     0.164 HD
BRANCH  32  34
HETATM   34  C19 UNL     1      13.654  34.883 -16.504  1.00  0.00     0.237 C 
BRANCH  34  35
HETATM   35  O1  UNL     1      12.849  35.832 -17.088  1.00  0.00    -0.331 OA
ATOM     36  H1  UNL     1      12.537  35.720 -17.978  1.00  0.00     0.221 HD
ENDBRANCH  34  35
BRANCH  34  37
HETATM   37  N6  UNL     1      13.579  33.660 -16.882  1.00  0.00    -0.233 N 
ATOM     38  H6  UNL     1      12.668  33.201 -16.865  1.00  0.00     0.198 HD
BRANCH  37  39
HETATM   39  O2  UNL     1      14.668  32.938 -17.310  1.00  0.00    -0.287 OA
ATOM     40  H2  UNL     1      14.875  32.069 -16.987  1.00  0.00     0.244 HD
ENDBRANCH  37  39
ENDBRANCH  34  37
ENDBRANCH  32  34
ENDBRANCH  29  32
ENDBRANCH  25  26
ENDBRANCH  24  25
ENDBRANCH  23  24
ENDBRANCH  22  23
ENDBRANCH  21  22
ENDBRANCH   1  21
TORSDOF 14
ENDMDL
MODEL 4
REMARK VINA RESULT: -8.231274017      1.412      1.590
REMARK  14 active torsions:
REMARK  status: ('A' for Active; 'I' for Inactive)
REMARK    1  A    between atoms: C4_4  and  C5_5 
REMARK    2  A    between atoms: C7_11  and  C8_12 
REMARK    3  A    between atoms: C10_16  and  S1_17 
REMARK    4  A    between atoms: S1_17  and  C11_18 
REMARK    5  A    between atoms: C11_18  and  C12_19 
REMARK    6  A    between atoms: C12_19  and  C13_20 
REMARK    7  A    between atoms: C13_20  and  C14_21 
REMARK    8  A    between atoms: C14_21  and  C15_22 
REMARK    9  A    between atoms: C15_22  and  N4_23 
REMARK   10  A    between atoms: C18_26  and  N5_27 
REMARK   11  A    between atoms: N5_27  and  C19_29 
REMARK   12  A    between atoms: C19_29  and  O1_30 
REMARK   13  A    between atoms: C19_29  and  N6_32 
REMARK   14  A    between atoms: N6_32  and  O2_34 
ROOT
HETATM    1  S1  UNL     1      10.341  38.370  -4.907  1.00  0.00    -0.094 SA
ENDROOT
BRANCH   1   2
HETATM    2  C10 UNL     1      11.346  39.080  -6.133  1.00  0.00     0.144 A 
HETATM    3  N3  UNL     1      11.950  40.262  -6.183  1.00  0.00    -0.344 N 
HETATM    4  C9  UNL     1      12.624  40.361  -7.352  1.00  0.00     0.120 A 
ATOM      5  H3  UNL     1      11.911  40.978  -5.457  1.00  0.00     0.167 HD
HETATM    6  C8  UNL     1      12.443  39.203  -8.067  1.00  0.00     0.060 A 
HETATM    7  N7  UNL     1      11.661  38.438  -7.306  1.00  0.00    -0.335 N 
ATOM      8  H7  UNL     1      11.341  37.504  -7.559  1.00  0.00     0.168 HD
BRANCH   6   9
HETATM    9  C7  UNL     1      13.002  38.908  -9.380  1.00  0.00    -0.007 A 
HETATM   10  C6  UNL     1      13.155  37.608  -9.811  1.00  0.00     0.028 A 
HETATM   11  C4  UNL     1      13.687  37.379 -11.058  1.00  0.00     0.006 A 
HETATM   12  C3  UNL     1      14.054  38.474 -11.846  1.00  0.00     0.021 A 
HETATM   13  C2  UNL     1      13.905  39.758 -11.427  1.00  0.00    -0.060 A 
HETATM   14  C1  UNL     1      14.290  40.955 -12.242  1.00  0.00     0.048 C 
HETATM   15  C21 UNL     1      13.375  39.969 -10.183  1.00  0.00     0.020 A 
BRANCH  11  16
HETATM   16  C5  UNL     1      13.883  36.046 -11.584  1.00  0.00     0.120 C 
HETATM   17  N1  UNL     1      15.024  35.478 -11.543  1.00  0.00    -0.387 N 
ATOM     18  H12 UNL     1      15.810  35.980 -11.130  1.00  0.00     0.157 HD
ATOM     19  H11 UNL     1      15.162  34.538 -11.914  1.00  0.00     0.157 HD
HETATM   20  N2  UNL     1      12.790  35.348 -12.158  1.00  0.00    -0.082 NA
ENDBRANCH  11  16
ENDBRANCH   6   9
ENDBRANCH   1   2
BRANCH   1  21
HETATM   21  C11 UNL     1       9.837  39.281  -3.510  1.00  0.00     0.082 C 
BRANCH  21  22
HETATM   22  C12 UNL     1       8.489  39.854  -3.518  1.00  0.00     0.010 C 
BRANCH  22  23
HETATM   23  C13 UNL     1       8.373  41.280  -3.080  1.00  0.00     0.002 C 
BRANCH  23  24
HETATM   24  C14 UNL     1       8.341  42.098  -4.383  1.00  0.00     0.020 C 
BRANCH  24  25
HETATM   25  C15 UNL     1       7.844  43.490  -4.148  1.00  0.00     0.126 C 
BRANCH  25  26
HETATM   26  N4  UNL     1       6.398  43.454  -4.103  1.00  0.00    -0.350 N 
HETATM   27  C16 UNL     1       5.541  43.582  -2.941  1.00  0.00     0.128 C 
HETATM   28  C17 UNL     1       4.469  42.560  -3.213  1.00  0.00     0.054 C 
HETATM   29  C18 UNL     1       4.226  42.690  -4.695  1.00  0.00     0.179 C 
HETATM   30  C20 UNL     1       5.498  43.289  -5.190  1.00  0.00     0.242 C 
HETATM   31  O3  UNL     1       5.736  43.596  -6.374  1.00  0.00    -0.271 OA
BRANCH  29  32
HETATM   32  N5  UNL     1       3.110  43.526  -5.013  1.00  0.00    -0.342 N 
ATOM     33  H5  UNL     1       3.248  44.360  -5.584  1.00  0.00     0.164 HD
BRANCH  32  34
HETATM   34  C19 UNL     1       1.823  43.207  -4.541  1.00  0.00     0.237 C 
BRANCH  34  35
HETATM   35  O1  UNL     1       1.176  44.037  -3.658  1.00  0.00    -0.331 OA
ATOM     36  H1  UNL     1       0.892  43.714  -2.811  1.00  0.00     0.221 HD
ENDBRANCH  34  35
BRANCH  34  37
HETATM   37  N6  UNL     1       1.253  42.131  -4.944  1.00  0.00    -0.233 N 
ATOM     38  H6  UNL     1       0.806  42.132  -5.860  1.00  0.00     0.198 HD
BRANCH  37  39
HETATM   39  O2  UNL     1       1.217  40.976  -4.199  1.00  0.00    -0.287 OA
ATOM     40  H2  UNL     1       0.876  40.154  -4.532  1.00  0.00     0.244 HD
ENDBRANCH  37  39
ENDBRANCH  34  37
ENDBRANCH  32  34
ENDBRANCH  29  32
ENDBRANCH  25  26
ENDBRANCH  24  25
ENDBRANCH  23  24
ENDBRANCH  22  23
ENDBRANCH  21  22
ENDBRANCH   1  21
TORSDOF 14
ENDMDL
MODEL 5
REMARK VINA RESULT: -8.154166038      5.671     12.717
REMARK  14 active torsions:
REMARK  status: ('A' for Active; 'I' for Inactive)
REMARK    1  A    between atoms: C4_4  and  C5_5 
REMARK    2  A    between atoms: C7_11  and  C8_12 
REMARK    3  A    between atoms: C10_16  and  S1_17 
REMARK    4  A    between atoms: S1_17  and  C11_18 
REMARK    5  A    between atoms: C11_18  and  C12_19 
REMARK    6  A    between atoms: C12_19  and  C13_20 
REMARK    7  A    between atoms: C13_20  and  C14_21 
REMARK    8  A    between atoms: C14_21  and  C15_22 
REMARK    9  A    between atoms: C15_22  and  N4_23 
REMARK   10  A    between atoms: C18_26  and  N5_27 
REMARK   11  A    between atoms: N5_27  and  C19_29 
REMARK   12  A    between atoms: C19_29  and  O1_30 
REMARK   13  A    between atoms: C19_29  and  N6_32 
REMARK   14  A    between atoms: N6_32  and  O2_34 
ROOT
HETATM    1  S1  UNL     1      11.267  38.130  -5.404  1.00  0.00    -0.094 SA
ENDROOT
BRANCH   1   2
HETATM    2  C10 UNL     1      10.358  38.885  -4.129  1.00  0.00     0.144 A 
HETATM    3  N3  UNL     1      10.323  38.638  -2.825  1.00  0.00    -0.344 N 
HETATM    4  C9  UNL     1       9.456  39.496  -2.240  1.00  0.00     0.120 A 
ATOM      5  H3  UNL     1      10.862  37.918  -2.343  1.00  0.00     0.167 HD
HETATM    6  C8  UNL     1       8.925  40.316  -3.205  1.00  0.00     0.060 A 
HETATM    7  N7  UNL     1       9.488  39.925  -4.347  1.00  0.00    -0.335 N 
ATOM      8  H7  UNL     1       9.300  40.342  -5.258  1.00  0.00     0.168 HD
BRANCH   6   9
HETATM    9  C7  UNL     1       7.951  41.378  -2.988  1.00  0.00    -0.007 A 
HETATM   10  C6  UNL     1       6.713  41.340  -3.591  1.00  0.00     0.028 A 
HETATM   11  C4  UNL     1       5.826  42.365  -3.357  1.00  0.00     0.006 A 
HETATM   12  C3  UNL     1       6.213  43.411  -2.513  1.00  0.00     0.021 A 
HETATM   13  C2  UNL     1       7.433  43.454  -1.915  1.00  0.00    -0.060 A 
HETATM   14  C1  UNL     1       7.882  44.559  -1.007  1.00  0.00     0.048 C 
HETATM   15  C21 UNL     1       8.304  42.426  -2.159  1.00  0.00     0.020 A 
BRANCH  11  16
HETATM   16  C5  UNL     1       4.509  42.402  -3.952  1.00  0.00     0.120 C 
HETATM   17  N1  UNL     1       4.187  43.304  -4.793  1.00  0.00    -0.387 N 
ATOM     18  H12 UNL     1       4.877  44.012  -5.046  1.00  0.00     0.157 HD
ATOM     19  H11 UNL     1       3.258  43.330  -5.214  1.00  0.00     0.157 HD
HETATM   20  N2  UNL     1       3.550  41.418  -3.601  1.00  0.00    -0.082 NA
ENDBRANCH  11  16
ENDBRANCH   6   9
ENDBRANCH   1   2
BRANCH   1  21
HETATM   21  C11 UNL     1      11.731  39.015  -6.831  1.00  0.00     0.082 C 
BRANCH  21  22
HETATM   22  C12 UNL     1      12.751  38.423  -7.700  1.00  0.00     0.010 C 
BRANCH  22  23
HETATM   23  C13 UNL     1      13.028  39.144  -8.982  1.00  0.00     0.002 C 
BRANCH  23  24
HETATM   24  C14 UNL     1      13.933  38.195  -9.787  1.00  0.00     0.020 C 
BRANCH  24  25
HETATM   25  C15 UNL     1      13.138  37.136 -10.485  1.00  0.00     0.126 C 
BRANCH  25  26
HETATM   26  N4  UNL     1      13.694  36.948 -11.807  1.00  0.00    -0.350 N 
HETATM   27  C16 UNL     1      14.669  37.778 -12.488  1.00  0.00     0.128 C 
HETATM   28  C17 UNL     1      14.148  37.800 -13.901  1.00  0.00     0.054 C 
HETATM   29  C18 UNL     1      13.659  36.390 -14.119  1.00  0.00     0.179 C 
HETATM   30  C20 UNL     1      13.410  35.907 -12.731  1.00  0.00     0.242 C 
HETATM   31  O3  UNL     1      13.012  34.764 -12.428  1.00  0.00    -0.271 OA
BRANCH  29  32
HETATM   32  N5  UNL     1      14.612  35.559 -14.786  1.00  0.00    -0.342 N 
ATOM     33  H5  UNL     1      15.415  35.195 -14.273  1.00  0.00     0.164 HD
BRANCH  32  34
HETATM   34  C19 UNL     1      14.450  35.240 -16.148  1.00  0.00     0.237 C 
BRANCH  34  35
HETATM   35  O1  UNL     1      15.368  35.662 -17.079  1.00  0.00    -0.331 OA
ATOM     36  H1  UNL     1      15.527  35.155 -17.866  1.00  0.00     0.221 HD
ENDBRANCH  34  35
BRANCH  34  37
HETATM   37  N6  UNL     1      13.435  34.549 -16.517  1.00  0.00    -0.233 N 
ATOM     38  H6  UNL     1      12.516  34.992 -16.508  1.00  0.00     0.198 HD
BRANCH  37  39
HETATM   39  O2  UNL     1      13.526  33.239 -16.924  1.00  0.00    -0.287 OA
ATOM     40  H2  UNL     1      12.873  32.582 -16.711  1.00  0.00     0.244 HD
ENDBRANCH  37  39
ENDBRANCH  34  37
ENDBRANCH  32  34
ENDBRANCH  29  32
ENDBRANCH  25  26
ENDBRANCH  24  25
ENDBRANCH  23  24
ENDBRANCH  22  23
ENDBRANCH  21  22
ENDBRANCH   1  21
TORSDOF 14
ENDMDL
