MODEL 1
REMARK VINA RESULT: -6.377522345      0.000      0.000
REMARK  17 active torsions:
REMARK  status: ('A' for Active; 'I' for Inactive)
REMARK    1  A    between atoms: C2_2  and  C3_3 
REMARK    2  A    between atoms: C2_2  and  C18_27 
REMARK    3  A    between atoms: C3_3  and  C4_4 
REMARK    4  A    between atoms: C4_4  and  C5_5 
REMARK    5  A    between atoms: C6_6  and  O1_7 
REMARK    6  A    between atoms: C8_10  and  O2_11 
REMARK    7  A    between atoms: C12_16  and  O3_17 
REMARK    8  A    between atoms: C17_24  and  O5_25 
REMARK    9  A    between atoms: C18_27  and  C19_28 
REMARK   10  A    between atoms: C19_28  and  C20_29 
REMARK   11  A    between atoms: C20_29  and  C21_30 
REMARK   12  A    between atoms: C21_30  and  C22_31 
REMARK   13  A    between atoms: C22_31  and  C23_32 
REMARK   14  A    between atoms: C23_32  and  C24_33 
REMARK   15  A    between atoms: C24_33  and  C25_34 
REMARK   16  A    between atoms: C25_34  and  C26_35 
REMARK   17  A    between atoms: C26_35  and  O6_36 
ROOT
HETATM    1  C5  UNL     1      13.556  41.369 -11.422  1.00  0.00     0.055 C 
HETATM    2  C6  UNL     1      14.847  41.843 -10.867  1.00  0.00     0.128 C 
HETATM    3  C7  UNL     1      14.500  42.182  -9.433  1.00  0.00     0.072 C 
HETATM    4  C8  UNL     1      13.751  43.443  -9.352  1.00  0.00     0.086 C 
HETATM    5  C9  UNL     1      13.393  43.685  -7.896  1.00  0.00     0.011 C 
HETATM    6  C10 UNL     1      14.636  43.518  -7.023  1.00  0.00     0.020 C 
HETATM    7  C11 UNL     1      12.961  45.084  -7.589  1.00  0.00     0.020 C 
HETATM    8  C12 UNL     1      12.305  42.771  -7.411  1.00  0.00     0.136 C 
HETATM    9  C13 UNL     1      11.115  42.812  -8.317  1.00  0.00     0.111 C 
HETATM   10  C14 UNL     1      11.354  43.595  -9.548  1.00  0.00     0.143 C 
HETATM   11  O4  UNL     1      10.513  44.341  -9.975  1.00  0.00    -0.297 OA
HETATM   12  C15 UNL     1      12.653  43.489 -10.322  1.00  0.00     0.075 C 
HETATM   13  C16 UNL     1      12.682  44.727 -11.232  1.00  0.00     0.029 C 
HETATM   14  C17 UNL     1      12.453  42.375 -11.290  1.00  0.00     0.144 C 
ENDROOT
BRANCH   1  15
HETATM   15  C4  UNL     1      13.803  41.019 -12.886  1.00  0.00     0.095 C 
BRANCH  15  16
HETATM   16  C3  UNL     1      14.385  39.959 -13.191  1.00  0.00    -0.149 C 
BRANCH  16  17
HETATM   17  C2  UNL     1      15.015  38.749 -13.545  1.00  0.00    -0.027 C 
HETATM   18  C1  UNL     1      16.242  38.592 -13.022  1.00  0.00     0.027 C 
BRANCH  17  19
HETATM   19  C18 UNL     1      14.492  37.784 -14.512  1.00  0.00     0.046 C 
BRANCH  19  20
HETATM   20  C19 UNL     1      14.606  36.356 -14.204  1.00  0.00     0.005 C 
BRANCH  20  21
HETATM   21  C20 UNL     1      13.361  35.627 -13.881  1.00  0.00     0.000 C 
BRANCH  21  22
HETATM   22  C21 UNL     1      13.107  35.742 -12.360  1.00  0.00     0.000 C 
BRANCH  22  23
HETATM   23  C22 UNL     1      14.370  35.615 -11.607  1.00  0.00     0.000 C 
BRANCH  23  24
HETATM   24  C23 UNL     1      14.451  36.572 -10.431  1.00  0.00     0.000 C 
BRANCH  24  25
HETATM   25  C24 UNL     1      13.238  37.405 -10.356  1.00  0.00     0.002 C 
BRANCH  25  26
HETATM   26  C25 UNL     1      13.293  38.496  -9.312  1.00  0.00     0.026 C 
BRANCH  26  27
HETATM   27  C26 UNL     1      12.774  38.162  -7.969  1.00  0.00     0.164 C 
BRANCH  27  28
HETATM   28  O6  UNL     1      11.410  37.927  -7.881  1.00  0.00    -0.401 OA
ATOM     29  H6  UNL     1      10.898  38.588  -7.430  1.00  0.00     0.209 HD
ENDBRANCH  27  28
ENDBRANCH  26  27
ENDBRANCH  25  26
ENDBRANCH  24  25
ENDBRANCH  23  24
ENDBRANCH  22  23
ENDBRANCH  21  22
ENDBRANCH  20  21
ENDBRANCH  19  20
ENDBRANCH  17  19
ENDBRANCH  16  17
ENDBRANCH  15  16
ENDBRANCH   1  15
BRANCH   2  30
HETATM   30  O1  UNL     1      15.540  42.765 -11.561  1.00  0.00    -0.395 OA
ATOM     31  H1  UNL     1      16.477  42.643 -11.663  1.00  0.00     0.210 HD
ENDBRANCH   2  30
BRANCH  14  32
HETATM   32  O5  UNL     1      12.161  42.779 -12.591  1.00  0.00    -0.394 OA
ATOM     33  H5  UNL     1      11.311  42.404 -12.788  1.00  0.00     0.210 HD
ENDBRANCH  14  32
BRANCH   4  34
HETATM   34  O2  UNL     1      14.592  44.530  -9.672  1.00  0.00    -0.388 OA
ATOM     35  H2  UNL     1      14.591  44.679 -10.610  1.00  0.00     0.210 HD
ENDBRANCH   4  34
BRANCH   8  36
HETATM   36  O3  UNL     1      12.715  41.499  -7.031  1.00  0.00    -0.394 OA
ATOM     37  H3  UNL     1      12.548  40.809  -7.663  1.00  0.00     0.210 HD
ENDBRANCH   8  36
TORSDOF 17
ENDMDL
MODEL 2
REMARK VINA RESULT: -6.164254633      4.179      7.915
REMARK  17 active torsions:
REMARK  status: ('A' for Active; 'I' for Inactive)
REMARK    1  A    between atoms: C2_2  and  C3_3 
REMARK    2  A    between atoms: C2_2  and  C18_27 
REMARK    3  A    between atoms: C3_3  and  C4_4 
REMARK    4  A    between atoms: C4_4  and  C5_5 
REMARK    5  A    between atoms: C6_6  and  O1_7 
REMARK    6  A    between atoms: C8_10  and  O2_11 
REMARK    7  A    between atoms: C12_16  and  O3_17 
REMARK    8  A    between atoms: C17_24  and  O5_25 
REMARK    9  A    between atoms: C18_27  and  C19_28 
REMARK   10  A    between atoms: C19_28  and  C20_29 
REMARK   11  A    between atoms: C20_29  and  C21_30 
REMARK   12  A    between atoms: C21_30  and  C22_31 
REMARK   13  A    between atoms: C22_31  and  C23_32 
REMARK   14  A    between atoms: C23_32  and  C24_33 
REMARK   15  A    between atoms: C24_33  and  C25_34 
REMARK   16  A    between atoms: C25_34  and  C26_35 
REMARK   17  A    between atoms: C26_35  and  O6_36 
ROOT
HETATM    1  C5  UNL     1      13.496  38.181 -11.060  1.00  0.00     0.055 C 
HETATM    2  C6  UNL     1      14.372  39.339 -10.756  1.00  0.00     0.128 C 
HETATM    3  C7  UNL     1      14.621  39.947 -12.120  1.00  0.00     0.072 C 
HETATM    4  C8  UNL     1      15.579  39.145 -12.891  1.00  0.00     0.086 C 
HETATM    5  C9  UNL     1      15.734  39.785 -14.260  1.00  0.00     0.011 C 
HETATM    6  C10 UNL     1      15.995  41.282 -14.104  1.00  0.00     0.020 C 
HETATM    7  C11 UNL     1      16.930  39.320 -15.029  1.00  0.00     0.020 C 
HETATM    8  C12 UNL     1      14.534  39.566 -15.137  1.00  0.00     0.136 C 
HETATM    9  C13 UNL     1      14.169  38.119 -15.210  1.00  0.00     0.111 C 
HETATM   10  C14 UNL     1      14.954  37.277 -14.281  1.00  0.00     0.143 C 
HETATM   11  O4  UNL     1      15.381  36.209 -14.630  1.00  0.00    -0.297 OA
HETATM   12  C15 UNL     1      15.246  37.718 -12.860  1.00  0.00     0.075 C 
HETATM   13  C16 UNL     1      16.404  36.822 -12.392  1.00  0.00     0.029 C 
HETATM   14  C17 UNL     1      14.101  37.227 -12.044  1.00  0.00     0.144 C 
ENDROOT
BRANCH   1  15
HETATM   15  C4  UNL     1      13.203  37.485  -9.734  1.00  0.00     0.095 C 
BRANCH  15  16
HETATM   16  C3  UNL     1      12.778  38.138  -8.760  1.00  0.00    -0.149 C 
BRANCH  16  17
HETATM   17  C2  UNL     1      12.315  38.857  -7.640  1.00  0.00    -0.027 C 
HETATM   18  C1  UNL     1      12.377  40.192  -7.776  1.00  0.00     0.027 C 
BRANCH  17  19
HETATM   19  C18 UNL     1      11.933  38.259  -6.361  1.00  0.00     0.046 C 
BRANCH  19  20
HETATM   20  C19 UNL     1      10.873  38.901  -5.579  1.00  0.00     0.005 C 
BRANCH  20  21
HETATM   21  C20 UNL     1      10.474  38.254  -4.311  1.00  0.00     0.000 C 
BRANCH  21  22
HETATM   22  C21 UNL     1       9.148  38.889  -3.833  1.00  0.00     0.000 C 
BRANCH  22  23
HETATM   23  C22 UNL     1       9.321  39.531  -2.514  1.00  0.00     0.000 C 
BRANCH  23  24
HETATM   24  C23 UNL     1      10.489  38.957  -1.731  1.00  0.00     0.000 C 
BRANCH  24  25
HETATM   25  C24 UNL     1      10.083  38.646  -0.349  1.00  0.00     0.002 C 
BRANCH  25  26
HETATM   26  C25 UNL     1       9.182  37.441  -0.219  1.00  0.00     0.026 C 
BRANCH  26  27
HETATM   27  C26 UNL     1       9.494  36.278  -1.077  1.00  0.00     0.164 C 
BRANCH  27  28
HETATM   28  O6  UNL     1       8.455  35.798  -1.860  1.00  0.00    -0.401 OA
ATOM     29  H6  UNL     1       8.392  36.154  -2.739  1.00  0.00     0.209 HD
ENDBRANCH  27  28
ENDBRANCH  26  27
ENDBRANCH  25  26
ENDBRANCH  24  25
ENDBRANCH  23  24
ENDBRANCH  22  23
ENDBRANCH  21  22
ENDBRANCH  20  21
ENDBRANCH  19  20
ENDBRANCH  17  19
ENDBRANCH  16  17
ENDBRANCH  15  16
ENDBRANCH   1  15
BRANCH   2  30
HETATM   30  O1  UNL     1      15.448  39.137  -9.972  1.00  0.00    -0.395 OA
ATOM     31  H1  UNL     1      16.148  38.586 -10.301  1.00  0.00     0.210 HD
ENDBRANCH   2  30
BRANCH  14  32
HETATM   32  O5  UNL     1      14.355  36.062 -11.323  1.00  0.00    -0.394 OA
ATOM     33  H5  UNL     1      13.958  35.361 -11.827  1.00  0.00     0.210 HD
ENDBRANCH  14  32
BRANCH   4  34
HETATM   34  O2  UNL     1      16.868  39.252 -12.328  1.00  0.00    -0.388 OA
ATOM     35  H2  UNL     1      17.051  38.495 -11.783  1.00  0.00     0.210 HD
ENDBRANCH   4  34
BRANCH   8  36
HETATM   36  O3  UNL     1      13.470  40.434 -14.923  1.00  0.00    -0.394 OA
ATOM     37  H3  UNL     1      12.610  40.086 -15.127  1.00  0.00     0.210 HD
ENDBRANCH   8  36
TORSDOF 17
ENDMDL
MODEL 3
REMARK VINA RESULT: -6.127991806      1.503      4.200
REMARK  17 active torsions:
REMARK  status: ('A' for Active; 'I' for Inactive)
REMARK    1  A    between atoms: C2_2  and  C3_3 
REMARK    2  A    between atoms: C2_2  and  C18_27 
REMARK    3  A    between atoms: C3_3  and  C4_4 
REMARK    4  A    between atoms: C4_4  and  C5_5 
REMARK    5  A    between atoms: C6_6  and  O1_7 
REMARK    6  A    between atoms: C8_10  and  O2_11 
REMARK    7  A    between atoms: C12_16  and  O3_17 
REMARK    8  A    between atoms: C17_24  and  O5_25 
REMARK    9  A    between atoms: C18_27  and  C19_28 
REMARK   10  A    between atoms: C19_28  and  C20_29 
REMARK   11  A    between atoms: C20_29  and  C21_30 
REMARK   12  A    between atoms: C21_30  and  C22_31 
REMARK   13  A    between atoms: C22_31  and  C23_32 
REMARK   14  A    between atoms: C23_32  and  C24_33 
REMARK   15  A    between atoms: C24_33  and  C25_34 
REMARK   16  A    between atoms: C25_34  and  C26_35 
REMARK   17  A    between atoms: C26_35  and  O6_36 
ROOT
HETATM    1  C5  UNL     1      12.787  39.664  -9.152  1.00  0.00     0.055 C 
HETATM    2  C6  UNL     1      12.146  40.061  -7.875  1.00  0.00     0.128 C 
HETATM    3  C7  UNL     1      11.359  41.296  -8.254  1.00  0.00     0.072 C 
HETATM    4  C8  UNL     1      12.242  42.457  -8.425  1.00  0.00     0.086 C 
HETATM    5  C9  UNL     1      11.391  43.637  -8.857  1.00  0.00     0.011 C 
HETATM    6  C10 UNL     1      10.183  43.771  -7.931  1.00  0.00     0.020 C 
HETATM    7  C11 UNL     1      12.061  44.968  -8.718  1.00  0.00     0.020 C 
HETATM    8  C12 UNL     1      10.929  43.523 -10.282  1.00  0.00     0.136 C 
HETATM    9  C13 UNL     1      12.075  43.263 -11.207  1.00  0.00     0.111 C 
HETATM   10  C14 UNL     1      13.346  43.011 -10.494  1.00  0.00     0.143 C 
HETATM   11  O4  UNL     1      14.376  43.492 -10.885  1.00  0.00    -0.297 OA
HETATM   12  C15 UNL     1      13.407  42.139  -9.256  1.00  0.00     0.075 C 
HETATM   13  C16 UNL     1      14.752  42.475  -8.593  1.00  0.00     0.029 C 
HETATM   14  C17 UNL     1      13.624  40.752  -9.753  1.00  0.00     0.144 C 
ENDROOT
BRANCH   1  15
HETATM   15  C4  UNL     1      13.627  38.424  -8.862  1.00  0.00     0.095 C 
BRANCH  15  16
HETATM   16  C3  UNL     1      13.774  37.545  -9.734  1.00  0.00    -0.149 C 
BRANCH  16  17
HETATM   17  C2  UNL     1      13.926  36.570 -10.740  1.00  0.00    -0.027 C 
HETATM   18  C1  UNL     1      15.118  35.951 -10.734  1.00  0.00     0.027 C 
BRANCH  17  19
HETATM   19  C18 UNL     1      12.966  36.320 -11.816  1.00  0.00     0.046 C 
BRANCH  19  20
HETATM   20  C19 UNL     1      13.404  35.534 -12.972  1.00  0.00     0.005 C 
BRANCH  20  21
HETATM   21  C20 UNL     1      13.565  36.246 -14.258  1.00  0.00     0.000 C 
BRANCH  21  22
HETATM   22  C21 UNL     1      14.752  37.229 -14.130  1.00  0.00     0.000 C 
BRANCH  22  23
HETATM   23  C22 UNL     1      14.318  38.613 -14.408  1.00  0.00     0.000 C 
BRANCH  23  24
HETATM   24  C23 UNL     1      14.220  39.460 -13.152  1.00  0.00     0.000 C 
BRANCH  24  25
HETATM   25  C24 UNL     1      13.896  40.857 -13.493  1.00  0.00     0.002 C 
BRANCH  25  26
HETATM   26  C25 UNL     1      13.478  41.068 -14.929  1.00  0.00     0.026 C 
BRANCH  26  27
HETATM   27  C26 UNL     1      12.413  42.063 -15.175  1.00  0.00     0.164 C 
BRANCH  27  28
HETATM   28  O6  UNL     1      11.332  41.630 -15.929  1.00  0.00    -0.401 OA
ATOM     29  H6  UNL     1      11.042  40.738 -15.774  1.00  0.00     0.209 HD
ENDBRANCH  27  28
ENDBRANCH  26  27
ENDBRANCH  25  26
ENDBRANCH  24  25
ENDBRANCH  23  24
ENDBRANCH  22  23
ENDBRANCH  21  22
ENDBRANCH  20  21
ENDBRANCH  19  20
ENDBRANCH  17  19
ENDBRANCH  16  17
ENDBRANCH  15  16
ENDBRANCH   1  15
BRANCH   2  30
HETATM   30  O1  UNL     1      12.915  40.142  -6.773  1.00  0.00    -0.395 OA
ATOM     31  H1  UNL     1      13.440  39.387  -6.532  1.00  0.00     0.210 HD
ENDBRANCH   2  30
BRANCH  14  32
HETATM   32  O5  UNL     1      14.939  40.299  -9.663  1.00  0.00    -0.394 OA
ATOM     33  H5  UNL     1      15.105  39.842 -10.479  1.00  0.00     0.210 HD
ENDBRANCH  14  32
BRANCH   4  34
HETATM   34  O2  UNL     1      12.760  42.861  -7.176  1.00  0.00    -0.388 OA
ATOM     35  H2  UNL     1      13.105  43.745  -7.235  1.00  0.00     0.210 HD
ENDBRANCH   4  34
BRANCH   8  36
HETATM   36  O3  UNL     1       9.811  42.725 -10.487  1.00  0.00    -0.394 OA
ATOM     37  H3  UNL     1       9.305  42.921 -11.268  1.00  0.00     0.210 HD
ENDBRANCH   8  36
TORSDOF 17
ENDMDL
MODEL 4
REMARK VINA RESULT: -6.107798548      1.341      3.896
REMARK  17 active torsions:
REMARK  status: ('A' for Active; 'I' for Inactive)
REMARK    1  A    between atoms: C2_2  and  C3_3 
REMARK    2  A    between atoms: C2_2  and  C18_27 
REMARK    3  A    between atoms: C3_3  and  C4_4 
REMARK    4  A    between atoms: C4_4  and  C5_5 
REMARK    5  A    between atoms: C6_6  and  O1_7 
REMARK    6  A    between atoms: C8_10  and  O2_11 
REMARK    7  A    between atoms: C12_16  and  O3_17 
REMARK    8  A    between atoms: C17_24  and  O5_25 
REMARK    9  A    between atoms: C18_27  and  C19_28 
REMARK   10  A    between atoms: C19_28  and  C20_29 
REMARK   11  A    between atoms: C20_29  and  C21_30 
REMARK   12  A    between atoms: C21_30  and  C22_31 
REMARK   13  A    between atoms: C22_31  and  C23_32 
REMARK   14  A    between atoms: C23_32  and  C24_33 
REMARK   15  A    between atoms: C24_33  and  C25_34 
REMARK   16  A    between atoms: C25_34  and  C26_35 
REMARK   17  A    between atoms: C26_35  and  O6_36 
ROOT
HETATM    1  C5  UNL     1      12.871  39.884  -9.204  1.00  0.00     0.055 C 
HETATM    2  C6  UNL     1      12.157  40.173  -7.937  1.00  0.00     0.128 C 
HETATM    3  C7  UNL     1      11.327  41.391  -8.280  1.00  0.00     0.072 C 
HETATM    4  C8  UNL     1      12.158  42.600  -8.344  1.00  0.00     0.086 C 
HETATM    5  C9  UNL     1      11.269  43.763  -8.746  1.00  0.00     0.011 C 
HETATM    6  C10 UNL     1      10.017  43.784  -7.870  1.00  0.00     0.020 C 
HETATM    7  C11 UNL     1      11.865  45.113  -8.500  1.00  0.00     0.020 C 
HETATM    8  C12 UNL     1      10.875  43.712 -10.194  1.00  0.00     0.136 C 
HETATM    9  C13 UNL     1      12.070  43.562 -11.080  1.00  0.00     0.111 C 
HETATM   10  C14 UNL     1      13.321  43.327 -10.326  1.00  0.00     0.143 C 
HETATM   11  O4  UNL     1      14.341  43.879 -10.641  1.00  0.00    -0.297 OA
HETATM   12  C15 UNL     1      13.372  42.387  -9.138  1.00  0.00     0.075 C 
HETATM   13  C16 UNL     1      14.669  42.746  -8.396  1.00  0.00     0.029 C 
HETATM   14  C17 UNL     1      13.679  41.044  -9.703  1.00  0.00     0.144 C 
ENDROOT
BRANCH   1  15
HETATM   15  C4  UNL     1      13.759  38.670  -8.948  1.00  0.00     0.095 C 
BRANCH  15  16
HETATM   16  C3  UNL     1      13.840  37.759  -9.796  1.00  0.00    -0.149 C 
BRANCH  16  17
HETATM   17  C2  UNL     1      13.941  36.709 -10.730  1.00  0.00    -0.027 C 
HETATM   18  C1  UNL     1      15.073  35.992 -10.636  1.00  0.00     0.027 C 
BRANCH  17  19
HETATM   19  C18 UNL     1      13.002  36.472 -11.827  1.00  0.00     0.046 C 
BRANCH  19  20
HETATM   20  C19 UNL     1      13.296  35.395 -12.776  1.00  0.00     0.005 C 
BRANCH  20  21
HETATM   21  C20 UNL     1      13.812  35.781 -14.107  1.00  0.00     0.000 C 
BRANCH  21  22
HETATM   22  C21 UNL     1      13.953  37.319 -14.151  1.00  0.00     0.000 C 
BRANCH  22  23
HETATM   23  C22 UNL     1      15.373  37.717 -14.074  1.00  0.00     0.000 C 
BRANCH  23  24
HETATM   24  C23 UNL     1      15.596  38.930 -13.188  1.00  0.00     0.000 C 
BRANCH  24  25
HETATM   25  C24 UNL     1      14.349  39.703 -13.044  1.00  0.00     0.002 C 
BRANCH  25  26
HETATM   26  C25 UNL     1      14.525  41.199 -13.157  1.00  0.00     0.026 C 
BRANCH  26  27
HETATM   27  C26 UNL     1      15.906  41.718 -13.053  1.00  0.00     0.164 C 
BRANCH  27  28
HETATM   28  O6  UNL     1      16.318  42.112 -11.788  1.00  0.00    -0.401 OA
ATOM     29  H6  UNL     1      16.472  41.415 -11.161  1.00  0.00     0.209 HD
ENDBRANCH  27  28
ENDBRANCH  26  27
ENDBRANCH  25  26
ENDBRANCH  24  25
ENDBRANCH  23  24
ENDBRANCH  22  23
ENDBRANCH  21  22
ENDBRANCH  20  21
ENDBRANCH  19  20
ENDBRANCH  17  19
ENDBRANCH  16  17
ENDBRANCH  15  16
ENDBRANCH   1  15
BRANCH   2  30
HETATM   30  O1  UNL     1      12.875  40.225  -6.798  1.00  0.00    -0.395 OA
ATOM     31  H1  UNL     1      13.821  40.170  -6.859  1.00  0.00     0.210 HD
ENDBRANCH   2  30
BRANCH  14  32
HETATM   32  O5  UNL     1      15.009  40.649  -9.580  1.00  0.00    -0.394 OA
ATOM     33  H5  UNL     1      15.168  40.064 -10.311  1.00  0.00     0.210 HD
ENDBRANCH  14  32
BRANCH   4  34
HETATM   34  O2  UNL     1      12.602  42.953  -7.051  1.00  0.00    -0.388 OA
ATOM     35  H2  UNL     1      12.573  42.197  -6.477  1.00  0.00     0.210 HD
ENDBRANCH   4  34
BRANCH   8  36
HETATM   36  O3  UNL     1       9.807  42.875 -10.496  1.00  0.00    -0.394 OA
ATOM     37  H3  UNL     1       9.970  42.233 -11.176  1.00  0.00     0.210 HD
ENDBRANCH   8  36
TORSDOF 17
ENDMDL
MODEL 5
REMARK VINA RESULT: -6.019416605      2.609      7.237
REMARK  17 active torsions:
REMARK  status: ('A' for Active; 'I' for Inactive)
REMARK    1  A    between atoms: C2_2  and  C3_3 
REMARK    2  A    between atoms: C2_2  and  C18_27 
REMARK    3  A    between atoms: C3_3  and  C4_4 
REMARK    4  A    between atoms: C4_4  and  C5_5 
REMARK    5  A    between atoms: C6_6  and  O1_7 
REMARK    6  A    between atoms: C8_10  and  O2_11 
REMARK    7  A    between atoms: C12_16  and  O3_17 
REMARK    8  A    between atoms: C17_24  and  O5_25 
REMARK    9  A    between atoms: C18_27  and  C19_28 
REMARK   10  A    between atoms: C19_28  and  C20_29 
REMARK   11  A    between atoms: C20_29  and  C21_30 
REMARK   12  A    between atoms: C21_30  and  C22_31 
REMARK   13  A    between atoms: C22_31  and  C23_32 
REMARK   14  A    between atoms: C23_32  and  C24_33 
REMARK   15  A    between atoms: C24_33  and  C25_34 
REMARK   16  A    between atoms: C25_34  and  C26_35 
REMARK   17  A    between atoms: C26_35  and  O6_36 
ROOT
HETATM    1  C5  UNL     1      13.451  38.294 -10.987  1.00  0.00     0.055 C 
HETATM    2  C6  UNL     1      14.489  39.308 -10.682  1.00  0.00     0.128 C 
HETATM    3  C7  UNL     1      14.785  39.914 -12.036  1.00  0.00     0.072 C 
HETATM    4  C8  UNL     1      15.599  39.009 -12.856  1.00  0.00     0.086 C 
HETATM    5  C9  UNL     1      15.807  39.659 -14.213  1.00  0.00     0.011 C 
HETATM    6  C10 UNL     1      16.281  41.100 -14.028  1.00  0.00     0.020 C 
HETATM    7  C11 UNL     1      16.905  39.054 -15.029  1.00  0.00     0.020 C 
HETATM    8  C12 UNL     1      14.566  39.637 -15.058  1.00  0.00     0.136 C 
HETATM    9  C13 UNL     1      13.998  38.258 -15.156  1.00  0.00     0.111 C 
HETATM   10  C14 UNL     1      14.680  37.288 -14.272  1.00  0.00     0.143 C 
HETATM   11  O4  UNL     1      14.943  36.181 -14.661  1.00  0.00    -0.297 OA
HETATM   12  C15 UNL     1      15.069  37.642 -12.851  1.00  0.00     0.075 C 
HETATM   13  C16 UNL     1      16.102  36.579 -12.440  1.00  0.00     0.029 C 
HETATM   14  C17 UNL     1      13.889  37.293 -12.013  1.00  0.00     0.144 C 
ENDROOT
BRANCH   1  15
HETATM   15  C4  UNL     1      13.098  37.608  -9.671  1.00  0.00     0.095 C 
BRANCH  15  16
HETATM   16  C3  UNL     1      12.760  38.283  -8.679  1.00  0.00    -0.149 C 
BRANCH  16  17
HETATM   17  C2  UNL     1      12.358  39.062  -7.575  1.00  0.00    -0.027 C 
HETATM   18  C1  UNL     1      11.900  38.348  -6.533  1.00  0.00     0.027 C 
BRANCH  17  19
HETATM   19  C18 UNL     1      12.278  40.523  -7.566  1.00  0.00     0.046 C 
BRANCH  19  20
HETATM   20  C19 UNL     1      12.087  41.219  -8.841  1.00  0.00     0.005 C 
BRANCH  20  21
HETATM   21  C20 UNL     1      12.919  42.414  -9.097  1.00  0.00     0.000 C 
BRANCH  21  22
HETATM   22  C21 UNL     1      14.352  42.131  -8.592  1.00  0.00     0.000 C 
BRANCH  22  23
HETATM   23  C22 UNL     1      14.905  43.311  -7.898  1.00  0.00     0.000 C 
BRANCH  23  24
HETATM   24  C23 UNL     1      16.253  43.739  -8.451  1.00  0.00     0.000 C 
BRANCH  24  25
HETATM   25  C24 UNL     1      16.533  43.050  -9.724  1.00  0.00     0.002 C 
BRANCH  25  26
HETATM   26  C25 UNL     1      17.985  43.077 -10.141  1.00  0.00     0.026 C 
BRANCH  26  27
HETATM   27  C26 UNL     1      18.491  41.896 -10.871  1.00  0.00     0.164 C 
BRANCH  27  28
HETATM   28  O6  UNL     1      17.911  40.679 -10.545  1.00  0.00    -0.401 OA
ATOM     29  H6  UNL     1      17.955  40.001 -11.210  1.00  0.00     0.209 HD
ENDBRANCH  27  28
ENDBRANCH  26  27
ENDBRANCH  25  26
ENDBRANCH  24  25
ENDBRANCH  23  24
ENDBRANCH  22  23
ENDBRANCH  21  22
ENDBRANCH  20  21
ENDBRANCH  19  20
ENDBRANCH  17  19
ENDBRANCH  16  17
ENDBRANCH  15  16
ENDBRANCH   1  15
BRANCH   2  30
HETATM   30  O1  UNL     1      15.546  38.935  -9.936  1.00  0.00    -0.395 OA
ATOM     31  H1  UNL     1      15.540  39.145  -9.009  1.00  0.00     0.210 HD
ENDBRANCH   2  30
BRANCH  14  32
HETATM   32  O5  UNL     1      13.995  36.083 -11.330  1.00  0.00    -0.394 OA
ATOM     33  H5  UNL     1      14.925  35.961 -11.176  1.00  0.00     0.210 HD
ENDBRANCH  14  32
BRANCH   4  34
HETATM   34  O2  UNL     1      16.905  38.917 -12.329  1.00  0.00    -0.388 OA
ATOM     35  H2  UNL     1      17.504  38.592 -12.992  1.00  0.00     0.210 HD
ENDBRANCH   4  34
BRANCH   8  36
HETATM   36  O3  UNL     1      13.641  40.639 -14.791  1.00  0.00    -0.394 OA
ATOM     37  H3  UNL     1      13.940  41.526 -14.950  1.00  0.00     0.210 HD
ENDBRANCH   8  36
TORSDOF 17
ENDMDL
