MODEL 1
REMARK VINA RESULT: -6.923025890      0.000      0.000
REMARK  14 active torsions:
REMARK  status: ('A' for Active; 'I' for Inactive)
REMARK    1  A    between atoms: O1_1  and  C1_3 
REMARK    2  A    between atoms: C1_3  and  C2_4 
REMARK    3  A    between atoms: C3_5  and  O2_6 
REMARK    4  A    between atoms: C4_8  and  O3_9 
REMARK    5  A    between atoms: C5_11  and  O4_12 
REMARK    6  A    between atoms: C6_14  and  O5_15 
REMARK    7  A    between atoms: N1_17  and  C7_18 
REMARK    8  A    between atoms: C7_18  and  C8_19 
REMARK    9  A    between atoms: C8_19  and  C9_20 
REMARK   10  A    between atoms: C9_20  and  C10_21 
REMARK   11  A    between atoms: C10_21  and  C11_22 
REMARK   12  A    between atoms: C11_22  and  C12_23 
REMARK   13  A    between atoms: C12_23  and  C13_24 
REMARK   14  A    between atoms: C13_24  and  C14_25 
ROOT
HETATM    1  C2  UNL     1      10.285  38.289  -2.432  1.00  0.00     0.280 C 
HETATM    2  C3  UNL     1      10.066  39.721  -1.967  1.00  0.00     0.185 C 
HETATM    3  C4  UNL     1       8.767  40.277  -2.497  1.00  0.00     0.182 C 
HETATM    4  C5  UNL     1       8.680  40.085  -3.978  1.00  0.00     0.208 C 
HETATM    5  C6  UNL     1       9.077  38.747  -4.486  1.00  0.00     0.388 C 
HETATM    6  N1  UNL     1      10.233  38.155  -3.844  1.00  0.00     0.129 N 
ENDROOT
BRANCH   6   7
HETATM    7  C7  UNL     1      11.445  38.454  -4.522  1.00  0.00     0.276 C 
BRANCH   7   8
HETATM    8  C8  UNL     1      11.515  38.288  -5.981  1.00  0.00     0.030 C 
BRANCH   8   9
HETATM    9  C9  UNL     1      11.780  39.531  -6.786  1.00  0.00     0.002 C 
BRANCH   9  10
HETATM   10  C10 UNL     1      12.653  39.384  -7.949  1.00  0.00     0.000 C 
BRANCH  10  11
HETATM   11  C11 UNL     1      13.231  38.046  -8.232  1.00  0.00     0.000 C 
BRANCH  11  12
HETATM   12  C12 UNL     1      14.114  37.899  -9.389  1.00  0.00     0.000 C 
BRANCH  12  13
HETATM   13  C13 UNL     1      13.923  38.646 -10.636  1.00  0.00     0.004 C 
BRANCH  13  14
HETATM   14  C14 UNL     1      13.469  37.737 -11.796  1.00  0.00    -0.014 C 
HETATM   15  C15 UNL     1      14.017  38.154 -13.112  1.00  0.00     0.004 C 
HETATM   16  C16 UNL     1      14.674  36.985 -13.840  1.00  0.00     0.000 C 
HETATM   17  C17 UNL     1      13.683  35.840 -13.924  1.00  0.00     0.000 C 
HETATM   18  C18 UNL     1      13.095  35.481 -12.586  1.00  0.00     0.000 C 
HETATM   19  C19 UNL     1      13.811  36.298 -11.496  1.00  0.00     0.004 C 
ENDBRANCH  13  14
ENDBRANCH  12  13
ENDBRANCH  11  12
ENDBRANCH  10  11
ENDBRANCH   9  10
ENDBRANCH   8   9
ENDBRANCH   7   8
ENDBRANCH   6   7
BRANCH   1  20
HETATM   20  C1  UNL     1       9.438  37.331  -1.635  1.00  0.00     0.203 C 
BRANCH  20  21
HETATM   21  O1  UNL     1       8.760  36.393  -2.360  1.00  0.00    -0.399 OA
ATOM     22  H1  UNL     1       7.979  36.040  -1.950  1.00  0.00     0.209 HD
ENDBRANCH  20  21
ENDBRANCH   1  20
BRANCH   5  23
HETATM   23  O5  UNL     1       8.016  37.859  -4.652  1.00  0.00    -0.366 OA
ATOM     24  H5  UNL     1       7.729  37.757  -5.552  1.00  0.00     0.212 HD
ENDBRANCH   5  23
BRANCH   2  25
HETATM   25  O2  UNL     1      10.078  39.707  -0.586  1.00  0.00    -0.391 OA
ATOM     26  H2  UNL     1      10.066  40.613  -0.297  1.00  0.00     0.210 HD
ENDBRANCH   2  25
BRANCH   4  27
HETATM   27  O4  UNL     1       9.364  41.085  -4.680  1.00  0.00    -0.388 OA
ATOM     28  H4  UNL     1       9.340  40.944  -5.619  1.00  0.00     0.210 HD
ENDBRANCH   4  27
BRANCH   3  29
HETATM   29  O3  UNL     1       8.785  41.658  -2.248  1.00  0.00    -0.390 OA
ATOM     30  H3  UNL     1       8.070  42.037  -2.747  1.00  0.00     0.210 HD
ENDBRANCH   3  29
TORSDOF 14
ENDMDL
MODEL 2
REMARK VINA RESULT: -6.744696566      6.095      9.858
REMARK  14 active torsions:
REMARK  status: ('A' for Active; 'I' for Inactive)
REMARK    1  A    between atoms: O1_1  and  C1_3 
REMARK    2  A    between atoms: C1_3  and  C2_4 
REMARK    3  A    between atoms: C3_5  and  O2_6 
REMARK    4  A    between atoms: C4_8  and  O3_9 
REMARK    5  A    between atoms: C5_11  and  O4_12 
REMARK    6  A    between atoms: C6_14  and  O5_15 
REMARK    7  A    between atoms: N1_17  and  C7_18 
REMARK    8  A    between atoms: C7_18  and  C8_19 
REMARK    9  A    between atoms: C8_19  and  C9_20 
REMARK   10  A    between atoms: C9_20  and  C10_21 
REMARK   11  A    between atoms: C10_21  and  C11_22 
REMARK   12  A    between atoms: C11_22  and  C12_23 
REMARK   13  A    between atoms: C12_23  and  C13_24 
REMARK   14  A    between atoms: C13_24  and  C14_25 
ROOT
HETATM    1  C2  UNL     1      13.767  36.419 -12.895  1.00  0.00     0.280 C 
HETATM    2  C3  UNL     1      13.721  36.295 -14.410  1.00  0.00     0.185 C 
HETATM    3  C4  UNL     1      15.105  36.130 -14.989  1.00  0.00     0.182 C 
HETATM    4  C5  UNL     1      16.016  37.202 -14.482  1.00  0.00     0.208 C 
HETATM    5  C6  UNL     1      15.944  37.485 -13.026  1.00  0.00     0.388 C 
HETATM    6  N1  UNL     1      14.612  37.471 -12.454  1.00  0.00     0.129 N 
ENDROOT
BRANCH   6   7
HETATM    7  C7  UNL     1      14.013  38.759 -12.441  1.00  0.00     0.276 C 
BRANCH   7   8
HETATM    8  C8  UNL     1      13.682  39.388 -11.154  1.00  0.00     0.030 C 
BRANCH   8   9
HETATM    9  C9  UNL     1      14.152  38.672  -9.917  1.00  0.00     0.002 C 
BRANCH   9  10
HETATM   10  C10 UNL     1      13.139  37.935  -9.163  1.00  0.00     0.000 C 
BRANCH  10  11
HETATM   11  C11 UNL     1      12.930  38.286  -7.735  1.00  0.00     0.000 C 
BRANCH  11  12
HETATM   12  C12 UNL     1      11.723  39.026  -7.369  1.00  0.00     0.000 C 
BRANCH  12  13
HETATM   13  C13 UNL     1      11.752  40.231  -6.534  1.00  0.00     0.004 C 
BRANCH  13  14
HETATM   14  C14 UNL     1      11.990  41.509  -7.363  1.00  0.00    -0.014 C 
HETATM   15  C15 UNL     1      13.397  41.984  -7.310  1.00  0.00     0.004 C 
HETATM   16  C16 UNL     1      13.957  42.232  -8.707  1.00  0.00     0.000 C 
HETATM   17  C17 UNL     1      13.022  43.166  -9.452  1.00  0.00     0.000 C 
HETATM   18  C18 UNL     1      11.593  42.693  -9.435  1.00  0.00     0.000 C 
HETATM   19  C19 UNL     1      11.541  41.298  -8.788  1.00  0.00     0.004 C 
ENDBRANCH  13  14
ENDBRANCH  12  13
ENDBRANCH  11  12
ENDBRANCH  10  11
ENDBRANCH   9  10
ENDBRANCH   8   9
ENDBRANCH   7   8
ENDBRANCH   6   7
BRANCH   1  20
HETATM   20  C1  UNL     1      13.980  35.073 -12.253  1.00  0.00     0.203 C 
BRANCH  20  21
HETATM   21  O1  UNL     1      12.893  34.247 -12.232  1.00  0.00    -0.399 OA
ATOM     22  H1  UNL     1      12.963  33.457 -12.757  1.00  0.00     0.209 HD
ENDBRANCH  20  21
ENDBRANCH   1  20
BRANCH   5  23
HETATM   23  O5  UNL     1      16.884  36.797 -12.261  1.00  0.00    -0.366 OA
ATOM     24  H5  UNL     1      17.436  37.355 -11.726  1.00  0.00     0.212 HD
ENDBRANCH   5  23
BRANCH   2  25
HETATM   25  O2  UNL     1      12.922  35.208 -14.706  1.00  0.00    -0.391 OA
ATOM     26  H2  UNL     1      12.685  35.276 -15.624  1.00  0.00     0.210 HD
ENDBRANCH   2  25
BRANCH   4  27
HETATM   27  O4  UNL     1      15.884  38.393 -15.206  1.00  0.00    -0.388 OA
ATOM     28  H4  UNL     1      16.716  38.698 -15.549  1.00  0.00     0.210 HD
ENDBRANCH   4  27
BRANCH   3  29
HETATM   29  O3  UNL     1      14.986  36.296 -16.378  1.00  0.00    -0.390 OA
ATOM     30  H3  UNL     1      15.179  35.453 -16.773  1.00  0.00     0.210 HD
ENDBRANCH   3  29
TORSDOF 14
ENDMDL
MODEL 3
REMARK VINA RESULT: -6.584990914      6.449      9.782
REMARK  14 active torsions:
REMARK  status: ('A' for Active; 'I' for Inactive)
REMARK    1  A    between atoms: O1_1  and  C1_3 
REMARK    2  A    between atoms: C1_3  and  C2_4 
REMARK    3  A    between atoms: C3_5  and  O2_6 
REMARK    4  A    between atoms: C4_8  and  O3_9 
REMARK    5  A    between atoms: C5_11  and  O4_12 
REMARK    6  A    between atoms: C6_14  and  O5_15 
REMARK    7  A    between atoms: N1_17  and  C7_18 
REMARK    8  A    between atoms: C7_18  and  C8_19 
REMARK    9  A    between atoms: C8_19  and  C9_20 
REMARK   10  A    between atoms: C9_20  and  C10_21 
REMARK   11  A    between atoms: C10_21  and  C11_22 
REMARK   12  A    between atoms: C11_22  and  C12_23 
REMARK   13  A    between atoms: C12_23  and  C13_24 
REMARK   14  A    between atoms: C13_24  and  C14_25 
ROOT
HETATM    1  C2  UNL     1      15.588  38.039 -12.448  1.00  0.00     0.280 C 
HETATM    2  C3  UNL     1      16.480  36.923 -12.970  1.00  0.00     0.185 C 
HETATM    3  C4  UNL     1      16.430  36.838 -14.475  1.00  0.00     0.182 C 
HETATM    4  C5  UNL     1      15.013  36.772 -14.949  1.00  0.00     0.208 C 
HETATM    5  C6  UNL     1      14.067  37.724 -14.313  1.00  0.00     0.388 C 
HETATM    6  N1  UNL     1      14.244  37.919 -12.888  1.00  0.00     0.129 N 
ENDROOT
BRANCH   6   7
HETATM    7  C7  UNL     1      13.433  37.045 -12.115  1.00  0.00     0.276 C 
BRANCH   7   8
HETATM    8  C8  UNL     1      13.728  36.864 -10.686  1.00  0.00     0.030 C 
BRANCH   8   9
HETATM    9  C9  UNL     1      13.029  37.796  -9.733  1.00  0.00     0.002 C 
BRANCH   9  10
HETATM   10  C10 UNL     1      13.595  37.904  -8.390  1.00  0.00     0.000 C 
BRANCH  10  11
HETATM   11  C11 UNL     1      12.699  38.310  -7.278  1.00  0.00     0.000 C 
BRANCH  11  12
HETATM   12  C12 UNL     1      12.020  39.602  -7.367  1.00  0.00     0.000 C 
BRANCH  12  13
HETATM   13  C13 UNL     1      12.696  40.877  -7.105  1.00  0.00     0.004 C 
BRANCH  13  14
HETATM   14  C14 UNL     1      12.795  41.754  -8.369  1.00  0.00    -0.014 C 
HETATM   15  C15 UNL     1      14.003  41.468  -9.183  1.00  0.00     0.004 C 
HETATM   16  C16 UNL     1      13.647  41.233 -10.649  1.00  0.00     0.000 C 
HETATM   17  C17 UNL     1      12.833  42.410 -11.151  1.00  0.00     0.000 C 
HETATM   18  C18 UNL     1      11.652  42.718 -10.271  1.00  0.00     0.000 C 
HETATM   19  C19 UNL     1      11.539  41.624  -9.194  1.00  0.00     0.004 C 
ENDBRANCH  13  14
ENDBRANCH  12  13
ENDBRANCH  11  12
ENDBRANCH  10  11
ENDBRANCH   9  10
ENDBRANCH   8   9
ENDBRANCH   7   8
ENDBRANCH   6   7
BRANCH   1  20
HETATM   20  C1  UNL     1      16.241  39.382 -12.641  1.00  0.00     0.203 C 
BRANCH  20  21
HETATM   21  O1  UNL     1      16.999  39.829 -11.597  1.00  0.00    -0.399 OA
ATOM     22  H1  UNL     1      16.633  40.551 -11.099  1.00  0.00     0.209 HD
ENDBRANCH  20  21
ENDBRANCH   1  20
BRANCH   5  23
HETATM   23  O5  UNL     1      13.888  38.912 -15.019  1.00  0.00    -0.366 OA
ATOM     24  H5  UNL     1      13.098  38.940 -15.544  1.00  0.00     0.212 HD
ENDBRANCH   5  23
BRANCH   2  25
HETATM   25  O2  UNL     1      17.762  37.185 -12.526  1.00  0.00    -0.391 OA
ATOM     26  H2  UNL     1      18.324  37.207 -13.292  1.00  0.00     0.210 HD
ENDBRANCH   2  25
BRANCH   4  27
HETATM   27  O4  UNL     1      14.496  35.472 -14.885  1.00  0.00    -0.388 OA
ATOM     28  H4  UNL     1      14.468  35.055 -15.739  1.00  0.00     0.210 HD
ENDBRANCH   4  27
BRANCH   3  29
HETATM   29  O3  UNL     1      17.055  35.635 -14.836  1.00  0.00    -0.390 OA
ATOM     30  H3  UNL     1      17.839  35.866 -15.321  1.00  0.00     0.210 HD
ENDBRANCH   3  29
TORSDOF 14
ENDMDL
MODEL 4
REMARK VINA RESULT: -6.568526399      6.403     10.070
REMARK  14 active torsions:
REMARK  status: ('A' for Active; 'I' for Inactive)
REMARK    1  A    between atoms: O1_1  and  C1_3 
REMARK    2  A    between atoms: C1_3  and  C2_4 
REMARK    3  A    between atoms: C3_5  and  O2_6 
REMARK    4  A    between atoms: C4_8  and  O3_9 
REMARK    5  A    between atoms: C5_11  and  O4_12 
REMARK    6  A    between atoms: C6_14  and  O5_15 
REMARK    7  A    between atoms: N1_17  and  C7_18 
REMARK    8  A    between atoms: C7_18  and  C8_19 
REMARK    9  A    between atoms: C8_19  and  C9_20 
REMARK   10  A    between atoms: C9_20  and  C10_21 
REMARK   11  A    between atoms: C10_21  and  C11_22 
REMARK   12  A    between atoms: C11_22  and  C12_23 
REMARK   13  A    between atoms: C12_23  and  C13_24 
REMARK   14  A    between atoms: C13_24  and  C14_25 
ROOT
HETATM    1  C2  UNL     1      13.780  36.263 -12.951  1.00  0.00     0.280 C 
HETATM    2  C3  UNL     1      13.688  36.177 -14.467  1.00  0.00     0.185 C 
HETATM    3  C4  UNL     1      15.054  36.031 -15.092  1.00  0.00     0.182 C 
HETATM    4  C5  UNL     1      15.978  37.092 -14.585  1.00  0.00     0.208 C 
HETATM    5  C6  UNL     1      15.949  37.337 -13.120  1.00  0.00     0.388 C 
HETATM    6  N1  UNL     1      14.636  37.305 -12.509  1.00  0.00     0.129 N 
ENDROOT
BRANCH   6   7
HETATM    7  C7  UNL     1      14.035  38.591 -12.445  1.00  0.00     0.276 C 
BRANCH   7   8
HETATM    8  C8  UNL     1      13.636  39.136 -11.139  1.00  0.00     0.030 C 
BRANCH   8   9
HETATM    9  C9  UNL     1      13.240  38.137 -10.087  1.00  0.00     0.002 C 
BRANCH   9  10
HETATM   10  C10 UNL     1      13.544  38.489  -8.702  1.00  0.00     0.000 C 
BRANCH  10  11
HETATM   11  C11 UNL     1      12.455  39.051  -7.862  1.00  0.00     0.000 C 
BRANCH  11  12
HETATM   12  C12 UNL     1      12.420  40.497  -7.643  1.00  0.00     0.000 C 
BRANCH  12  13
HETATM   13  C13 UNL     1      12.252  41.462  -8.734  1.00  0.00     0.004 C 
BRANCH  13  14
HETATM   14  C14 UNL     1      13.345  42.550  -8.723  1.00  0.00    -0.014 C 
HETATM   15  C15 UNL     1      13.314  43.395  -7.502  1.00  0.00     0.004 C 
HETATM   16  C16 UNL     1      14.690  43.485  -6.849  1.00  0.00     0.000 C 
HETATM   17  C17 UNL     1      15.696  43.944  -7.886  1.00  0.00     0.000 C 
HETATM   18  C18 UNL     1      15.661  43.111  -9.140  1.00  0.00     0.000 C 
HETATM   19  C19 UNL     1      14.704  41.925  -8.918  1.00  0.00     0.004 C 
ENDBRANCH  13  14
ENDBRANCH  12  13
ENDBRANCH  11  12
ENDBRANCH  10  11
ENDBRANCH   9  10
ENDBRANCH   8   9
ENDBRANCH   7   8
ENDBRANCH   6   7
BRANCH   1  20
HETATM   20  C1  UNL     1      14.014  34.901 -12.351  1.00  0.00     0.203 C 
BRANCH  20  21
HETATM   21  O1  UNL     1      12.915  34.096 -12.258  1.00  0.00    -0.399 OA
ATOM     22  H1  UNL     1      12.103  34.530 -12.027  1.00  0.00     0.209 HD
ENDBRANCH  20  21
ENDBRANCH   1  20
BRANCH   5  23
HETATM   23  O5  UNL     1      16.914  36.632 -12.402  1.00  0.00    -0.366 OA
ATOM     24  H5  UNL     1      17.084  36.977 -11.533  1.00  0.00     0.212 HD
ENDBRANCH   5  23
BRANCH   2  25
HETATM   25  O2  UNL     1      12.883  35.096 -14.766  1.00  0.00    -0.391 OA
ATOM     26  H2  UNL     1      12.077  35.440 -15.135  1.00  0.00     0.210 HD
ENDBRANCH   2  25
BRANCH   4  27
HETATM   27  O4  UNL     1      15.822  38.301 -15.274  1.00  0.00    -0.388 OA
ATOM     28  H4  UNL     1      15.521  39.001 -14.706  1.00  0.00     0.210 HD
ENDBRANCH   4  27
BRANCH   3  29
HETATM   29  O3  UNL     1      14.893  36.231 -16.472  1.00  0.00    -0.390 OA
ATOM     30  H3  UNL     1      15.587  35.746 -16.903  1.00  0.00     0.210 HD
ENDBRANCH   3  29
TORSDOF 14
ENDMDL
MODEL 5
REMARK VINA RESULT: -6.544401604      6.406     10.083
REMARK  14 active torsions:
REMARK  status: ('A' for Active; 'I' for Inactive)
REMARK    1  A    between atoms: O1_1  and  C1_3 
REMARK    2  A    between atoms: C1_3  and  C2_4 
REMARK    3  A    between atoms: C3_5  and  O2_6 
REMARK    4  A    between atoms: C4_8  and  O3_9 
REMARK    5  A    between atoms: C5_11  and  O4_12 
REMARK    6  A    between atoms: C6_14  and  O5_15 
REMARK    7  A    between atoms: N1_17  and  C7_18 
REMARK    8  A    between atoms: C7_18  and  C8_19 
REMARK    9  A    between atoms: C8_19  and  C9_20 
REMARK   10  A    between atoms: C9_20  and  C10_21 
REMARK   11  A    between atoms: C10_21  and  C11_22 
REMARK   12  A    between atoms: C11_22  and  C12_23 
REMARK   13  A    between atoms: C12_23  and  C13_24 
REMARK   14  A    between atoms: C13_24  and  C14_25 
ROOT
HETATM    1  C2  UNL     1      13.983  37.025 -14.056  1.00  0.00     0.280 C 
HETATM    2  C3  UNL     1      15.200  37.498 -14.837  1.00  0.00     0.185 C 
HETATM    3  C4  UNL     1      16.438  36.731 -14.444  1.00  0.00     0.182 C 
HETATM    4  C5  UNL     1      16.611  36.743 -12.958  1.00  0.00     0.208 C 
HETATM    5  C6  UNL     1      15.391  36.475 -12.156  1.00  0.00     0.388 C 
HETATM    6  N1  UNL     1      14.174  37.087 -12.650  1.00  0.00     0.129 N 
ENDROOT
BRANCH   6   7
HETATM    7  C7  UNL     1      13.929  38.359 -12.066  1.00  0.00     0.276 C 
BRANCH   7   8
HETATM    8  C8  UNL     1      14.133  38.540 -10.622  1.00  0.00     0.030 C 
BRANCH   8   9
HETATM    9  C9  UNL     1      13.180  37.813  -9.713  1.00  0.00     0.002 C 
BRANCH   9  10
HETATM   10  C10 UNL     1      13.312  38.076  -8.281  1.00  0.00     0.000 C 
BRANCH  10  11
HETATM   11  C11 UNL     1      12.216  38.807  -7.594  1.00  0.00     0.000 C 
BRANCH  11  12
HETATM   12  C12 UNL     1      12.300  40.264  -7.504  1.00  0.00     0.000 C 
BRANCH  12  13
HETATM   13  C13 UNL     1      12.129  41.144  -8.665  1.00  0.00     0.004 C 
BRANCH  13  14
HETATM   14  C14 UNL     1      13.199  42.253  -8.717  1.00  0.00    -0.014 C 
HETATM   15  C15 UNL     1      13.154  43.162  -7.542  1.00  0.00     0.004 C 
HETATM   16  C16 UNL     1      14.530  43.315  -6.901  1.00  0.00     0.000 C 
HETATM   17  C17 UNL     1      15.523  43.739  -7.966  1.00  0.00     0.000 C 
HETATM   18  C18 UNL     1      15.501  42.839  -9.173  1.00  0.00     0.000 C 
HETATM   19  C19 UNL     1      14.570  41.648  -8.884  1.00  0.00     0.004 C 
ENDBRANCH  13  14
ENDBRANCH  12  13
ENDBRANCH  11  12
ENDBRANCH  10  11
ENDBRANCH   9  10
ENDBRANCH   8   9
ENDBRANCH   7   8
ENDBRANCH   6   7
BRANCH   1  20
HETATM   20  C1  UNL     1      13.467  35.721 -14.606  1.00  0.00     0.203 C 
BRANCH  20  21
HETATM   21  O1  UNL     1      12.995  34.832 -13.683  1.00  0.00    -0.399 OA
ATOM     22  H1  UNL     1      12.439  34.140 -14.022  1.00  0.00     0.209 HD
ENDBRANCH  20  21
ENDBRANCH   1  20
BRANCH   5  23
HETATM   23  O5  UNL     1      15.231  35.141 -11.784  1.00  0.00    -0.366 OA
ATOM     24  H5  UNL     1      14.657  34.642 -12.354  1.00  0.00     0.212 HD
ENDBRANCH   5  23
BRANCH   2  25
HETATM   25  O2  UNL     1      14.913  37.331 -16.178  1.00  0.00    -0.391 OA
ATOM     26  H2  UNL     1      14.016  37.020 -16.236  1.00  0.00     0.210 HD
ENDBRANCH   2  25
BRANCH   4  27
HETATM   27  O4  UNL     1      17.229  37.917 -12.509  1.00  0.00    -0.388 OA
ATOM     28  H4  UNL     1      17.237  37.978 -11.561  1.00  0.00     0.210 HD
ENDBRANCH   4  27
BRANCH   3  29
HETATM   29  O3  UNL     1      17.531  37.408 -15.005  1.00  0.00    -0.390 OA
ATOM     30  H3  UNL     1      17.979  36.789 -15.569  1.00  0.00     0.210 HD
ENDBRANCH   3  29
TORSDOF 14
ENDMDL
