MODEL 1
REMARK VINA RESULT: -10.183847515      0.000      0.000
REMARK  9 active torsions:
REMARK  status: ('A' for Active; 'I' for Inactive)
REMARK    1  A    between atoms: C1_2  and  O1_4 
REMARK    2  A    between atoms: O1_4  and  C2_5 
REMARK    3  A    between atoms: C7_11  and  C8_12 
REMARK    4  A    between atoms: C13_23  and  N4_24 
REMARK    5  A    between atoms: N4_24  and  C14_26 
REMARK    6  A    between atoms: C14_26  and  N5_28 
REMARK    7  A    between atoms: N5_28  and  C15_30 
REMARK    8  A    between atoms: N6_33  and  C18_34 
REMARK    9  A    between atoms: C18_34  and  C19_35 
ROOT
HETATM    1  C8  UNL     1      36.994  20.399  21.496  1.00  0.00     0.093 A 
HETATM    2  N1  UNL     1      37.374  19.126  21.632  1.00  0.00    -0.336 N 
ATOM      3  H1  UNL     1      37.985  18.782  22.372  1.00  0.00     0.168 HD
HETATM    4  C9  UNL     1      36.850  18.365  20.676  1.00  0.00     0.147 A 
HETATM    5  C10 UNL     1      36.945  17.021  20.408  1.00  0.00     0.058 A 
HETATM    6 BR1  UNL     1      38.009  15.894  21.529  1.00  0.00    -0.047 Br
HETATM    7  C11 UNL     1      36.276  16.478  19.333  1.00  0.00     0.041 A 
HETATM    8  C12 UNL     1      35.524  17.343  18.560  1.00  0.00     0.109 A 
HETATM    9  N2  UNL     1      35.457  18.635  18.850  1.00  0.00    -0.302 N 
ATOM     10  H2  UNL     1      34.891  19.240  18.256  1.00  0.00     0.186 HD
HETATM   11  N3  UNL     1      36.089  19.169  19.870  1.00  0.00    -0.220 N 
HETATM   12  C13 UNL     1      36.156  20.446  20.355  1.00  0.00     0.159 A 
ENDROOT
BRANCH  12  13
HETATM   13  N4  UNL     1      35.532  21.630  19.942  1.00  0.00    -0.316 N 
ATOM     14  H4  UNL     1      34.660  21.810  20.441  1.00  0.00     0.170 HD
BRANCH  13  15
HETATM   15  C14 UNL     1      35.830  22.620  19.000  1.00  0.00     0.173 C 
HETATM   16  S1  UNL     1      34.872  22.951  17.755  1.00  0.00    -0.041 SA
BRANCH  15  17
HETATM   17  N5  UNL     1      37.083  23.350  19.147  1.00  0.00    -0.362 N 
ATOM     18  H5  UNL     1      37.839  23.146  18.494  1.00  0.00     0.162 HD
BRANCH  17  19
HETATM   19  C15 UNL     1      37.308  24.329  20.148  1.00  0.00     0.090 C 
HETATM   20  C16 UNL     1      36.076  24.897  20.788  1.00  0.00     0.069 C 
HETATM   21  C17 UNL     1      36.285  26.367  21.069  1.00  0.00     0.065 C 
HETATM   22  N6  UNL     1      37.542  26.695  21.609  1.00  0.00    -0.373 N 
HETATM   23  C24 UNL     1      38.694  26.123  21.010  1.00  0.00     0.129 C 
HETATM   24  C25 UNL     1      38.202  25.458  19.711  1.00  0.00     0.045 C 
BRANCH  22  25
HETATM   25  C18 UNL     1      37.643  27.246  22.891  1.00  0.00     0.067 C 
BRANCH  25  26
HETATM   26  C19 UNL     1      38.264  28.603  22.978  1.00  0.00     0.024 C 
HETATM   27  C20 UNL     1      37.450  29.532  23.884  1.00  0.00     0.010 C 
HETATM   28  C21 UNL     1      38.458  30.630  24.258  1.00  0.00     0.001 C 
HETATM   29  C22 UNL     1      39.823  30.017  24.046  1.00  0.00     0.001 C 
HETATM   30  C23 UNL     1      39.551  28.544  23.814  1.00  0.00     0.010 C 
ENDBRANCH  25  26
ENDBRANCH  22  25
ENDBRANCH  17  19
ENDBRANCH  15  17
ENDBRANCH  13  15
ENDBRANCH  12  13
BRANCH   1  31
HETATM   31  C7  UNL     1      37.349  21.535  22.331  1.00  0.00     0.030 A 
HETATM   32  C2  UNL     1      36.367  22.072  23.193  1.00  0.00     0.087 A 
HETATM   33  C3  UNL     1      36.655  23.128  24.007  1.00  0.00     0.039 A 
HETATM   34  C4  UNL     1      37.927  23.695  24.001  1.00  0.00     0.026 A 
HETATM   35  C5  UNL     1      38.894  23.192  23.175  1.00  0.00     0.035 A 
HETATM   36 CL1  UNL     1      40.495  23.922  23.183  1.00  0.00    -0.084 Cl
HETATM   37  C6  UNL     1      38.583  22.130  22.365  1.00  0.00     0.040 A 
BRANCH  32  38
HETATM   38  O1  UNL     1      35.130  21.496  23.177  1.00  0.00    -0.289 OA
BRANCH  38  39
HETATM   39  C1  UNL     1      33.961  22.106  22.785  1.00  0.00     0.505 C 
HETATM   40  F1  UNL     1      33.758  23.203  23.618  1.00  0.00    -0.184 F 
HETATM   41  F2  UNL     1      32.845  21.254  22.970  1.00  0.00    -0.184 F 
ENDBRANCH  38  39
ENDBRANCH  32  38
ENDBRANCH   1  31
TORSDOF 9
ENDMDL
MODEL 2
REMARK VINA RESULT: -9.808859292      2.314      3.538
REMARK  9 active torsions:
REMARK  status: ('A' for Active; 'I' for Inactive)
REMARK    1  A    between atoms: C1_2  and  O1_4 
REMARK    2  A    between atoms: O1_4  and  C2_5 
REMARK    3  A    between atoms: C7_11  and  C8_12 
REMARK    4  A    between atoms: C13_23  and  N4_24 
REMARK    5  A    between atoms: N4_24  and  C14_26 
REMARK    6  A    between atoms: C14_26  and  N5_28 
REMARK    7  A    between atoms: N5_28  and  C15_30 
REMARK    8  A    between atoms: N6_33  and  C18_34 
REMARK    9  A    between atoms: C18_34  and  C19_35 
ROOT
HETATM    1  C8  UNL     1      36.419  20.323  19.747  1.00  0.00     0.093 A 
HETATM    2  N1  UNL     1      35.854  19.216  19.258  1.00  0.00    -0.336 N 
ATOM      3  H1  UNL     1      35.109  19.207  18.563  1.00  0.00     0.168 HD
HETATM    4  C9  UNL     1      36.392  18.126  19.798  1.00  0.00     0.147 A 
HETATM    5  C10 UNL     1      36.150  16.786  19.610  1.00  0.00     0.058 A 
HETATM    6 BR1  UNL     1      34.802  16.220  18.377  1.00  0.00    -0.047 Br
HETATM    7  C11 UNL     1      36.876  15.846  20.308  1.00  0.00     0.041 A 
HETATM    8  C12 UNL     1      37.835  16.317  21.185  1.00  0.00     0.109 A 
HETATM    9  N2  UNL     1      38.039  17.618  21.339  1.00  0.00    -0.302 N 
ATOM     10  H2  UNL     1      38.756  17.925  21.994  1.00  0.00     0.186 HD
HETATM   11  N3  UNL     1      37.356  18.527  20.682  1.00  0.00    -0.220 N 
HETATM   12  C13 UNL     1      37.400  19.895  20.674  1.00  0.00     0.159 A 
ENDROOT
BRANCH  12  13
HETATM   13  N4  UNL     1      38.230  20.800  21.347  1.00  0.00    -0.316 N 
ATOM     14  H4  UNL     1      39.074  21.028  20.820  1.00  0.00     0.170 HD
BRANCH  13  15
HETATM   15  C14 UNL     1      38.166  21.464  22.577  1.00  0.00     0.173 C 
HETATM   16  S1  UNL     1      36.932  21.297  23.590  1.00  0.00    -0.041 SA
BRANCH  15  17
HETATM   17  N5  UNL     1      39.254  22.368  22.925  1.00  0.00    -0.362 N 
ATOM     18  H5  UNL     1      40.141  21.963  23.224  1.00  0.00     0.162 HD
BRANCH  17  19
HETATM   19  C15 UNL     1      39.148  23.781  22.871  1.00  0.00     0.090 C 
HETATM   20  C16 UNL     1      38.922  24.364  21.508  1.00  0.00     0.069 C 
HETATM   21  C17 UNL     1      39.678  25.666  21.383  1.00  0.00     0.065 C 
HETATM   22  N6  UNL     1      39.590  26.512  22.503  1.00  0.00    -0.373 N 
HETATM   23  C24 UNL     1      39.775  25.938  23.787  1.00  0.00     0.129 C 
HETATM   24  C25 UNL     1      40.287  24.508  23.535  1.00  0.00     0.045 C 
BRANCH  22  25
HETATM   25  C18 UNL     1      38.983  27.768  22.400  1.00  0.00     0.067 C 
BRANCH  25  26
HETATM   26  C19 UNL     1      37.672  27.927  23.101  1.00  0.00     0.024 C 
HETATM   27  C20 UNL     1      37.214  29.388  23.105  1.00  0.00     0.010 C 
HETATM   28  C21 UNL     1      35.704  29.282  23.369  1.00  0.00     0.001 C 
HETATM   29  C22 UNL     1      35.317  27.881  22.957  1.00  0.00     0.001 C 
HETATM   30  C23 UNL     1      36.540  27.337  22.246  1.00  0.00     0.010 C 
ENDBRANCH  25  26
ENDBRANCH  22  25
ENDBRANCH  17  19
ENDBRANCH  15  17
ENDBRANCH  13  15
ENDBRANCH  12  13
BRANCH   1  31
HETATM   31  C7  UNL     1      36.115  21.706  19.417  1.00  0.00     0.030 A 
HETATM   32  C2  UNL     1      34.836  22.211  19.740  1.00  0.00     0.087 A 
HETATM   33  C3  UNL     1      34.507  23.506  19.466  1.00  0.00     0.039 A 
HETATM   34  C4  UNL     1      35.431  24.353  18.860  1.00  0.00     0.026 A 
HETATM   35  C5  UNL     1      36.676  23.887  18.538  1.00  0.00     0.035 A 
HETATM   36 CL1  UNL     1      37.829  24.975  17.774  1.00  0.00    -0.084 Cl
HETATM   37  C6  UNL     1      36.986  22.582  18.822  1.00  0.00     0.040 A 
BRANCH  32  38
HETATM   38  O1  UNL     1      33.952  21.357  20.333  1.00  0.00    -0.289 OA
BRANCH  38  39
HETATM   39  C1  UNL     1      33.518  21.422  21.637  1.00  0.00     0.505 C 
HETATM   40  F1  UNL     1      32.174  21.785  21.617  1.00  0.00    -0.184 F 
HETATM   41  F2  UNL     1      34.194  22.439  22.356  1.00  0.00    -0.184 F 
ENDBRANCH  38  39
ENDBRANCH  32  38
ENDBRANCH   1  31
TORSDOF 9
ENDMDL
MODEL 3
REMARK VINA RESULT: -9.726959346      1.642      2.101
REMARK  9 active torsions:
REMARK  status: ('A' for Active; 'I' for Inactive)
REMARK    1  A    between atoms: C1_2  and  O1_4 
REMARK    2  A    between atoms: O1_4  and  C2_5 
REMARK    3  A    between atoms: C7_11  and  C8_12 
REMARK    4  A    between atoms: C13_23  and  N4_24 
REMARK    5  A    between atoms: N4_24  and  C14_26 
REMARK    6  A    between atoms: C14_26  and  N5_28 
REMARK    7  A    between atoms: N5_28  and  C15_30 
REMARK    8  A    between atoms: N6_33  and  C18_34 
REMARK    9  A    between atoms: C18_34  and  C19_35 
ROOT
HETATM    1  C8  UNL     1      37.674  20.478  20.615  1.00  0.00     0.093 A 
HETATM    2  N1  UNL     1      37.914  19.219  20.990  1.00  0.00    -0.336 N 
ATOM      3  H1  UNL     1      38.611  18.945  21.681  1.00  0.00     0.168 HD
HETATM    4  C9  UNL     1      37.123  18.368  20.342  1.00  0.00     0.147 A 
HETATM    5  C10 UNL     1      36.997  17.001  20.394  1.00  0.00     0.058 A 
HETATM    6 BR1  UNL     1      38.114  15.981  21.565  1.00  0.00    -0.047 Br
HETATM    7  C11 UNL     1      36.069  16.359  19.604  1.00  0.00     0.041 A 
HETATM    8  C12 UNL     1      35.293  17.151  18.777  1.00  0.00     0.109 A 
HETATM    9  N2  UNL     1      35.444  18.467  18.756  1.00  0.00    -0.302 N 
ATOM     10  H2  UNL     1      34.852  19.016  18.133  1.00  0.00     0.186 HD
HETATM   11  N3  UNL     1      36.324  19.095  19.501  1.00  0.00    -0.220 N 
HETATM   12  C13 UNL     1      36.642  20.418  19.648  1.00  0.00     0.159 A 
ENDROOT
BRANCH  12  13
HETATM   13  N4  UNL     1      36.099  21.572  19.069  1.00  0.00    -0.316 N 
ATOM     14  H4  UNL     1      36.523  21.797  18.168  1.00  0.00     0.170 HD
BRANCH  13  15
HETATM   15  C14 UNL     1      35.109  22.487  19.444  1.00  0.00     0.173 C 
HETATM   16  S1  UNL     1      33.713  22.035  20.096  1.00  0.00    -0.041 SA
BRANCH  15  17
HETATM   17  N5  UNL     1      35.353  23.901  19.195  1.00  0.00    -0.362 N 
ATOM     18  H5  UNL     1      35.436  24.213  18.227  1.00  0.00     0.162 HD
BRANCH  17  19
HETATM   19  C15 UNL     1      35.482  24.868  20.224  1.00  0.00     0.090 C 
HETATM   20  C16 UNL     1      36.426  25.998  19.938  1.00  0.00     0.069 C 
HETATM   21  C17 UNL     1      37.156  26.380  21.205  1.00  0.00     0.065 C 
HETATM   22  N6  UNL     1      36.350  26.446  22.357  1.00  0.00    -0.373 N 
HETATM   23  C24 UNL     1      35.441  25.383  22.594  1.00  0.00     0.129 C 
HETATM   24  C25 UNL     1      35.803  24.287  21.575  1.00  0.00     0.045 C 
BRANCH  22  25
HETATM   25  C18 UNL     1      36.174  27.657  23.033  1.00  0.00     0.067 C 
BRANCH  25  26
HETATM   26  C19 UNL     1      37.060  28.784  22.608  1.00  0.00     0.024 C 
HETATM   27  C20 UNL     1      36.269  29.868  21.870  1.00  0.00     0.010 C 
HETATM   28  C21 UNL     1      37.177  31.103  21.982  1.00  0.00     0.001 C 
HETATM   29  C22 UNL     1      38.077  30.840  23.166  1.00  0.00     0.001 C 
HETATM   30  C23 UNL     1      37.488  29.610  23.830  1.00  0.00     0.010 C 
ENDBRANCH  25  26
ENDBRANCH  22  25
ENDBRANCH  17  19
ENDBRANCH  15  17
ENDBRANCH  13  15
ENDBRANCH  12  13
BRANCH   1  31
HETATM   31  C7  UNL     1      38.323  21.692  21.083  1.00  0.00     0.030 A 
HETATM   32  C2  UNL     1      38.387  21.929  22.474  1.00  0.00     0.087 A 
HETATM   33  C3  UNL     1      38.999  23.046  22.964  1.00  0.00     0.039 A 
HETATM   34  C4  UNL     1      39.572  23.972  22.097  1.00  0.00     0.026 A 
HETATM   35  C5  UNL     1      39.523  23.764  20.747  1.00  0.00     0.035 A 
HETATM   36 CL1  UNL     1      40.255  24.946  19.669  1.00  0.00    -0.084 Cl
HETATM   37  C6  UNL     1      38.903  22.635  20.275  1.00  0.00     0.040 A 
BRANCH  32  38
HETATM   38  O1  UNL     1      37.816  21.004  23.299  1.00  0.00    -0.289 OA
BRANCH  38  39
HETATM   39  C1  UNL     1      36.633  21.156  23.985  1.00  0.00     0.505 C 
HETATM   40  F1  UNL     1      35.607  21.228  23.046  1.00  0.00    -0.184 F 
HETATM   41  F2  UNL     1      36.603  22.378  24.700  1.00  0.00    -0.184 F 
ENDBRANCH  38  39
ENDBRANCH  32  38
ENDBRANCH   1  31
TORSDOF 9
ENDMDL
MODEL 4
REMARK VINA RESULT: -9.674353931      1.624      2.010
REMARK  9 active torsions:
REMARK  status: ('A' for Active; 'I' for Inactive)
REMARK    1  A    between atoms: C1_2  and  O1_4 
REMARK    2  A    between atoms: O1_4  and  C2_5 
REMARK    3  A    between atoms: C7_11  and  C8_12 
REMARK    4  A    between atoms: C13_23  and  N4_24 
REMARK    5  A    between atoms: N4_24  and  C14_26 
REMARK    6  A    between atoms: C14_26  and  N5_28 
REMARK    7  A    between atoms: N5_28  and  C15_30 
REMARK    8  A    between atoms: N6_33  and  C18_34 
REMARK    9  A    between atoms: C18_34  and  C19_35 
ROOT
HETATM    1  C8  UNL     1      37.537  20.278  20.456  1.00  0.00     0.093 A 
HETATM    2  N1  UNL     1      37.828  19.021  20.801  1.00  0.00    -0.336 N 
ATOM      3  H1  UNL     1      38.587  18.757  21.429  1.00  0.00     0.168 HD
HETATM    4  C9  UNL     1      37.000  18.160  20.220  1.00  0.00     0.147 A 
HETATM    5  C10 UNL     1      36.901  16.790  20.275  1.00  0.00     0.058 A 
HETATM    6 BR1  UNL     1      38.131  15.785  21.340  1.00  0.00    -0.047 Br
HETATM    7  C11 UNL     1      35.920  16.136  19.564  1.00  0.00     0.041 A 
HETATM    8  C12 UNL     1      35.062  16.917  18.812  1.00  0.00     0.109 A 
HETATM    9  N2  UNL     1      35.189  18.237  18.784  1.00  0.00    -0.302 N 
ATOM     10  H2  UNL     1      34.536  18.778  18.218  1.00  0.00     0.186 HD
HETATM   11  N3  UNL     1      36.119  18.877  19.455  1.00  0.00    -0.220 N 
HETATM   12  C13 UNL     1      36.426  20.203  19.581  1.00  0.00     0.159 A 
ENDROOT
BRANCH  12  13
HETATM   13  N4  UNL     1      35.816  21.351  19.056  1.00  0.00    -0.316 N 
ATOM     14  H4  UNL     1      36.120  21.558  18.104  1.00  0.00     0.170 HD
BRANCH  13  15
HETATM   15  C14 UNL     1      34.886  22.277  19.540  1.00  0.00     0.173 C 
HETATM   16  S1  UNL     1      33.487  21.839  20.197  1.00  0.00    -0.041 SA
BRANCH  15  17
HETATM   17  N5  UNL     1      35.195  23.694  19.405  1.00  0.00    -0.362 N 
ATOM     18  H5  UNL     1      34.864  24.182  18.573  1.00  0.00     0.162 HD
BRANCH  17  19
HETATM   19  C15 UNL     1      35.931  24.432  20.366  1.00  0.00     0.090 C 
HETATM   20  C16 UNL     1      35.519  24.230  21.794  1.00  0.00     0.069 C 
HETATM   21  C17 UNL     1      35.631  25.537  22.542  1.00  0.00     0.065 C 
HETATM   22  N6  UNL     1      36.796  26.278  22.273  1.00  0.00    -0.373 N 
HETATM   23  C24 UNL     1      37.188  26.432  20.918  1.00  0.00     0.129 C 
HETATM   24  C25 UNL     1      36.008  25.907  20.079  1.00  0.00     0.045 C 
BRANCH  22  25
HETATM   25  C18 UNL     1      37.729  26.530  23.284  1.00  0.00     0.067 C 
BRANCH  25  26
HETATM   26  C19 UNL     1      38.899  27.380  22.905  1.00  0.00     0.024 C 
HETATM   27  C20 UNL     1      38.801  28.775  23.530  1.00  0.00     0.010 C 
HETATM   28  C21 UNL     1      40.249  29.286  23.479  1.00  0.00     0.001 C 
HETATM   29  C22 UNL     1      41.112  28.050  23.377  1.00  0.00     0.001 C 
HETATM   30  C23 UNL     1      40.163  26.896  23.631  1.00  0.00     0.010 C 
ENDBRANCH  25  26
ENDBRANCH  22  25
ENDBRANCH  17  19
ENDBRANCH  15  17
ENDBRANCH  13  15
ENDBRANCH  12  13
BRANCH   1  31
HETATM   31  C7  UNL     1      38.203  21.501  20.873  1.00  0.00     0.030 A 
HETATM   32  C2  UNL     1      38.315  21.770  22.255  1.00  0.00     0.087 A 
HETATM   33  C3  UNL     1      38.946  22.896  22.698  1.00  0.00     0.039 A 
HETATM   34  C4  UNL     1      39.490  23.801  21.790  1.00  0.00     0.026 A 
HETATM   35  C5  UNL     1      39.394  23.562  20.447  1.00  0.00     0.035 A 
HETATM   36 CL1  UNL     1      40.089  24.717  19.317  1.00  0.00    -0.084 Cl
HETATM   37  C6  UNL     1      38.756  22.424  20.024  1.00  0.00     0.040 A 
BRANCH  32  38
HETATM   38  O1  UNL     1      37.772  20.865  23.120  1.00  0.00    -0.289 OA
BRANCH  38  39
HETATM   39  C1  UNL     1      36.634  21.050  23.870  1.00  0.00     0.505 C 
HETATM   40  F1  UNL     1      35.564  21.178  22.989  1.00  0.00    -0.184 F 
HETATM   41  F2  UNL     1      36.689  22.260  24.606  1.00  0.00    -0.184 F 
ENDBRANCH  38  39
ENDBRANCH  32  38
ENDBRANCH   1  31
TORSDOF 9
ENDMDL
MODEL 5
REMARK VINA RESULT: -9.548100131      2.302      3.347
REMARK  9 active torsions:
REMARK  status: ('A' for Active; 'I' for Inactive)
REMARK    1  A    between atoms: C1_2  and  O1_4 
REMARK    2  A    between atoms: O1_4  and  C2_5 
REMARK    3  A    between atoms: C7_11  and  C8_12 
REMARK    4  A    between atoms: C13_23  and  N4_24 
REMARK    5  A    between atoms: N4_24  and  C14_26 
REMARK    6  A    between atoms: C14_26  and  N5_28 
REMARK    7  A    between atoms: N5_28  and  C15_30 
REMARK    8  A    between atoms: N6_33  and  C18_34 
REMARK    9  A    between atoms: C18_34  and  C19_35 
ROOT
HETATM    1  C8  UNL     1      36.427  20.284  19.772  1.00  0.00     0.093 A 
HETATM    2  N1  UNL     1      35.877  19.178  19.265  1.00  0.00    -0.336 N 
ATOM      3  H1  UNL     1      35.142  19.170  18.558  1.00  0.00     0.168 HD
HETATM    4  C9  UNL     1      36.412  18.086  19.803  1.00  0.00     0.147 A 
HETATM    5  C10 UNL     1      36.182  16.747  19.599  1.00  0.00     0.058 A 
HETATM    6 BR1  UNL     1      34.857  16.184  18.340  1.00  0.00    -0.047 Br
HETATM    7  C11 UNL     1      36.902  15.805  20.300  1.00  0.00     0.041 A 
HETATM    8  C12 UNL     1      37.844  16.274  21.197  1.00  0.00     0.109 A 
HETATM    9  N2  UNL     1      38.037  17.574  21.366  1.00  0.00    -0.302 N 
ATOM     10  H2  UNL     1      38.742  17.880  22.036  1.00  0.00     0.186 HD
HETATM   11  N3  UNL     1      37.360  18.486  20.707  1.00  0.00    -0.220 N 
HETATM   12  C13 UNL     1      37.395  19.853  20.711  1.00  0.00     0.159 A 
ENDROOT
BRANCH  12  13
HETATM   13  N4  UNL     1      38.208  20.758  21.406  1.00  0.00    -0.316 N 
ATOM     14  H4  UNL     1      39.069  20.980  20.904  1.00  0.00     0.170 HD
BRANCH  13  15
HETATM   15  C14 UNL     1      38.111  21.426  22.632  1.00  0.00     0.173 C 
HETATM   16  S1  UNL     1      37.005  21.055  23.736  1.00  0.00    -0.041 SA
BRANCH  15  17
HETATM   17  N5  UNL     1      39.032  22.524  22.889  1.00  0.00    -0.362 N 
ATOM     18  H5  UNL     1      40.027  22.311  22.966  1.00  0.00     0.162 HD
BRANCH  17  19
HETATM   19  C15 UNL     1      38.623  23.873  23.038  1.00  0.00     0.090 C 
HETATM   20  C16 UNL     1      37.587  24.349  22.064  1.00  0.00     0.069 C 
HETATM   21  C17 UNL     1      37.868  25.785  21.687  1.00  0.00     0.065 C 
HETATM   22  N6  UNL     1      38.221  26.622  22.762  1.00  0.00    -0.373 N 
HETATM   23  C24 UNL     1      39.180  26.142  23.691  1.00  0.00     0.129 C 
HETATM   24  C25 UNL     1      39.760  24.859  23.069  1.00  0.00     0.045 C 
BRANCH  22  25
HETATM   25  C18 UNL     1      37.408  27.703  23.118  1.00  0.00     0.067 C 
BRANCH  25  26
HETATM   26  C19 UNL     1      37.568  28.945  22.302  1.00  0.00     0.024 C 
HETATM   27  C20 UNL     1      36.211  29.559  21.946  1.00  0.00     0.010 C 
HETATM   28  C21 UNL     1      36.564  31.013  21.596  1.00  0.00     0.001 C 
HETATM   29  C22 UNL     1      37.888  31.283  22.272  1.00  0.00     0.001 C 
HETATM   30  C23 UNL     1      38.110  30.086  23.175  1.00  0.00     0.010 C 
ENDBRANCH  25  26
ENDBRANCH  22  25
ENDBRANCH  17  19
ENDBRANCH  15  17
ENDBRANCH  13  15
ENDBRANCH  12  13
BRANCH   1  31
HETATM   31  C7  UNL     1      36.119  21.668  19.450  1.00  0.00     0.030 A 
HETATM   32  C2  UNL     1      34.852  22.178  19.811  1.00  0.00     0.087 A 
HETATM   33  C3  UNL     1      34.521  23.475  19.545  1.00  0.00     0.039 A 
HETATM   34  C4  UNL     1      35.431  24.317  18.911  1.00  0.00     0.026 A 
HETATM   35  C5  UNL     1      36.663  23.846  18.553  1.00  0.00     0.035 A 
HETATM   36 CL1  UNL     1      37.798  24.927  17.753  1.00  0.00    -0.084 Cl
HETATM   37  C6  UNL     1      36.975  22.539  18.829  1.00  0.00     0.040 A 
BRANCH  32  38
HETATM   38  O1  UNL     1      33.982  21.329  20.430  1.00  0.00    -0.289 OA
BRANCH  38  39
HETATM   39  C1  UNL     1      33.589  21.397  21.747  1.00  0.00     0.505 C 
HETATM   40  F1  UNL     1      32.256  21.798  21.769  1.00  0.00    -0.184 F 
HETATM   41  F2  UNL     1      34.314  22.388  22.453  1.00  0.00    -0.184 F 
ENDBRANCH  38  39
ENDBRANCH  32  38
ENDBRANCH   1  31
TORSDOF 9
ENDMDL
