MODEL 1
REMARK VINA RESULT: -7.544445593      0.000      0.000
REMARK  8 active torsions:
REMARK  status: ('A' for Active; 'I' for Inactive)
REMARK    1  A    between atoms: C3_3  and  C4_4 
REMARK    2  A    between atoms: N2_11  and  C11_13 
REMARK    3  A    between atoms: C11_13  and  C12_14 
REMARK    4  A    between atoms: C12_14  and  N3_16 
REMARK       I    between atoms: N3_16  and  C14_18 
REMARK    5  A    between atoms: C14_18  and  C15_20 
REMARK    6  A    between atoms: C19_25  and  O2_26 
REMARK    7  A    between atoms: C20_28  and  C21_29 
REMARK    8  A    between atoms: C21_29  and  O3_31 
ROOT
HETATM    1  C1  UNL     1     -20.104 -23.475  23.166  1.00  0.00     0.012 C 
HETATM    2  C2  UNL     1     -20.396 -23.478  24.336  1.00  0.00    -0.115 C 
HETATM    3  C3  UNL     1     -20.783 -23.476  25.777  1.00  0.00     0.128 C 
ENDROOT
BRANCH   3   4
HETATM    4  C4  UNL     1     -19.572 -23.028  26.566  1.00  0.00     0.232 C 
HETATM    5  C5  UNL     1     -19.999 -21.713  27.218  1.00  0.00     0.271 C 
HETATM    6  N1  UNL     1     -18.927 -21.024  27.868  1.00  0.00    -0.071 N 
HETATM    7  C6  UNL     1     -18.104 -20.385  26.846  1.00  0.00     0.272 C 
HETATM    8  C7  UNL     1     -19.495 -19.963  28.677  1.00  0.00     0.272 C 
HETATM    9  C8  UNL     1     -18.152 -21.895  28.720  1.00  0.00     0.265 C 
HETATM   10  C9  UNL     1     -17.962 -23.249  28.221  1.00  0.00     0.271 C 
HETATM   11  N2  UNL     1     -19.153 -23.899  27.605  1.00  0.00    -0.041 N 
HETATM   12  C10 UNL     1     -20.105 -23.955  28.717  1.00  0.00     0.279 C 
BRANCH  11  13
HETATM   13  C11 UNL     1     -18.595 -25.157  27.260  1.00  0.00     0.227 C 
BRANCH  13  14
HETATM   14  C12 UNL     1     -17.455 -25.300  26.410  1.00  0.00     0.031 C 
HETATM   15  C13 UNL     1     -16.110 -25.644  26.888  1.00  0.00     0.070 C 
BRANCH  14  16
HETATM   16  N3  UNL     1     -17.599 -25.088  25.144  1.00  0.00    -0.328 N 
HETATM   17  C14 UNL     1     -16.706 -24.366  24.347  1.00  0.00     0.256 C 
HETATM   18  O1  UNL     1     -16.561 -23.141  24.562  1.00  0.00    -0.271 OA
ATOM     19  H3  UNL     1     -18.426 -25.475  24.691  1.00  0.00     0.168 HD
BRANCH  17  20
HETATM   20  C15 UNL     1     -15.930 -24.996  23.263  1.00  0.00     0.329 C 
HETATM   21  C16 UNL     1     -16.541 -24.470  21.953  1.00  0.00     0.103 C 
HETATM   22 BR1  UNL     1     -17.215 -25.958  20.923  1.00  0.00    -0.088 Br
HETATM   23  C17 UNL     1     -15.354 -23.894  21.165  1.00  0.00     0.057 C 
HETATM   24  C18 UNL     1     -14.258 -24.661  21.803  1.00  0.00     0.254 C 
HETATM   25  C19 UNL     1     -12.911 -24.040  21.831  1.00  0.00     0.159 C 
HETATM   26  N4  UNL     1     -14.627 -24.466  23.224  1.00  0.00     0.111 N 
HETATM   27  C20 UNL     1     -12.370 -24.653  23.130  1.00  0.00     0.073 C 
HETATM   28  C23 UNL     1     -13.576 -25.262  23.819  1.00  0.00     0.283 C 
BRANCH  25  29
HETATM   29  O2  UNL     1     -13.025 -22.682  22.043  1.00  0.00    -0.393 OA
ATOM     30  H2  UNL     1     -12.211 -22.341  22.394  1.00  0.00     0.210 HD
ENDBRANCH  25  29
BRANCH  27  31
HETATM   31  C21 UNL     1     -11.310 -25.660  22.816  1.00  0.00     0.122 C 
HETATM   32  C22 UNL     1     -11.729 -26.762  21.906  1.00  0.00     0.040 C 
BRANCH  31  33
HETATM   33  O3  UNL     1     -10.164 -25.055  22.304  1.00  0.00    -0.395 OA
ATOM     34  H3  UNL     1      -9.445 -25.088  22.925  1.00  0.00     0.210 HD
ENDBRANCH  31  33
ENDBRANCH  27  31
ENDBRANCH  17  20
ENDBRANCH  14  16
ENDBRANCH  13  14
ENDBRANCH  11  13
ENDBRANCH   3   4
TORSDOF 8
ENDMDL
MODEL 2
REMARK VINA RESULT: -7.493024212      3.128      7.561
REMARK  8 active torsions:
REMARK  status: ('A' for Active; 'I' for Inactive)
REMARK    1  A    between atoms: C3_3  and  C4_4 
REMARK    2  A    between atoms: N2_11  and  C11_13 
REMARK    3  A    between atoms: C11_13  and  C12_14 
REMARK    4  A    between atoms: C12_14  and  N3_16 
REMARK       I    between atoms: N3_16  and  C14_18 
REMARK    5  A    between atoms: C14_18  and  C15_20 
REMARK    6  A    between atoms: C19_25  and  O2_26 
REMARK    7  A    between atoms: C20_28  and  C21_29 
REMARK    8  A    between atoms: C21_29  and  O3_31 
ROOT
HETATM    1  C1  UNL     1     -13.316 -28.022  20.011  1.00  0.00     0.012 C 
HETATM    2  C2  UNL     1     -14.217 -27.315  20.388  1.00  0.00    -0.115 C 
HETATM    3  C3  UNL     1     -15.344 -26.443  20.829  1.00  0.00     0.128 C 
ENDROOT
BRANCH   3   4
HETATM    4  C4  UNL     1     -14.776 -25.436  21.806  1.00  0.00     0.232 C 
HETATM    5  C5  UNL     1     -13.276 -25.415  21.513  1.00  0.00     0.271 C 
HETATM    6  N1  UNL     1     -12.520 -24.654  22.460  1.00  0.00    -0.071 N 
HETATM    7  C6  UNL     1     -12.388 -25.440  23.681  1.00  0.00     0.272 C 
HETATM    8  C7  UNL     1     -11.183 -24.470  21.929  1.00  0.00     0.272 C 
HETATM    9  C8  UNL     1     -13.103 -23.357  22.711  1.00  0.00     0.265 C 
HETATM   10  C9  UNL     1     -14.558 -23.319  22.730  1.00  0.00     0.271 C 
HETATM   11  N2  UNL     1     -15.252 -24.106  21.672  1.00  0.00    -0.041 N 
HETATM   12  C10 UNL     1     -14.798 -23.462  20.436  1.00  0.00     0.279 C 
BRANCH  11  13
HETATM   13  C11 UNL     1     -16.603 -23.826  22.004  1.00  0.00     0.227 C 
BRANCH  13  14
HETATM   14  C12 UNL     1     -17.191 -24.185  23.256  1.00  0.00     0.031 C 
HETATM   15  C13 UNL     1     -17.871 -25.461  23.509  1.00  0.00     0.070 C 
BRANCH  14  16
HETATM   16  N3  UNL     1     -17.151 -23.330  24.225  1.00  0.00    -0.328 N 
HETATM   17  C14 UNL     1     -18.149 -23.169  25.190  1.00  0.00     0.256 C 
HETATM   18  O1  UNL     1     -19.272 -22.747  24.830  1.00  0.00    -0.271 OA
ATOM     19  H3  UNL     1     -16.331 -22.729  24.290  1.00  0.00     0.168 HD
BRANCH  17  20
HETATM   20  C15 UNL     1     -17.925 -23.474  26.615  1.00  0.00     0.329 C 
HETATM   21  C16 UNL     1     -19.021 -22.714  27.381  1.00  0.00     0.103 C 
HETATM   22 BR1  UNL     1     -18.194 -21.459  28.595  1.00  0.00    -0.088 Br
HETATM   23  C17 UNL     1     -19.706 -23.778  28.252  1.00  0.00     0.057 C 
HETATM   24  C18 UNL     1     -18.607 -24.769  28.317  1.00  0.00     0.254 C 
HETATM   25  C19 UNL     1     -18.976 -26.194  28.507  1.00  0.00     0.159 C 
HETATM   26  N4  UNL     1     -18.246 -24.818  26.882  1.00  0.00     0.111 N 
HETATM   27  C20 UNL     1     -17.816 -26.864  27.758  1.00  0.00     0.073 C 
HETATM   28  C23 UNL     1     -17.144 -25.750  26.980  1.00  0.00     0.283 C 
BRANCH  25  29
HETATM   29  O2  UNL     1     -20.128 -26.477  27.804  1.00  0.00    -0.393 OA
ATOM     30  H2  UNL     1     -19.969 -26.377  26.873  1.00  0.00     0.210 HD
ENDBRANCH  25  29
BRANCH  27  31
HETATM   31  C21 UNL     1     -16.897 -27.530  28.732  1.00  0.00     0.122 C 
HETATM   32  C22 UNL     1     -17.563 -28.155  29.910  1.00  0.00     0.040 C 
BRANCH  31  33
HETATM   33  O3  UNL     1     -16.089 -28.478  28.108  1.00  0.00    -0.395 OA
ATOM     34  H3  UNL     1     -15.379 -28.758  28.674  1.00  0.00     0.210 HD
ENDBRANCH  31  33
ENDBRANCH  27  31
ENDBRANCH  17  20
ENDBRANCH  14  16
ENDBRANCH  13  14
ENDBRANCH  11  13
ENDBRANCH   3   4
TORSDOF 8
ENDMDL
MODEL 3
REMARK VINA RESULT: -7.349020797      1.255      1.926
REMARK  8 active torsions:
REMARK  status: ('A' for Active; 'I' for Inactive)
REMARK    1  A    between atoms: C3_3  and  C4_4 
REMARK    2  A    between atoms: N2_11  and  C11_13 
REMARK    3  A    between atoms: C11_13  and  C12_14 
REMARK    4  A    between atoms: C12_14  and  N3_16 
REMARK       I    between atoms: N3_16  and  C14_18 
REMARK    5  A    between atoms: C14_18  and  C15_20 
REMARK    6  A    between atoms: C19_25  and  O2_26 
REMARK    7  A    between atoms: C20_28  and  C21_29 
REMARK    8  A    between atoms: C21_29  and  O3_31 
ROOT
HETATM    1  C1  UNL     1     -17.970 -19.735  26.978  1.00  0.00     0.012 C 
HETATM    2  C2  UNL     1     -18.395 -20.850  26.803  1.00  0.00    -0.115 C 
HETATM    3  C3  UNL     1     -18.941 -22.219  26.571  1.00  0.00     0.128 C 
ENDROOT
BRANCH   3   4
HETATM    4  C4  UNL     1     -18.568 -23.060  27.772  1.00  0.00     0.232 C 
HETATM    5  C5  UNL     1     -19.050 -22.252  28.977  1.00  0.00     0.271 C 
HETATM    6  N1  UNL     1     -18.627 -22.791  30.232  1.00  0.00    -0.071 N 
HETATM    7  C6  UNL     1     -17.220 -22.457  30.425  1.00  0.00     0.272 C 
HETATM    8  C7  UNL     1     -19.368 -22.123  31.285  1.00  0.00     0.272 C 
HETATM    9  C8  UNL     1     -18.864 -24.212  30.327  1.00  0.00     0.265 C 
HETATM   10  C9  UNL     1     -18.659 -24.963  29.096  1.00  0.00     0.271 C 
HETATM   11  N2  UNL     1     -19.179 -24.338  27.847  1.00  0.00    -0.041 N 
HETATM   12  C10 UNL     1     -20.621 -24.264  28.097  1.00  0.00     0.279 C 
BRANCH  11  13
HETATM   13  C11 UNL     1     -18.809 -25.331  26.904  1.00  0.00     0.227 C 
BRANCH  13  14
HETATM   14  C12 UNL     1     -17.581 -25.296  26.173  1.00  0.00     0.031 C 
HETATM   15  C13 UNL     1     -16.259 -25.504  26.776  1.00  0.00     0.070 C 
BRANCH  14  16
HETATM   16  N3  UNL     1     -17.623 -25.038  24.908  1.00  0.00    -0.328 N 
HETATM   17  C14 UNL     1     -16.629 -24.361  24.196  1.00  0.00     0.256 C 
HETATM   18  O1  UNL     1     -16.413 -23.156  24.461  1.00  0.00    -0.271 OA
ATOM     19  H3  UNL     1     -18.444 -25.351  24.389  1.00  0.00     0.168 HD
BRANCH  17  20
HETATM   20  C15 UNL     1     -15.828 -25.015  23.145  1.00  0.00     0.329 C 
HETATM   21  C16 UNL     1     -16.413 -24.525  21.809  1.00  0.00     0.103 C 
HETATM   22 BR1  UNL     1     -17.060 -26.041  20.803  1.00  0.00    -0.088 Br
HETATM   23  C17 UNL     1     -15.212 -23.965  21.032  1.00  0.00     0.057 C 
HETATM   24  C18 UNL     1     -14.127 -24.710  21.712  1.00  0.00     0.254 C 
HETATM   25  C19 UNL     1     -12.783 -24.084  21.753  1.00  0.00     0.159 C 
HETATM   26  N4  UNL     1     -14.526 -24.481  23.120  1.00  0.00     0.111 N 
HETATM   27  C20 UNL     1     -12.267 -24.661  23.078  1.00  0.00     0.073 C 
HETATM   28  C23 UNL     1     -13.485 -25.257  23.757  1.00  0.00     0.283 C 
BRANCH  25  29
HETATM   29  O2  UNL     1     -12.906 -22.721  21.928  1.00  0.00    -0.393 OA
ATOM     30  H2  UNL     1     -13.633 -22.536  22.510  1.00  0.00     0.210 HD
ENDBRANCH  25  29
BRANCH  27  31
HETATM   31  C21 UNL     1     -11.197 -25.671  22.813  1.00  0.00     0.122 C 
HETATM   32  C22 UNL     1     -11.596 -26.802  21.928  1.00  0.00     0.040 C 
BRANCH  31  33
HETATM   33  O3  UNL     1     -10.045 -25.076  22.303  1.00  0.00    -0.395 OA
ATOM     34  H3  UNL     1      -9.418 -24.883  22.991  1.00  0.00     0.210 HD
ENDBRANCH  31  33
ENDBRANCH  27  31
ENDBRANCH  17  20
ENDBRANCH  14  16
ENDBRANCH  13  14
ENDBRANCH  11  13
ENDBRANCH   3   4
TORSDOF 8
ENDMDL
MODEL 4
REMARK VINA RESULT: -7.340909025      2.185      4.060
REMARK  8 active torsions:
REMARK  status: ('A' for Active; 'I' for Inactive)
REMARK    1  A    between atoms: C3_3  and  C4_4 
REMARK    2  A    between atoms: N2_11  and  C11_13 
REMARK    3  A    between atoms: C11_13  and  C12_14 
REMARK    4  A    between atoms: C12_14  and  N3_16 
REMARK       I    between atoms: N3_16  and  C14_18 
REMARK    5  A    between atoms: C14_18  and  C15_20 
REMARK    6  A    between atoms: C19_25  and  O2_26 
REMARK    7  A    between atoms: C20_28  and  C21_29 
REMARK    8  A    between atoms: C21_29  and  O3_31 
ROOT
HETATM    1  C1  UNL     1     -14.999 -24.227  30.034  1.00  0.00     0.012 C 
HETATM    2  C2  UNL     1     -16.158 -24.519  30.193  1.00  0.00    -0.115 C 
HETATM    3  C3  UNL     1     -17.590 -24.871  30.415  1.00  0.00     0.128 C 
ENDROOT
BRANCH   3   4
HETATM    4  C4  UNL     1     -17.917 -26.025  29.492  1.00  0.00     0.232 C 
HETATM    5  C5  UNL     1     -18.614 -27.051  30.385  1.00  0.00     0.271 C 
HETATM    6  N1  UNL     1     -18.845 -28.306  29.739  1.00  0.00    -0.071 N 
HETATM    7  C6  UNL     1     -17.583 -29.036  29.689  1.00  0.00     0.272 C 
HETATM    8  C7  UNL     1     -19.748 -29.082  30.567  1.00  0.00     0.272 C 
HETATM    9  C8  UNL     1     -19.433 -28.150  28.430  1.00  0.00     0.265 C 
HETATM   10  C9  UNL     1     -18.959 -27.005  27.665  1.00  0.00     0.271 C 
HETATM   11  N2  UNL     1     -18.798 -25.729  28.420  1.00  0.00    -0.041 N 
HETATM   12  C10 UNL     1     -20.162 -25.441  28.868  1.00  0.00     0.279 C 
BRANCH  11  13
HETATM   13  C11 UNL     1     -18.344 -24.883  27.374  1.00  0.00     0.227 C 
BRANCH  13  14
HETATM   14  C12 UNL     1     -17.305 -25.251  26.466  1.00  0.00     0.031 C 
HETATM   15  C13 UNL     1     -15.986 -25.743  26.880  1.00  0.00     0.070 C 
BRANCH  14  16
HETATM   16  N3  UNL     1     -17.519 -25.120  25.198  1.00  0.00    -0.328 N 
HETATM   17  C14 UNL     1     -16.720 -24.377  24.324  1.00  0.00     0.256 C 
HETATM   18  O1  UNL     1     -16.664 -23.134  24.469  1.00  0.00    -0.271 OA
ATOM     19  H3  UNL     1     -18.332 -25.594  24.805  1.00  0.00     0.168 HD
BRANCH  17  20
HETATM   20  C15 UNL     1     -15.943 -25.004  23.239  1.00  0.00     0.329 C 
HETATM   21  C16 UNL     1     -16.554 -24.474  21.930  1.00  0.00     0.103 C 
HETATM   22 BR1  UNL     1     -17.228 -25.959  20.895  1.00  0.00    -0.088 Br
HETATM   23  C17 UNL     1     -15.367 -23.897  21.145  1.00  0.00     0.057 C 
HETATM   24  C18 UNL     1     -14.271 -24.664  21.781  1.00  0.00     0.254 C 
HETATM   25  C19 UNL     1     -12.924 -24.044  21.811  1.00  0.00     0.159 C 
HETATM   26  N4  UNL     1     -14.641 -24.473  23.202  1.00  0.00     0.111 N 
HETATM   27  C20 UNL     1     -12.383 -24.660  23.109  1.00  0.00     0.073 C 
HETATM   28  C23 UNL     1     -13.590 -25.271  23.796  1.00  0.00     0.283 C 
BRANCH  25  29
HETATM   29  O2  UNL     1     -13.038 -22.687  22.027  1.00  0.00    -0.393 OA
ATOM     30  H2  UNL     1     -12.654 -22.212  21.300  1.00  0.00     0.210 HD
ENDBRANCH  25  29
BRANCH  27  31
HETATM   31  C21 UNL     1     -11.323 -25.666  22.794  1.00  0.00     0.122 C 
HETATM   32  C22 UNL     1     -11.748 -26.778  21.897  1.00  0.00     0.040 C 
BRANCH  31  33
HETATM   33  O3  UNL     1     -10.185 -25.062  22.265  1.00  0.00    -0.395 OA
ATOM     34  H3  UNL     1      -9.395 -25.531  22.510  1.00  0.00     0.210 HD
ENDBRANCH  31  33
ENDBRANCH  27  31
ENDBRANCH  17  20
ENDBRANCH  14  16
ENDBRANCH  13  14
ENDBRANCH  11  13
ENDBRANCH   3   4
TORSDOF 8
ENDMDL
MODEL 5
REMARK VINA RESULT: -7.309674962      3.088      7.271
REMARK  8 active torsions:
REMARK  status: ('A' for Active; 'I' for Inactive)
REMARK    1  A    between atoms: C3_3  and  C4_4 
REMARK    2  A    between atoms: N2_11  and  C11_13 
REMARK    3  A    between atoms: C11_13  and  C12_14 
REMARK    4  A    between atoms: C12_14  and  N3_16 
REMARK       I    between atoms: N3_16  and  C14_18 
REMARK    5  A    between atoms: C14_18  and  C15_20 
REMARK    6  A    between atoms: C19_25  and  O2_26 
REMARK    7  A    between atoms: C20_28  and  C21_29 
REMARK    8  A    between atoms: C21_29  and  O3_31 
ROOT
HETATM    1  C1  UNL     1     -13.462 -27.950  19.978  1.00  0.00     0.012 C 
HETATM    2  C2  UNL     1     -14.356 -27.253  20.389  1.00  0.00    -0.115 C 
HETATM    3  C3  UNL     1     -15.475 -26.393  20.873  1.00  0.00     0.128 C 
ENDROOT
BRANCH   3   4
HETATM    4  C4  UNL     1     -14.888 -25.404  21.855  1.00  0.00     0.232 C 
HETATM    5  C5  UNL     1     -13.396 -25.365  21.523  1.00  0.00     0.271 C 
HETATM    6  N1  UNL     1     -12.620 -24.619  22.466  1.00  0.00    -0.071 N 
HETATM    7  C6  UNL     1     -12.450 -25.431  23.665  1.00  0.00     0.272 C 
HETATM    8  C7  UNL     1     -11.299 -24.414  21.904  1.00  0.00     0.272 C 
HETATM    9  C8  UNL     1     -13.205 -23.333  22.761  1.00  0.00     0.265 C 
HETATM   10  C9  UNL     1     -14.659 -23.305  22.820  1.00  0.00     0.271 C 
HETATM   11  N2  UNL     1     -15.376 -24.075  21.763  1.00  0.00    -0.041 N 
HETATM   12  C10 UNL     1     -14.960 -23.401  20.531  1.00  0.00     0.279 C 
BRANCH  11  13
HETATM   13  C11 UNL     1     -16.720 -23.811  22.138  1.00  0.00     0.227 C 
BRANCH  13  14
HETATM   14  C12 UNL     1     -17.351 -24.425  23.264  1.00  0.00     0.031 C 
HETATM   15  C13 UNL     1     -18.040 -25.719  23.216  1.00  0.00     0.070 C 
BRANCH  14  16
HETATM   16  N3  UNL     1     -17.347 -23.795  24.393  1.00  0.00    -0.328 N 
HETATM   17  C14 UNL     1     -18.488 -23.465  25.129  1.00  0.00     0.256 C 
HETATM   18  O1  UNL     1     -19.300 -22.643  24.645  1.00  0.00    -0.271 OA
ATOM     19  H3  UNL     1     -16.443 -23.518  24.775  1.00  0.00     0.168 HD
BRANCH  17  20
HETATM   20  C15 UNL     1     -18.767 -24.048  26.454  1.00  0.00     0.329 C 
HETATM   21  C16 UNL     1     -19.628 -25.295  26.187  1.00  0.00     0.103 C 
HETATM   22 BR1  UNL     1     -21.333 -25.093  27.073  1.00  0.00    -0.088 Br
HETATM   23  C17 UNL     1     -18.897 -26.441  26.903  1.00  0.00     0.057 C 
HETATM   24  C18 UNL     1     -18.136 -25.647  27.897  1.00  0.00     0.254 C 
HETATM   25  C19 UNL     1     -16.855 -26.209  28.391  1.00  0.00     0.159 C 
HETATM   26  N4  UNL     1     -17.594 -24.600  27.001  1.00  0.00     0.111 N 
HETATM   27  C20 UNL     1     -16.091 -24.907  28.670  1.00  0.00     0.073 C 
HETATM   28  C23 UNL     1     -16.902 -23.815  28.000  1.00  0.00     0.283 C 
BRANCH  25  29
HETATM   29  O2  UNL     1     -16.197 -26.850  27.362  1.00  0.00    -0.393 OA
ATOM     30  H2  UNL     1     -16.777 -26.940  26.616  1.00  0.00     0.210 HD
ENDBRANCH  25  29
BRANCH  27  31
HETATM   31  C21 UNL     1     -15.951 -24.704  30.145  1.00  0.00     0.122 C 
HETATM   32  C22 UNL     1     -16.688 -25.682  30.994  1.00  0.00     0.040 C 
BRANCH  31  33
HETATM   33  O3  UNL     1     -14.613 -24.678  30.533  1.00  0.00    -0.395 OA
ATOM     34  H3  UNL     1     -14.469 -25.186  31.324  1.00  0.00     0.210 HD
ENDBRANCH  31  33
ENDBRANCH  27  31
ENDBRANCH  17  20
ENDBRANCH  14  16
ENDBRANCH  13  14
ENDBRANCH  11  13
ENDBRANCH   3   4
TORSDOF 8
ENDMDL
