MODEL 1
REMARK VINA RESULT: -7.660591506      0.000      0.000
REMARK  9 active torsions:
REMARK  status: ('A' for Active; 'I' for Inactive)
REMARK    1  A    between atoms: N1_1  and  N2_4 
REMARK    2  A    between atoms: N2_4  and  C1_6 
REMARK    3  A    between atoms: C2_11  and  O1_12 
REMARK    4  A    between atoms: C3_14  and  N5_15 
REMARK    5  A    between atoms: N5_15  and  C4_17 
REMARK    6  A    between atoms: C5_20  and  O2_21 
REMARK    7  A    between atoms: C6_23  and  C7_24 
REMARK    8  A    between atoms: N7_25  and  C8_27 
REMARK    9  A    between atoms: C8_27  and  C9_28 
ROOT
HETATM    1  C4  UNL     1       4.456  -5.210  16.611  1.00  0.00     0.178 C 
HETATM    2  N6  UNL     1       3.341  -4.753  15.979  1.00  0.00    -0.318 N 
ATOM      3  H6  UNL     1       3.273  -4.974  14.986  1.00  0.00     0.169 HD
HETATM    4  C5  UNL     1       2.306  -4.039  16.497  1.00  0.00     0.159 C 
HETATM    5  C6  UNL     1       2.078  -3.710  17.820  1.00  0.00     0.098 C 
HETATM    6  C11 UNL     1       2.886  -3.976  18.914  1.00  0.00     0.264 C 
HETATM    7  O4  UNL     1       2.361  -3.767  20.036  1.00  0.00    -0.267 OA
HETATM    8  N8  UNL     1       4.165  -4.429  18.943  1.00  0.00    -0.286 N 
ATOM      9  H8  UNL     1       4.623  -4.479  19.854  1.00  0.00     0.172 HD
HETATM   10  C12 UNL     1       4.890  -4.826  17.854  1.00  0.00     0.292 C 
HETATM   11  O5  UNL     1       6.133  -4.848  17.992  1.00  0.00    -0.264 OA
ENDROOT
BRANCH   1  12
HETATM   12  N5  UNL     1       5.133  -6.058  15.992  1.00  0.00    -0.320 N 
ATOM     13  H5  UNL     1       5.946  -5.668  15.516  1.00  0.00     0.169 HD
BRANCH  12  14
HETATM   14  C3  UNL     1       4.993  -7.429  15.828  1.00  0.00     0.175 A 
HETATM   15  C2  UNL     1       5.601  -8.323  16.684  1.00  0.00     0.201 A 
HETATM   16  N4  UNL     1       5.470  -9.650  16.524  1.00  0.00    -0.263 N 
HETATM   17  N3  UNL     1       4.739 -10.088  15.517  1.00  0.00    -0.129 N 
ATOM     18  H4  UNL     1       5.924 -10.302  17.164  1.00  0.00     0.189 HD
HETATM   19  C1  UNL     1       4.121  -9.270  14.647  1.00  0.00     0.712 A 
ATOM     20  H3  UNL     1       4.637 -11.095  15.392  1.00  0.00     0.205 HD
HETATM   21  N9  UNL     1       4.263  -7.948  14.824  1.00  0.00    -0.170 N 
ATOM     22  H9  UNL     1       3.801  -7.313  14.173  1.00  0.00     0.186 HD
BRANCH  15  23
HETATM   23  O1  UNL     1       6.385  -7.899  17.765  1.00  0.00    -0.342 OA
ATOM     24  H1  UNL     1       6.276  -6.995  18.037  1.00  0.00     0.219 HD
ENDBRANCH  15  23
BRANCH  19  25
HETATM   25  N2  UNL     1       3.404  -9.751  13.660  1.00  0.00    -0.137 N 
ATOM     26  H2  UNL     1       3.734 -10.553  13.123  1.00  0.00     0.205 HD
BRANCH  25  27
HETATM   27  N1  UNL     1       2.181  -9.148  13.354  1.00  0.00    -0.331 N 
ATOM     28  H12 UNL     1       1.929  -8.267  13.803  1.00  0.00     0.177 HD
ATOM     29  H11 UNL     1       1.559  -9.602  12.685  1.00  0.00     0.177 HD
ENDBRANCH  25  27
ENDBRANCH  19  25
ENDBRANCH  12  14
ENDBRANCH   1  12
BRANCH   4  30
HETATM   30  O2  UNL     1       1.372  -3.593  15.571  1.00  0.00    -0.345 OA
ATOM     31  H2  UNL     1       0.702  -3.017  15.917  1.00  0.00     0.219 HD
ENDBRANCH   4  30
BRANCH   5  32
HETATM   32  C7  UNL     1       0.847  -2.996  18.131  1.00  0.00     0.104 C 
HETATM   33  N7  UNL     1       0.713  -1.727  17.929  1.00  0.00    -0.395 N 
ATOM     34  H7  UNL     1       1.500  -1.210  17.538  1.00  0.00     0.159 HD
BRANCH  33  35
HETATM   35  C8  UNL     1      -0.503  -1.010  18.232  1.00  0.00     0.153 C 
BRANCH  35  36
HETATM   36  C9  UNL     1      -0.191   0.338  18.853  1.00  0.00     0.163 A 
HETATM   37  C10 UNL     1      -1.036   1.495  18.457  1.00  0.00     0.201 A 
HETATM   38  O3  UNL     1       0.324   1.300  18.008  1.00  0.00    -0.380 OA
ENDBRANCH  35  36
ENDBRANCH  33  35
ENDBRANCH   5  32
TORSDOF 9
ENDMDL
MODEL 2
REMARK VINA RESULT: -7.627302359      1.200      1.256
REMARK  9 active torsions:
REMARK  status: ('A' for Active; 'I' for Inactive)
REMARK    1  A    between atoms: N1_1  and  N2_4 
REMARK    2  A    between atoms: N2_4  and  C1_6 
REMARK    3  A    between atoms: C2_11  and  O1_12 
REMARK    4  A    between atoms: C3_14  and  N5_15 
REMARK    5  A    between atoms: N5_15  and  C4_17 
REMARK    6  A    between atoms: C5_20  and  O2_21 
REMARK    7  A    between atoms: C6_23  and  C7_24 
REMARK    8  A    between atoms: N7_25  and  C8_27 
REMARK    9  A    between atoms: C8_27  and  C9_28 
ROOT
HETATM    1  C4  UNL     1       3.894  -4.713  16.672  1.00  0.00     0.178 C 
HETATM    2  N6  UNL     1       2.947  -4.079  15.929  1.00  0.00    -0.318 N 
ATOM      3  H6  UNL     1       3.067  -4.135  14.918  1.00  0.00     0.169 HD
HETATM    4  C5  UNL     1       1.863  -3.378  16.356  1.00  0.00     0.159 C 
HETATM    5  C6  UNL     1       1.393  -3.246  17.649  1.00  0.00     0.098 C 
HETATM    6  C11 UNL     1       1.957  -3.741  18.815  1.00  0.00     0.264 C 
HETATM    7  O4  UNL     1       1.230  -3.672  19.837  1.00  0.00    -0.267 OA
HETATM    8  N8  UNL     1       3.183  -4.290  19.006  1.00  0.00    -0.286 N 
ATOM      9  H8  UNL     1       3.450  -4.517  19.964  1.00  0.00     0.172 HD
HETATM   10  C12 UNL     1       4.091  -4.564  18.020  1.00  0.00     0.292 C 
HETATM   11  O5  UNL     1       5.280  -4.702  18.383  1.00  0.00    -0.264 OA
ENDROOT
BRANCH   1  12
HETATM   12  N5  UNL     1       4.641  -5.503  16.056  1.00  0.00    -0.320 N 
ATOM     13  H5  UNL     1       5.589  -5.150  15.920  1.00  0.00     0.169 HD
BRANCH  12  14
HETATM   14  C3  UNL     1       4.433  -6.766  15.522  1.00  0.00     0.175 A 
HETATM   15  C2  UNL     1       5.480  -7.536  15.063  1.00  0.00     0.201 A 
HETATM   16  N4  UNL     1       5.280  -8.758  14.542  1.00  0.00    -0.263 N 
HETATM   17  N3  UNL     1       4.043  -9.213  14.477  1.00  0.00    -0.129 N 
ATOM     18  H4  UNL     1       6.063  -9.319  14.206  1.00  0.00     0.189 HD
HETATM   19  C1  UNL     1       2.979  -8.514  14.906  1.00  0.00     0.712 A 
ATOM     20  H3  UNL     1       3.887 -10.141  14.083  1.00  0.00     0.205 HD
HETATM   21  N9  UNL     1       3.200  -7.296  15.424  1.00  0.00    -0.170 N 
ATOM     22  H9  UNL     1       2.403  -6.751  15.754  1.00  0.00     0.186 HD
BRANCH  15  23
HETATM   23  O1  UNL     1       6.807  -7.090  15.115  1.00  0.00    -0.342 OA
ATOM     24  H1  UNL     1       7.101  -6.731  15.944  1.00  0.00     0.219 HD
ENDBRANCH  15  23
BRANCH  19  25
HETATM   25  N2  UNL     1       1.767  -9.007  14.821  1.00  0.00    -0.137 N 
ATOM     26  H2  UNL     1       1.304  -9.390  15.646  1.00  0.00     0.205 HD
BRANCH  25  27
HETATM   27  N1  UNL     1       1.118  -8.999  13.583  1.00  0.00    -0.331 N 
ATOM     28  H12 UNL     1       0.644  -8.153  13.269  1.00  0.00     0.177 HD
ATOM     29  H11 UNL     1       1.131  -9.845  13.013  1.00  0.00     0.177 HD
ENDBRANCH  25  27
ENDBRANCH  19  25
ENDBRANCH  12  14
ENDBRANCH   1  12
BRANCH   4  30
HETATM   30  O2  UNL     1       1.151  -2.723  15.361  1.00  0.00    -0.345 OA
ATOM     31  H2  UNL     1       0.498  -3.249  14.915  1.00  0.00     0.219 HD
ENDBRANCH   4  30
BRANCH   5  32
HETATM   32  C7  UNL     1       0.158  -2.498  17.841  1.00  0.00     0.104 C 
HETATM   33  N7  UNL     1       0.140  -1.213  17.975  1.00  0.00    -0.395 N 
ATOM     34  H7  UNL     1       1.025  -0.708  17.947  1.00  0.00     0.159 HD
BRANCH  33  35
HETATM   35  C8  UNL     1      -1.078  -0.462  18.164  1.00  0.00     0.153 C 
BRANCH  35  36
HETATM   36  C9  UNL     1      -0.791   0.867  18.838  1.00  0.00     0.163 A 
HETATM   37  C10 UNL     1      -1.393   2.089  18.243  1.00  0.00     0.201 A 
HETATM   38  O3  UNL     1       0.009   1.750  18.142  1.00  0.00    -0.380 OA
ENDBRANCH  35  36
ENDBRANCH  33  35
ENDBRANCH   5  32
TORSDOF 9
ENDMDL
MODEL 3
REMARK VINA RESULT: -7.463640207      2.541      8.312
REMARK  9 active torsions:
REMARK  status: ('A' for Active; 'I' for Inactive)
REMARK    1  A    between atoms: N1_1  and  N2_4 
REMARK    2  A    between atoms: N2_4  and  C1_6 
REMARK    3  A    between atoms: C2_11  and  O1_12 
REMARK    4  A    between atoms: C3_14  and  N5_15 
REMARK    5  A    between atoms: N5_15  and  C4_17 
REMARK    6  A    between atoms: C5_20  and  O2_21 
REMARK    7  A    between atoms: C6_23  and  C7_24 
REMARK    8  A    between atoms: N7_25  and  C8_27 
REMARK    9  A    between atoms: C8_27  and  C9_28 
ROOT
HETATM    1  C4  UNL     1       3.143  -4.876  15.943  1.00  0.00     0.178 C 
HETATM    2  N6  UNL     1       2.427  -5.992  15.639  1.00  0.00    -0.318 N 
ATOM      3  H6  UNL     1       1.419  -5.863  15.557  1.00  0.00     0.169 HD
HETATM    4  C5  UNL     1       2.878  -7.258  15.430  1.00  0.00     0.159 C 
HETATM    5  C6  UNL     1       4.188  -7.692  15.356  1.00  0.00     0.098 C 
HETATM    6  C11 UNL     1       5.343  -6.948  15.543  1.00  0.00     0.264 C 
HETATM    7  O4  UNL     1       6.411  -7.519  15.211  1.00  0.00    -0.267 OA
HETATM    8  N8  UNL     1       5.480  -5.690  16.034  1.00  0.00    -0.286 N 
ATOM      9  H8  UNL     1       6.430  -5.345  16.178  1.00  0.00     0.172 HD
HETATM   10  C12 UNL     1       4.451  -4.847  16.352  1.00  0.00     0.292 C 
HETATM   11  O5  UNL     1       4.725  -3.905  17.129  1.00  0.00    -0.264 OA
ENDROOT
BRANCH   1  12
HETATM   12  N5  UNL     1       2.542  -3.787  15.831  1.00  0.00    -0.320 N 
ATOM     13  H5  UNL     1       2.676  -3.334  14.927  1.00  0.00     0.169 HD
BRANCH  12  14
HETATM   14  C3  UNL     1       1.727  -3.073  16.698  1.00  0.00     0.175 A 
HETATM   15  C2  UNL     1       0.687  -2.296  16.234  1.00  0.00     0.201 A 
HETATM   16  N4  UNL     1      -0.100  -1.601  17.072  1.00  0.00    -0.263 N 
HETATM   17  N3  UNL     1       0.145  -1.677  18.366  1.00  0.00    -0.129 N 
ATOM     18  H4  UNL     1      -0.867  -1.030  16.717  1.00  0.00     0.189 HD
HETATM   19  C1  UNL     1       1.143  -2.415  18.883  1.00  0.00     0.712 A 
ATOM     20  H3  UNL     1      -0.451  -1.151  19.005  1.00  0.00     0.205 HD
HETATM   21  N9  UNL     1       1.918  -3.102  18.030  1.00  0.00    -0.170 N 
ATOM     22  H9  UNL     1       2.680  -3.667  18.405  1.00  0.00     0.186 HD
BRANCH  15  23
HETATM   23  O1  UNL     1       0.393  -2.190  14.868  1.00  0.00    -0.342 OA
ATOM     24  H1  UNL     1       0.004  -2.953  14.458  1.00  0.00     0.219 HD
ENDBRANCH  15  23
BRANCH  19  25
HETATM   25  N2  UNL     1       1.350  -2.460  20.177  1.00  0.00    -0.137 N 
ATOM     26  H2  UNL     1       0.564  -2.483  20.827  1.00  0.00     0.205 HD
BRANCH  25  27
HETATM   27  N1  UNL     1       2.664  -2.475  20.652  1.00  0.00    -0.331 N 
ATOM     28  H12 UNL     1       3.439  -2.460  19.989  1.00  0.00     0.177 HD
ATOM     29  H11 UNL     1       2.825  -2.502  21.659  1.00  0.00     0.177 HD
ENDBRANCH  25  27
ENDBRANCH  19  25
ENDBRANCH  12  14
ENDBRANCH   1  12
BRANCH   4  30
HETATM   30  O2  UNL     1       1.890  -8.221  15.273  1.00  0.00    -0.345 OA
ATOM     31  H2  UNL     1       1.967  -8.977  15.842  1.00  0.00     0.219 HD
ENDBRANCH   4  30
BRANCH   5  32
HETATM   32  C7  UNL     1       4.413  -9.097  15.046  1.00  0.00     0.104 C 
HETATM   33  N7  UNL     1       4.262  -9.577  13.856  1.00  0.00    -0.395 N 
ATOM     34  H7  UNL     1       3.974  -8.945  13.109  1.00  0.00     0.159 HD
BRANCH  33  35
HETATM   35  C8  UNL     1       4.483 -10.967  13.538  1.00  0.00     0.153 C 
BRANCH  35  36
HETATM   36  C9  UNL     1       3.208 -11.611  13.027  1.00  0.00     0.163 A 
HETATM   37  C10 UNL     1       3.324 -12.579  11.905  1.00  0.00     0.201 A 
HETATM   38  O3  UNL     1       2.797 -11.241  11.763  1.00  0.00    -0.380 OA
ENDBRANCH  35  36
ENDBRANCH  33  35
ENDBRANCH   5  32
TORSDOF 9
ENDMDL
MODEL 4
REMARK VINA RESULT: -7.441672940      2.500      3.938
REMARK  9 active torsions:
REMARK  status: ('A' for Active; 'I' for Inactive)
REMARK    1  A    between atoms: N1_1  and  N2_4 
REMARK    2  A    between atoms: N2_4  and  C1_6 
REMARK    3  A    between atoms: C2_11  and  O1_12 
REMARK    4  A    between atoms: C3_14  and  N5_15 
REMARK    5  A    between atoms: N5_15  and  C4_17 
REMARK    6  A    between atoms: C5_20  and  O2_21 
REMARK    7  A    between atoms: C6_23  and  C7_24 
REMARK    8  A    between atoms: N7_25  and  C8_27 
REMARK    9  A    between atoms: C8_27  and  C9_28 
ROOT
HETATM    1  C4  UNL     1       1.796  -3.270  16.826  1.00  0.00     0.178 C 
HETATM    2  N6  UNL     1       1.741  -3.848  18.056  1.00  0.00    -0.318 N 
ATOM      3  H6  UNL     1       2.225  -4.741  18.148  1.00  0.00     0.169 HD
HETATM    4  C5  UNL     1       1.126  -3.392  19.180  1.00  0.00     0.159 C 
HETATM    5  C6  UNL     1       0.509  -2.170  19.375  1.00  0.00     0.098 C 
HETATM    6  C11 UNL     1       0.320  -1.155  18.450  1.00  0.00     0.264 C 
HETATM    7  O4  UNL     1      -0.073  -0.061  18.924  1.00  0.00    -0.267 OA
HETATM    8  N8  UNL     1       0.499  -1.179  17.105  1.00  0.00    -0.286 N 
ATOM      9  H8  UNL     1       0.220  -0.350  16.581  1.00  0.00     0.172 HD
HETATM   10  C12 UNL     1       1.024  -2.223  16.394  1.00  0.00     0.292 C 
HETATM   11  O5  UNL     1       0.773  -2.242  15.169  1.00  0.00    -0.264 OA
ENDROOT
BRANCH   1  12
HETATM   12  N5  UNL     1       2.633  -3.746  16.030  1.00  0.00    -0.320 N 
ATOM     13  H5  UNL     1       2.983  -3.072  15.350  1.00  0.00     0.169 HD
BRANCH  12  14
HETATM   14  C3  UNL     1       3.179  -5.014  15.891  1.00  0.00     0.175 A 
HETATM   15  C2  UNL     1       4.520  -5.249  16.109  1.00  0.00     0.201 A 
HETATM   16  N4  UNL     1       5.051  -6.475  15.972  1.00  0.00    -0.263 N 
HETATM   17  N3  UNL     1       4.253  -7.465  15.620  1.00  0.00    -0.129 N 
ATOM     18  H4  UNL     1       6.045  -6.637  16.136  1.00  0.00     0.189 HD
HETATM   19  C1  UNL     1       2.938  -7.303  15.392  1.00  0.00     0.712 A 
ATOM     20  H3  UNL     1       4.652  -8.397  15.515  1.00  0.00     0.205 HD
HETATM   21  N9  UNL     1       2.426  -6.071  15.535  1.00  0.00    -0.170 N 
ATOM     22  H9  UNL     1       1.430  -5.931  15.366  1.00  0.00     0.186 HD
BRANCH  15  23
HETATM   23  O1  UNL     1       5.400  -4.226  16.485  1.00  0.00    -0.342 OA
ATOM     24  H1  UNL     1       6.327  -4.403  16.375  1.00  0.00     0.219 HD
ENDBRANCH  15  23
BRANCH  19  25
HETATM   25  N2  UNL     1       2.183  -8.317  15.043  1.00  0.00    -0.137 N 
ATOM     26  H2  UNL     1       1.921  -9.027  15.726  1.00  0.00     0.205 HD
BRANCH  25  27
HETATM   27  N1  UNL     1       1.743  -8.409  13.720  1.00  0.00    -0.331 N 
ATOM     28  H12 UNL     1       1.907  -7.631  13.080  1.00  0.00     0.177 HD
ATOM     29  H11 UNL     1       1.262  -9.255  13.416  1.00  0.00     0.177 HD
ENDBRANCH  25  27
ENDBRANCH  19  25
ENDBRANCH  12  14
ENDBRANCH   1  12
BRANCH   4  30
HETATM   30  O2  UNL     1       1.124  -4.272  20.254  1.00  0.00    -0.345 OA
ATOM     31  H2  UNL     1       0.635  -3.983  21.014  1.00  0.00     0.219 HD
ENDBRANCH   4  30
BRANCH   5  32
HETATM   32  C7  UNL     1      -0.015  -1.888  20.704  1.00  0.00     0.104 C 
HETATM   33  N7  UNL     1       0.746  -1.547  21.691  1.00  0.00    -0.395 N 
ATOM     34  H7  UNL     1       1.750  -1.474  21.529  1.00  0.00     0.159 HD
BRANCH  33  35
HETATM   35  C8  UNL     1       0.238  -1.263  23.011  1.00  0.00     0.153 C 
BRANCH  35  36
HETATM   36  C9  UNL     1       0.846   0.014  23.559  1.00  0.00     0.163 A 
HETATM   37  C10 UNL     1      -0.034   0.917  24.347  1.00  0.00     0.201 A 
HETATM   38  O3  UNL     1       0.404   1.195  22.997  1.00  0.00    -0.380 OA
ENDBRANCH  35  36
ENDBRANCH  33  35
ENDBRANCH   5  32
TORSDOF 9
ENDMDL
MODEL 5
REMARK VINA RESULT: -7.434375781      1.381      1.566
REMARK  9 active torsions:
REMARK  status: ('A' for Active; 'I' for Inactive)
REMARK    1  A    between atoms: N1_1  and  N2_4 
REMARK    2  A    between atoms: N2_4  and  C1_6 
REMARK    3  A    between atoms: C2_11  and  O1_12 
REMARK    4  A    between atoms: C3_14  and  N5_15 
REMARK    5  A    between atoms: N5_15  and  C4_17 
REMARK    6  A    between atoms: C5_20  and  O2_21 
REMARK    7  A    between atoms: C6_23  and  C7_24 
REMARK    8  A    between atoms: N7_25  and  C8_27 
REMARK    9  A    between atoms: C8_27  and  C9_28 
ROOT
HETATM    1  C4  UNL     1       4.138  -6.551  16.974  1.00  0.00     0.178 C 
HETATM    2  N6  UNL     1       3.077  -6.058  16.279  1.00  0.00    -0.318 N 
ATOM      3  H6  UNL     1       2.756  -6.628  15.497  1.00  0.00     0.169 HD
HETATM    4  C5  UNL     1       2.388  -4.904  16.489  1.00  0.00     0.159 C 
HETATM    5  C6  UNL     1       2.524  -4.012  17.536  1.00  0.00     0.098 C 
HETATM    6  C11 UNL     1       3.437  -4.055  18.578  1.00  0.00     0.264 C 
HETATM    7  O4  UNL     1       3.220  -3.252  19.519  1.00  0.00    -0.267 OA
HETATM    8  N8  UNL     1       4.533  -4.843  18.723  1.00  0.00    -0.286 N 
ATOM      9  H8  UNL     1       5.135  -4.664  19.527  1.00  0.00     0.172 HD
HETATM   10  C12 UNL     1       4.897  -5.858  17.881  1.00  0.00     0.292 C 
HETATM   11  O5  UNL     1       6.092  -6.221  17.932  1.00  0.00    -0.264 OA
ENDROOT
BRANCH   1  12
HETATM   12  N5  UNL     1       4.432  -7.746  16.757  1.00  0.00    -0.320 N 
ATOM     13  H5  UNL     1       4.512  -8.309  17.603  1.00  0.00     0.169 HD
BRANCH  12  14
HETATM   14  C3  UNL     1       4.672  -8.454  15.588  1.00  0.00     0.175 A 
HETATM   15  C2  UNL     1       5.776  -8.197  14.804  1.00  0.00     0.201 A 
HETATM   16  N4  UNL     1       6.008  -8.879  13.670  1.00  0.00    -0.263 N 
HETATM   17  N3  UNL     1       5.145  -9.813  13.317  1.00  0.00    -0.129 N 
ATOM     18  H4  UNL     1       6.828  -8.680  13.098  1.00  0.00     0.189 HD
HETATM   19  C1  UNL     1       4.050 -10.113  14.036  1.00  0.00     0.712 A 
ATOM     20  H3  UNL     1       5.318 -10.333  12.457  1.00  0.00     0.205 HD
HETATM   21  N9  UNL     1       3.837  -9.421  15.165  1.00  0.00    -0.170 N 
ATOM     22  H9  UNL     1       3.010  -9.635  15.723  1.00  0.00     0.186 HD
BRANCH  15  23
HETATM   23  O1  UNL     1       6.715  -7.214  15.144  1.00  0.00    -0.342 OA
ATOM     24  H1  UNL     1       7.110  -7.286  16.005  1.00  0.00     0.219 HD
ENDBRANCH  15  23
BRANCH  19  25
HETATM   25  N2  UNL     1       3.220 -11.049  13.645  1.00  0.00    -0.137 N 
ATOM     26  H2  UNL     1       2.254 -11.055  13.973  1.00  0.00     0.205 HD
BRANCH  25  27
HETATM   27  N1  UNL     1       3.679 -12.039  12.772  1.00  0.00    -0.331 N 
ATOM     28  H12 UNL     1       3.006 -12.581  12.229  1.00  0.00     0.177 HD
ATOM     29  H11 UNL     1       4.682 -12.203  12.694  1.00  0.00     0.177 HD
ENDBRANCH  25  27
ENDBRANCH  19  25
ENDBRANCH  12  14
ENDBRANCH   1  12
BRANCH   4  30
HETATM   30  O2  UNL     1       1.437  -4.598  15.526  1.00  0.00    -0.345 OA
ATOM     31  H2  UNL     1       0.612  -4.267  15.861  1.00  0.00     0.219 HD
ENDBRANCH   4  30
BRANCH   5  32
HETATM   32  C7  UNL     1       1.610  -2.879  17.575  1.00  0.00     0.104 C 
HETATM   33  N7  UNL     1       0.425  -2.962  18.083  1.00  0.00    -0.395 N 
ATOM     34  H7  UNL     1       0.122  -3.856  18.469  1.00  0.00     0.159 HD
BRANCH  33  35
HETATM   35  C8  UNL     1      -0.489  -1.846  18.128  1.00  0.00     0.153 C 
BRANCH  35  36
HETATM   36  C9  UNL     1       0.172  -0.636  18.763  1.00  0.00     0.163 A 
HETATM   37  C10 UNL     1      -0.629   0.612  18.871  1.00  0.00     0.201 A 
HETATM   38  O3  UNL     1       0.447   0.424  17.923  1.00  0.00    -0.380 OA
ENDBRANCH  35  36
ENDBRANCH  33  35
ENDBRANCH   5  32
TORSDOF 9
ENDMDL
