MODEL 1
REMARK VINA RESULT: -8.762558233      0.000      0.000
REMARK  7 active torsions:
REMARK  status: ('A' for Active; 'I' for Inactive)
REMARK    1  A    between atoms: C2_2  and  C3_3 
REMARK    2  A    between atoms: C3_3  and  N1_5 
REMARK    3  A    between atoms: C7_10  and  N3_11 
REMARK    4  A    between atoms: N3_11  and  C8_13 
REMARK    5  A    between atoms: C14_21  and  N5_22 
REMARK    6  A    between atoms: N6_25  and  C17_26 
REMARK    7  A    between atoms: C20_29  and  N7_30 
ROOT
HETATM    1  N1  UNL     1      27.669 -25.923   2.804  1.00  0.00    -0.322 N 
HETATM    2  C5  UNL     1      28.841 -26.578   2.675  1.00  0.00     0.185 A 
HETATM    3  N2  UNL     1      29.424 -26.604   3.884  1.00  0.00    -0.346 N 
ATOM      4  H2  UNL     1      30.326 -27.040   4.081  1.00  0.00     0.167 HD
HETATM    5  C6  UNL     1      28.669 -25.984   4.793  1.00  0.00     0.123 A 
HETATM    6  C7  UNL     1      28.781 -25.701   6.164  1.00  0.00     0.152 A 
HETATM    7  N4  UNL     1      27.765 -25.022   6.689  1.00  0.00    -0.174 N 
ATOM      8  H4  UNL     1      27.833 -24.810   7.684  1.00  0.00     0.186 HD
HETATM    9  C14 UNL     1      26.682 -24.591   6.075  1.00  0.00     0.683 A 
HETATM   10  N8  UNL     1      26.598 -24.880   4.742  1.00  0.00    -0.174 N 
ATOM     11  H8  UNL     1      25.780 -24.572   4.217  1.00  0.00     0.186 HD
HETATM   12  C25 UNL     1      27.564 -25.558   4.110  1.00  0.00     0.155 A 
ENDROOT
BRANCH   9  13
HETATM   13  N5  UNL     1      25.594 -23.875   6.595  1.00  0.00    -0.214 N 
HETATM   14  C15 UNL     1      25.103 -22.676   5.978  1.00  0.00     0.160 C 
HETATM   15  C16 UNL     1      23.922 -22.135   6.780  1.00  0.00     0.137 C 
HETATM   16  N6  UNL     1      24.321 -21.976   8.134  1.00  0.00    -0.405 N 
HETATM   17  C23 UNL     1      24.966 -23.061   8.756  1.00  0.00     0.137 C 
HETATM   18  C24 UNL     1      24.915 -24.301   7.829  1.00  0.00     0.160 C 
BRANCH  16  19
HETATM   19  C17 UNL     1      23.546 -21.107   8.947  1.00  0.00     0.079 C 
HETATM   20  C18 UNL     1      22.388 -21.892   9.483  1.00  0.00     0.027 C 
HETATM   21  C19 UNL     1      21.145 -21.026   9.649  1.00  0.00     0.035 C 
HETATM   22  C20 UNL     1      21.633 -19.704  10.194  1.00  0.00     0.183 C 
HETATM   23  C21 UNL     1      22.276 -18.949   9.056  1.00  0.00     0.035 C 
HETATM   24  C22 UNL     1      23.226 -19.812   8.300  1.00  0.00     0.027 C 
BRANCH  22  25
HETATM   25  N7  UNL     1      20.581 -18.943  10.830  1.00  0.00    -0.075 N 
ATOM     26  H73 UNL     1      19.825 -19.551  11.143  1.00  0.00     0.274 HD
ATOM     27  H72 UNL     1      20.885 -18.581  11.735  1.00  0.00     0.274 HD
ATOM     28  H71 UNL     1      20.225 -18.193  10.236  1.00  0.00     0.274 HD
ENDBRANCH  22  25
ENDBRANCH  16  19
ENDBRANCH   9  13
BRANCH   6  29
HETATM   29  N3  UNL     1      29.930 -26.167   6.801  1.00  0.00    -0.340 N 
ATOM     30  H3  UNL     1      30.324 -27.032   6.430  1.00  0.00     0.167 HD
BRANCH  29  31
HETATM   31  C8  UNL     1      30.611 -25.602   7.883  1.00  0.00     0.033 A 
HETATM   32  C9  UNL     1      30.486 -24.281   8.292  1.00  0.00     0.029 A 
HETATM   33  C10 UNL     1      31.229 -23.839   9.372  1.00  0.00     0.002 A 
HETATM   34  C11 UNL     1      32.087 -24.673  10.052  1.00  0.00     0.000 A 
HETATM   35  C12 UNL     1      32.212 -25.976   9.651  1.00  0.00     0.002 A 
HETATM   36  C13 UNL     1      31.501 -26.444   8.597  1.00  0.00     0.029 A 
ENDBRANCH  29  31
ENDBRANCH   6  29
BRANCH   1  37
HETATM   37  C3  UNL     1      26.662 -25.598   1.824  1.00  0.00     0.088 C 
HETATM   38  C4  UNL     1      27.154 -26.058   0.465  1.00  0.00     0.033 C 
BRANCH  37  39
HETATM   39  C2  UNL     1      25.347 -26.285   2.166  1.00  0.00     0.021 C 
HETATM   40  C1  UNL     1      25.435 -27.770   1.876  1.00  0.00     0.007 C 
ENDBRANCH  37  39
ENDBRANCH   1  37
TORSDOF 7
ENDMDL
MODEL 2
REMARK VINA RESULT: -8.522936890      0.901      1.439
REMARK  7 active torsions:
REMARK  status: ('A' for Active; 'I' for Inactive)
REMARK    1  A    between atoms: C2_2  and  C3_3 
REMARK    2  A    between atoms: C3_3  and  N1_5 
REMARK    3  A    between atoms: C7_10  and  N3_11 
REMARK    4  A    between atoms: N3_11  and  C8_13 
REMARK    5  A    between atoms: C14_21  and  N5_22 
REMARK    6  A    between atoms: N6_25  and  C17_26 
REMARK    7  A    between atoms: C20_29  and  N7_30 
ROOT
HETATM    1  N1  UNL     1      26.909 -25.763   3.294  1.00  0.00    -0.322 N 
HETATM    2  C5  UNL     1      28.007 -26.469   2.957  1.00  0.00     0.185 A 
HETATM    3  N2  UNL     1      28.816 -26.493   4.029  1.00  0.00    -0.346 N 
ATOM      4  H2  UNL     1      29.722 -26.961   4.058  1.00  0.00     0.167 HD
HETATM    5  C6  UNL     1      28.277 -25.823   5.050  1.00  0.00     0.123 A 
HETATM    6  C7  UNL     1      28.667 -25.515   6.364  1.00  0.00     0.152 A 
HETATM    7  N4  UNL     1      27.800 -24.784   7.057  1.00  0.00    -0.174 N 
ATOM      8  H4  UNL     1      28.070 -24.554   8.013  1.00  0.00     0.186 HD
HETATM    9  C14 UNL     1      26.633 -24.323   6.655  1.00  0.00     0.683 A 
HETATM   10  N8  UNL     1      26.278 -24.636   5.373  1.00  0.00    -0.174 N 
ATOM     11  H8  UNL     1      25.384 -24.306   5.010  1.00  0.00     0.186 HD
HETATM   12  C25 UNL     1      27.075 -25.367   4.584  1.00  0.00     0.155 A 
ENDROOT
BRANCH   9  13
HETATM   13  N5  UNL     1      25.696 -23.551   7.357  1.00  0.00    -0.214 N 
HETATM   14  C15 UNL     1      24.515 -24.123   7.939  1.00  0.00     0.160 C 
HETATM   15  C16 UNL     1      23.702 -23.030   8.626  1.00  0.00     0.137 C 
HETATM   16  N6  UNL     1      23.450 -21.989   7.693  1.00  0.00    -0.405 N 
HETATM   17  C23 UNL     1      24.542 -21.492   6.958  1.00  0.00     0.137 C 
HETATM   18  C24 UNL     1      25.860 -22.096   7.507  1.00  0.00     0.160 C 
BRANCH  16  19
HETATM   19  C17 UNL     1      22.379 -21.102   7.975  1.00  0.00     0.079 C 
HETATM   20  C18 UNL     1      22.948 -19.722   8.104  1.00  0.00     0.027 C 
HETATM   21  C19 UNL     1      22.183 -18.886   9.122  1.00  0.00     0.035 C 
HETATM   22  C20 UNL     1      20.723 -19.213   8.911  1.00  0.00     0.183 C 
HETATM   23  C21 UNL     1      20.468 -20.575   9.510  1.00  0.00     0.035 C 
HETATM   24  C22 UNL     1      21.498 -21.560   9.076  1.00  0.00     0.027 C 
BRANCH  22  25
HETATM   25  N7  UNL     1      19.842 -18.203   9.455  1.00  0.00    -0.075 N 
ATOM     26  H73 UNL     1      19.744 -18.307  10.465  1.00  0.00     0.274 HD
ATOM     27  H72 UNL     1      20.280 -17.281   9.427  1.00  0.00     0.274 HD
ATOM     28  H71 UNL     1      18.930 -18.190   8.998  1.00  0.00     0.274 HD
ENDBRANCH  22  25
ENDBRANCH  16  19
ENDBRANCH   9  13
BRANCH   6  29
HETATM   29  N3  UNL     1      29.901 -26.015   6.776  1.00  0.00    -0.340 N 
ATOM     30  H3  UNL     1      30.290 -26.767   6.206  1.00  0.00     0.167 HD
BRANCH  29  31
HETATM   31  C8  UNL     1      30.674 -25.618   7.871  1.00  0.00     0.033 A 
HETATM   32  C9  UNL     1      30.694 -24.336   8.402  1.00  0.00     0.029 A 
HETATM   33  C10 UNL     1      31.516 -24.066   9.480  1.00  0.00     0.002 A 
HETATM   34  C11 UNL     1      32.315 -25.035  10.043  1.00  0.00     0.000 A 
HETATM   35  C12 UNL     1      32.298 -26.302   9.522  1.00  0.00     0.002 A 
HETATM   36  C13 UNL     1      31.505 -26.602   8.465  1.00  0.00     0.029 A 
ENDBRANCH  29  31
ENDBRANCH   6  29
BRANCH   1  37
HETATM   37  C3  UNL     1      25.741 -25.417   2.521  1.00  0.00     0.088 C 
HETATM   38  C4  UNL     1      26.198 -24.941   1.155  1.00  0.00     0.033 C 
BRANCH  37  39
HETATM   39  C2  UNL     1      24.824 -26.625   2.375  1.00  0.00     0.021 C 
HETATM   40  C1  UNL     1      24.805 -27.104   0.938  1.00  0.00     0.007 C 
ENDBRANCH  37  39
ENDBRANCH   1  37
TORSDOF 7
ENDMDL
MODEL 3
REMARK VINA RESULT: -8.246300299      1.078      5.499
REMARK  7 active torsions:
REMARK  status: ('A' for Active; 'I' for Inactive)
REMARK    1  A    between atoms: C2_2  and  C3_3 
REMARK    2  A    between atoms: C3_3  and  N1_5 
REMARK    3  A    between atoms: C7_10  and  N3_11 
REMARK    4  A    between atoms: N3_11  and  C8_13 
REMARK    5  A    between atoms: C14_21  and  N5_22 
REMARK    6  A    between atoms: N6_25  and  C17_26 
REMARK    7  A    between atoms: C20_29  and  N7_30 
ROOT
HETATM    1  N1  UNL     1      29.332 -25.882   6.208  1.00  0.00    -0.322 N 
HETATM    2  C5  UNL     1      29.778 -26.460   5.074  1.00  0.00     0.185 A 
HETATM    3  N2  UNL     1      28.882 -26.199   4.109  1.00  0.00    -0.346 N 
ATOM      4  H2  UNL     1      28.965 -26.515   3.142  1.00  0.00     0.167 HD
HETATM    5  C6  UNL     1      27.867 -25.472   4.582  1.00  0.00     0.123 A 
HETATM    6  C7  UNL     1      26.681 -24.941   4.049  1.00  0.00     0.152 A 
HETATM    7  N4  UNL     1      25.923 -24.269   4.910  1.00  0.00    -0.174 N 
ATOM      8  H4  UNL     1      25.058 -23.877   4.537  1.00  0.00     0.186 HD
HETATM    9  C14 UNL     1      26.156 -24.050   6.188  1.00  0.00     0.683 A 
HETATM   10  N8  UNL     1      27.316 -24.577   6.681  1.00  0.00    -0.174 N 
ATOM     11  H8  UNL     1      27.548 -24.437   7.664  1.00  0.00     0.186 HD
HETATM   12  C25 UNL     1      28.155 -25.274   5.903  1.00  0.00     0.155 A 
ENDROOT
BRANCH   9  13
HETATM   13  N5  UNL     1      25.381 -23.348   7.123  1.00  0.00    -0.214 N 
HETATM   14  C15 UNL     1      24.587 -24.017   8.115  1.00  0.00     0.160 C 
HETATM   15  C16 UNL     1      23.864 -22.983   8.972  1.00  0.00     0.137 C 
HETATM   16  N6  UNL     1      23.130 -22.113   8.122  1.00  0.00    -0.405 N 
HETATM   17  C23 UNL     1      23.805 -21.550   7.024  1.00  0.00     0.137 C 
HETATM   18  C24 UNL     1      25.317 -21.878   7.115  1.00  0.00     0.160 C 
BRANCH  16  19
HETATM   19  C17 UNL     1      22.070 -21.368   8.705  1.00  0.00     0.079 C 
HETATM   20  C18 UNL     1      22.364 -19.914   8.499  1.00  0.00     0.027 C 
HETATM   21  C19 UNL     1      21.851 -19.063   9.654  1.00  0.00     0.035 C 
HETATM   22  C20 UNL     1      20.504 -19.639  10.024  1.00  0.00     0.183 C 
HETATM   23  C21 UNL     1      20.747 -20.919  10.786  1.00  0.00     0.035 C 
HETATM   24  C22 UNL     1      21.735 -21.787  10.087  1.00  0.00     0.027 C 
BRANCH  22  25
HETATM   25  N7  UNL     1      19.686 -18.707  10.768  1.00  0.00    -0.075 N 
ATOM     26  H73 UNL     1      19.931 -17.743  10.543  1.00  0.00     0.274 HD
ATOM     27  H72 UNL     1      18.722 -18.714  10.432  1.00  0.00     0.274 HD
ATOM     28  H71 UNL     1      19.724 -18.868  11.775  1.00  0.00     0.274 HD
ENDBRANCH  22  25
ENDBRANCH  16  19
ENDBRANCH   9  13
BRANCH   6  29
HETATM   29  N3  UNL     1      26.450 -25.177   2.695  1.00  0.00    -0.340 N 
ATOM     30  H3  UNL     1      26.575 -24.375   2.076  1.00  0.00     0.167 HD
BRANCH  29  31
HETATM   31  C8  UNL     1      26.070 -26.371   2.076  1.00  0.00     0.033 A 
HETATM   32  C9  UNL     1      24.920 -27.087   2.378  1.00  0.00     0.029 A 
HETATM   33  C10 UNL     1      24.664 -28.266   1.703  1.00  0.00     0.002 A 
HETATM   34  C11 UNL     1      25.518 -28.748   0.736  1.00  0.00     0.000 A 
HETATM   35  C12 UNL     1      26.653 -28.043   0.435  1.00  0.00     0.002 A 
HETATM   36  C13 UNL     1      26.936 -26.885   1.078  1.00  0.00     0.029 A 
ENDBRANCH  29  31
ENDBRANCH   6  29
BRANCH   1  37
HETATM   37  C3  UNL     1      29.894 -25.865   7.537  1.00  0.00     0.088 C 
HETATM   38  C4  UNL     1      31.098 -26.788   7.556  1.00  0.00     0.033 C 
BRANCH  37  39
HETATM   39  C2  UNL     1      30.311 -24.451   7.919  1.00  0.00     0.021 C 
HETATM   40  C1  UNL     1      31.599 -24.477   8.717  1.00  0.00     0.007 C 
ENDBRANCH  37  39
ENDBRANCH   1  37
TORSDOF 7
ENDMDL
MODEL 4
REMARK VINA RESULT: -8.035240806      4.319      8.352
REMARK  7 active torsions:
REMARK  status: ('A' for Active; 'I' for Inactive)
REMARK    1  A    between atoms: C2_2  and  C3_3 
REMARK    2  A    between atoms: C3_3  and  N1_5 
REMARK    3  A    between atoms: C7_10  and  N3_11 
REMARK    4  A    between atoms: N3_11  and  C8_13 
REMARK    5  A    between atoms: C14_21  and  N5_22 
REMARK    6  A    between atoms: N6_25  and  C17_26 
REMARK    7  A    between atoms: C20_29  and  N7_30 
ROOT
HETATM    1  N1  UNL     1      26.378 -25.731  -0.005  1.00  0.00    -0.322 N 
HETATM    2  C5  UNL     1      26.728 -24.429   0.033  1.00  0.00     0.185 A 
HETATM    3  N2  UNL     1      26.784 -24.063   1.323  1.00  0.00    -0.346 N 
ATOM      4  H2  UNL     1      27.028 -23.127   1.648  1.00  0.00     0.167 HD
HETATM    5  C6  UNL     1      26.480 -25.087   2.124  1.00  0.00     0.123 A 
HETATM    6  C7  UNL     1      26.368 -25.274   3.512  1.00  0.00     0.152 A 
HETATM    7  N4  UNL     1      26.014 -26.497   3.892  1.00  0.00    -0.174 N 
ATOM      8  H4  UNL     1      25.928 -26.648   4.898  1.00  0.00     0.186 HD
HETATM    9  C14 UNL     1      25.760 -27.538   3.126  1.00  0.00     0.683 A 
HETATM   10  N8  UNL     1      25.877 -27.329   1.780  1.00  0.00    -0.174 N 
ATOM     11  H8  UNL     1      25.693 -28.101   1.139  1.00  0.00     0.186 HD
HETATM   12  C25 UNL     1      26.227 -26.135   1.284  1.00  0.00     0.155 A 
ENDROOT
BRANCH   9  13
HETATM   13  N5  UNL     1      25.385 -28.838   3.492  1.00  0.00    -0.214 N 
HETATM   14  C15 UNL     1      24.873 -29.784   2.541  1.00  0.00     0.160 C 
HETATM   15  C16 UNL     1      24.556 -31.099   3.247  1.00  0.00     0.137 C 
HETATM   16  N6  UNL     1      23.686 -30.836   4.339  1.00  0.00    -0.405 N 
HETATM   17  C23 UNL     1      24.041 -29.802   5.223  1.00  0.00     0.137 C 
HETATM   18  C24 UNL     1      25.468 -29.295   4.888  1.00  0.00     0.160 C 
BRANCH  16  19
HETATM   19  C17 UNL     1      22.937 -31.926   4.856  1.00  0.00     0.079 C 
HETATM   20  C18 UNL     1      23.824 -32.689   5.791  1.00  0.00     0.027 C 
HETATM   21  C19 UNL     1      23.514 -34.181   5.776  1.00  0.00     0.035 C 
HETATM   22  C20 UNL     1      22.008 -34.288   5.716  1.00  0.00     0.183 C 
HETATM   23  C21 UNL     1      21.582 -33.962   4.306  1.00  0.00     0.035 C 
HETATM   24  C22 UNL     1      22.235 -32.716   3.816  1.00  0.00     0.027 C 
BRANCH  22  25
HETATM   25  N7  UNL     1      21.526 -35.582   6.148  1.00  0.00    -0.075 N 
ATOM     26  H73 UNL     1      22.213 -36.311   5.959  1.00  0.00     0.274 HD
ATOM     27  H72 UNL     1      21.497 -35.642   7.166  1.00  0.00     0.274 HD
ATOM     28  H71 UNL     1      20.620 -35.819   5.741  1.00  0.00     0.274 HD
ENDBRANCH  22  25
ENDBRANCH  16  19
ENDBRANCH   9  13
BRANCH   6  29
HETATM   29  N3  UNL     1      26.644 -24.165   4.311  1.00  0.00    -0.340 N 
ATOM     30  H3  UNL     1      27.394 -23.556   3.982  1.00  0.00     0.167 HD
BRANCH  29  31
HETATM   31  C8  UNL     1      26.026 -23.782   5.504  1.00  0.00     0.033 A 
HETATM   32  C9  UNL     1      25.760 -24.635   6.566  1.00  0.00     0.029 A 
HETATM   33  C10 UNL     1      25.126 -24.135   7.689  1.00  0.00     0.002 A 
HETATM   34  C11 UNL     1      24.755 -22.813   7.783  1.00  0.00     0.000 A 
HETATM   35  C12 UNL     1      25.017 -21.968   6.737  1.00  0.00     0.002 A 
HETATM   36  C13 UNL     1      25.634 -22.424   5.621  1.00  0.00     0.029 A 
ENDBRANCH  29  31
ENDBRANCH   6  29
BRANCH   1  37
HETATM   37  C3  UNL     1      26.158 -26.613  -1.126  1.00  0.00     0.088 C 
HETATM   38  C4  UNL     1      25.487 -25.820  -2.231  1.00  0.00     0.033 C 
BRANCH  37  39
HETATM   39  C2  UNL     1      27.482 -27.183  -1.619  1.00  0.00     0.021 C 
HETATM   40  C1  UNL     1      27.679 -28.591  -1.092  1.00  0.00     0.007 C 
ENDBRANCH  37  39
ENDBRANCH   1  37
TORSDOF 7
ENDMDL
MODEL 5
REMARK VINA RESULT: -7.715692264      4.533      7.974
REMARK  7 active torsions:
REMARK  status: ('A' for Active; 'I' for Inactive)
REMARK    1  A    between atoms: C2_2  and  C3_3 
REMARK    2  A    between atoms: C3_3  and  N1_5 
REMARK    3  A    between atoms: C7_10  and  N3_11 
REMARK    4  A    between atoms: N3_11  and  C8_13 
REMARK    5  A    between atoms: C14_21  and  N5_22 
REMARK    6  A    between atoms: N6_25  and  C17_26 
REMARK    7  A    between atoms: C20_29  and  N7_30 
ROOT
HETATM    1  N1  UNL     1      24.673 -26.526   0.237  1.00  0.00    -0.322 N 
HETATM    2  C5  UNL     1      23.645 -27.295  -0.174  1.00  0.00     0.185 A 
HETATM    3  N2  UNL     1      23.336 -28.129   0.832  1.00  0.00    -0.346 N 
ATOM      4  H2  UNL     1      22.592 -28.826   0.797  1.00  0.00     0.167 HD
HETATM    5  C6  UNL     1      24.134 -27.926   1.883  1.00  0.00     0.123 A 
HETATM    6  C7  UNL     1      24.275 -28.497   3.158  1.00  0.00     0.152 A 
HETATM    7  N4  UNL     1      25.245 -27.980   3.907  1.00  0.00    -0.174 N 
ATOM      8  H4  UNL     1      25.358 -28.385   4.836  1.00  0.00     0.186 HD
HETATM    9  C14 UNL     1      26.076 -27.008   3.591  1.00  0.00     0.683 A 
HETATM   10  N8  UNL     1      25.917 -26.471   2.344  1.00  0.00    -0.174 N 
ATOM     11  H8  UNL     1      26.533 -25.714   2.046  1.00  0.00     0.186 HD
HETATM   12  C25 UNL     1      24.973 -26.915   1.505  1.00  0.00     0.155 A 
ENDROOT
BRANCH   9  13
HETATM   13  N5  UNL     1      27.107 -26.441   4.352  1.00  0.00    -0.214 N 
HETATM   14  C15 UNL     1      28.491 -26.592   4.001  1.00  0.00     0.160 C 
HETATM   15  C16 UNL     1      29.360 -25.865   5.023  1.00  0.00     0.137 C 
HETATM   16  N6  UNL     1      29.031 -26.334   6.323  1.00  0.00    -0.405 N 
HETATM   17  C23 UNL     1      27.670 -26.373   6.678  1.00  0.00     0.137 C 
HETATM   18  C24 UNL     1      26.823 -25.680   5.580  1.00  0.00     0.160 C 
BRANCH  16  19
HETATM   19  C17 UNL     1      29.982 -26.123   7.356  1.00  0.00     0.079 C 
HETATM   20  C18 UNL     1      29.890 -24.688   7.778  1.00  0.00     0.027 C 
HETATM   21  C19 UNL     1      31.243 -24.137   8.210  1.00  0.00     0.035 C 
HETATM   22  C20 UNL     1      31.904 -25.242   9.002  1.00  0.00     0.183 C 
HETATM   23  C21 UNL     1      32.394 -26.279   8.021  1.00  0.00     0.035 C 
HETATM   24  C22 UNL     1      31.336 -26.634   7.034  1.00  0.00     0.027 C 
BRANCH  22  25
HETATM   25  N7  UNL     1      32.965 -24.754   9.857  1.00  0.00    -0.075 N 
ATOM     26  H73 UNL     1      33.867 -25.136   9.576  1.00  0.00     0.274 HD
ATOM     27  H72 UNL     1      33.146 -23.764   9.689  1.00  0.00     0.274 HD
ATOM     28  H71 UNL     1      32.784 -24.931  10.846  1.00  0.00     0.274 HD
ENDBRANCH  22  25
ENDBRANCH  16  19
ENDBRANCH   9  13
BRANCH   6  29
HETATM   29  N3  UNL     1      23.386 -29.520   3.481  1.00  0.00    -0.340 N 
ATOM     30  H3  UNL     1      22.416 -29.373   3.198  1.00  0.00     0.167 HD
BRANCH  29  31
HETATM   31  C8  UNL     1      23.651 -30.722   4.143  1.00  0.00     0.033 A 
HETATM   32  C9  UNL     1      24.721 -30.932   5.002  1.00  0.00     0.029 A 
HETATM   33  C10 UNL     1      24.883 -32.176   5.583  1.00  0.00     0.002 A 
HETATM   34  C11 UNL     1      24.011 -33.211   5.335  1.00  0.00     0.000 A 
HETATM   35  C12 UNL     1      22.954 -33.007   4.489  1.00  0.00     0.002 A 
HETATM   36  C13 UNL     1      22.765 -31.802   3.900  1.00  0.00     0.029 A 
ENDBRANCH  29  31
ENDBRANCH   6  29
BRANCH   1  37
HETATM   37  C3  UNL     1      25.400 -25.485  -0.448  1.00  0.00     0.088 C 
HETATM   38  C4  UNL     1      26.403 -24.888   0.520  1.00  0.00     0.033 C 
BRANCH  37  39
HETATM   39  C2  UNL     1      26.119 -26.053  -1.665  1.00  0.00     0.021 C 
HETATM   40  C1  UNL     1      27.270 -26.939  -1.233  1.00  0.00     0.007 C 
ENDBRANCH  37  39
ENDBRANCH   1  37
TORSDOF 7
ENDMDL
