MODEL 1
REMARK VINA RESULT: -6.698887403      0.000      0.000
REMARK  6 active torsions:
REMARK  status: ('A' for Active; 'I' for Inactive)
REMARK    1  A    between atoms: N1_2  and  C2_5 
REMARK    2  A    between atoms: C2_5  and  O1_7 
REMARK    3  A    between atoms: C2_5  and  C4_9 
REMARK    4  A    between atoms: C5_10  and  C6_11 
REMARK    5  A    between atoms: C8_16  and  N3_17 
REMARK    6  A    between atoms: C9_22  and  N5_23 
ROOT
HETATM    1  C6  UNL     1      17.898 -23.214 -10.200  1.00  0.00     0.067 A 
HETATM    2  S1  UNL     1      19.567 -23.507 -10.209  1.00  0.00    -0.061 SA
HETATM    3  C7  UNL     1      19.935 -22.796 -11.735  1.00  0.00     0.106 A 
HETATM    4  N2  UNL     1      21.112 -22.681 -12.381  1.00  0.00    -0.185 N 
ATOM      5  H2  UNL     1      21.968 -23.046 -11.962  1.00  0.00     0.185 HD
HETATM    6  C8  UNL     1      21.147 -22.074 -13.595  1.00  0.00     0.678 A 
HETATM    7  N4  UNL     1      20.022 -21.634 -14.064  1.00  0.00    -0.172 N 
ATOM      8  H4  UNL     1      20.045 -21.177 -14.975  1.00  0.00     0.186 HD
HETATM    9  C9  UNL     1      18.802 -21.729 -13.445  1.00  0.00     0.176 A 
HETATM   10  C10 UNL     1      18.723 -22.343 -12.201  1.00  0.00     0.054 A 
HETATM   11  C11 UNL     1      17.664 -22.563 -11.395  1.00  0.00    -0.019 A 
HETATM   12  C12 UNL     1      16.245 -22.154 -11.686  1.00  0.00     0.051 C 
ENDROOT
BRANCH   1  13
HETATM   13  C5  UNL     1      16.959 -23.575  -9.163  1.00  0.00    -0.054 C 
HETATM   14  C4  UNL     1      16.183 -23.872  -8.276  1.00  0.00    -0.033 C 
BRANCH  14  15
HETATM   15  C2  UNL     1      15.263 -24.250  -7.204  1.00  0.00     0.285 C 
HETATM   16  C3  UNL     1      16.019 -24.204  -5.914  1.00  0.00     0.094 C 
BRANCH  15  17
HETATM   17  N1  UNL     1      14.645 -25.530  -7.453  1.00  0.00    -0.036 N 
HETATM   18  C1  UNL     1      15.008 -26.541  -6.505  1.00  0.00     0.271 C 
ATOM     19  H12 UNL     1      14.839 -25.843  -8.404  1.00  0.00     0.281 HD
ATOM     20  H11 UNL     1      13.631 -25.435  -7.507  1.00  0.00     0.281 HD
ENDBRANCH  15  17
BRANCH  15  21
HETATM   21  O1  UNL     1      14.211 -23.314  -7.099  1.00  0.00    -0.356 OA
ATOM     22  H1  UNL     1      14.347 -22.849  -6.281  1.00  0.00     0.213 HD
ENDBRANCH  15  21
ENDBRANCH  14  15
ENDBRANCH   1  13
BRANCH   9  23
HETATM   23  N5  UNL     1      17.708 -21.174 -14.173  1.00  0.00    -0.153 N 
HETATM   24  N6  UNL     1      16.987 -21.805 -15.056  1.00  0.00    -0.204 N 
HETATM   25  N7  UNL     1      16.083 -20.999 -15.585  1.00  0.00     0.010 NA
ATOM     26  H6  UNL     1      17.105 -22.788 -15.304  1.00  0.00     0.207 HD
HETATM   27  N8  UNL     1      16.255 -19.826 -15.004  1.00  0.00     0.010 NA
HETATM   28  N9  UNL     1      17.265 -19.937 -14.127  1.00  0.00    -0.204 N 
ATOM     29  H9  UNL     1      17.625 -19.193 -13.530  1.00  0.00     0.207 HD
ENDBRANCH   9  23
BRANCH   6  30
HETATM   30  N3  UNL     1      22.281 -21.958 -14.223  1.00  0.00    -0.234 N 
ATOM     31  H32 UNL     1      22.784 -21.076 -14.317  1.00  0.00     0.174 HD
ATOM     32  H31 UNL     1      22.706 -22.781 -14.650  1.00  0.00     0.174 HD
ENDBRANCH   6  30
TORSDOF 6
ENDMDL
MODEL 2
REMARK VINA RESULT: -6.459192941      1.809      3.751
REMARK  6 active torsions:
REMARK  status: ('A' for Active; 'I' for Inactive)
REMARK    1  A    between atoms: N1_2  and  C2_5 
REMARK    2  A    between atoms: C2_5  and  O1_7 
REMARK    3  A    between atoms: C2_5  and  C4_9 
REMARK    4  A    between atoms: C5_10  and  C6_11 
REMARK    5  A    between atoms: C8_16  and  N3_17 
REMARK    6  A    between atoms: C9_22  and  N5_23 
ROOT
HETATM    1  C6  UNL     1      16.965 -22.677 -11.222  1.00  0.00     0.067 A 
HETATM    2  S1  UNL     1      15.856 -22.152 -12.392  1.00  0.00    -0.061 SA
HETATM    3  C7  UNL     1      16.981 -21.714 -13.622  1.00  0.00     0.106 A 
HETATM    4  N2  UNL     1      16.772 -21.207 -14.853  1.00  0.00    -0.185 N 
ATOM      5  H2  UNL     1      15.823 -21.028 -15.182  1.00  0.00     0.185 HD
HETATM    6  C8  UNL     1      17.837 -20.937 -15.650  1.00  0.00     0.678 A 
HETATM    7  N4  UNL     1      19.013 -21.191 -15.164  1.00  0.00    -0.172 N 
ATOM      8  H4  UNL     1      19.815 -20.989 -15.761  1.00  0.00     0.186 HD
HETATM    9  C9  UNL     1      19.274 -21.705 -13.920  1.00  0.00     0.176 A 
HETATM   10  C10 UNL     1      18.211 -21.996 -13.074  1.00  0.00     0.054 A 
HETATM   11  C11 UNL     1      18.196 -22.498 -11.823  1.00  0.00    -0.019 A 
HETATM   12  C12 UNL     1      19.411 -22.887 -11.023  1.00  0.00     0.051 C 
ENDROOT
BRANCH   1  13
HETATM   13  C5  UNL     1      16.661 -23.188  -9.906  1.00  0.00    -0.054 C 
HETATM   14  C4  UNL     1      16.393 -23.600  -8.795  1.00  0.00    -0.033 C 
BRANCH  14  15
HETATM   15  C2  UNL     1      16.090 -24.082  -7.448  1.00  0.00     0.285 C 
HETATM   16  C3  UNL     1      14.683 -23.685  -7.127  1.00  0.00     0.094 C 
BRANCH  15  17
HETATM   17  N1  UNL     1      17.048 -23.607  -6.479  1.00  0.00    -0.036 N 
HETATM   18  C1  UNL     1      16.984 -22.195  -6.246  1.00  0.00     0.271 C 
ATOM     19  H12 UNL     1      17.993 -23.886  -6.743  1.00  0.00     0.281 HD
ATOM     20  H11 UNL     1      16.956 -24.121  -5.602  1.00  0.00     0.281 HD
ENDBRANCH  15  17
BRANCH  15  21
HETATM   21  O1  UNL     1      16.141 -25.492  -7.401  1.00  0.00    -0.356 OA
ATOM     22  H1  UNL     1      16.950 -25.745  -7.833  1.00  0.00     0.213 HD
ENDBRANCH  15  21
ENDBRANCH  14  15
ENDBRANCH   1  13
BRANCH   9  23
HETATM   23  N5  UNL     1      20.657 -21.886 -13.617  1.00  0.00    -0.153 N 
HETATM   24  N6  UNL     1      21.397 -22.878 -14.023  1.00  0.00    -0.204 N 
HETATM   25  N7  UNL     1      22.620 -22.781 -13.531  1.00  0.00     0.010 NA
ATOM     26  H6  UNL     1      21.076 -23.628 -14.636  1.00  0.00     0.207 HD
HETATM   27  N8  UNL     1      22.632 -21.685 -12.795  1.00  0.00     0.010 NA
HETATM   28  N9  UNL     1      21.411 -21.131 -12.850  1.00  0.00    -0.204 N 
ATOM     29  H9  UNL     1      21.119 -20.274 -12.380  1.00  0.00     0.207 HD
ENDBRANCH   9  23
BRANCH   6  30
HETATM   30  N3  UNL     1      17.643 -20.449 -16.839  1.00  0.00    -0.234 N 
ATOM     31  H32 UNL     1      16.816 -19.909 -17.097  1.00  0.00     0.174 HD
ATOM     32  H31 UNL     1      18.341 -20.600 -17.567  1.00  0.00     0.174 HD
ENDBRANCH   6  30
TORSDOF 6
ENDMDL
MODEL 3
REMARK VINA RESULT: -6.393531857      1.554      3.507
REMARK  6 active torsions:
REMARK  status: ('A' for Active; 'I' for Inactive)
REMARK    1  A    between atoms: N1_2  and  C2_5 
REMARK    2  A    between atoms: C2_5  and  O1_7 
REMARK    3  A    between atoms: C2_5  and  C4_9 
REMARK    4  A    between atoms: C5_10  and  C6_11 
REMARK    5  A    between atoms: C8_16  and  N3_17 
REMARK    6  A    between atoms: C9_22  and  N5_23 
ROOT
HETATM    1  C6  UNL     1      16.946 -22.667 -11.208  1.00  0.00     0.067 A 
HETATM    2  S1  UNL     1      15.840 -22.150 -12.385  1.00  0.00    -0.061 SA
HETATM    3  C7  UNL     1      16.969 -21.726 -13.616  1.00  0.00     0.106 A 
HETATM    4  N2  UNL     1      16.764 -21.229 -14.851  1.00  0.00    -0.185 N 
ATOM      5  H2  UNL     1      15.817 -21.051 -15.184  1.00  0.00     0.185 HD
HETATM    6  C8  UNL     1      17.832 -20.968 -15.648  1.00  0.00     0.678 A 
HETATM    7  N4  UNL     1      19.006 -21.221 -15.158  1.00  0.00    -0.172 N 
ATOM      8  H4  UNL     1      19.809 -21.026 -15.754  1.00  0.00     0.186 HD
HETATM    9  C9  UNL     1      19.263 -21.725 -13.909  1.00  0.00     0.176 A 
HETATM   10  C10 UNL     1      18.197 -22.006 -13.063  1.00  0.00     0.054 A 
HETATM   11  C11 UNL     1      18.178 -22.497 -11.807  1.00  0.00    -0.019 A 
HETATM   12  C12 UNL     1      19.390 -22.882 -11.001  1.00  0.00     0.051 C 
ENDROOT
BRANCH   1  13
HETATM   13  C5  UNL     1      16.637 -23.166  -9.888  1.00  0.00    -0.054 C 
HETATM   14  C4  UNL     1      16.359 -23.575  -8.778  1.00  0.00    -0.033 C 
BRANCH  14  15
HETATM   15  C2  UNL     1      16.034 -24.045  -7.432  1.00  0.00     0.285 C 
HETATM   16  C3  UNL     1      17.015 -23.430  -6.484  1.00  0.00     0.094 C 
BRANCH  15  17
HETATM   17  N1  UNL     1      16.002 -25.486  -7.359  1.00  0.00    -0.036 N 
HETATM   18  C1  UNL     1      15.626 -25.992  -6.073  1.00  0.00     0.271 C 
ATOM     19  H12 UNL     1      16.896 -25.880  -7.652  1.00  0.00     0.281 HD
ATOM     20  H11 UNL     1      15.399 -25.869  -8.087  1.00  0.00     0.281 HD
ENDBRANCH  15  17
BRANCH  15  21
HETATM   21  O1  UNL     1      14.752 -23.599  -7.046  1.00  0.00    -0.356 OA
ATOM     22  H1  UNL     1      14.139 -24.271  -7.324  1.00  0.00     0.213 HD
ENDBRANCH  15  21
ENDBRANCH  14  15
ENDBRANCH   1  13
BRANCH   9  23
HETATM   23  N5  UNL     1      20.644 -21.907 -13.601  1.00  0.00    -0.153 N 
HETATM   24  N6  UNL     1      21.392 -22.885 -14.026  1.00  0.00    -0.204 N 
HETATM   25  N7  UNL     1      22.611 -22.794 -13.524  1.00  0.00     0.010 NA
ATOM     26  H6  UNL     1      21.079 -23.621 -14.660  1.00  0.00     0.207 HD
HETATM   27  N8  UNL     1      22.612 -21.716 -12.761  1.00  0.00     0.010 NA
HETATM   28  N9  UNL     1      21.389 -21.167 -12.810  1.00  0.00    -0.204 N 
ATOM     29  H9  UNL     1      21.090 -20.324 -12.320  1.00  0.00     0.207 HD
ENDBRANCH   9  23
BRANCH   6  30
HETATM   30  N3  UNL     1      17.641 -20.490 -16.842  1.00  0.00    -0.234 N 
ATOM     31  H32 UNL     1      18.368 -20.020 -17.382  1.00  0.00     0.174 HD
ATOM     32  H31 UNL     1      16.725 -20.579 -17.281  1.00  0.00     0.174 HD
ENDBRANCH   6  30
TORSDOF 6
ENDMDL
MODEL 4
REMARK VINA RESULT: -5.406725186      4.515      7.978
REMARK  6 active torsions:
REMARK  status: ('A' for Active; 'I' for Inactive)
REMARK    1  A    between atoms: N1_2  and  C2_5 
REMARK    2  A    between atoms: C2_5  and  O1_7 
REMARK    3  A    between atoms: C2_5  and  C4_9 
REMARK    4  A    between atoms: C5_10  and  C6_11 
REMARK    5  A    between atoms: C8_16  and  N3_17 
REMARK    6  A    between atoms: C9_22  and  N5_23 
ROOT
HETATM    1  C6  UNL     1      15.542 -22.112 -10.120  1.00  0.00     0.067 A 
HETATM    2  S1  UNL     1      15.919 -23.183  -8.862  1.00  0.00    -0.061 SA
HETATM    3  C7  UNL     1      14.834 -22.563  -7.675  1.00  0.00     0.106 A 
HETATM    4  N2  UNL     1      14.613 -22.958  -6.406  1.00  0.00    -0.185 N 
ATOM      5  H2  UNL     1      15.131 -23.745  -6.014  1.00  0.00     0.185 HD
HETATM    6  C8  UNL     1      13.695 -22.298  -5.655  1.00  0.00     0.678 A 
HETATM    7  N4  UNL     1      13.077 -21.309  -6.219  1.00  0.00    -0.172 N 
ATOM      8  H4  UNL     1      12.386 -20.811  -5.658  1.00  0.00     0.186 HD
HETATM    9  C9  UNL     1      13.268 -20.871  -7.505  1.00  0.00     0.176 A 
HETATM   10  C10 UNL     1      14.198 -21.520  -8.307  1.00  0.00     0.054 A 
HETATM   11  C11 UNL     1      14.571 -21.290  -9.582  1.00  0.00    -0.019 A 
HETATM   12  C12 UNL     1      14.014 -20.213 -10.475  1.00  0.00     0.051 C 
ENDROOT
BRANCH   1  13
HETATM   13  C5  UNL     1      16.122 -22.089 -11.443  1.00  0.00    -0.054 C 
HETATM   14  C4  UNL     1      16.628 -22.063 -12.547  1.00  0.00    -0.033 C 
BRANCH  14  15
HETATM   15  C2  UNL     1      17.234 -22.007 -13.877  1.00  0.00     0.285 C 
HETATM   16  C3  UNL     1      18.704 -21.790 -13.702  1.00  0.00     0.094 C 
BRANCH  15  17
HETATM   17  N1  UNL     1      16.609 -21.007 -14.710  1.00  0.00    -0.036 N 
HETATM   18  C1  UNL     1      17.222 -19.716 -14.623  1.00  0.00     0.271 C 
ATOM     19  H12 UNL     1      15.611 -20.945 -14.509  1.00  0.00     0.281 HD
ATOM     20  H11 UNL     1      16.569 -21.322 -15.679  1.00  0.00     0.281 HD
ENDBRANCH  15  17
BRANCH  15  21
HETATM   21  O1  UNL     1      17.076 -23.239 -14.548  1.00  0.00    -0.356 OA
ATOM     22  H1  UNL     1      16.480 -23.076 -15.271  1.00  0.00     0.213 HD
ENDBRANCH  15  21
ENDBRANCH  14  15
ENDBRANCH   1  13
BRANCH   9  23
HETATM   23  N5  UNL     1      12.468 -19.754  -7.890  1.00  0.00    -0.153 N 
HETATM   24  N6  UNL     1      12.783 -18.502  -7.719  1.00  0.00    -0.204 N 
HETATM   25  N7  UNL     1      11.810 -17.712  -8.140  1.00  0.00     0.010 NA
ATOM     26  H6  UNL     1      13.662 -18.175  -7.317  1.00  0.00     0.207 HD
HETATM   27  N8  UNL     1      10.859 -18.511  -8.586  1.00  0.00     0.010 NA
HETATM   28  N9  UNL     1      11.270 -19.779  -8.430  1.00  0.00    -0.204 N 
ATOM     29  H9  UNL     1      10.745 -20.616  -8.686  1.00  0.00     0.207 HD
ENDBRANCH   9  23
BRANCH   6  30
HETATM   30  N3  UNL     1      13.476 -22.675  -4.429  1.00  0.00    -0.234 N 
ATOM     31  H32 UNL     1      14.060 -22.393  -3.641  1.00  0.00     0.174 HD
ATOM     32  H31 UNL     1      12.684 -23.284  -4.223  1.00  0.00     0.174 HD
ENDBRANCH   6  30
TORSDOF 6
ENDMDL
MODEL 5
REMARK VINA RESULT: -5.357793880      6.066      7.856
REMARK  6 active torsions:
REMARK  status: ('A' for Active; 'I' for Inactive)
REMARK    1  A    between atoms: N1_2  and  C2_5 
REMARK    2  A    between atoms: C2_5  and  O1_7 
REMARK    3  A    between atoms: C2_5  and  C4_9 
REMARK    4  A    between atoms: C5_10  and  C6_11 
REMARK    5  A    between atoms: C8_16  and  N3_17 
REMARK    6  A    between atoms: C9_22  and  N5_23 
ROOT
HETATM    1  C6  UNL     1      14.001 -21.562  -5.782  1.00  0.00     0.067 A 
HETATM    2  S1  UNL     1      13.666 -20.754  -4.330  1.00  0.00    -0.061 SA
HETATM    3  C7  UNL     1      13.254 -19.216  -4.991  1.00  0.00     0.106 A 
HETATM    4  N2  UNL     1      12.878 -18.077  -4.378  1.00  0.00    -0.185 N 
ATOM      5  H2  UNL     1      12.800 -18.041  -3.361  1.00  0.00     0.185 HD
HETATM    6  C8  UNL     1      12.605 -16.978  -5.127  1.00  0.00     0.678 A 
HETATM    7  N4  UNL     1      12.726 -17.099  -6.412  1.00  0.00    -0.172 N 
ATOM      8  H4  UNL     1      12.521 -16.276  -6.977  1.00  0.00     0.186 HD
HETATM    9  C9  UNL     1      13.104 -18.236  -7.080  1.00  0.00     0.176 A 
HETATM   10  C10 UNL     1      13.392 -19.382  -6.349  1.00  0.00     0.054 A 
HETATM   11  C11 UNL     1      13.782 -20.608  -6.756  1.00  0.00    -0.019 A 
HETATM   12  C12 UNL     1      13.993 -21.028  -8.186  1.00  0.00     0.051 C 
ENDROOT
BRANCH   1  13
HETATM   13  C5  UNL     1      14.420 -22.936  -5.933  1.00  0.00    -0.054 C 
HETATM   14  C4  UNL     1      14.790 -24.088  -6.047  1.00  0.00    -0.033 C 
BRANCH  14  15
HETATM   15  C2  UNL     1      15.251 -25.467  -6.203  1.00  0.00     0.285 C 
HETATM   16  C3  UNL     1      14.044 -26.339  -6.344  1.00  0.00     0.094 C 
BRANCH  15  17
HETATM   17  N1  UNL     1      16.117 -25.869  -5.122  1.00  0.00    -0.036 N 
HETATM   18  C1  UNL     1      15.646 -27.011  -4.397  1.00  0.00     0.271 C 
ATOM     19  H12 UNL     1      16.288 -25.088  -4.489  1.00  0.00     0.281 HD
ATOM     20  H11 UNL     1      17.067 -26.025  -5.461  1.00  0.00     0.281 HD
ENDBRANCH  15  17
BRANCH  15  21
HETATM   21  O1  UNL     1      16.002 -25.609  -7.389  1.00  0.00    -0.356 OA
ATOM     22  H1  UNL     1      15.911 -26.516  -7.658  1.00  0.00     0.213 HD
ENDBRANCH  15  21
ENDBRANCH  14  15
ENDBRANCH   1  13
BRANCH   9  23
HETATM   23  N5  UNL     1      13.170 -18.111  -8.500  1.00  0.00    -0.153 N 
HETATM   24  N6  UNL     1      12.217 -18.422  -9.332  1.00  0.00    -0.204 N 
HETATM   25  N7  UNL     1      12.608 -18.236 -10.581  1.00  0.00     0.010 NA
ATOM     26  H6  UNL     1      11.295 -18.762  -9.057  1.00  0.00     0.207 HD
HETATM   27  N8  UNL     1      13.850 -17.793 -10.513  1.00  0.00     0.010 NA
HETATM   28  N9  UNL     1      14.197 -17.717  -9.219  1.00  0.00    -0.204 N 
ATOM     29  H9  UNL     1      15.099 -17.407  -8.857  1.00  0.00     0.207 HD
ENDBRANCH   9  23
BRANCH   6  30
HETATM   30  N3  UNL     1      12.241 -15.875  -4.541  1.00  0.00    -0.234 N 
ATOM     31  H32 UNL     1      12.817 -15.387  -3.855  1.00  0.00     0.174 HD
ATOM     32  H31 UNL     1      11.337 -15.460  -4.766  1.00  0.00     0.174 HD
ENDBRANCH   6  30
TORSDOF 6
ENDMDL
