MODEL 1
REMARK VINA RESULT: -5.818964422      0.000      0.000
REMARK  6 active torsions:
REMARK  status: ('A' for Active; 'I' for Inactive)
REMARK    1  A    between atoms: O1_2  and  C2_3 
REMARK    2  A    between atoms: C2_3  and  C3_4 
REMARK    3  A    between atoms: C4_7  and  C5_8 
REMARK    4  A    between atoms: C5_8  and  C6_9 
REMARK    5  A    between atoms: C13_20  and  N4_21 
REMARK    6  A    between atoms: N4_21  and  N5_23 
ROOT
HETATM    1  C3  UNL     1       2.830 117.780  -8.930  1.00  0.00     0.129 A 
HETATM    2  N1  UNL     1       2.857 117.638  -7.597  1.00  0.00    -0.338 N 
ATOM      3  H1  UNL     1       2.068 117.741  -6.959  1.00  0.00     0.167 HD
HETATM    4  C4  UNL     1       4.133 117.330  -7.258  1.00  0.00     0.080 A 
HETATM    5  C13 UNL     1       4.874 117.290  -8.399  1.00  0.00     0.148 A 
HETATM    6  N6  UNL     1       4.046 117.575  -9.453  1.00  0.00    -0.324 N 
ATOM      7  H6  UNL     1       4.303 117.622 -10.438  1.00  0.00     0.169 HD
ENDROOT
BRANCH   4   8
HETATM    8  C5  UNL     1       4.524 117.119  -6.017  1.00  0.00     0.048 C 
BRANCH   8   9
HETATM    9  C6  UNL     1       4.861 118.231  -5.129  1.00  0.00     0.011 A 
HETATM   10  C7  UNL     1       6.091 118.802  -4.897  1.00  0.00     0.102 A 
HETATM   11  N2  UNL     1       5.965 119.802  -4.007  1.00  0.00    -0.363 N 
HETATM   12  C8  UNL     1       4.680 119.914  -3.638  1.00  0.00     0.059 A 
ATOM     13  H2  UNL     1       6.729 120.386  -3.665  1.00  0.00     0.165 HD
HETATM   14  C9  UNL     1       3.994 120.743  -2.778  1.00  0.00     0.033 A 
HETATM   15  C12 UNL     1       3.979 118.932  -4.337  1.00  0.00     0.070 A 
HETATM   16  C10 UNL     1       2.642 120.568  -2.643  1.00  0.00     0.019 A 
HETATM   17  C11 UNL     1       1.941 119.594  -3.335  1.00  0.00     0.088 A 
HETATM   18  N3  UNL     1       2.654 118.801  -4.170  1.00  0.00    -0.363 N 
ATOM     19  H3  UNL     1       2.164 118.074  -4.693  1.00  0.00     0.165 HD
ENDBRANCH   8   9
ENDBRANCH   4   8
BRANCH   5  20
HETATM   20  N4  UNL     1       6.107 117.049  -8.615  1.00  0.00    -0.290 N 
ATOM     21  H4  UNL     1       6.691 117.843  -8.878  1.00  0.00     0.188 HD
BRANCH  20  22
HETATM   22  N5  UNL     1       6.728 115.831  -8.527  1.00  0.00    -0.344 N 
ATOM     23  H52 UNL     1       6.952 115.517  -7.583  1.00  0.00     0.176 HD
ATOM     24  H51 UNL     1       6.981 115.221  -9.304  1.00  0.00     0.176 HD
ENDBRANCH  20  22
ENDBRANCH   5  20
BRANCH   1  25
HETATM   25  C2  UNL     1       1.761 118.081  -9.633  1.00  0.00     0.182 C 
BRANCH  25  26
HETATM   26  O1  UNL     1       0.644 118.583  -8.999  1.00  0.00    -0.364 OA
HETATM   27  C1  UNL     1      -0.055 119.712  -9.531  1.00  0.00     0.209 C 
ENDBRANCH  25  26
ENDBRANCH   1  25
TORSDOF 6
ENDMDL
MODEL 2
REMARK VINA RESULT: -5.806474492      2.631      3.796
REMARK  6 active torsions:
REMARK  status: ('A' for Active; 'I' for Inactive)
REMARK    1  A    between atoms: O1_2  and  C2_3 
REMARK    2  A    between atoms: C2_3  and  C3_4 
REMARK    3  A    between atoms: C4_7  and  C5_8 
REMARK    4  A    between atoms: C5_8  and  C6_9 
REMARK    5  A    between atoms: C13_20  and  N4_21 
REMARK    6  A    between atoms: N4_21  and  N5_23 
ROOT
HETATM    1  C3  UNL     1       6.719 119.780  -8.048  1.00  0.00     0.129 A 
HETATM    2  N1  UNL     1       5.663 119.011  -7.747  1.00  0.00    -0.338 N 
ATOM      3  H1  UNL     1       4.856 118.826  -8.343  1.00  0.00     0.167 HD
HETATM    4  C4  UNL     1       5.871 118.526  -6.499  1.00  0.00     0.080 A 
HETATM    5  C13 UNL     1       7.061 119.011  -6.050  1.00  0.00     0.148 A 
HETATM    6  N6  UNL     1       7.593 119.803  -7.033  1.00  0.00    -0.324 N 
ATOM      7  H6  UNL     1       8.477 120.309  -6.999  1.00  0.00     0.169 HD
ENDROOT
BRANCH   4   8
HETATM    8  C5  UNL     1       5.025 117.726  -5.880  1.00  0.00     0.048 C 
BRANCH   8   9
HETATM    9  C6  UNL     1       3.774 118.233  -5.319  1.00  0.00     0.011 A 
HETATM   10  C7  UNL     1       2.482 117.921  -5.678  1.00  0.00     0.102 A 
HETATM   11  N2  UNL     1       1.619 118.610  -4.911  1.00  0.00    -0.363 N 
HETATM   12  C8  UNL     1       2.303 119.377  -4.047  1.00  0.00     0.059 A 
ATOM     13  H2  UNL     1       0.602 118.559  -4.976  1.00  0.00     0.165 HD
HETATM   14  C9  UNL     1       1.944 120.263  -3.056  1.00  0.00     0.033 A 
HETATM   15  C12 UNL     1       3.656 119.147  -4.295  1.00  0.00     0.070 A 
HETATM   16  C10 UNL     1       2.938 120.888  -2.349  1.00  0.00     0.019 A 
HETATM   17  C11 UNL     1       4.283 120.663  -2.591  1.00  0.00     0.088 A 
HETATM   18  N3  UNL     1       4.591 119.784  -3.575  1.00  0.00    -0.363 N 
ATOM     19  H3  UNL     1       5.574 119.599  -3.776  1.00  0.00     0.165 HD
ENDBRANCH   8   9
ENDBRANCH   4   8
BRANCH   5  20
HETATM   20  N4  UNL     1       7.696 118.853  -4.956  1.00  0.00    -0.290 N 
ATOM     21  H4  UNL     1       7.143 118.592  -4.139  1.00  0.00     0.188 HD
BRANCH  20  22
HETATM   22  N5  UNL     1       9.044 118.998  -4.767  1.00  0.00    -0.344 N 
ATOM     23  H52 UNL     1       9.605 119.050  -5.617  1.00  0.00     0.176 HD
ATOM     24  H51 UNL     1       9.529 119.057  -3.871  1.00  0.00     0.176 HD
ENDBRANCH  20  22
ENDBRANCH   5  20
BRANCH   1  25
HETATM   25  C2  UNL     1       6.881 120.427  -9.181  1.00  0.00     0.182 C 
BRANCH  25  26
HETATM   26  O1  UNL     1       5.821 121.113  -9.733  1.00  0.00    -0.364 OA
HETATM   27  C1  UNL     1       5.749 122.540  -9.653  1.00  0.00     0.209 C 
ENDBRANCH  25  26
ENDBRANCH   1  25
TORSDOF 6
ENDMDL
MODEL 3
REMARK VINA RESULT: -5.783500268      2.908      5.565
REMARK  6 active torsions:
REMARK  status: ('A' for Active; 'I' for Inactive)
REMARK    1  A    between atoms: O1_2  and  C2_3 
REMARK    2  A    between atoms: C2_3  and  C3_4 
REMARK    3  A    between atoms: C4_7  and  C5_8 
REMARK    4  A    between atoms: C5_8  and  C6_9 
REMARK    5  A    between atoms: C13_20  and  N4_21 
REMARK    6  A    between atoms: N4_21  and  N5_23 
ROOT
HETATM    1  C3  UNL     1       3.077 120.479  -3.199  1.00  0.00     0.129 A 
HETATM    2  N1  UNL     1       4.223 119.837  -3.471  1.00  0.00    -0.338 N 
ATOM      3  H1  UNL     1       5.145 120.051  -3.089  1.00  0.00     0.167 HD
HETATM    4  C4  UNL     1       3.925 118.851  -4.350  1.00  0.00     0.080 A 
HETATM    5  C13 UNL     1       2.589 118.904  -4.606  1.00  0.00     0.148 A 
HETATM    6  N6  UNL     1       2.058 119.934  -3.876  1.00  0.00    -0.324 N 
ATOM      7  H6  UNL     1       1.082 120.228  -3.853  1.00  0.00     0.169 HD
ENDROOT
BRANCH   4   8
HETATM    8  C5  UNL     1       4.821 118.016  -4.837  1.00  0.00     0.048 C 
BRANCH   8   9
HETATM    9  C6  UNL     1       6.043 118.503  -5.475  1.00  0.00     0.011 A 
HETATM   10  C7  UNL     1       7.282 118.709  -4.913  1.00  0.00     0.102 A 
HETATM   11  N2  UNL     1       8.134 119.166  -5.848  1.00  0.00    -0.363 N 
HETATM   12  C8  UNL     1       7.494 119.271  -7.023  1.00  0.00     0.059 A 
ATOM     13  H2  UNL     1       9.115 119.398  -5.688  1.00  0.00     0.165 HD
HETATM   14  C9  UNL     1       7.863 119.674  -8.287  1.00  0.00     0.033 A 
HETATM   15  C12 UNL     1       6.181 118.857  -6.799  1.00  0.00     0.070 A 
HETATM   16  C10 UNL     1       6.920 119.651  -9.281  1.00  0.00     0.019 A 
HETATM   17  C11 UNL     1       5.615 119.240  -9.063  1.00  0.00     0.088 A 
HETATM   18  N3  UNL     1       5.295 118.853  -7.806  1.00  0.00    -0.363 N 
ATOM     19  H3  UNL     1       4.340 118.546  -7.616  1.00  0.00     0.165 HD
ENDBRANCH   8   9
ENDBRANCH   4   8
BRANCH   5  20
HETATM   20  N4  UNL     1       1.829 118.203  -5.353  1.00  0.00    -0.290 N 
ATOM     21  H4  UNL     1       1.063 117.709  -4.894  1.00  0.00     0.188 HD
BRANCH  20  22
HETATM   22  N5  UNL     1       1.936 118.049  -6.710  1.00  0.00    -0.344 N 
ATOM     23  H52 UNL     1       2.685 118.579  -7.156  1.00  0.00     0.176 HD
ATOM     24  H51 UNL     1       1.347 117.465  -7.303  1.00  0.00     0.176 HD
ENDBRANCH  20  22
ENDBRANCH   5  20
BRANCH   1  25
HETATM   25  C2  UNL     1       2.963 121.502  -2.382  1.00  0.00     0.182 C 
BRANCH  25  26
HETATM   26  O1  UNL     1       3.131 122.783  -2.862  1.00  0.00    -0.364 OA
HETATM   27  C1  UNL     1       2.250 123.837  -2.463  1.00  0.00     0.209 C 
ENDBRANCH  25  26
ENDBRANCH   1  25
TORSDOF 6
ENDMDL
MODEL 4
REMARK VINA RESULT: -5.780491601      2.297      6.057
REMARK  6 active torsions:
REMARK  status: ('A' for Active; 'I' for Inactive)
REMARK    1  A    between atoms: O1_2  and  C2_3 
REMARK    2  A    between atoms: C2_3  and  C3_4 
REMARK    3  A    between atoms: C4_7  and  C5_8 
REMARK    4  A    between atoms: C5_8  and  C6_9 
REMARK    5  A    between atoms: C13_20  and  N4_21 
REMARK    6  A    between atoms: N4_21  and  N5_23 
ROOT
HETATM    1  C3  UNL     1       3.901 119.906  -3.614  1.00  0.00     0.129 A 
HETATM    2  N1  UNL     1       3.577 118.787  -4.279  1.00  0.00    -0.338 N 
ATOM      3  H1  UNL     1       2.644 118.387  -4.376  1.00  0.00     0.167 HD
HETATM    4  C4  UNL     1       4.725 118.289  -4.797  1.00  0.00     0.080 A 
HETATM    5  C13 UNL     1       5.744 119.118  -4.438  1.00  0.00     0.148 A 
HETATM    6  N6  UNL     1       5.217 120.138  -3.690  1.00  0.00    -0.324 N 
ATOM      7  H6  UNL     1       5.726 120.918  -3.275  1.00  0.00     0.169 HD
ENDROOT
BRANCH   4   8
HETATM    8  C5  UNL     1       4.779 117.186  -5.517  1.00  0.00     0.048 C 
BRANCH   8   9
HETATM    9  C6  UNL     1       4.402 117.183  -6.929  1.00  0.00     0.011 A 
HETATM   10  C7  UNL     1       3.277 117.712  -7.519  1.00  0.00     0.102 A 
HETATM   11  N2  UNL     1       3.315 117.494  -8.845  1.00  0.00    -0.363 N 
HETATM   12  C8  UNL     1       4.439 116.831  -9.157  1.00  0.00     0.059 A 
ATOM     13  H2  UNL     1       2.600 117.788  -9.511  1.00  0.00     0.165 HD
HETATM   14  C9  UNL     1       4.983 116.358 -10.331  1.00  0.00     0.033 A 
HETATM   15  C12 UNL     1       5.128 116.631  -7.961  1.00  0.00     0.070 A 
HETATM   16  C10 UNL     1       6.187 115.706 -10.277  1.00  0.00     0.019 A 
HETATM   17  C11 UNL     1       6.875 115.506  -9.091  1.00  0.00     0.088 A 
HETATM   18  N3  UNL     1       6.304 115.986  -7.961  1.00  0.00    -0.363 N 
ATOM     19  H3  UNL     1       6.789 115.852  -7.072  1.00  0.00     0.165 HD
ENDBRANCH   8   9
ENDBRANCH   4   8
BRANCH   5  20
HETATM   20  N4  UNL     1       6.998 119.089  -4.671  1.00  0.00    -0.290 N 
ATOM     21  H4  UNL     1       7.613 119.012  -3.862  1.00  0.00     0.188 HD
BRANCH  20  22
HETATM   22  N5  UNL     1       7.600 119.152  -5.899  1.00  0.00    -0.344 N 
ATOM     23  H52 UNL     1       7.209 118.538  -6.614  1.00  0.00     0.176 HD
ATOM     24  H51 UNL     1       8.389 119.743  -6.160  1.00  0.00     0.176 HD
ENDBRANCH  20  22
ENDBRANCH   5  20
BRANCH   1  25
HETATM   25  C2  UNL     1       3.048 120.674  -2.973  1.00  0.00     0.182 C 
BRANCH  25  26
HETATM   26  O1  UNL     1       3.490 121.835  -2.375  1.00  0.00    -0.364 OA
HETATM   27  C1  UNL     1       2.968 123.108  -2.770  1.00  0.00     0.209 C 
ENDBRANCH  25  26
ENDBRANCH   1  25
TORSDOF 6
ENDMDL
MODEL 5
REMARK VINA RESULT: -5.763351315      2.672      3.961
REMARK  6 active torsions:
REMARK  status: ('A' for Active; 'I' for Inactive)
REMARK    1  A    between atoms: O1_2  and  C2_3 
REMARK    2  A    between atoms: C2_3  and  C3_4 
REMARK    3  A    between atoms: C4_7  and  C5_8 
REMARK    4  A    between atoms: C5_8  and  C6_9 
REMARK    5  A    between atoms: C13_20  and  N4_21 
REMARK    6  A    between atoms: N4_21  and  N5_23 
ROOT
HETATM    1  C3  UNL     1       6.702 115.921  -9.147  1.00  0.00     0.129 A 
HETATM    2  N1  UNL     1       6.323 115.704  -7.879  1.00  0.00    -0.338 N 
ATOM      3  H1  UNL     1       6.625 114.938  -7.277  1.00  0.00     0.167 HD
HETATM    4  C4  UNL     1       5.462 116.697  -7.549  1.00  0.00     0.080 A 
HETATM    5  C13 UNL     1       5.325 117.513  -8.630  1.00  0.00     0.148 A 
HETATM    6  N6  UNL     1       6.110 117.018  -9.637  1.00  0.00    -0.324 N 
ATOM      7  H6  UNL     1       6.222 117.407 -10.573  1.00  0.00     0.169 HD
ENDROOT
BRANCH   4   8
HETATM    8  C5  UNL     1       4.889 116.799  -6.366  1.00  0.00     0.048 C 
BRANCH   8   9
HETATM    9  C6  UNL     1       5.224 117.890  -5.452  1.00  0.00     0.011 A 
HETATM   10  C7  UNL     1       6.464 118.389  -5.130  1.00  0.00     0.102 A 
HETATM   11  N2  UNL     1       6.333 119.396  -4.248  1.00  0.00    -0.363 N 
HETATM   12  C8  UNL     1       5.032 119.581  -3.972  1.00  0.00     0.059 A 
ATOM     13  H2  UNL     1       7.102 119.934  -3.849  1.00  0.00     0.165 HD
HETATM   14  C9  UNL     1       4.335 120.449  -3.160  1.00  0.00     0.033 A 
HETATM   15  C12 UNL     1       4.328 118.641  -4.723  1.00  0.00     0.070 A 
HETATM   16  C10 UNL     1       2.969 120.352  -3.123  1.00  0.00     0.019 A 
HETATM   17  C11 UNL     1       2.265 119.420  -3.868  1.00  0.00     0.088 A 
HETATM   18  N3  UNL     1       2.990 118.587  -4.652  1.00  0.00    -0.363 N 
ATOM     19  H3  UNL     1       2.498 117.889  -5.212  1.00  0.00     0.165 HD
ENDBRANCH   8   9
ENDBRANCH   4   8
BRANCH   5  20
HETATM   20  N4  UNL     1       4.640 118.570  -8.827  1.00  0.00    -0.290 N 
ATOM     21  H4  UNL     1       5.157 119.447  -8.894  1.00  0.00     0.188 HD
BRANCH  20  22
HETATM   22  N5  UNL     1       3.278 118.647  -8.960  1.00  0.00    -0.344 N 
ATOM     23  H52 UNL     1       2.907 118.357  -9.865  1.00  0.00     0.176 HD
ATOM     24  H51 UNL     1       2.616 118.961  -8.251  1.00  0.00     0.176 HD
ENDBRANCH  20  22
ENDBRANCH   5  20
BRANCH   1  25
HETATM   25  C2  UNL     1       7.537 115.164  -9.822  1.00  0.00     0.182 C 
BRANCH  25  26
HETATM   26  O1  UNL     1       8.052 114.025  -9.240  1.00  0.00    -0.364 OA
HETATM   27  C1  UNL     1       9.422 113.659  -9.432  1.00  0.00     0.209 C 
ENDBRANCH  25  26
ENDBRANCH   1  25
TORSDOF 6
ENDMDL
