MODEL 1
REMARK VINA RESULT: -6.094769931      0.000      0.000
REMARK  7 active torsions:
REMARK  status: ('A' for Active; 'I' for Inactive)
REMARK    1  A    between atoms: N1_2  and  C2_4 
REMARK    2  A    between atoms: C2_4  and  N2_6 
REMARK    3  A    between atoms: N2_6  and  N3_8 
REMARK    4  A    between atoms: N3_8  and  C3_10 
REMARK    5  A    between atoms: C5_16  and  N6_17 
REMARK    6  A    between atoms: N6_17  and  C6_19 
REMARK    7  A    between atoms: C6_19  and  C7_20 
ROOT
HETATM    1  C3  UNL     1      40.122 -24.063  -3.997  1.00  0.00     0.712 A 
HETATM    2  N4  UNL     1      40.549 -24.625  -2.855  1.00  0.00    -0.185 N 
ATOM      3  H4  UNL     1      41.300 -24.185  -2.323  1.00  0.00     0.185 HD
HETATM    4  C4  UNL     1      39.996 -25.755  -2.412  1.00  0.00     0.215 A 
HETATM    5  N5  UNL     1      39.007 -26.317  -3.132  1.00  0.00    -0.187 N 
ATOM      6  H5  UNL     1      38.586 -27.182  -2.792  1.00  0.00     0.185 HD
HETATM    7  C5  UNL     1      38.551 -25.785  -4.281  1.00  0.00     0.693 A 
HETATM    8  N7  UNL     1      39.137 -24.644  -4.690  1.00  0.00    -0.021 N 
ATOM      9  H7  UNL     1      38.820 -24.210  -5.557  1.00  0.00     0.203 HD
ENDROOT
BRANCH   1  10
HETATM   10  N3  UNL     1      40.652 -22.986  -4.414  1.00  0.00    -0.129 N 
ATOM     11  H3  UNL     1      41.371 -23.023  -5.136  1.00  0.00     0.205 HD
BRANCH  10  12
HETATM   12  N2  UNL     1      40.253 -21.737  -3.885  1.00  0.00    -0.262 N 
ATOM     13  H2  UNL     1      40.951 -21.045  -3.611  1.00  0.00     0.190 HD
BRANCH  12  14
HETATM   14  C2  UNL     1      38.869 -21.457  -3.741  1.00  0.00     0.186 C 
HETATM   15  S1  UNL     1      38.217 -21.445  -2.248  1.00  0.00    -0.040 SA
BRANCH  14  16
HETATM   16  N1  UNL     1      38.052 -21.192  -4.864  1.00  0.00    -0.370 N 
HETATM   17  C1  UNL     1      36.640 -20.969  -4.670  1.00  0.00     0.148 C 
ATOM     18  H1  UNL     1      38.457 -21.160  -5.800  1.00  0.00     0.161 HD
ENDBRANCH  14  16
ENDBRANCH  12  14
ENDBRANCH  10  12
ENDBRANCH   1  10
BRANCH   7  19
HETATM   19  N6  UNL     1      37.588 -26.338  -4.975  1.00  0.00    -0.225 N 
ATOM     20  H6  UNL     1      37.486 -26.166  -5.975  1.00  0.00     0.177 HD
BRANCH  19  21
HETATM   21  C6  UNL     1      36.686 -27.193  -4.270  1.00  0.00     0.146 C 
BRANCH  21  22
HETATM   22  C7  UNL     1      36.335 -28.448  -5.007  1.00  0.00    -0.035 C 
HETATM   23  C8  UNL     1      37.236 -28.761  -6.152  1.00  0.00     0.016 C 
HETATM   24  C9  UNL     1      34.894 -28.408  -5.493  1.00  0.00     0.016 C 
HETATM   25  C10 UNL     1      36.427 -29.598  -4.006  1.00  0.00     0.016 C 
ENDBRANCH  21  22
ENDBRANCH  19  21
ENDBRANCH   7  19
TORSDOF 7
ENDMDL
MODEL 2
REMARK VINA RESULT: -6.010067702      1.133      1.737
REMARK  7 active torsions:
REMARK  status: ('A' for Active; 'I' for Inactive)
REMARK    1  A    between atoms: N1_2  and  C2_4 
REMARK    2  A    between atoms: C2_4  and  N2_6 
REMARK    3  A    between atoms: N2_6  and  N3_8 
REMARK    4  A    between atoms: N3_8  and  C3_10 
REMARK    5  A    between atoms: C5_16  and  N6_17 
REMARK    6  A    between atoms: N6_17  and  C6_19 
REMARK    7  A    between atoms: C6_19  and  C7_20 
ROOT
HETATM    1  C3  UNL     1      40.207 -24.129  -3.971  1.00  0.00     0.712 A 
HETATM    2  N4  UNL     1      40.553 -24.920  -2.943  1.00  0.00    -0.185 N 
ATOM      3  H4  UNL     1      41.363 -24.682  -2.371  1.00  0.00     0.185 HD
HETATM    4  C4  UNL     1      39.843 -26.014  -2.665  1.00  0.00     0.215 A 
HETATM    5  N5  UNL     1      38.779 -26.308  -3.435  1.00  0.00    -0.187 N 
ATOM      6  H5  UNL     1      38.238 -27.146  -3.222  1.00  0.00     0.185 HD
HETATM    7  C5  UNL     1      38.399 -25.542  -4.474  1.00  0.00     0.693 A 
HETATM    8  N7  UNL     1      39.143 -24.446  -4.718  1.00  0.00    -0.021 N 
ATOM      9  H7  UNL     1      38.888 -23.840  -5.496  1.00  0.00     0.203 HD
ENDROOT
BRANCH   1  10
HETATM   10  N3  UNL     1      40.886 -23.087  -4.230  1.00  0.00    -0.129 N 
ATOM     11  H3  UNL     1      41.880 -23.171  -4.440  1.00  0.00     0.205 HD
BRANCH  10  12
HETATM   12  N2  UNL     1      40.274 -21.813  -4.231  1.00  0.00    -0.262 N 
ATOM     13  H2  UNL     1      40.673 -21.048  -4.776  1.00  0.00     0.190 HD
BRANCH  12  14
HETATM   14  C2  UNL     1      39.098 -21.610  -3.463  1.00  0.00     0.186 C 
HETATM   15  S1  UNL     1      37.708 -21.242  -4.230  1.00  0.00    -0.040 SA
BRANCH  14  16
HETATM   16  N1  UNL     1      39.112 -21.719  -2.054  1.00  0.00    -0.370 N 
HETATM   17  C1  UNL     1      38.099 -22.509  -1.398  1.00  0.00     0.148 C 
ATOM     18  H1  UNL     1      39.831 -21.243  -1.507  1.00  0.00     0.161 HD
ENDBRANCH  14  16
ENDBRANCH  12  14
ENDBRANCH  10  12
ENDBRANCH   1  10
BRANCH   7  19
HETATM   19  N6  UNL     1      37.362 -25.834  -5.218  1.00  0.00    -0.225 N 
ATOM     20  H6  UNL     1      37.243 -25.431  -6.147  1.00  0.00     0.177 HD
BRANCH  19  21
HETATM   21  C6  UNL     1      36.403 -26.741  -4.670  1.00  0.00     0.146 C 
BRANCH  21  22
HETATM   22  C7  UNL     1      36.187 -27.970  -5.497  1.00  0.00    -0.035 C 
HETATM   23  C8  UNL     1      34.754 -28.310  -5.730  1.00  0.00     0.016 C 
HETATM   24  C9  UNL     1      36.899 -29.168  -4.888  1.00  0.00     0.016 C 
HETATM   25  C10 UNL     1      36.839 -27.719  -6.856  1.00  0.00     0.016 C 
ENDBRANCH  21  22
ENDBRANCH  19  21
ENDBRANCH   7  19
TORSDOF 7
ENDMDL
MODEL 3
REMARK VINA RESULT: -5.808464448      1.139      1.469
REMARK  7 active torsions:
REMARK  status: ('A' for Active; 'I' for Inactive)
REMARK    1  A    between atoms: N1_2  and  C2_4 
REMARK    2  A    between atoms: C2_4  and  N2_6 
REMARK    3  A    between atoms: N2_6  and  N3_8 
REMARK    4  A    between atoms: N3_8  and  C3_10 
REMARK    5  A    between atoms: C5_16  and  N6_17 
REMARK    6  A    between atoms: N6_17  and  C6_19 
REMARK    7  A    between atoms: C6_19  and  C7_20 
ROOT
HETATM    1  C3  UNL     1      40.150 -24.071  -4.124  1.00  0.00     0.712 A 
HETATM    2  N4  UNL     1      40.707 -24.661  -3.055  1.00  0.00    -0.185 N 
ATOM      3  H4  UNL     1      41.532 -24.247  -2.619  1.00  0.00     0.185 HD
HETATM    4  C4  UNL     1      40.187 -25.784  -2.558  1.00  0.00     0.215 A 
HETATM    5  N5  UNL     1      39.099 -26.311  -3.150  1.00  0.00    -0.187 N 
ATOM      6  H5  UNL     1      38.703 -27.171  -2.769  1.00  0.00     0.185 HD
HETATM    7  C5  UNL     1      38.512 -25.750  -4.223  1.00  0.00     0.693 A 
HETATM    8  N7  UNL     1      39.069 -24.617  -4.690  1.00  0.00    -0.021 N 
ATOM      9  H7  UNL     1      38.654 -24.162  -5.503  1.00  0.00     0.203 HD
ENDROOT
BRANCH   1  10
HETATM   10  N3  UNL     1      40.649 -23.000  -4.593  1.00  0.00    -0.129 N 
ATOM     11  H3  UNL     1      41.313 -23.048  -5.365  1.00  0.00     0.205 HD
BRANCH  10  12
HETATM   12  N2  UNL     1      40.290 -21.744  -4.053  1.00  0.00    -0.262 N 
ATOM     13  H2  UNL     1      40.924 -20.947  -4.133  1.00  0.00     0.190 HD
BRANCH  12  14
HETATM   14  C2  UNL     1      39.039 -21.604  -3.398  1.00  0.00     0.186 C 
HETATM   15  S1  UNL     1      37.721 -21.240  -4.283  1.00  0.00    -0.040 SA
BRANCH  14  16
HETATM   16  N1  UNL     1      38.919 -21.772  -2.000  1.00  0.00    -0.370 N 
HETATM   17  C1  UNL     1      37.991 -22.749  -1.485  1.00  0.00     0.148 C 
ATOM     18  H1  UNL     1      39.483 -21.208  -1.362  1.00  0.00     0.161 HD
ENDBRANCH  14  16
ENDBRANCH  12  14
ENDBRANCH  10  12
ENDBRANCH   1  10
BRANCH   7  19
HETATM   19  N6  UNL     1      37.453 -26.269  -4.793  1.00  0.00    -0.225 N 
ATOM     20  H6  UNL     1      36.721 -25.681  -5.190  1.00  0.00     0.177 HD
BRANCH  19  21
HETATM   21  C6  UNL     1      37.369 -27.695  -4.834  1.00  0.00     0.146 C 
BRANCH  21  22
HETATM   22  C7  UNL     1      35.981 -28.228  -4.662  1.00  0.00    -0.035 C 
HETATM   23  C8  UNL     1      35.272 -28.523  -5.940  1.00  0.00     0.016 C 
HETATM   24  C9  UNL     1      35.136 -27.282  -3.822  1.00  0.00     0.016 C 
HETATM   25  C10 UNL     1      36.094 -29.531  -3.873  1.00  0.00     0.016 C 
ENDBRANCH  21  22
ENDBRANCH  19  21
ENDBRANCH   7  19
TORSDOF 7
ENDMDL
MODEL 4
REMARK VINA RESULT: -5.637712836      2.054      3.634
REMARK  7 active torsions:
REMARK  status: ('A' for Active; 'I' for Inactive)
REMARK    1  A    between atoms: N1_2  and  C2_4 
REMARK    2  A    between atoms: C2_4  and  N2_6 
REMARK    3  A    between atoms: N2_6  and  N3_8 
REMARK    4  A    between atoms: N3_8  and  C3_10 
REMARK    5  A    between atoms: C5_16  and  N6_17 
REMARK    6  A    between atoms: N6_17  and  C6_19 
REMARK    7  A    between atoms: C6_19  and  C7_20 
ROOT
HETATM    1  C3  UNL     1      37.559 -25.784  -5.104  1.00  0.00     0.712 A 
HETATM    2  N4  UNL     1      37.183 -26.069  -6.360  1.00  0.00    -0.185 N 
ATOM      3  H4  UNL     1      37.152 -25.328  -7.061  1.00  0.00     0.185 HD
HETATM    4  C4  UNL     1      36.850 -27.316  -6.698  1.00  0.00     0.215 A 
HETATM    5  N5  UNL     1      36.897 -28.276  -5.756  1.00  0.00    -0.187 N 
ATOM      6  H5  UNL     1      36.642 -29.229  -6.015  1.00  0.00     0.185 HD
HETATM    7  C5  UNL     1      37.269 -28.031  -4.486  1.00  0.00     0.693 A 
HETATM    8  N7  UNL     1      37.597 -26.759  -4.189  1.00  0.00    -0.021 N 
ATOM      9  H7  UNL     1      37.884 -26.532  -3.237  1.00  0.00     0.203 HD
ENDROOT
BRANCH   1  10
HETATM   10  N3  UNL     1      37.875 -24.594  -4.788  1.00  0.00    -0.129 N 
ATOM     11  H3  UNL     1      37.296 -24.076  -4.128  1.00  0.00     0.205 HD
BRANCH  10  12
HETATM   12  N2  UNL     1      39.024 -23.985  -5.343  1.00  0.00    -0.262 N 
ATOM     13  H2  UNL     1      39.127 -23.903  -6.355  1.00  0.00     0.190 HD
BRANCH  12  14
HETATM   14  C2  UNL     1      40.031 -23.488  -4.477  1.00  0.00     0.186 C 
HETATM   15  S1  UNL     1      41.088 -24.535  -3.812  1.00  0.00    -0.040 SA
BRANCH  14  16
HETATM   16  N1  UNL     1      40.131 -22.109  -4.180  1.00  0.00    -0.370 N 
HETATM   17  C1  UNL     1      39.070 -21.470  -3.441  1.00  0.00     0.148 C 
ATOM     18  H1  UNL     1      40.943 -21.574  -4.486  1.00  0.00     0.161 HD
ENDBRANCH  14  16
ENDBRANCH  12  14
ENDBRANCH  10  12
ENDBRANCH   1  10
BRANCH   7  19
HETATM   19  N6  UNL     1      37.313 -28.970  -3.575  1.00  0.00    -0.225 N 
ATOM     20  H6  UNL     1      38.104 -29.056  -2.937  1.00  0.00     0.177 HD
BRANCH  19  21
HETATM   21  C6  UNL     1      36.205 -29.871  -3.514  1.00  0.00     0.146 C 
BRANCH  21  22
HETATM   22  C7  UNL     1      35.379 -29.737  -2.273  1.00  0.00    -0.035 C 
HETATM   23  C8  UNL     1      34.769 -28.390  -2.082  1.00  0.00     0.016 C 
HETATM   24  C9  UNL     1      36.189 -30.105  -1.039  1.00  0.00     0.016 C 
HETATM   25  C10 UNL     1      34.247 -30.757  -2.373  1.00  0.00     0.016 C 
ENDBRANCH  21  22
ENDBRANCH  19  21
ENDBRANCH   7  19
TORSDOF 7
ENDMDL
MODEL 5
REMARK VINA RESULT: -5.582931624      1.864      3.806
REMARK  7 active torsions:
REMARK  status: ('A' for Active; 'I' for Inactive)
REMARK    1  A    between atoms: N1_2  and  C2_4 
REMARK    2  A    between atoms: C2_4  and  N2_6 
REMARK    3  A    between atoms: N2_6  and  N3_8 
REMARK    4  A    between atoms: N3_8  and  C3_10 
REMARK    5  A    between atoms: C5_16  and  N6_17 
REMARK    6  A    between atoms: N6_17  and  C6_19 
REMARK    7  A    between atoms: C6_19  and  C7_20 
ROOT
HETATM    1  C3  UNL     1      37.490 -25.828  -5.134  1.00  0.00     0.712 A 
HETATM    2  N4  UNL     1      37.152 -26.114  -6.401  1.00  0.00    -0.185 N 
ATOM      3  H4  UNL     1      37.109 -25.368  -7.095  1.00  0.00     0.185 HD
HETATM    4  C4  UNL     1      36.874 -27.369  -6.757  1.00  0.00     0.215 A 
HETATM    5  N5  UNL     1      36.936 -28.336  -5.824  1.00  0.00    -0.187 N 
ATOM      6  H5  UNL     1      36.722 -29.295  -6.098  1.00  0.00     0.185 HD
HETATM    7  C5  UNL     1      37.271 -28.090  -4.543  1.00  0.00     0.693 A 
HETATM    8  N7  UNL     1      37.544 -26.811  -4.228  1.00  0.00    -0.021 N 
ATOM      9  H7  UNL     1      37.801 -26.583  -3.268  1.00  0.00     0.203 HD
ENDROOT
BRANCH   1  10
HETATM   10  N3  UNL     1      37.754 -24.631  -4.799  1.00  0.00    -0.129 N 
ATOM     11  H3  UNL     1      37.129 -24.133  -4.167  1.00  0.00     0.205 HD
BRANCH  10  12
HETATM   12  N2  UNL     1      38.910 -23.985  -5.297  1.00  0.00    -0.262 N 
ATOM     13  H2  UNL     1      39.212 -24.137  -6.259  1.00  0.00     0.190 HD
BRANCH  12  14
HETATM   14  C2  UNL     1      39.643 -23.123  -4.441  1.00  0.00     0.186 C 
HETATM   15  S1  UNL     1      38.895 -21.828  -3.795  1.00  0.00    -0.040 SA
BRANCH  14  16
HETATM   16  N1  UNL     1      41.003 -23.366  -4.143  1.00  0.00    -0.370 N 
HETATM   17  C1  UNL     1      41.408 -24.689  -3.734  1.00  0.00     0.148 C 
ATOM     18  H1  UNL     1      41.690 -22.615  -4.217  1.00  0.00     0.161 HD
ENDBRANCH  14  16
ENDBRANCH  12  14
ENDBRANCH  10  12
ENDBRANCH   1  10
BRANCH   7  19
HETATM   19  N6  UNL     1      37.330 -29.037  -3.641  1.00  0.00    -0.225 N 
ATOM     20  H6  UNL     1      38.150 -29.154  -3.045  1.00  0.00     0.177 HD
BRANCH  19  21
HETATM   21  C6  UNL     1      36.196 -29.900  -3.526  1.00  0.00     0.146 C 
BRANCH  21  22
HETATM   22  C7  UNL     1      35.432 -29.734  -2.251  1.00  0.00    -0.035 C 
HETATM   23  C8  UNL     1      34.833 -28.382  -2.063  1.00  0.00     0.016 C 
HETATM   24  C9  UNL     1      36.299 -30.075  -1.048  1.00  0.00     0.016 C 
HETATM   25  C10 UNL     1      34.295 -30.754  -2.272  1.00  0.00     0.016 C 
ENDBRANCH  21  22
ENDBRANCH  19  21
ENDBRANCH   7  19
TORSDOF 7
ENDMDL
