MODEL 1
REMARK VINA RESULT: -7.295022794      0.000      0.000
REMARK  4 active torsions:
REMARK  status: ('A' for Active; 'I' for Inactive)
REMARK    1  A    between atoms: C3_5  and  N2_6 
REMARK    2  A    between atoms: N2_6  and  C4_8 
REMARK    3  A    between atoms: C12_23  and  C13_24 
REMARK    4  A    between atoms: C13_24  and  O2_25 
ROOT
HETATM    1  C1  UNL     1      59.371  26.593   6.799  1.00  0.00     0.044 C 
HETATM    2  C2  UNL     1      60.191  27.228   7.580  1.00  0.00     0.057 A 
HETATM    3  N1  UNL     1      59.693  27.911   8.649  1.00  0.00    -0.191 N 
ATOM      4  H1  UNL     1      58.684  27.896   8.796  1.00  0.00     0.184 HD
HETATM    5  C3  UNL     1      60.438  28.598   9.514  1.00  0.00     0.700 A 
HETATM    6  N5  UNL     1      61.765  28.636   9.349  1.00  0.00    -0.155 N 
ATOM      7  H5  UNL     1      62.357  29.155   9.998  1.00  0.00     0.187 HD
HETATM    8  C11 UNL     1      62.297  27.982   8.316  1.00  0.00     0.274 A 
HETATM    9  O1  UNL     1      63.551  28.021   8.162  1.00  0.00    -0.267 OA
HETATM   10  C12 UNL     1      61.554  27.247   7.378  1.00  0.00     0.081 A 
ENDROOT
BRANCH   5  11
HETATM   11  N2  UNL     1      59.865  29.218  10.506  1.00  0.00    -0.022 N 
ATOM     12  H2  UNL     1      59.602  30.201  10.434  1.00  0.00     0.203 HD
BRANCH  11  13
HETATM   13  C4  UNL     1      59.620  28.475  11.688  1.00  0.00     0.697 A 
HETATM   14  N3  UNL     1      59.743  27.150  11.834  1.00  0.00    -0.189 N 
HETATM   15  C5  UNL     1      59.416  26.854  13.106  1.00  0.00     0.076 A 
ATOM     16  H3  UNL     1      60.030  26.486  11.115  1.00  0.00     0.184 HD
HETATM   17  C6  UNL     1      59.369  25.648  13.798  1.00  0.00     0.032 A 
HETATM   18  C10 UNL     1      59.078  28.037  13.771  1.00  0.00     0.076 A 
HETATM   19  C7  UNL     1      58.987  25.666  15.123  1.00  0.00     0.002 A 
HETATM   20  C8  UNL     1      58.655  26.831  15.780  1.00  0.00     0.002 A 
HETATM   21  C9  UNL     1      58.698  28.038  15.100  1.00  0.00     0.032 A 
HETATM   22  N4  UNL     1      59.221  29.008  12.853  1.00  0.00    -0.189 N 
ATOM     23  H4  UNL     1      59.051  30.000  13.017  1.00  0.00     0.184 HD
ENDBRANCH  11  13
ENDBRANCH   5  11
BRANCH  10  24
HETATM   24  C13 UNL     1      62.196  26.645   6.403  1.00  0.00     0.153 C 
BRANCH  24  25
HETATM   25  O2  UNL     1      62.696  25.377   6.447  1.00  0.00    -0.367 OA
HETATM   26  C14 UNL     1      62.122  24.377   5.623  1.00  0.00     0.208 C 
ENDBRANCH  24  25
ENDBRANCH  10  24
TORSDOF 4
ENDMDL
MODEL 2
REMARK VINA RESULT: -7.217135700      0.105      1.257
REMARK  4 active torsions:
REMARK  status: ('A' for Active; 'I' for Inactive)
REMARK    1  A    between atoms: C3_5  and  N2_6 
REMARK    2  A    between atoms: N2_6  and  C4_8 
REMARK    3  A    between atoms: C12_23  and  C13_24 
REMARK    4  A    between atoms: C13_24  and  O2_25 
ROOT
HETATM    1  C1  UNL     1      59.424  26.654   6.833  1.00  0.00     0.044 C 
HETATM    2  C2  UNL     1      60.229  27.289   7.629  1.00  0.00     0.057 A 
HETATM    3  N1  UNL     1      59.711  27.967   8.692  1.00  0.00    -0.191 N 
ATOM      4  H1  UNL     1      58.700  27.948   8.823  1.00  0.00     0.184 HD
HETATM    5  C3  UNL     1      60.440  28.653   9.572  1.00  0.00     0.700 A 
HETATM    6  N5  UNL     1      61.770  28.697   9.428  1.00  0.00    -0.155 N 
ATOM      7  H5  UNL     1      62.349  29.215  10.089  1.00  0.00     0.187 HD
HETATM    8  C11 UNL     1      62.320  28.048   8.402  1.00  0.00     0.274 A 
HETATM    9  O1  UNL     1      63.577  28.092   8.268  1.00  0.00    -0.267 OA
HETATM   10  C12 UNL     1      61.595  27.314   7.450  1.00  0.00     0.081 A 
ENDROOT
BRANCH   5  11
HETATM   11  N2  UNL     1      59.849  29.268  10.556  1.00  0.00    -0.022 N 
ATOM     12  H2  UNL     1      59.575  30.247  10.481  1.00  0.00     0.203 HD
BRANCH  11  13
HETATM   13  C4  UNL     1      59.600  28.523  11.738  1.00  0.00     0.697 A 
HETATM   14  N3  UNL     1      59.223  29.017  12.924  1.00  0.00    -0.189 N 
HETATM   15  C5  UNL     1      59.098  27.978  13.769  1.00  0.00     0.076 A 
ATOM     16  H3  UNL     1      59.061  30.000  13.146  1.00  0.00     0.184 HD
HETATM   17  C6  UNL     1      58.736  27.909  15.112  1.00  0.00     0.032 A 
HETATM   18  C10 UNL     1      59.409  26.799  13.084  1.00  0.00     0.076 A 
HETATM   19  C7  UNL     1      58.698  26.671  15.718  1.00  0.00     0.002 A 
HETATM   20  C8  UNL     1      59.003  25.509  15.043  1.00  0.00     0.002 A 
HETATM   21  C9  UNL     1      59.366  25.565  13.707  1.00  0.00     0.032 A 
HETATM   22  N4  UNL     1      59.712  27.190  11.835  1.00  0.00    -0.189 N 
ATOM     23  H4  UNL     1      59.985  26.568  11.075  1.00  0.00     0.184 HD
ENDBRANCH  11  13
ENDBRANCH   5  11
BRANCH  10  24
HETATM   24  C13 UNL     1      62.255  26.718   6.483  1.00  0.00     0.153 C 
BRANCH  24  25
HETATM   25  O2  UNL     1      62.725  25.438   6.516  1.00  0.00    -0.367 OA
HETATM   26  C14 UNL     1      62.154  24.468   5.655  1.00  0.00     0.208 C 
ENDBRANCH  24  25
ENDBRANCH  10  24
TORSDOF 4
ENDMDL
MODEL 3
REMARK VINA RESULT: -7.188570439      0.795      1.754
REMARK  4 active torsions:
REMARK  status: ('A' for Active; 'I' for Inactive)
REMARK    1  A    between atoms: C3_5  and  N2_6 
REMARK    2  A    between atoms: N2_6  and  C4_8 
REMARK    3  A    between atoms: C12_23  and  C13_24 
REMARK    4  A    between atoms: C13_24  and  O2_25 
ROOT
HETATM    1  C1  UNL     1      63.688  28.262   8.241  1.00  0.00     0.044 C 
HETATM    2  C2  UNL     1      62.404  28.100   8.330  1.00  0.00     0.057 A 
HETATM    3  N1  UNL     1      61.727  28.710   9.344  1.00  0.00    -0.191 N 
ATOM      4  H1  UNL     1      62.263  29.277  10.001  1.00  0.00     0.184 HD
HETATM    5  C3  UNL     1      60.411  28.614   9.533  1.00  0.00     0.700 A 
HETATM    6  N5  UNL     1      59.680  27.878   8.689  1.00  0.00    -0.155 N 
ATOM      7  H5  UNL     1      58.672  27.790   8.813  1.00  0.00     0.187 HD
HETATM    8  C11 UNL     1      60.299  27.263   7.681  1.00  0.00     0.274 A 
HETATM    9  O1  UNL     1      59.606  26.568   6.885  1.00  0.00    -0.267 OA
HETATM   10  C12 UNL     1      61.682  27.333   7.441  1.00  0.00     0.081 A 
ENDROOT
BRANCH   5  11
HETATM   11  N2  UNL     1      59.859  29.237  10.535  1.00  0.00    -0.022 N 
ATOM     12  H2  UNL     1      59.613  30.225  10.474  1.00  0.00     0.203 HD
BRANCH  11  13
HETATM   13  C4  UNL     1      59.613  28.490  11.715  1.00  0.00     0.697 A 
HETATM   14  N3  UNL     1      59.753  27.166  11.861  1.00  0.00    -0.189 N 
HETATM   15  C5  UNL     1      59.418  26.865  13.129  1.00  0.00     0.076 A 
ATOM     16  H3  UNL     1      60.056  26.507  11.143  1.00  0.00     0.184 HD
HETATM   17  C6  UNL     1      59.381  25.657  13.819  1.00  0.00     0.032 A 
HETATM   18  C10 UNL     1      59.058  28.042  13.792  1.00  0.00     0.076 A 
HETATM   19  C7  UNL     1      58.987  25.668  15.140  1.00  0.00     0.002 A 
HETATM   20  C8  UNL     1      58.633  26.828  15.795  1.00  0.00     0.002 A 
HETATM   21  C9  UNL     1      58.666  28.037  15.118  1.00  0.00     0.032 A 
HETATM   22  N4  UNL     1      59.196  29.016  12.876  1.00  0.00    -0.189 N 
ATOM     23  H4  UNL     1      59.011  30.005  13.039  1.00  0.00     0.184 HD
ENDBRANCH  11  13
ENDBRANCH   5  11
BRANCH  10  24
HETATM   24  C13 UNL     1      62.173  26.680   6.413  1.00  0.00     0.153 C 
BRANCH  24  25
HETATM   25  O2  UNL     1      62.688  25.417   6.449  1.00  0.00    -0.367 OA
HETATM   26  C14 UNL     1      62.108  24.411   5.638  1.00  0.00     0.208 C 
ENDBRANCH  24  25
ENDBRANCH  10  24
TORSDOF 4
ENDMDL
MODEL 4
REMARK VINA RESULT: -7.121733893      0.803      2.156
REMARK  4 active torsions:
REMARK  status: ('A' for Active; 'I' for Inactive)
REMARK    1  A    between atoms: C3_5  and  N2_6 
REMARK    2  A    between atoms: N2_6  and  C4_8 
REMARK    3  A    between atoms: C12_23  and  C13_24 
REMARK    4  A    between atoms: C13_24  and  O2_25 
ROOT
HETATM    1  C1  UNL     1      63.685  28.314   8.226  1.00  0.00     0.044 C 
HETATM    2  C2  UNL     1      62.404  28.140   8.339  1.00  0.00     0.057 A 
HETATM    3  N1  UNL     1      61.738  28.759   9.354  1.00  0.00    -0.191 N 
ATOM      4  H1  UNL     1      62.278  29.341   9.993  1.00  0.00     0.184 HD
HETATM    5  C3  UNL     1      60.426  28.652   9.566  1.00  0.00     0.700 A 
HETATM    6  N5  UNL     1      59.689  27.895   8.745  1.00  0.00    -0.155 N 
ATOM      7  H5  UNL     1      58.684  27.798   8.887  1.00  0.00     0.187 HD
HETATM    8  C11 UNL     1      60.298  27.271   7.737  1.00  0.00     0.274 A 
HETATM    9  O1  UNL     1      59.600  26.556   6.963  1.00  0.00    -0.267 OA
HETATM   10  C12 UNL     1      61.676  27.352   7.473  1.00  0.00     0.081 A 
ENDROOT
BRANCH   5  11
HETATM   11  N2  UNL     1      59.883  29.285  10.567  1.00  0.00    -0.022 N 
ATOM     12  H2  UNL     1      59.654  30.276  10.505  1.00  0.00     0.203 HD
BRANCH  11  13
HETATM   13  C4  UNL     1      59.624  28.542  11.747  1.00  0.00     0.697 A 
HETATM   14  N3  UNL     1      59.214  29.034  12.923  1.00  0.00    -0.189 N 
HETATM   15  C5  UNL     1      59.090  27.997  13.771  1.00  0.00     0.076 A 
ATOM     16  H3  UNL     1      59.028  30.015  13.136  1.00  0.00     0.184 HD
HETATM   17  C6  UNL     1      58.702  27.928  15.106  1.00  0.00     0.032 A 
HETATM   18  C10 UNL     1      59.438  26.821  13.099  1.00  0.00     0.076 A 
HETATM   19  C7  UNL     1      58.674  26.694  15.718  1.00  0.00     0.002 A 
HETATM   20  C8  UNL     1      59.015  25.533  15.056  1.00  0.00     0.002 A 
HETATM   21  C9  UNL     1      59.404  25.590  13.728  1.00  0.00     0.032 A 
HETATM   22  N4  UNL     1      59.759  27.212  11.854  1.00  0.00    -0.189 N 
ATOM     23  H4  UNL     1      60.059  26.590  11.104  1.00  0.00     0.184 HD
ENDBRANCH  11  13
ENDBRANCH   5  11
BRANCH  10  24
HETATM   24  C13 UNL     1      62.158  26.688   6.447  1.00  0.00     0.153 C 
BRANCH  24  25
HETATM   25  O2  UNL     1      62.669  25.424   6.490  1.00  0.00    -0.367 OA
HETATM   26  C14 UNL     1      62.112  24.424   5.655  1.00  0.00     0.208 C 
ENDBRANCH  24  25
ENDBRANCH  10  24
TORSDOF 4
ENDMDL
MODEL 5
REMARK VINA RESULT: -6.956386361      1.142      2.006
REMARK  4 active torsions:
REMARK  status: ('A' for Active; 'I' for Inactive)
REMARK    1  A    between atoms: C3_5  and  N2_6 
REMARK    2  A    between atoms: N2_6  and  C4_8 
REMARK    3  A    between atoms: C12_23  and  C13_24 
REMARK    4  A    between atoms: C13_24  and  O2_25 
ROOT
HETATM    1  C1  UNL     1      64.022  28.917   9.071  1.00  0.00     0.044 C 
HETATM    2  C2  UNL     1      62.811  28.507   8.849  1.00  0.00     0.057 A 
HETATM    3  N1  UNL     1      61.804  28.946   9.656  1.00  0.00    -0.191 N 
ATOM      4  H1  UNL     1      62.044  29.587  10.412  1.00  0.00     0.184 HD
HETATM    5  C3  UNL     1      60.526  28.592   9.522  1.00  0.00     0.700 A 
HETATM    6  N5  UNL     1      60.179  27.752   8.540  1.00  0.00    -0.155 N 
ATOM      7  H5  UNL     1      59.208  27.467   8.417  1.00  0.00     0.187 HD
HETATM    8  C11 UNL     1      61.130  27.297   7.725  1.00  0.00     0.274 A 
HETATM    9  O1  UNL     1      60.799  26.504   6.798  1.00  0.00    -0.267 OA
HETATM   10  C12 UNL     1      62.489  27.640   7.826  1.00  0.00     0.081 A 
ENDROOT
BRANCH   5  11
HETATM   11  N2  UNL     1      59.637  29.067  10.348  1.00  0.00    -0.022 N 
ATOM     12  H2  UNL     1      59.081  29.889  10.111  1.00  0.00     0.203 HD
BRANCH  11  13
HETATM   13  C4  UNL     1      59.473  28.399  11.587  1.00  0.00     0.697 A 
HETATM   14  N3  UNL     1      59.596  27.083  11.804  1.00  0.00    -0.189 N 
HETATM   15  C5  UNL     1      59.360  26.868  13.111  1.00  0.00     0.076 A 
ATOM     16  H3  UNL     1      59.827  26.375  11.107  1.00  0.00     0.184 HD
HETATM   17  C6  UNL     1      59.354  25.705  13.876  1.00  0.00     0.032 A 
HETATM   18  C10 UNL     1      59.079  28.092  13.726  1.00  0.00     0.076 A 
HETATM   19  C7  UNL     1      59.069  25.807  15.221  1.00  0.00     0.002 A 
HETATM   20  C8  UNL     1      58.793  27.013  15.829  1.00  0.00     0.002 A 
HETATM   21  C9  UNL     1      58.795  28.177  15.077  1.00  0.00     0.032 A 
HETATM   22  N4  UNL     1      59.162  29.004  12.743  1.00  0.00    -0.189 N 
ATOM     23  H4  UNL     1      59.011  30.006  12.858  1.00  0.00     0.184 HD
ENDBRANCH  11  13
ENDBRANCH   5  11
BRANCH  10  24
HETATM   24  C13 UNL     1      63.332  27.125   6.961  1.00  0.00     0.153 C 
BRANCH  24  25
HETATM   25  O2  UNL     1      63.774  25.834   6.958  1.00  0.00    -0.367 OA
HETATM   26  C14 UNL     1      64.559  25.370   8.042  1.00  0.00     0.208 C 
ENDBRANCH  24  25
ENDBRANCH  10  24
TORSDOF 4
ENDMDL
