MODEL 1
REMARK VINA RESULT: -7.529605303      0.000      0.000
REMARK  3 active torsions:
REMARK  status: ('A' for Active; 'I' for Inactive)
REMARK    1  A    between atoms: C5_10  and  N2_11 
REMARK       I    between atoms: N2_11  and  C6_13 
REMARK    2  A    between atoms: C6_13  and  C7_15 
REMARK    3  A    between atoms: C12_21  and  N3_22 
ROOT
HETATM    1  C1  UNL     1      40.622  27.360  13.743  1.00  0.00     0.145 C 
HETATM    2  N1  UNL     1      40.835  28.728  14.099  1.00  0.00    -0.398 N 
ATOM      3  H1  UNL     1      40.143  29.188  14.691  1.00  0.00     0.158 HD
HETATM    4  C2  UNL     1      41.865  29.414  13.705  1.00  0.00     0.027 C 
HETATM    5  C3  UNL     1      42.835  28.693  12.848  1.00  0.00     0.194 C 
HETATM    6  S1  UNL     1      43.657  29.844  11.746  1.00  0.00     0.151 S 
HETATM    7  O1  UNL     1      45.011  30.217  12.291  1.00  0.00    -0.227 OA
HETATM    8  O2  UNL     1      43.712  29.347  10.355  1.00  0.00    -0.227 OA
HETATM    9  C4  UNL     1      42.616  31.311  11.773  1.00  0.00     0.168 C 
HETATM   10  C5  UNL     1      42.639  31.761  13.242  1.00  0.00     0.133 C 
HETATM   11  C12 UNL     1      41.957  30.803  14.150  1.00  0.00     0.225 C 
ENDROOT
BRANCH  10  12
HETATM   12  N2  UNL     1      42.037  33.079  13.240  1.00  0.00    -0.353 N 
HETATM   13  C6  UNL     1      42.668  34.243  13.711  1.00  0.00     0.222 C 
HETATM   14  O3  UNL     1      43.826  34.186  14.171  1.00  0.00    -0.273 OA
ATOM     15  H2  UNL     1      41.090  33.168  12.873  1.00  0.00     0.163 HD
BRANCH  13  16
HETATM   16  C7  UNL     1      41.965  35.537  13.665  1.00  0.00     0.079 C 
HETATM   17  C8  UNL     1      41.280  35.796  14.999  1.00  0.00     0.015 C 
HETATM   18  C9  UNL     1      39.903  35.202  14.881  1.00  0.00     0.021 C 
HETATM   19  C10 UNL     1      39.552  35.431  13.436  1.00  0.00     0.083 C 
HETATM   20 CL1  UNL     1      38.548  36.897  13.327  1.00  0.00    -0.125 Cl
HETATM   21  C11 UNL     1      40.838  35.563  12.681  1.00  0.00     0.034 C 
ENDBRANCH  13  16
ENDBRANCH  10  12
BRANCH  11  22
HETATM   22  N3  UNL     1      42.516  30.902  15.507  1.00  0.00    -0.143 N 
HETATM   23  O4  UNL     1      42.571  31.968  16.141  1.00  0.00    -0.536 OA
HETATM   24  O5  UNL     1      43.016  29.777  16.141  1.00  0.00    -0.536 OA
ENDBRANCH  11  22
TORSDOF 3
ENDMDL
MODEL 2
REMARK VINA RESULT: -7.274832935      3.544      6.296
REMARK  3 active torsions:
REMARK  status: ('A' for Active; 'I' for Inactive)
REMARK    1  A    between atoms: C5_10  and  N2_11 
REMARK       I    between atoms: N2_11  and  C6_13 
REMARK    2  A    between atoms: C6_13  and  C7_15 
REMARK    3  A    between atoms: C12_21  and  N3_22 
ROOT
HETATM    1  C1  UNL     1      45.040  37.103  16.450  1.00  0.00     0.145 C 
HETATM    2  N1  UNL     1      44.938  35.709  16.151  1.00  0.00    -0.398 N 
ATOM      3  H1  UNL     1      45.796  35.187  15.973  1.00  0.00     0.158 HD
HETATM    4  C2  UNL     1      43.807  35.074  16.094  1.00  0.00     0.027 C 
HETATM    5  C3  UNL     1      42.595  35.884  16.361  1.00  0.00     0.194 C 
HETATM    6  S1  UNL     1      41.191  35.203  15.478  1.00  0.00     0.151 S 
HETATM    7  O1  UNL     1      40.352  34.355  16.396  1.00  0.00    -0.227 OA
HETATM    8  O2  UNL     1      40.409  36.244  14.778  1.00  0.00    -0.227 OA
HETATM    9  C4  UNL     1      41.925  34.128  14.234  1.00  0.00     0.168 C 
HETATM   10  C5  UNL     1      42.691  33.077  15.051  1.00  0.00     0.133 C 
HETATM   11  C12 UNL     1      43.851  33.647  15.782  1.00  0.00     0.225 C 
ENDROOT
BRANCH  10  12
HETATM   12  N2  UNL     1      43.061  32.054  14.095  1.00  0.00    -0.353 N 
HETATM   13  C6  UNL     1      42.370  30.844  13.915  1.00  0.00     0.222 C 
HETATM   14  O3  UNL     1      41.363  30.589  14.605  1.00  0.00    -0.273 OA
ATOM     15  H2  UNL     1      43.880  32.223  13.511  1.00  0.00     0.163 HD
BRANCH  13  16
HETATM   16  C7  UNL     1      42.832  29.869  12.912  1.00  0.00     0.079 C 
HETATM   17  C8  UNL     1      43.307  30.602  11.665  1.00  0.00     0.015 C 
HETATM   18  C9  UNL     1      42.101  30.734  10.777  1.00  0.00     0.021 C 
HETATM   19  C10 UNL     1      41.335  29.467  11.046  1.00  0.00     0.083 C 
HETATM   20 CL1  UNL     1      41.719  28.296   9.762  1.00  0.00    -0.125 Cl
HETATM   21  C11 UNL     1      41.742  28.981  12.403  1.00  0.00     0.034 C 
ENDBRANCH  13  16
ENDBRANCH  10  12
BRANCH  11  22
HETATM   22  N3  UNL     1      44.147  32.840  16.977  1.00  0.00    -0.143 N 
HETATM   23  O4  UNL     1      44.279  33.331  18.110  1.00  0.00    -0.536 OA
HETATM   24  O5  UNL     1      44.294  31.467  16.874  1.00  0.00    -0.536 OA
ENDBRANCH  11  22
TORSDOF 3
ENDMDL
MODEL 3
REMARK VINA RESULT: -7.178667948      0.980      1.231
REMARK  3 active torsions:
REMARK  status: ('A' for Active; 'I' for Inactive)
REMARK    1  A    between atoms: C5_10  and  N2_11 
REMARK       I    between atoms: N2_11  and  C6_13 
REMARK    2  A    between atoms: C6_13  and  C7_15 
REMARK    3  A    between atoms: C12_21  and  N3_22 
ROOT
HETATM    1  C1  UNL     1      40.928  27.162  12.845  1.00  0.00     0.145 C 
HETATM    2  N1  UNL     1      40.918  28.512  13.316  1.00  0.00    -0.398 N 
ATOM      3  H1  UNL     1      40.018  28.974  13.445  1.00  0.00     0.158 HD
HETATM    4  C2  UNL     1      41.999  29.178  13.589  1.00  0.00     0.027 C 
HETATM    5  C3  UNL     1      43.276  28.455  13.383  1.00  0.00     0.194 C 
HETATM    6  S1  UNL     1      44.581  29.613  12.972  1.00  0.00     0.151 S 
HETATM    7  O1  UNL     1      45.408  29.929  14.190  1.00  0.00    -0.227 OA
HETATM    8  O2  UNL     1      45.394  29.158  11.824  1.00  0.00    -0.227 OA
HETATM    9  C4  UNL     1      43.711  31.110  12.479  1.00  0.00     0.168 C 
HETATM   10  C5  UNL     1      42.919  31.513  13.732  1.00  0.00     0.133 C 
HETATM   11  C12 UNL     1      41.840  30.550  14.068  1.00  0.00     0.225 C 
ENDROOT
BRANCH  10  12
HETATM   12  N2  UNL     1      42.430  32.849  13.454  1.00  0.00    -0.353 N 
HETATM   13  C6  UNL     1      42.809  34.000  14.164  1.00  0.00     0.222 C 
HETATM   14  O3  UNL     1      43.620  33.915  15.107  1.00  0.00    -0.273 OA
ATOM     15  H2  UNL     1      41.764  32.961  12.689  1.00  0.00     0.163 HD
BRANCH  13  16
HETATM   16  C7  UNL     1      42.250  35.313  13.798  1.00  0.00     0.079 C 
HETATM   17  C8  UNL     1      41.460  35.878  14.970  1.00  0.00     0.015 C 
HETATM   18  C9  UNL     1      40.050  35.385  14.795  1.00  0.00     0.021 C 
HETATM   19  C10 UNL     1      39.876  35.360  13.300  1.00  0.00     0.083 C 
HETATM   20 CL1  UNL     1      39.044  36.854  12.807  1.00  0.00    -0.125 Cl
HETATM   21  C11 UNL     1      41.241  35.241  12.696  1.00  0.00     0.034 C 
ENDBRANCH  13  16
ENDBRANCH  10  12
BRANCH  11  22
HETATM   22  N3  UNL     1      41.553  30.589  15.511  1.00  0.00    -0.143 N 
HETATM   23  O4  UNL     1      41.768  29.631  16.271  1.00  0.00    -0.536 OA
HETATM   24  O5  UNL     1      41.018  31.729  16.086  1.00  0.00    -0.536 OA
ENDBRANCH  11  22
TORSDOF 3
ENDMDL
MODEL 4
REMARK VINA RESULT: -7.081124857      3.860      5.222
REMARK  3 active torsions:
REMARK  status: ('A' for Active; 'I' for Inactive)
REMARK    1  A    between atoms: C5_10  and  N2_11 
REMARK       I    between atoms: N2_11  and  C6_13 
REMARK    2  A    between atoms: C6_13  and  C7_15 
REMARK    3  A    between atoms: C12_21  and  N3_22 
ROOT
HETATM    1  C1  UNL     1      42.328  30.181  11.091  1.00  0.00     0.145 C 
HETATM    2  N1  UNL     1      42.713  31.450  11.626  1.00  0.00    -0.398 N 
ATOM      3  H1  UNL     1      43.211  32.101  11.019  1.00  0.00     0.158 HD
HETATM    4  C2  UNL     1      42.460  31.813  12.846  1.00  0.00     0.027 C 
HETATM    5  C3  UNL     1      41.735  30.827  13.680  1.00  0.00     0.194 C 
HETATM    6  S1  UNL     1      42.175  31.035  15.405  1.00  0.00     0.151 S 
HETATM    7  O1  UNL     1      41.121  31.834  16.125  1.00  0.00    -0.227 OA
HETATM    8  O2  UNL     1      42.476  29.748  16.067  1.00  0.00    -0.227 OA
HETATM    9  C4  UNL     1      43.689  32.008  15.366  1.00  0.00     0.168 C 
HETATM   10  C5  UNL     1      43.273  33.321  14.686  1.00  0.00     0.133 C 
HETATM   11  C12 UNL     1      42.908  33.142  13.258  1.00  0.00     0.225 C 
ENDROOT
BRANCH  10  12
HETATM   12  N2  UNL     1      44.394  34.218  14.885  1.00  0.00    -0.353 N 
HETATM   13  C6  UNL     1      44.349  35.388  15.662  1.00  0.00     0.222 C 
HETATM   14  O3  UNL     1      43.295  35.718  16.238  1.00  0.00    -0.273 OA
ATOM     15  H2  UNL     1      45.276  33.984  14.429  1.00  0.00     0.163 HD
BRANCH  13  16
HETATM   16  C7  UNL     1      45.550  36.232  15.797  1.00  0.00     0.079 C 
HETATM   17  C8  UNL     1      46.787  35.351  15.896  1.00  0.00     0.015 C 
HETATM   18  C9  UNL     1      46.985  35.077  17.361  1.00  0.00     0.021 C 
HETATM   19  C10 UNL     1      46.524  36.350  18.016  1.00  0.00     0.083 C 
HETATM   20 CL1  UNL     1      47.954  37.351  18.367  1.00  0.00    -0.125 Cl
HETATM   21  C11 UNL     1      45.578  37.020  17.068  1.00  0.00     0.034 C 
ENDBRANCH  13  16
ENDBRANCH  10  12
BRANCH  11  22
HETATM   22  N3  UNL     1      41.960  34.187  12.839  1.00  0.00    -0.143 N 
HETATM   23  O4  UNL     1      40.823  33.937  12.409  1.00  0.00    -0.536 OA
HETATM   24  O5  UNL     1      42.316  35.523  12.913  1.00  0.00    -0.536 OA
ENDBRANCH  11  22
TORSDOF 3
ENDMDL
MODEL 5
REMARK VINA RESULT: -7.032802756      4.828      6.861
REMARK  3 active torsions:
REMARK  status: ('A' for Active; 'I' for Inactive)
REMARK    1  A    between atoms: C5_10  and  N2_11 
REMARK       I    between atoms: N2_11  and  C6_13 
REMARK    2  A    between atoms: C6_13  and  C7_15 
REMARK    3  A    between atoms: C12_21  and  N3_22 
ROOT
HETATM    1  C1  UNL     1      48.776  37.049  18.652  1.00  0.00     0.145 C 
HETATM    2  N1  UNL     1      47.673  36.722  17.802  1.00  0.00    -0.398 N 
ATOM      3  H1  UNL     1      47.328  37.435  17.159  1.00  0.00     0.158 HD
HETATM    4  C2  UNL     1      47.090  35.563  17.809  1.00  0.00     0.027 C 
HETATM    5  C3  UNL     1      47.634  34.568  18.762  1.00  0.00     0.194 C 
HETATM    6  S1  UNL     1      46.342  33.436  19.277  1.00  0.00     0.151 S 
HETATM    7  O1  UNL     1      46.426  32.152  18.495  1.00  0.00    -0.227 OA
HETATM    8  O2  UNL     1      46.334  33.222  20.740  1.00  0.00    -0.227 OA
HETATM    9  C4  UNL     1      44.812  34.270  18.828  1.00  0.00     0.168 C 
HETATM   10  C5  UNL     1      44.904  34.427  17.302  1.00  0.00     0.133 C 
HETATM   11  C12 UNL     1      45.977  35.365  16.882  1.00  0.00     0.225 C 
ENDROOT
BRANCH  10  12
HETATM   12  N2  UNL     1      43.581  34.845  16.887  1.00  0.00    -0.353 N 
HETATM   13  C6  UNL     1      42.574  33.973  16.440  1.00  0.00     0.222 C 
HETATM   14  O3  UNL     1      42.788  32.746  16.381  1.00  0.00    -0.273 OA
ATOM     15  H2  UNL     1      43.365  35.841  16.920  1.00  0.00     0.163 HD
BRANCH  13  16
HETATM   16  C7  UNL     1      41.259  34.504  16.040  1.00  0.00     0.079 C 
HETATM   17  C8  UNL     1      40.657  33.620  14.956  1.00  0.00     0.015 C 
HETATM   18  C9  UNL     1      41.130  34.189  13.647  1.00  0.00     0.021 C 
HETATM   19  C10 UNL     1      41.182  35.669  13.913  1.00  0.00     0.083 C 
HETATM   20 CL1  UNL     1      39.685  36.404  13.292  1.00  0.00    -0.125 Cl
HETATM   21  C11 UNL     1      41.336  35.849  15.392  1.00  0.00     0.034 C 
ENDBRANCH  13  16
ENDBRANCH  10  12
BRANCH  11  22
HETATM   22  N3  UNL     1      46.450  35.024  15.531  1.00  0.00    -0.143 N 
HETATM   23  O4  UNL     1      47.654  34.947  15.235  1.00  0.00    -0.536 OA
HETATM   24  O5  UNL     1      45.544  34.774  14.515  1.00  0.00    -0.536 OA
ENDBRANCH  11  22
TORSDOF 3
ENDMDL
