MODEL 1
REMARK VINA RESULT: -6.332005921      0.000      0.000
REMARK  7 active torsions:
REMARK  status: ('A' for Active; 'I' for Inactive)
REMARK    1  A    between atoms: C4_4  and  C5_5 
REMARK    2  A    between atoms: C7_9  and  O1_10 
REMARK    3  A    between atoms: O1_10  and  C8_11 
REMARK    4  A    between atoms: C11_14  and  C12_15 
REMARK    5  A    between atoms: C12_15  and  N2_16 
REMARK    6  A    between atoms: N3_19  and  C15_20 
REMARK    7  A    between atoms: C15_20  and  C16_21 
REMARK       I    between atoms: N5_34  and  C27_36 
ROOT
HETATM    1  O1  UNL     1      -0.507  11.589   0.088  1.00  0.00    -0.294 OA
ENDROOT
BRANCH   1   2
HETATM    2  C7  UNL     1      -1.151  11.228   1.233  1.00  0.00     0.150 A 
HETATM    3  N1  UNL     1      -0.810  11.788   2.398  1.00  0.00    -0.346 N 
HETATM    4  C6  UNL     1      -1.470  11.402   3.499  1.00  0.00     0.104 A 
ATOM      5  H1  UNL     1      -0.070  12.488   2.448  1.00  0.00     0.167 HD
HETATM    6  C5  UNL     1      -2.477  10.470   3.535  1.00  0.00     0.018 A 
HETATM    7  C26 UNL     1      -2.837   9.880   2.310  1.00  0.00     0.051 A 
HETATM    8  C25 UNL     1      -2.167  10.267   1.172  1.00  0.00     0.086 A 
HETATM    9  N5  UNL     1      -3.752   9.002   2.369  1.00  0.00    -0.330 N 
HETATM   10  C27 UNL     1      -4.287   8.281   1.301  1.00  0.00     0.186 C 
ATOM     11  H5  UNL     1      -4.136   8.802   3.292  1.00  0.00     0.168 HD
HETATM   12  N6  UNL     1      -4.695   8.882   0.240  1.00  0.00    -0.373 N 
HETATM   13  N7  UNL     1      -4.373   6.847   1.451  1.00  0.00    -0.064 NA
ATOM     14  H62 UNL     1      -4.634   9.895   0.135  1.00  0.00     0.158 HD
ATOM     15  H61 UNL     1      -5.086   8.355  -0.540  1.00  0.00     0.158 HD
BRANCH   6  16
HETATM   16  C4  UNL     1      -3.164  10.093   4.764  1.00  0.00    -0.005 A 
HETATM   17  C3  UNL     1      -4.394  10.562   5.140  1.00  0.00     0.038 A 
HETATM   18  C2  UNL     1      -4.767  10.012   6.364  1.00  0.00     0.005 A 
HETATM   19  C1  UNL     1      -6.037  10.289   7.088  1.00  0.00     0.068 C 
HETATM   20  N8  UNL     1      -3.752   9.208   6.722  1.00  0.00    -0.369 N 
HETATM   21  C28 UNL     1      -2.770   9.238   5.773  1.00  0.00     0.100 A 
ATOM     22  H8  UNL     1      -3.719   8.655   7.578  1.00  0.00     0.165 HD
ENDBRANCH   6  16
ENDBRANCH   1   2
BRANCH   1  23
HETATM   23  C8  UNL     1      -1.093  12.337  -0.932  1.00  0.00     0.077 A 
HETATM   24  C9  UNL     1      -0.632  13.611  -1.178  1.00  0.00     0.038 A 
HETATM   25  C10 UNL     1      -1.205  14.381  -2.197  1.00  0.00     0.015 A 
HETATM   26  C11 UNL     1      -2.232  13.908  -2.980  1.00  0.00    -0.021 A 
HETATM   27  C23 UNL     1      -2.680  12.619  -2.709  1.00  0.00     0.015 A 
HETATM   28  C24 UNL     1      -2.117  11.857  -1.705  1.00  0.00     0.038 A 
BRANCH  26  29
HETATM   29  C12 UNL     1      -2.835  14.702  -4.060  1.00  0.00     0.102 C 
BRANCH  29  30
HETATM   30  N2  UNL     1      -2.735  14.153  -5.348  1.00  0.00    -0.360 N 
HETATM   31  C13 UNL     1      -3.827  13.524  -5.941  1.00  0.00     0.108 C 
HETATM   32  C14 UNL     1      -3.947  13.905  -7.377  1.00  0.00     0.107 C 
HETATM   33  N3  UNL     1      -2.755  13.958  -8.096  1.00  0.00    -0.363 N 
HETATM   34  C21 UNL     1      -1.517  14.145  -7.488  1.00  0.00     0.084 C 
HETATM   35  C22 UNL     1      -1.481  14.139  -5.993  1.00  0.00     0.172 C 
BRANCH  33  36
HETATM   36  C15 UNL     1      -2.828  13.590  -9.458  1.00  0.00     0.166 C 
BRANCH  36  37
HETATM   37  C16 UNL     1      -3.590  14.470 -10.337  1.00  0.00    -0.037 A 
HETATM   38  C17 UNL     1      -4.693  14.040 -11.040  1.00  0.00     0.026 A 
HETATM   39  C18 UNL     1      -5.375  14.914 -11.864  1.00  0.00     0.088 A 
HETATM   40  N4  UNL     1      -4.992  16.209 -12.014  1.00  0.00    -0.375 N 
HETATM   41  C19 UNL     1      -3.932  16.629 -11.340  1.00  0.00     0.088 A 
ATOM     42  H4  UNL     1      -5.507  16.840 -12.628  1.00  0.00     0.164 HD
HETATM   43  C20 UNL     1      -3.207  15.783 -10.492  1.00  0.00     0.026 A 
ENDBRANCH  36  37
ENDBRANCH  33  36
ENDBRANCH  29  30
ENDBRANCH  26  29
ENDBRANCH   1  23
TORSDOF 7
ENDMDL
MODEL 2
REMARK VINA RESULT: -6.259995589      7.716     15.620
REMARK  7 active torsions:
REMARK  status: ('A' for Active; 'I' for Inactive)
REMARK    1  A    between atoms: C4_4  and  C5_5 
REMARK    2  A    between atoms: C7_9  and  O1_10 
REMARK    3  A    between atoms: O1_10  and  C8_11 
REMARK    4  A    between atoms: C11_14  and  C12_15 
REMARK    5  A    between atoms: C12_15  and  N2_16 
REMARK    6  A    between atoms: N3_19  and  C15_20 
REMARK    7  A    between atoms: C15_20  and  C16_21 
REMARK       I    between atoms: N5_34  and  C27_36 
ROOT
HETATM    1  O1  UNL     1      -3.704   7.787 -11.284  1.00  0.00    -0.294 OA
ENDROOT
BRANCH   1   2
HETATM    2  C7  UNL     1      -3.997   7.394 -12.556  1.00  0.00     0.150 A 
HETATM    3  N1  UNL     1      -3.311   6.396 -13.123  1.00  0.00    -0.346 N 
HETATM    4  C6  UNL     1      -3.633   6.044 -14.376  1.00  0.00     0.104 A 
ATOM      5  H1  UNL     1      -2.566   5.918 -12.618  1.00  0.00     0.167 HD
HETATM    6  C5  UNL     1      -4.616   6.626 -15.136  1.00  0.00     0.018 A 
HETATM    7  C26 UNL     1      -5.338   7.676 -14.541  1.00  0.00     0.051 A 
HETATM    8  C25 UNL     1      -5.018   8.048 -13.256  1.00  0.00     0.086 A 
HETATM    9  N5  UNL     1      -6.225   8.218 -15.271  1.00  0.00    -0.330 N 
HETATM   10  C27 UNL     1      -7.072   9.266 -14.914  1.00  0.00     0.186 C 
ATOM     11  H5  UNL     1      -6.328   7.849 -16.216  1.00  0.00     0.168 HD
HETATM   12  N6  UNL     1      -7.753   9.220 -13.824  1.00  0.00    -0.373 N 
HETATM   13  N7  UNL     1      -7.159  10.384 -15.825  1.00  0.00    -0.064 NA
ATOM     14  H62 UNL     1      -7.692   8.431 -13.181  1.00  0.00     0.158 HD
ATOM     15  H61 UNL     1      -8.373   9.987 -13.562  1.00  0.00     0.158 HD
BRANCH   6  16
HETATM   16  C4  UNL     1      -4.925   6.197 -16.495  1.00  0.00    -0.005 A 
HETATM   17  C3  UNL     1      -4.368   6.736 -17.623  1.00  0.00     0.038 A 
HETATM   18  C2  UNL     1      -4.874   6.108 -18.758  1.00  0.00     0.005 A 
HETATM   19  C1  UNL     1      -4.505   6.426 -20.164  1.00  0.00     0.068 C 
HETATM   20  N8  UNL     1      -5.741   5.186 -18.304  1.00  0.00    -0.369 N 
HETATM   21  C28 UNL     1      -5.790   5.219 -16.940  1.00  0.00     0.100 A 
ATOM     22  H8  UNL     1      -6.282   4.554 -18.893  1.00  0.00     0.165 HD
ENDBRANCH   6  16
ENDBRANCH   1   2
BRANCH   1  23
HETATM   23  C8  UNL     1      -3.970   7.020 -10.152  1.00  0.00     0.077 A 
HETATM   24  C9  UNL     1      -5.244   7.016  -9.629  1.00  0.00     0.038 A 
HETATM   25  C10 UNL     1      -5.536   6.252  -8.492  1.00  0.00     0.015 A 
HETATM   26  C11 UNL     1      -4.581   5.489  -7.862  1.00  0.00    -0.021 A 
HETATM   27  C23 UNL     1      -3.302   5.512  -8.409  1.00  0.00     0.015 A 
HETATM   28  C24 UNL     1      -3.012   6.264  -9.530  1.00  0.00     0.038 A 
BRANCH  26  29
HETATM   29  C12 UNL     1      -4.876   4.675  -6.675  1.00  0.00     0.102 C 
BRANCH  29  30
HETATM   30  N2  UNL     1      -4.093   4.944  -5.541  1.00  0.00    -0.360 N 
HETATM   31  C13 UNL     1      -3.936   6.247  -5.077  1.00  0.00     0.108 C 
HETATM   32  C14 UNL     1      -4.026   6.299  -3.590  1.00  0.00     0.107 C 
HETATM   33  N3  UNL     1      -3.371   5.279  -2.904  1.00  0.00    -0.363 N 
HETATM   34  C21 UNL     1      -3.083   4.046  -3.483  1.00  0.00     0.084 C 
HETATM   35  C22 UNL     1      -3.367   3.894  -4.943  1.00  0.00     0.172 C 
BRANCH  33  36
HETATM   36  C15 UNL     1      -2.810   5.624  -1.655  1.00  0.00     0.166 C 
BRANCH  36  37
HETATM   37  C16 UNL     1      -3.183   6.920  -1.100  1.00  0.00    -0.037 A 
HETATM   38  C17 UNL     1      -4.317   7.102  -0.340  1.00  0.00     0.026 A 
HETATM   39  C18 UNL     1      -4.626   8.353   0.156  1.00  0.00     0.088 A 
HETATM   40  N4  UNL     1      -3.841   9.437  -0.082  1.00  0.00    -0.375 N 
HETATM   41  C19 UNL     1      -2.749   9.268  -0.813  1.00  0.00     0.088 A 
ATOM     42  H4  UNL     1      -4.086  10.354   0.291  1.00  0.00     0.164 HD
HETATM   43  C20 UNL     1      -2.391   8.021  -1.337  1.00  0.00     0.026 A 
ENDBRANCH  36  37
ENDBRANCH  33  36
ENDBRANCH  29  30
ENDBRANCH  26  29
ENDBRANCH   1  23
TORSDOF 7
ENDMDL
MODEL 3
REMARK VINA RESULT: -6.249373622      0.412      1.162
REMARK  7 active torsions:
REMARK  status: ('A' for Active; 'I' for Inactive)
REMARK    1  A    between atoms: C4_4  and  C5_5 
REMARK    2  A    between atoms: C7_9  and  O1_10 
REMARK    3  A    between atoms: O1_10  and  C8_11 
REMARK    4  A    between atoms: C11_14  and  C12_15 
REMARK    5  A    between atoms: C12_15  and  N2_16 
REMARK    6  A    between atoms: N3_19  and  C15_20 
REMARK    7  A    between atoms: C15_20  and  C16_21 
REMARK       I    between atoms: N5_34  and  C27_36 
ROOT
HETATM    1  O1  UNL     1      -0.556  11.536  -0.340  1.00  0.00    -0.294 OA
ENDROOT
BRANCH   1   2
HETATM    2  C7  UNL     1      -1.157  11.183   0.831  1.00  0.00     0.150 A 
HETATM    3  N1  UNL     1      -0.781  11.757   1.978  1.00  0.00    -0.346 N 
HETATM    4  C6  UNL     1      -1.400  11.377   3.105  1.00  0.00     0.104 A 
ATOM      5  H1  UNL     1      -0.046  12.463   1.995  1.00  0.00     0.167 HD
HETATM    6  C5  UNL     1      -2.397  10.438   3.185  1.00  0.00     0.018 A 
HETATM    7  C26 UNL     1      -2.794   9.832   1.979  1.00  0.00     0.051 A 
HETATM    8  C25 UNL     1      -2.167  10.213   0.815  1.00  0.00     0.086 A 
HETATM    9  N5  UNL     1      -3.699   8.947   2.079  1.00  0.00    -0.330 N 
HETATM   10  C27 UNL     1      -4.265   8.212   1.038  1.00  0.00     0.186 C 
ATOM     11  H5  UNL     1      -4.049   8.755   3.017  1.00  0.00     0.168 HD
HETATM   12  N6  UNL     1      -4.714   8.798  -0.014  1.00  0.00    -0.373 N 
HETATM   13  N7  UNL     1      -4.333   6.778   1.205  1.00  0.00    -0.064 NA
ATOM     14  H62 UNL     1      -4.665   9.810  -0.132  1.00  0.00     0.158 HD
ATOM     15  H61 UNL     1      -5.127   8.260  -0.776  1.00  0.00     0.158 HD
BRANCH   6  16
HETATM   16  C4  UNL     1      -3.038  10.068   4.441  1.00  0.00    -0.005 A 
HETATM   17  C3  UNL     1      -4.255  10.535   4.856  1.00  0.00     0.038 A 
HETATM   18  C2  UNL     1      -4.582   9.994   6.097  1.00  0.00     0.005 A 
HETATM   19  C1  UNL     1      -5.827  10.271   6.864  1.00  0.00     0.068 C 
HETATM   20  N8  UNL     1      -3.551   9.197   6.426  1.00  0.00    -0.369 N 
HETATM   21  C28 UNL     1      -2.604   9.224   5.443  1.00  0.00     0.100 A 
ATOM     22  H8  UNL     1      -3.486   8.652   7.285  1.00  0.00     0.165 HD
ENDBRANCH   6  16
ENDBRANCH   1   2
BRANCH   1  23
HETATM   23  C8  UNL     1      -1.172  12.297  -1.331  1.00  0.00     0.077 A 
HETATM   24  C9  UNL     1      -2.102  11.699  -2.153  1.00  0.00     0.038 A 
HETATM   25  C10 UNL     1      -2.734  12.443  -3.157  1.00  0.00     0.015 A 
HETATM   26  C11 UNL     1      -2.459  13.775  -3.362  1.00  0.00    -0.021 A 
HETATM   27  C23 UNL     1      -1.515  14.354  -2.519  1.00  0.00     0.015 A 
HETATM   28  C24 UNL     1      -0.889  13.622  -1.528  1.00  0.00     0.038 A 
BRANCH  26  29
HETATM   29  C12 UNL     1      -3.123  14.569  -4.404  1.00  0.00     0.102 C 
BRANCH  29  30
HETATM   30  N2  UNL     1      -3.033  14.060  -5.708  1.00  0.00    -0.360 N 
HETATM   31  C13 UNL     1      -4.139  13.480  -6.325  1.00  0.00     0.108 C 
HETATM   32  C14 UNL     1      -4.243  13.910  -7.748  1.00  0.00     0.107 C 
HETATM   33  N3  UNL     1      -3.048  13.953  -8.461  1.00  0.00    -0.363 N 
HETATM   34  C21 UNL     1      -1.807  14.087  -7.844  1.00  0.00     0.084 C 
HETATM   35  C22 UNL     1      -1.778  14.033  -6.350  1.00  0.00     0.172 C 
BRANCH  33  36
HETATM   36  C15 UNL     1      -3.125  13.632  -9.835  1.00  0.00     0.166 C 
BRANCH  36  37
HETATM   37  C16 UNL     1      -3.847  14.567 -10.690  1.00  0.00    -0.037 A 
HETATM   38  C17 UNL     1      -3.447  15.874 -10.861  1.00  0.00     0.026 A 
HETATM   39  C18 UNL     1      -4.170  16.720 -11.679  1.00  0.00     0.088 A 
HETATM   40  N4  UNL     1      -5.286  16.306 -12.335  1.00  0.00    -0.375 N 
HETATM   41  C19 UNL     1      -5.675  15.051 -12.176  1.00  0.00     0.088 A 
ATOM     42  H4  UNL     1      -5.808  16.945 -12.934  1.00  0.00     0.164 HD
HETATM   43  C20 UNL     1      -4.976  14.154 -11.359  1.00  0.00     0.026 A 
ENDBRANCH  36  37
ENDBRANCH  33  36
ENDBRANCH  29  30
ENDBRANCH  26  29
ENDBRANCH   1  23
TORSDOF 7
ENDMDL
MODEL 4
REMARK VINA RESULT: -6.229831165      1.733      2.876
REMARK  7 active torsions:
REMARK  status: ('A' for Active; 'I' for Inactive)
REMARK    1  A    between atoms: C4_4  and  C5_5 
REMARK    2  A    between atoms: C7_9  and  O1_10 
REMARK    3  A    between atoms: O1_10  and  C8_11 
REMARK    4  A    between atoms: C11_14  and  C12_15 
REMARK    5  A    between atoms: C12_15  and  N2_16 
REMARK    6  A    between atoms: N3_19  and  C15_20 
REMARK    7  A    between atoms: C15_20  and  C16_21 
REMARK       I    between atoms: N5_34  and  C27_36 
ROOT
HETATM    1  O1  UNL     1      -0.085  11.481   0.801  1.00  0.00    -0.294 OA
ENDROOT
BRANCH   1   2
HETATM    2  C7  UNL     1      -0.869  11.149   1.865  1.00  0.00     0.150 A 
HETATM    3  N1  UNL     1      -0.584  11.625   3.082  1.00  0.00    -0.346 N 
HETATM    4  C6  UNL     1      -1.383  11.270   4.099  1.00  0.00     0.104 A 
ATOM      5  H1  UNL     1       0.215  12.239   3.231  1.00  0.00     0.167 HD
HETATM    6  C5  UNL     1      -2.479  10.451   3.998  1.00  0.00     0.018 A 
HETATM    7  C26 UNL     1      -2.780   9.949   2.719  1.00  0.00     0.051 A 
HETATM    8  C25 UNL     1      -1.968  10.305   1.667  1.00  0.00     0.086 A 
HETATM    9  N5  UNL     1      -3.782   9.172   2.653  1.00  0.00    -0.330 N 
HETATM   10  C27 UNL     1      -4.284   8.554   1.509  1.00  0.00     0.186 C 
ATOM     11  H5  UNL     1      -4.271   8.981   3.528  1.00  0.00     0.168 HD
HETATM   12  N6  UNL     1      -4.525   9.235   0.445  1.00  0.00    -0.373 N 
HETATM   13  N7  UNL     1      -4.531   7.132   1.582  1.00  0.00    -0.064 NA
ATOM     14  H62 UNL     1      -4.351  10.238   0.394  1.00  0.00     0.158 HD
ATOM     15  H61 UNL     1      -4.892   8.782  -0.392  1.00  0.00     0.158 HD
BRANCH   6  16
HETATM   16  C4  UNL     1      -3.315  10.103   5.141  1.00  0.00    -0.005 A 
HETATM   17  C3  UNL     1      -4.554  10.632   5.384  1.00  0.00     0.038 A 
HETATM   18  C2  UNL     1      -5.087  10.097   6.554  1.00  0.00     0.005 A 
HETATM   19  C1  UNL     1      -6.414  10.434   7.137  1.00  0.00     0.068 C 
HETATM   20  N8  UNL     1      -4.158   9.241   7.014  1.00  0.00    -0.369 N 
HETATM   21  C28 UNL     1      -3.078   9.226   6.179  1.00  0.00     0.100 A 
ATOM     22  H8  UNL     1      -4.248   8.683   7.863  1.00  0.00     0.165 HD
ENDBRANCH   6  16
ENDBRANCH   1   2
BRANCH   1  23
HETATM   23  C8  UNL     1      -0.081  12.739   0.201  1.00  0.00     0.077 A 
HETATM   24  C9  UNL     1      -0.838  12.943  -0.931  1.00  0.00     0.038 A 
HETATM   25  C10 UNL     1      -0.849  14.198  -1.552  1.00  0.00     0.015 A 
HETATM   26  C11 UNL     1      -0.120  15.259  -1.068  1.00  0.00    -0.021 A 
HETATM   27  C23 UNL     1       0.637  15.025   0.076  1.00  0.00     0.015 A 
HETATM   28  C24 UNL     1       0.651  13.788   0.690  1.00  0.00     0.038 A 
BRANCH  26  29
HETATM   29  C12 UNL     1      -0.132  16.583  -1.703  1.00  0.00     0.102 C 
BRANCH  29  30
HETATM   30  N2  UNL     1      -0.376  16.594  -3.085  1.00  0.00    -0.360 N 
HETATM   31  C13 UNL     1       0.544  16.043  -3.975  1.00  0.00     0.108 C 
HETATM   32  C14 UNL     1      -0.146  15.258  -5.038  1.00  0.00     0.107 C 
HETATM   33  N3  UNL     1      -1.302  15.829  -5.565  1.00  0.00    -0.363 N 
HETATM   34  C21 UNL     1      -2.060  16.769  -4.873  1.00  0.00     0.084 C 
HETATM   35  C22 UNL     1      -1.508  17.274  -3.579  1.00  0.00     0.172 C 
BRANCH  33  36
HETATM   36  C15 UNL     1      -1.557  15.579  -6.932  1.00  0.00     0.166 C 
BRANCH  36  37
HETATM   37  C16 UNL     1      -2.813  14.913  -7.256  1.00  0.00    -0.037 A 
HETATM   38  C17 UNL     1      -3.591  15.281  -8.331  1.00  0.00     0.026 A 
HETATM   39  C18 UNL     1      -4.775  14.621  -8.590  1.00  0.00     0.088 A 
HETATM   40  N4  UNL     1      -5.216  13.600  -7.808  1.00  0.00    -0.375 N 
HETATM   41  C19 UNL     1      -4.472  13.240  -6.773  1.00  0.00     0.088 A 
ATOM     42  H4  UNL     1      -6.094  13.124  -8.013  1.00  0.00     0.164 HD
HETATM   43  C20 UNL     1      -3.264  13.878  -6.469  1.00  0.00     0.026 A 
ENDBRANCH  36  37
ENDBRANCH  33  36
ENDBRANCH  29  30
ENDBRANCH  26  29
ENDBRANCH   1  23
TORSDOF 7
ENDMDL
MODEL 5
REMARK VINA RESULT: -6.140737092      1.063      1.827
REMARK  7 active torsions:
REMARK  status: ('A' for Active; 'I' for Inactive)
REMARK    1  A    between atoms: C4_4  and  C5_5 
REMARK    2  A    between atoms: C7_9  and  O1_10 
REMARK    3  A    between atoms: O1_10  and  C8_11 
REMARK    4  A    between atoms: C11_14  and  C12_15 
REMARK    5  A    between atoms: C12_15  and  N2_16 
REMARK    6  A    between atoms: N3_19  and  C15_20 
REMARK    7  A    between atoms: C15_20  and  C16_21 
REMARK       I    between atoms: N5_34  and  C27_36 
ROOT
HETATM    1  O1  UNL     1      -0.195  11.448   0.396  1.00  0.00    -0.294 OA
ENDROOT
BRANCH   1   2
HETATM    2  C7  UNL     1      -0.943  11.134   1.490  1.00  0.00     0.150 A 
HETATM    3  N1  UNL     1      -0.652  11.672   2.679  1.00  0.00    -0.346 N 
HETATM    4  C6  UNL     1      -1.415  11.333   3.728  1.00  0.00     0.104 A 
ATOM      5  H1  UNL     1       0.127  12.322   2.784  1.00  0.00     0.167 HD
HETATM    6  C5  UNL     1      -2.481  10.470   3.687  1.00  0.00     0.018 A 
HETATM    7  C26 UNL     1      -2.790   9.903   2.438  1.00  0.00     0.051 A 
HETATM    8  C25 UNL     1      -2.014  10.242   1.353  1.00  0.00     0.086 A 
HETATM    9  N5  UNL     1      -3.762   9.087   2.428  1.00  0.00    -0.330 N 
HETATM   10  C27 UNL     1      -4.265   8.401   1.323  1.00  0.00     0.186 C 
ATOM     11  H5  UNL     1      -4.225   8.916   3.321  1.00  0.00     0.168 HD
HETATM   12  N6  UNL     1      -4.554   9.025   0.236  1.00  0.00    -0.373 N 
HETATM   13  N7  UNL     1      -4.456   6.976   1.462  1.00  0.00    -0.064 NA
ATOM     14  H62 UNL     1      -4.418  10.031   0.138  1.00  0.00     0.158 HD
ATOM     15  H61 UNL     1      -4.921   8.523  -0.572  1.00  0.00     0.158 HD
BRANCH   6  16
HETATM   16  C4  UNL     1      -3.279  10.142   4.862  1.00  0.00    -0.005 A 
HETATM   17  C3  UNL     1      -4.516  10.665   5.130  1.00  0.00     0.038 A 
HETATM   18  C2  UNL     1      -5.008  10.153   6.328  1.00  0.00     0.005 A 
HETATM   19  C1  UNL     1      -6.320  10.491   6.942  1.00  0.00     0.068 C 
HETATM   20  N8  UNL     1      -4.058   9.317   6.779  1.00  0.00    -0.369 N 
HETATM   21  C28 UNL     1      -3.003   9.292   5.913  1.00  0.00     0.100 A 
ATOM     22  H8  UNL     1      -4.116   8.779   7.643  1.00  0.00     0.165 HD
ENDBRANCH   6  16
ENDBRANCH   1   2
BRANCH   1  23
HETATM   23  C8  UNL     1      -0.456  12.533  -0.439  1.00  0.00     0.077 A 
HETATM   24  C9  UNL     1      -1.345  12.379  -1.480  1.00  0.00     0.038 A 
HETATM   25  C10 UNL     1      -1.623  13.454  -2.332  1.00  0.00     0.015 A 
HETATM   26  C11 UNL     1      -1.032  14.685  -2.170  1.00  0.00    -0.021 A 
HETATM   27  C23 UNL     1      -0.136  14.814  -1.112  1.00  0.00     0.015 A 
HETATM   28  C24 UNL     1       0.140  13.755  -0.270  1.00  0.00     0.038 A 
BRANCH  26  29
HETATM   29  C12 UNL     1      -1.323  15.825  -3.050  1.00  0.00     0.102 C 
BRANCH  29  30
HETATM   30  N2  UNL     1      -1.920  15.508  -4.280  1.00  0.00    -0.360 N 
HETATM   31  C13 UNL     1      -1.160  15.001  -5.331  1.00  0.00     0.108 C 
HETATM   32  C14 UNL     1      -1.876  13.891  -6.021  1.00  0.00     0.107 C 
HETATM   33  N3  UNL     1      -3.239  14.085  -6.236  1.00  0.00    -0.363 N 
HETATM   34  C21 UNL     1      -4.005  14.959  -5.470  1.00  0.00     0.084 C 
HETATM   35  C22 UNL     1      -3.280  15.818  -4.484  1.00  0.00     0.172 C 
BRANCH  33  36
HETATM   36  C15 UNL     1      -3.774  13.519  -7.414  1.00  0.00     0.166 C 
BRANCH  36  37
HETATM   37  C16 UNL     1      -3.437  14.177  -8.672  1.00  0.00    -0.037 A 
HETATM   38  C17 UNL     1      -3.831  15.464  -8.963  1.00  0.00     0.026 A 
HETATM   39  C18 UNL     1      -3.490  16.037 -10.173  1.00  0.00     0.088 A 
HETATM   40  N4  UNL     1      -2.766  15.367 -11.108  1.00  0.00    -0.375 N 
HETATM   41  C19 UNL     1      -2.384  14.129 -10.834  1.00  0.00     0.088 A 
ATOM     42  H4  UNL     1      -2.524  15.806 -11.997  1.00  0.00     0.164 HD
HETATM   43  C20 UNL     1      -2.704  13.504  -9.623  1.00  0.00     0.026 A 
ENDBRANCH  36  37
ENDBRANCH  33  36
ENDBRANCH  29  30
ENDBRANCH  26  29
ENDBRANCH   1  23
TORSDOF 7
ENDMDL
