MODEL 1
REMARK VINA RESULT: -8.514959505      0.000      0.000
REMARK  3 active torsions:
REMARK  status: ('A' for Active; 'I' for Inactive)
REMARK    1  A    between atoms: C3_3  and  O1_4 
REMARK    2  A    between atoms: O1_4  and  C4_5 
REMARK    3  A    between atoms: C4_5  and  C5_6 
ROOT
HETATM    1  C1  UNL     1      13.934   4.354 -40.514  1.00  0.00     0.014 C 
HETATM    2  C2  UNL     1      14.608   3.367 -40.350  1.00  0.00    -0.091 C 
HETATM    3  C3  UNL     1      15.437   2.168 -40.165  1.00  0.00     0.260 C 
ENDROOT
BRANCH   3   4
HETATM    4  O1  UNL     1      15.471   1.829 -38.824  1.00  0.00    -0.378 OA
BRANCH   4   5
HETATM    5  C4  UNL     1      16.378   2.598 -38.142  1.00  0.00     0.186 C 
BRANCH   5   6
HETATM    6  C5  UNL     1      15.990   2.714 -36.644  1.00  0.00     0.042 C 
HETATM    7  C6  UNL     1      14.653   3.398 -36.578  1.00  0.00    -0.054 C 
HETATM    8  C7  UNL     1      13.469   3.027 -37.054  1.00  0.00    -0.014 C 
HETATM    9  C10 UNL     1      14.444   4.718 -35.899  1.00  0.00     0.041 C 
HETATM   10  C8  UNL     1      12.426   4.090 -36.731  1.00  0.00     0.107 C 
HETATM   11  C9  UNL     1      13.380   5.288 -36.766  1.00  0.00     0.142 C 
HETATM   12  O2  UNL     1      13.245   6.314 -37.331  1.00  0.00    -0.296 OA
HETATM   13  C11 UNL     1      13.765   4.598 -34.543  1.00  0.00     0.028 C 
HETATM   14  C12 UNL     1      15.682   5.482 -35.727  1.00  0.00     0.022 C 
HETATM   15  C13 UNL     1      16.684   4.571 -35.033  1.00  0.00     0.010 C 
HETATM   16  C14 UNL     1      17.036   3.397 -35.840  1.00  0.00     0.038 C 
HETATM   17  C15 UNL     1      17.875   2.350 -35.172  1.00  0.00     0.076 C 
HETATM   18  C16 UNL     1      19.175   2.981 -34.664  1.00  0.00     0.047 C 
HETATM   19  O3  UNL     1      18.262   1.494 -36.239  1.00  0.00    -0.366 OA
HETATM   20  C20 UNL     1      17.316   1.505 -34.117  1.00  0.00     0.123 C 
HETATM   21  C17 UNL     1      17.178   0.567 -36.179  1.00  0.00     0.087 C 
HETATM   22  C18 UNL     1      17.345  -0.502 -37.201  1.00  0.00     0.049 C 
HETATM   23  C19 UNL     1      17.458   0.094 -34.766  1.00  0.00     0.058 C 
HETATM   24  C22 UNL     1      15.839   1.263 -36.237  1.00  0.00     0.181 C 
HETATM   25  O5  UNL     1      15.118   1.238 -35.022  1.00  0.00    -0.311 OA
HETATM   26  C21 UNL     1      15.858   1.546 -33.899  1.00  0.00     0.266 C 
HETATM   27  O4  UNL     1      15.353   1.827 -32.814  1.00  0.00    -0.265 OA
ENDBRANCH   5   6
ENDBRANCH   4   5
ENDBRANCH   3   4
TORSDOF 3
ENDMDL
MODEL 2
REMARK VINA RESULT: -8.483061594      1.762      5.782
REMARK  3 active torsions:
REMARK  status: ('A' for Active; 'I' for Inactive)
REMARK    1  A    between atoms: C3_3  and  O1_4 
REMARK    2  A    between atoms: O1_4  and  C4_5 
REMARK    3  A    between atoms: C4_5  and  C5_6 
ROOT
HETATM    1  C1  UNL     1      15.008   0.769 -30.258  1.00  0.00     0.014 C 
HETATM    2  C2  UNL     1      15.909   0.711 -31.058  1.00  0.00    -0.091 C 
HETATM    3  C3  UNL     1      17.006   0.623 -32.031  1.00  0.00     0.260 C 
ENDROOT
BRANCH   3   4
HETATM    4  O1  UNL     1      17.007   1.751 -32.833  1.00  0.00    -0.378 OA
BRANCH   4   5
HETATM    5  C4  UNL     1      15.776   1.958 -33.399  1.00  0.00     0.186 C 
BRANCH   5   6
HETATM    6  C5  UNL     1      15.910   2.319 -34.901  1.00  0.00     0.042 C 
HETATM    7  C6  UNL     1      16.745   1.250 -35.547  1.00  0.00    -0.054 C 
HETATM    8  C7  UNL     1      16.526  -0.053 -35.683  1.00  0.00    -0.014 C 
HETATM    9  C10 UNL     1      18.069   1.528 -36.195  1.00  0.00     0.041 C 
HETATM   10  C8  UNL     1      17.698  -0.703 -36.409  1.00  0.00     0.107 C 
HETATM   11  C9  UNL     1      18.776   0.256 -35.893  1.00  0.00     0.142 C 
HETATM   12  O2  UNL     1      19.821  -0.008 -35.415  1.00  0.00    -0.296 OA
HETATM   13  C11 UNL     1      18.005   1.542 -37.715  1.00  0.00     0.028 C 
HETATM   14  C12 UNL     1      18.678   2.783 -35.750  1.00  0.00     0.022 C 
HETATM   15  C13 UNL     1      17.643   3.882 -35.940  1.00  0.00     0.010 C 
HETATM   16  C14 UNL     1      16.451   3.687 -35.107  1.00  0.00     0.038 C 
HETATM   17  C15 UNL     1      15.300   4.615 -35.355  1.00  0.00     0.076 C 
HETATM   18  C16 UNL     1      15.764   6.065 -35.185  1.00  0.00     0.047 C 
HETATM   19  O3  UNL     1      14.424   4.368 -34.263  1.00  0.00    -0.366 OA
HETATM   20  C20 UNL     1      14.508   4.514 -36.581  1.00  0.00     0.123 C 
HETATM   21  C17 UNL     1      13.630   3.337 -34.850  1.00  0.00     0.087 C 
HETATM   22  C18 UNL     1      12.567   2.893 -33.908  1.00  0.00     0.049 C 
HETATM   23  C19 UNL     1      13.102   4.181 -35.994  1.00  0.00     0.058 C 
HETATM   24  C22 UNL     1      14.480   2.211 -35.387  1.00  0.00     0.181 C 
HETATM   25  O5  UNL     1      14.518   2.133 -36.798  1.00  0.00    -0.311 OA
HETATM   26  C21 UNL     1      14.716   3.336 -37.442  1.00  0.00     0.266 C 
HETATM   27  O4  UNL     1      15.035   3.423 -38.626  1.00  0.00    -0.265 OA
ENDBRANCH   5   6
ENDBRANCH   4   5
ENDBRANCH   3   4
TORSDOF 3
ENDMDL
MODEL 3
REMARK VINA RESULT: -8.265634266      2.095      4.974
REMARK  3 active torsions:
REMARK  status: ('A' for Active; 'I' for Inactive)
REMARK    1  A    between atoms: C3_3  and  O1_4 
REMARK    2  A    between atoms: O1_4  and  C4_5 
REMARK    3  A    between atoms: C4_5  and  C5_6 
ROOT
HETATM    1  C1  UNL     1      15.871   1.107 -31.731  1.00  0.00     0.014 C 
HETATM    2  C2  UNL     1      17.048   1.128 -31.995  1.00  0.00    -0.091 C 
HETATM    3  C3  UNL     1      18.485   1.151 -32.299  1.00  0.00     0.260 C 
ENDROOT
BRANCH   3   4
HETATM    4  O1  UNL     1      18.685   0.811 -33.626  1.00  0.00    -0.378 OA
BRANCH   4   5
HETATM    5  C4  UNL     1      18.838   1.929 -34.405  1.00  0.00     0.186 C 
BRANCH   5   6
HETATM    6  C5  UNL     1      18.015   1.809 -35.714  1.00  0.00     0.042 C 
HETATM    7  C6  UNL     1      16.855   2.758 -35.603  1.00  0.00    -0.054 C 
HETATM    8  C7  UNL     1      16.830   4.081 -35.482  1.00  0.00    -0.014 C 
HETATM    9  C10 UNL     1      15.425   2.306 -35.619  1.00  0.00     0.041 C 
HETATM   10  C8  UNL     1      15.388   4.566 -35.393  1.00  0.00     0.107 C 
HETATM   11  C9  UNL     1      14.825   3.316 -34.709  1.00  0.00     0.142 C 
HETATM   12  O2  UNL     1      14.136   3.253 -33.754  1.00  0.00    -0.296 OA
HETATM   13  C11 UNL     1      14.724   2.567 -36.944  1.00  0.00     0.028 C 
HETATM   14  C12 UNL     1      15.264   0.889 -35.286  1.00  0.00     0.022 C 
HETATM   15  C13 UNL     1      16.182   0.099 -36.207  1.00  0.00     0.010 C 
HETATM   16  C14 UNL     1      17.600   0.410 -35.995  1.00  0.00     0.038 C 
HETATM   17  C15 UNL     1      18.570  -0.180 -36.974  1.00  0.00     0.076 C 
HETATM   18  C16 UNL     1      18.418  -1.704 -36.992  1.00  0.00     0.047 C 
HETATM   19  O3  UNL     1      19.839   0.067 -36.384  1.00  0.00    -0.366 OA
HETATM   20  C20 UNL     1      18.628   0.304 -38.353  1.00  0.00     0.123 C 
HETATM   21  C17 UNL     1      20.114   1.335 -36.980  1.00  0.00     0.087 C 
HETATM   22  C18 UNL     1      21.447   1.837 -36.552  1.00  0.00     0.049 C 
HETATM   23  C19 UNL     1      20.093   0.838 -38.414  1.00  0.00     0.058 C 
HETATM   24  C22 UNL     1      18.990   2.317 -36.756  1.00  0.00     0.181 C 
HETATM   25  O5  UNL     1      18.245   2.625 -37.917  1.00  0.00    -0.311 OA
HETATM   26  C21 UNL     1      17.889   1.536 -38.685  1.00  0.00     0.266 C 
HETATM   27  O4  UNL     1      17.034   1.583 -39.568  1.00  0.00    -0.265 OA
ENDBRANCH   5   6
ENDBRANCH   4   5
ENDBRANCH   3   4
TORSDOF 3
ENDMDL
MODEL 4
REMARK VINA RESULT: -8.252730020      0.670      1.057
REMARK  3 active torsions:
REMARK  status: ('A' for Active; 'I' for Inactive)
REMARK    1  A    between atoms: C3_3  and  O1_4 
REMARK    2  A    between atoms: O1_4  and  C4_5 
REMARK    3  A    between atoms: C4_5  and  C5_6 
ROOT
HETATM    1  C1  UNL     1      14.705  -0.256 -41.379  1.00  0.00     0.014 C 
HETATM    2  C2  UNL     1      15.133   0.732 -40.834  1.00  0.00    -0.091 C 
HETATM    3  C3  UNL     1      15.652   1.943 -40.186  1.00  0.00     0.260 C 
ENDROOT
BRANCH   3   4
HETATM    4  O1  UNL     1      15.440   1.867 -38.821  1.00  0.00    -0.378 OA
BRANCH   4   5
HETATM    5  C4  UNL     1      16.361   2.616 -38.135  1.00  0.00     0.186 C 
BRANCH   5   6
HETATM    6  C5  UNL     1      15.978   2.729 -36.636  1.00  0.00     0.042 C 
HETATM    7  C6  UNL     1      14.643   3.418 -36.565  1.00  0.00    -0.054 C 
HETATM    8  C7  UNL     1      13.457   3.052 -37.039  1.00  0.00    -0.014 C 
HETATM    9  C10 UNL     1      14.441   4.736 -35.881  1.00  0.00     0.041 C 
HETATM   10  C8  UNL     1      12.418   4.118 -36.709  1.00  0.00     0.107 C 
HETATM   11  C9  UNL     1      13.376   5.312 -36.743  1.00  0.00     0.142 C 
HETATM   12  O2  UNL     1      13.243   6.341 -37.304  1.00  0.00    -0.296 OA
HETATM   13  C11 UNL     1      13.765   4.615 -34.523  1.00  0.00     0.028 C 
HETATM   14  C12 UNL     1      15.681   5.495 -35.709  1.00  0.00     0.022 C 
HETATM   15  C13 UNL     1      16.682   4.579 -35.021  1.00  0.00     0.010 C 
HETATM   16  C14 UNL     1      17.028   3.407 -35.833  1.00  0.00     0.038 C 
HETATM   17  C15 UNL     1      17.865   2.354 -35.170  1.00  0.00     0.076 C 
HETATM   18  C16 UNL     1      19.168   2.979 -34.663  1.00  0.00     0.047 C 
HETATM   19  O3  UNL     1      18.246   1.500 -36.241  1.00  0.00    -0.366 OA
HETATM   20  C20 UNL     1      17.306   1.508 -34.116  1.00  0.00     0.123 C 
HETATM   21  C17 UNL     1      17.159   0.577 -36.181  1.00  0.00     0.087 C 
HETATM   22  C18 UNL     1      17.321  -0.489 -37.206  1.00  0.00     0.049 C 
HETATM   23  C19 UNL     1      17.441   0.098 -34.769  1.00  0.00     0.058 C 
HETATM   24  C22 UNL     1      15.823   1.277 -36.233  1.00  0.00     0.181 C 
HETATM   25  O5  UNL     1      15.105   1.251 -35.016  1.00  0.00    -0.311 OA
HETATM   26  C21 UNL     1      15.849   1.553 -33.894  1.00  0.00     0.266 C 
HETATM   27  O4  UNL     1      15.348   1.833 -32.807  1.00  0.00    -0.265 OA
ENDBRANCH   5   6
ENDBRANCH   4   5
ENDBRANCH   3   4
TORSDOF 3
ENDMDL
MODEL 5
REMARK VINA RESULT: -8.205298873      1.899      3.310
REMARK  3 active torsions:
REMARK  status: ('A' for Active; 'I' for Inactive)
REMARK    1  A    between atoms: C3_3  and  O1_4 
REMARK    2  A    between atoms: O1_4  and  C4_5 
REMARK    3  A    between atoms: C4_5  and  C5_6 
ROOT
HETATM    1  C1  UNL     1      12.448   4.073 -36.805  1.00  0.00     0.014 C 
HETATM    2  C2  UNL     1      13.210   3.610 -37.619  1.00  0.00    -0.091 C 
HETATM    3  C3  UNL     1      14.125   3.051 -38.622  1.00  0.00     0.260 C 
ENDROOT
BRANCH   3   4
HETATM    4  O1  UNL     1      15.415   3.042 -38.120  1.00  0.00    -0.378 OA
BRANCH   4   5
HETATM    5  C4  UNL     1      16.024   1.835 -38.344  1.00  0.00     0.186 C 
BRANCH   5   6
HETATM    6  C5  UNL     1      16.959   1.459 -37.164  1.00  0.00     0.042 C 
HETATM    7  C6  UNL     1      16.141   1.528 -35.905  1.00  0.00    -0.054 C 
HETATM    8  C7  UNL     1      15.072   0.834 -35.530  1.00  0.00    -0.014 C 
HETATM    9  C10 UNL     1      16.447   2.476 -34.784  1.00  0.00     0.041 C 
HETATM   10  C8  UNL     1      14.607   1.301 -34.156  1.00  0.00     0.107 C 
HETATM   11  C9  UNL     1      15.070   2.754 -34.299  1.00  0.00     0.142 C 
HETATM   12  O2  UNL     1      14.463   3.740 -34.075  1.00  0.00    -0.296 OA
HETATM   13  C11 UNL     1      17.111   1.805 -33.590  1.00  0.00     0.028 C 
HETATM   14  C12 UNL     1      17.280   3.607 -35.195  1.00  0.00     0.022 C 
HETATM   15  C13 UNL     1      18.509   3.039 -35.889  1.00  0.00     0.010 C 
HETATM   16  C14 UNL     1      18.178   2.306 -37.116  1.00  0.00     0.038 C 
HETATM   17  C15 UNL     1      19.297   1.555 -37.773  1.00  0.00     0.076 C 
HETATM   18  C16 UNL     1      20.444   2.520 -38.092  1.00  0.00     0.047 C 
HETATM   19  O3  UNL     1      18.759   1.177 -39.033  1.00  0.00    -0.366 OA
HETATM   20  C20 UNL     1      19.853   0.351 -37.157  1.00  0.00     0.123 C 
HETATM   21  C17 UNL     1      18.216  -0.090 -38.665  1.00  0.00     0.087 C 
HETATM   22  C18 UNL     1      17.596  -0.756 -39.843  1.00  0.00     0.049 C 
HETATM   23  C19 UNL     1      19.537  -0.711 -38.254  1.00  0.00     0.058 C 
HETATM   24  C22 UNL     1      17.299   0.015 -37.471  1.00  0.00     0.181 C 
HETATM   25  O5  UNL     1      17.818  -0.557 -36.287  1.00  0.00    -0.311 OA
HETATM   26  C21 UNL     1      19.131  -0.236 -36.012  1.00  0.00     0.266 C 
HETATM   27  O4  UNL     1      19.656  -0.421 -34.916  1.00  0.00    -0.265 OA
ENDBRANCH   5   6
ENDBRANCH   4   5
ENDBRANCH   3   4
TORSDOF 3
ENDMDL
