MODEL 1
REMARK VINA RESULT: -4.205762637      0.000      0.000
REMARK  4 active torsions:
REMARK  status: ('A' for Active; 'I' for Inactive)
REMARK    1  A    between atoms: S1_2  and  C2_3 
REMARK    2  A    between atoms: C2_3  and  C3_4 
REMARK    3  A    between atoms: C5_7  and  N1_8 
REMARK    4  A    between atoms: N1_8  and  C6_10 
ROOT
HETATM    1  C3  UNL     1      -0.047   2.823   7.334  1.00  0.00     0.027 A 
HETATM    2  C4  UNL     1      -1.379   3.006   7.600  1.00  0.00     0.079 A 
HETATM    3  S2  UNL     1      -1.857   4.058   6.345  1.00  0.00    -0.064 SA
HETATM    4  C5  UNL     1      -0.354   4.207   5.558  1.00  0.00     0.146 A 
HETATM    5  N2  UNL     1       0.448   3.447   6.288  1.00  0.00    -0.339 N 
ATOM      6  H2  UNL     1       1.433   3.348   6.044  1.00  0.00     0.168 HD
ENDROOT
BRANCH   4   7
HETATM    7  N1  UNL     1      -0.051   4.906   4.482  1.00  0.00    -0.349 N 
ATOM      8  H1  UNL     1      -0.169   4.540   3.537  1.00  0.00     0.163 HD
BRANCH   7   9
HETATM    9  C6  UNL     1       0.466   6.237   4.743  1.00  0.00     0.102 C 
HETATM   10  C7  UNL     1       0.686   6.897   3.393  1.00  0.00     0.056 C 
HETATM   11  C8  UNL     1      -0.470   7.073   5.543  1.00  0.00     0.056 C 
HETATM   12 CL1  UNL     1       2.054   6.075   5.575  1.00  0.00    -0.096 Cl
ENDBRANCH   7   9
ENDBRANCH   4   7
BRANCH   1  13
HETATM   13  C2  UNL     1       0.779   1.925   8.244  1.00  0.00     0.131 C 
BRANCH  13  14
HETATM   14  S1  UNL     1       2.511   1.983   7.796  1.00  0.00    -0.168 SA
HETATM   15  C1  UNL     1       3.314   3.421   8.577  1.00  0.00     0.090 C 
ENDBRANCH  13  14
ENDBRANCH   1  13
TORSDOF 4
ENDMDL
MODEL 2
REMARK VINA RESULT: -4.177743437      2.023      4.605
REMARK  4 active torsions:
REMARK  status: ('A' for Active; 'I' for Inactive)
REMARK    1  A    between atoms: S1_2  and  C2_3 
REMARK    2  A    between atoms: C2_3  and  C3_4 
REMARK    3  A    between atoms: C5_7  and  N1_8 
REMARK    4  A    between atoms: N1_8  and  C6_10 
ROOT
HETATM    1  C3  UNL     1      -0.522   3.236   7.011  1.00  0.00     0.027 A 
HETATM    2  C4  UNL     1      -1.085   2.357   7.898  1.00  0.00     0.079 A 
HETATM    3  S2  UNL     1       0.284   1.560   8.533  1.00  0.00    -0.064 SA
HETATM    4  C5  UNL     1       1.484   2.380   7.645  1.00  0.00     0.146 A 
HETATM    5  N2  UNL     1       0.788   3.226   6.902  1.00  0.00    -0.339 N 
ATOM      6  H2  UNL     1       1.260   3.859   6.257  1.00  0.00     0.168 HD
ENDROOT
BRANCH   4   7
HETATM    7  N1  UNL     1       2.793   2.219   7.681  1.00  0.00    -0.349 N 
ATOM      8  H1  UNL     1       3.250   1.365   7.363  1.00  0.00     0.163 HD
BRANCH   7   9
HETATM    9  C6  UNL     1       3.532   3.351   8.208  1.00  0.00     0.102 C 
HETATM   10  C7  UNL     1       2.872   3.736   9.521  1.00  0.00     0.056 C 
HETATM   11  C8  UNL     1       4.965   3.037   8.462  1.00  0.00     0.056 C 
HETATM   12 CL1  UNL     1       3.369   4.723   7.055  1.00  0.00    -0.096 Cl
ENDBRANCH   7   9
ENDBRANCH   4   7
BRANCH   1  13
HETATM   13  C2  UNL     1      -1.423   4.165   6.209  1.00  0.00     0.131 C 
BRANCH  13  14
HETATM   14  S1  UNL     1      -0.462   5.173   5.085  1.00  0.00    -0.168 SA
HETATM   15  C1  UNL     1      -0.244   4.308   3.495  1.00  0.00     0.090 C 
ENDBRANCH  13  14
ENDBRANCH   1  13
TORSDOF 4
ENDMDL
MODEL 3
REMARK VINA RESULT: -4.088263397      1.616      1.843
REMARK  4 active torsions:
REMARK  status: ('A' for Active; 'I' for Inactive)
REMARK    1  A    between atoms: S1_2  and  C2_3 
REMARK    2  A    between atoms: C2_3  and  C3_4 
REMARK    3  A    between atoms: C5_7  and  N1_8 
REMARK    4  A    between atoms: N1_8  and  C6_10 
ROOT
HETATM    1  C3  UNL     1       0.059   2.933   7.194  1.00  0.00     0.027 A 
HETATM    2  C4  UNL     1      -1.300   3.059   7.314  1.00  0.00     0.079 A 
HETATM    3  S2  UNL     1      -1.653   4.275   6.170  1.00  0.00    -0.064 SA
HETATM    4  C5  UNL     1      -0.070   4.555   5.608  1.00  0.00     0.146 A 
HETATM    5  N2  UNL     1       0.659   3.708   6.319  1.00  0.00    -0.339 N 
ATOM      6  H2  UNL     1       1.669   3.657   6.188  1.00  0.00     0.168 HD
ENDROOT
BRANCH   4   7
HETATM    7  N1  UNL     1       0.342   5.406   4.689  1.00  0.00    -0.349 N 
ATOM      8  H1  UNL     1       1.046   6.120   4.877  1.00  0.00     0.163 HD
BRANCH   7   9
HETATM    9  C6  UNL     1      -0.282   5.250   3.389  1.00  0.00     0.102 C 
HETATM   10  C7  UNL     1       0.469   6.155   2.427  1.00  0.00     0.056 C 
HETATM   11  C8  UNL     1      -0.223   3.852   2.882  1.00  0.00     0.056 C 
HETATM   12 CL1  UNL     1      -1.986   5.819   3.506  1.00  0.00    -0.096 Cl
ENDBRANCH   7   9
ENDBRANCH   4   7
BRANCH   1  13
HETATM   13  C2  UNL     1       0.794   1.923   8.064  1.00  0.00     0.131 C 
BRANCH  13  14
HETATM   14  S1  UNL     1       2.557   1.985   7.763  1.00  0.00    -0.168 SA
HETATM   15  C1  UNL     1       3.311   3.340   8.722  1.00  0.00     0.090 C 
ENDBRANCH  13  14
ENDBRANCH   1  13
TORSDOF 4
ENDMDL
MODEL 4
REMARK VINA RESULT: -4.049640944      2.569      2.971
REMARK  4 active torsions:
REMARK  status: ('A' for Active; 'I' for Inactive)
REMARK    1  A    between atoms: S1_2  and  C2_3 
REMARK    2  A    between atoms: C2_3  and  C3_4 
REMARK    3  A    between atoms: C5_7  and  N1_8 
REMARK    4  A    between atoms: N1_8  and  C6_10 
ROOT
HETATM    1  C3  UNL     1      -0.125   3.958   5.973  1.00  0.00     0.027 A 
HETATM    2  C4  UNL     1      -1.347   4.577   5.989  1.00  0.00     0.079 A 
HETATM    3  S2  UNL     1      -1.333   5.441   4.517  1.00  0.00    -0.064 SA
HETATM    4  C5  UNL     1       0.210   4.972   3.968  1.00  0.00     0.146 A 
HETATM    5  N2  UNL     1       0.647   4.177   4.933  1.00  0.00    -0.339 N 
ATOM      6  H2  UNL     1       1.567   3.742   4.869  1.00  0.00     0.168 HD
ENDROOT
BRANCH   4   7
HETATM    7  N1  UNL     1       0.829   5.312   2.854  1.00  0.00    -0.349 N 
ATOM      8  H1  UNL     1       1.637   5.934   2.843  1.00  0.00     0.163 HD
BRANCH   7   9
HETATM    9  C6  UNL     1       0.273   4.733   1.646  1.00  0.00     0.102 C 
HETATM   10  C7  UNL     1       1.416   4.599   0.655  1.00  0.00     0.056 C 
HETATM   11  C8  UNL     1      -0.332   3.393   1.871  1.00  0.00     0.056 C 
HETATM   12 CL1  UNL     1      -0.941   5.881   0.974  1.00  0.00    -0.096 Cl
ENDBRANCH   7   9
ENDBRANCH   4   7
BRANCH   1  13
HETATM   13  C2  UNL     1       0.272   3.063   7.139  1.00  0.00     0.131 C 
BRANCH  13  14
HETATM   14  S1  UNL     1       2.033   3.155   7.443  1.00  0.00    -0.168 SA
HETATM   15  C1  UNL     1       2.695   1.497   7.814  1.00  0.00     0.090 C 
ENDBRANCH  13  14
ENDBRANCH   1  13
TORSDOF 4
ENDMDL
MODEL 5
REMARK VINA RESULT: -4.034699014      2.289      4.918
REMARK  4 active torsions:
REMARK  status: ('A' for Active; 'I' for Inactive)
REMARK    1  A    between atoms: S1_2  and  C2_3 
REMARK    2  A    between atoms: C2_3  and  C3_4 
REMARK    3  A    between atoms: C5_7  and  N1_8 
REMARK    4  A    between atoms: N1_8  and  C6_10 
ROOT
HETATM    1  C3  UNL     1      -0.550   3.225   7.034  1.00  0.00     0.027 A 
HETATM    2  C4  UNL     1      -1.092   2.333   7.921  1.00  0.00     0.079 A 
HETATM    3  S2  UNL     1       0.292   1.544   8.532  1.00  0.00    -0.064 SA
HETATM    4  C5  UNL     1       1.472   2.383   7.636  1.00  0.00     0.146 A 
HETATM    5  N2  UNL     1       0.759   3.228   6.909  1.00  0.00    -0.339 N 
ATOM      6  H2  UNL     1       1.216   3.871   6.263  1.00  0.00     0.168 HD
ENDROOT
BRANCH   4   7
HETATM    7  N1  UNL     1       2.783   2.235   7.654  1.00  0.00    -0.349 N 
ATOM      8  H1  UNL     1       3.246   1.393   7.311  1.00  0.00     0.163 HD
BRANCH   7   9
HETATM    9  C6  UNL     1       3.517   3.361   8.199  1.00  0.00     0.102 C 
HETATM   10  C7  UNL     1       2.839   3.739   9.505  1.00  0.00     0.056 C 
HETATM   11  C8  UNL     1       4.945   3.044   8.471  1.00  0.00     0.056 C 
HETATM   12 CL1  UNL     1       3.373   4.742   7.053  1.00  0.00    -0.096 Cl
ENDBRANCH   7   9
ENDBRANCH   4   7
BRANCH   1  13
HETATM   13  C2  UNL     1      -1.470   4.152   6.251  1.00  0.00     0.131 C 
BRANCH  13  14
HETATM   14  S1  UNL     1      -3.114   4.165   6.957  1.00  0.00    -0.168 SA
HETATM   15  C1  UNL     1      -4.361   4.367   5.642  1.00  0.00     0.090 C 
ENDBRANCH  13  14
ENDBRANCH   1  13
TORSDOF 4
ENDMDL
