MODEL 1
REMARK VINA RESULT: -8.232526198      0.000      0.000
REMARK  7 active torsions:
REMARK  status: ('A' for Active; 'I' for Inactive)
REMARK    1  A    between atoms: C3_5  and  C4_6 
REMARK       I    between atoms: C4_6  and  N2_8 
REMARK    2  A    between atoms: N2_8  and  C5_10 
REMARK    3  A    between atoms: C5_10  and  C6_11 
REMARK    4  A    between atoms: C6_11  and  S2_12 
REMARK    5  A    between atoms: S2_12  and  N3_15 
REMARK    6  A    between atoms: C13_22  and  S3_23 
REMARK    7  A    between atoms: S3_23  and  N4_26 
ROOT
HETATM    1  N1  UNL     1      63.386  48.009 126.628  1.00  0.00    -0.191 NA
HETATM    2  C1  UNL     1      63.339  48.791 127.481  1.00  0.00     0.108 C 
HETATM    3  C2  UNL     1      63.279  49.759 128.572  1.00  0.00     0.109 A 
HETATM    4  S1  UNL     1      63.326  49.476 130.249  1.00  0.00    -0.072 SA
HETATM    5  C3  UNL     1      63.208  51.089 130.804  1.00  0.00     0.075 A 
HETATM    6  C12 UNL     1      63.134  51.804 129.636  1.00  0.00     0.052 A 
HETATM    7  C13 UNL     1      63.170  51.127 128.487  1.00  0.00     0.109 A 
ENDROOT
BRANCH   7   8
HETATM    8  S3  UNL     1      63.077  51.896 126.883  1.00  0.00     0.266 S 
HETATM    9  O4  UNL     1      62.901  53.358 127.126  1.00  0.00    -0.200 OA
HETATM   10  O5  UNL     1      64.328  51.620 126.102  1.00  0.00    -0.200 OA
BRANCH   8  11
HETATM   11  N4  UNL     1      61.734  51.325 125.982  1.00  0.00    -0.285 N 
HETATM   12  C14 UNL     1      60.627  52.189 126.045  1.00  0.00     0.086 C 
HETATM   13  C15 UNL     1      60.207  52.760 124.698  1.00  0.00     0.119 C 
HETATM   14  S4  UNL     1      59.807  51.323 123.589  1.00  0.00    -0.162 SA
HETATM   15  C16 UNL     1      60.883  49.932 124.206  1.00  0.00     0.095 C 
HETATM   16  C17 UNL     1      62.089  50.693 124.773  1.00  0.00     0.151 C 
ENDBRANCH   8  11
ENDBRANCH   7   8
BRANCH   5  17
HETATM   17  C4  UNL     1      63.190  51.587 132.200  1.00  0.00     0.258 C 
HETATM   18  O1  UNL     1      63.878  52.611 132.442  1.00  0.00    -0.267 OA
HETATM   19  N2  UNL     1      62.416  50.885 133.137  1.00  0.00    -0.355 N 
ATOM     20  H2  UNL     1      61.898  50.062 132.831  1.00  0.00     0.162 HD
BRANCH  19  21
HETATM   21  C5  UNL     1      62.330  51.291 134.519  1.00  0.00     0.139 C 
BRANCH  21  22
HETATM   22  C6  UNL     1      62.674  50.177 135.474  1.00  0.00     0.182 C 
BRANCH  22  23
HETATM   23  S2  UNL     1      61.516  48.869 135.514  1.00  0.00     0.230 S 
HETATM   24  O2  UNL     1      60.737  48.825 134.202  1.00  0.00    -0.206 OA
HETATM   25  O3  UNL     1      62.310  47.563 135.513  1.00  0.00    -0.206 OA
BRANCH  23  26
HETATM   26  N3  UNL     1      60.401  48.872 136.773  1.00  0.00    -0.311 N 
HETATM   27  C7  UNL     1      60.800  49.446 138.010  1.00  0.00     0.135 C 
HETATM   28  C8  UNL     1      60.223  48.534 139.103  1.00  0.00     0.021 C 
HETATM   29  C9  UNL     1      58.805  48.218 138.735  1.00  0.00     0.003 C 
HETATM   30  C10 UNL     1      58.229  49.148 137.695  1.00  0.00     0.021 C 
HETATM   31  C11 UNL     1      59.051  49.167 136.425  1.00  0.00     0.135 C 
ENDBRANCH  23  26
ENDBRANCH  22  23
ENDBRANCH  21  22
ENDBRANCH  19  21
ENDBRANCH   5  17
TORSDOF 7
ENDMDL
MODEL 2
REMARK VINA RESULT: -8.209870150      1.597      1.848
REMARK  7 active torsions:
REMARK  status: ('A' for Active; 'I' for Inactive)
REMARK    1  A    between atoms: C3_5  and  C4_6 
REMARK       I    between atoms: C4_6  and  N2_8 
REMARK    2  A    between atoms: N2_8  and  C5_10 
REMARK    3  A    between atoms: C5_10  and  C6_11 
REMARK    4  A    between atoms: C6_11  and  S2_12 
REMARK    5  A    between atoms: S2_12  and  N3_15 
REMARK    6  A    between atoms: C13_22  and  S3_23 
REMARK    7  A    between atoms: S3_23  and  N4_26 
ROOT
HETATM    1  N1  UNL     1      63.996  47.983 126.919  1.00  0.00    -0.191 NA
HETATM    2  C1  UNL     1      63.707  48.707 127.776  1.00  0.00     0.108 C 
HETATM    3  C2  UNL     1      63.344  49.601 128.871  1.00  0.00     0.109 A 
HETATM    4  S1  UNL     1      63.208  49.251 130.530  1.00  0.00    -0.072 SA
HETATM    5  C3  UNL     1      62.757  50.798 131.102  1.00  0.00     0.075 A 
HETATM    6  C12 UNL     1      62.728  51.547 129.954  1.00  0.00     0.052 A 
HETATM    7  C13 UNL     1      63.029  50.938 128.805  1.00  0.00     0.109 A 
ENDROOT
BRANCH   7   8
HETATM    8  S3  UNL     1      63.033  51.757 127.223  1.00  0.00     0.266 S 
HETATM    9  O4  UNL     1      62.851  53.212 127.502  1.00  0.00    -0.200 OA
HETATM   10  O5  UNL     1      64.324  51.497 126.507  1.00  0.00    -0.200 OA
BRANCH   8  11
HETATM   11  N4  UNL     1      61.740  51.225 126.229  1.00  0.00    -0.285 N 
HETATM   12  C14 UNL     1      60.657  52.120 126.216  1.00  0.00     0.086 C 
HETATM   13  C15 UNL     1      60.349  52.702 124.844  1.00  0.00     0.119 C 
HETATM   14  S4  UNL     1      59.987  51.278 123.707  1.00  0.00    -0.162 SA
HETATM   15  C16 UNL     1      60.977  49.857 124.395  1.00  0.00     0.095 C 
HETATM   16  C17 UNL     1      62.162  50.582 125.047  1.00  0.00     0.151 C 
ENDBRANCH   8  11
ENDBRANCH   7   8
BRANCH   5  17
HETATM   17  C4  UNL     1      62.468  51.221 132.494  1.00  0.00     0.258 C 
HETATM   18  O1  UNL     1      63.345  51.920 133.063  1.00  0.00    -0.267 OA
HETATM   19  N2  UNL     1      61.254  50.813 133.065  1.00  0.00    -0.355 N 
ATOM     20  H2  UNL     1      60.616  50.243 132.511  1.00  0.00     0.162 HD
BRANCH  19  21
HETATM   21  C5  UNL     1      60.879  51.175 134.411  1.00  0.00     0.139 C 
BRANCH  21  22
HETATM   22  C6  UNL     1      60.345  50.007 135.199  1.00  0.00     0.182 C 
BRANCH  22  23
HETATM   23  S2  UNL     1      59.298  50.443 136.528  1.00  0.00     0.230 S 
HETATM   24  O2  UNL     1      58.925  51.920 136.432  1.00  0.00    -0.206 OA
HETATM   25  O3  UNL     1      57.972  49.715 136.316  1.00  0.00    -0.206 OA
BRANCH  23  26
HETATM   26  N3  UNL     1      59.876  50.161 138.082  1.00  0.00    -0.311 N 
HETATM   27  C7  UNL     1      60.729  49.041 138.279  1.00  0.00     0.135 C 
HETATM   28  C8  UNL     1      60.308  48.422 139.621  1.00  0.00     0.021 C 
HETATM   29  C9  UNL     1      60.136  49.538 140.606  1.00  0.00     0.003 C 
HETATM   30  C10 UNL     1      60.782  50.831 140.174  1.00  0.00     0.021 C 
HETATM   31  C11 UNL     1      60.271  51.307 138.832  1.00  0.00     0.135 C 
ENDBRANCH  23  26
ENDBRANCH  22  23
ENDBRANCH  21  22
ENDBRANCH  19  21
ENDBRANCH   5  17
TORSDOF 7
ENDMDL
MODEL 3
REMARK VINA RESULT: -8.202850578      4.828     12.299
REMARK  7 active torsions:
REMARK  status: ('A' for Active; 'I' for Inactive)
REMARK    1  A    between atoms: C3_5  and  C4_6 
REMARK       I    between atoms: C4_6  and  N2_8 
REMARK    2  A    between atoms: N2_8  and  C5_10 
REMARK    3  A    between atoms: C5_10  and  C6_11 
REMARK    4  A    between atoms: C6_11  and  S2_12 
REMARK    5  A    between atoms: S2_12  and  N3_15 
REMARK    6  A    between atoms: C13_22  and  S3_23 
REMARK    7  A    between atoms: S3_23  and  N4_26 
ROOT
HETATM    1  N1  UNL     1      58.442  55.745 141.475  1.00  0.00    -0.191 NA
HETATM    2  C1  UNL     1      58.815  54.896 140.781  1.00  0.00     0.108 C 
HETATM    3  C2  UNL     1      59.278  53.839 139.887  1.00  0.00     0.109 A 
HETATM    4  S1  UNL     1      59.323  53.827 138.187  1.00  0.00    -0.072 SA
HETATM    5  C3  UNL     1      59.981  52.268 137.940  1.00  0.00     0.075 A 
HETATM    6  C12 UNL     1      60.145  51.804 139.219  1.00  0.00     0.052 A 
HETATM    7  C13 UNL     1      59.786  52.606 140.224  1.00  0.00     0.109 A 
ENDROOT
BRANCH   7   8
HETATM    8  S3  UNL     1      59.924  52.160 141.943  1.00  0.00     0.266 S 
HETATM    9  O4  UNL     1      60.440  53.369 142.651  1.00  0.00    -0.200 OA
HETATM   10  O5  UNL     1      58.587  51.742 142.480  1.00  0.00    -0.200 OA
BRANCH   8  11
HETATM   11  N4  UNL     1      61.033  50.873 142.178  1.00  0.00    -0.285 N 
HETATM   12  C14 UNL     1      62.374  51.286 142.094  1.00  0.00     0.086 C 
HETATM   13  C15 UNL     1      63.170  51.077 143.375  1.00  0.00     0.119 C 
HETATM   14  S4  UNL     1      63.105  49.264 143.777  1.00  0.00    -0.162 SA
HETATM   15  C16 UNL     1      61.486  48.676 143.066  1.00  0.00     0.095 C 
HETATM   16  C17 UNL     1      60.623  49.942 143.154  1.00  0.00     0.151 C 
ENDBRANCH   8  11
ENDBRANCH   7   8
BRANCH   5  17
HETATM   17  C4  UNL     1      60.295  51.590 136.659  1.00  0.00     0.258 C 
HETATM   18  O1  UNL     1      59.407  51.628 135.769  1.00  0.00    -0.267 OA
HETATM   19  N2  UNL     1      61.544  50.963 136.538  1.00  0.00    -0.355 N 
ATOM     20  H2  UNL     1      62.188  50.991 137.327  1.00  0.00     0.162 HD
BRANCH  19  21
HETATM   21  C5  UNL     1      61.945  50.279 135.332  1.00  0.00     0.139 C 
BRANCH  21  22
HETATM   22  C6  UNL     1      62.750  51.157 134.407  1.00  0.00     0.182 C 
BRANCH  22  23
HETATM   23  S2  UNL     1      62.252  51.099 132.733  1.00  0.00     0.230 S 
HETATM   24  O2  UNL     1      62.303  49.661 132.225  1.00  0.00    -0.206 OA
HETATM   25  O3  UNL     1      60.765  51.450 132.693  1.00  0.00    -0.206 OA
BRANCH  23  26
HETATM   26  N3  UNL     1      63.106  52.057 131.647  1.00  0.00    -0.311 N 
HETATM   27  C7  UNL     1      64.481  52.298 131.914  1.00  0.00     0.135 C 
HETATM   28  C8  UNL     1      64.729  53.770 131.551  1.00  0.00     0.021 C 
HETATM   29  C9  UNL     1      64.064  54.035 130.234  1.00  0.00     0.003 C 
HETATM   30  C10 UNL     1      63.718  52.782 129.468  1.00  0.00     0.021 C 
HETATM   31  C11 UNL     1      62.829  51.851 130.264  1.00  0.00     0.135 C 
ENDBRANCH  23  26
ENDBRANCH  22  23
ENDBRANCH  21  22
ENDBRANCH  19  21
ENDBRANCH   5  17
TORSDOF 7
ENDMDL
MODEL 4
REMARK VINA RESULT: -8.147014007      4.144     11.797
REMARK  7 active torsions:
REMARK  status: ('A' for Active; 'I' for Inactive)
REMARK    1  A    between atoms: C3_5  and  C4_6 
REMARK       I    between atoms: C4_6  and  N2_8 
REMARK    2  A    between atoms: N2_8  and  C5_10 
REMARK    3  A    between atoms: C5_10  and  C6_11 
REMARK    4  A    between atoms: C6_11  and  S2_12 
REMARK    5  A    between atoms: S2_12  and  N3_15 
REMARK    6  A    between atoms: C13_22  and  S3_23 
REMARK    7  A    between atoms: S3_23  and  N4_26 
ROOT
HETATM    1  N1  UNL     1      59.617  53.196 140.436  1.00  0.00    -0.191 NA
HETATM    2  C1  UNL     1      59.906  52.303 139.757  1.00  0.00     0.108 C 
HETATM    3  C2  UNL     1      60.272  51.192 138.884  1.00  0.00     0.109 A 
HETATM    4  S1  UNL     1      60.697  51.229 137.237  1.00  0.00    -0.072 SA
HETATM    5  C3  UNL     1      60.970  49.560 136.986  1.00  0.00     0.075 A 
HETATM    6  C12 UNL     1      60.714  49.023 138.221  1.00  0.00     0.052 A 
HETATM    7  C13 UNL     1      60.355  49.856 139.200  1.00  0.00     0.109 A 
ENDROOT
BRANCH   7   8
HETATM    8  S3  UNL     1      59.979  49.329 140.859  1.00  0.00     0.266 S 
HETATM    9  O4  UNL     1      58.566  49.733 141.119  1.00  0.00    -0.200 OA
HETATM   10  O5  UNL     1      60.154  47.844 140.984  1.00  0.00    -0.200 OA
BRANCH   8  11
HETATM   11  N4  UNL     1      60.989  50.097 142.013  1.00  0.00    -0.285 N 
HETATM   12  C14 UNL     1      60.858  49.552 143.302  1.00  0.00     0.086 C 
HETATM   13  C15 UNL     1      62.137  48.937 143.850  1.00  0.00     0.119 C 
HETATM   14  S4  UNL     1      63.428  50.273 143.873  1.00  0.00    -0.162 SA
HETATM   15  C16 UNL     1      62.953  51.417 142.482  1.00  0.00     0.095 C 
HETATM   16  C17 UNL     1      62.254  50.459 141.508  1.00  0.00     0.151 C 
ENDBRANCH   8  11
ENDBRANCH   7   8
BRANCH   5  17
HETATM   17  C4  UNL     1      61.381  48.868 135.740  1.00  0.00     0.258 C 
HETATM   18  O1  UNL     1      62.195  47.919 135.866  1.00  0.00    -0.267 OA
HETATM   19  N2  UNL     1      60.837  49.320 134.529  1.00  0.00    -0.355 N 
ATOM     20  H2  UNL     1      60.185  50.104 134.543  1.00  0.00     0.162 HD
BRANCH  19  21
HETATM   21  C5  UNL     1      61.170  48.712 133.263  1.00  0.00     0.139 C 
BRANCH  21  22
HETATM   22  C6  UNL     1      62.297  49.422 132.557  1.00  0.00     0.182 C 
BRANCH  22  23
HETATM   23  S2  UNL     1      62.286  51.160 132.733  1.00  0.00     0.230 S 
HETATM   24  O2  UNL     1      60.848  51.668 132.788  1.00  0.00    -0.206 OA
HETATM   25  O3  UNL     1      62.840  51.475 134.122  1.00  0.00    -0.206 OA
BRANCH  23  26
HETATM   26  N3  UNL     1      63.102  52.054 131.565  1.00  0.00    -0.311 N 
HETATM   27  C7  UNL     1      64.455  52.402 131.822  1.00  0.00     0.135 C 
HETATM   28  C8  UNL     1      64.623  53.842 131.314  1.00  0.00     0.021 C 
HETATM   29  C9  UNL     1      63.967  53.932 129.969  1.00  0.00     0.003 C 
HETATM   30  C10 UNL     1      63.708  52.590 129.331  1.00  0.00     0.021 C 
HETATM   31  C11 UNL     1      62.862  51.692 130.207  1.00  0.00     0.135 C 
ENDBRANCH  23  26
ENDBRANCH  22  23
ENDBRANCH  21  22
ENDBRANCH  19  21
ENDBRANCH   5  17
TORSDOF 7
ENDMDL
MODEL 5
REMARK VINA RESULT: -8.141000997      4.305     12.213
REMARK  7 active torsions:
REMARK  status: ('A' for Active; 'I' for Inactive)
REMARK    1  A    between atoms: C3_5  and  C4_6 
REMARK       I    between atoms: C4_6  and  N2_8 
REMARK    2  A    between atoms: N2_8  and  C5_10 
REMARK    3  A    between atoms: C5_10  and  C6_11 
REMARK    4  A    between atoms: C6_11  and  S2_12 
REMARK    5  A    between atoms: S2_12  and  N3_15 
REMARK    6  A    between atoms: C13_22  and  S3_23 
REMARK    7  A    between atoms: S3_23  and  N4_26 
ROOT
HETATM    1  N1  UNL     1      59.638  47.301 141.534  1.00  0.00    -0.191 NA
HETATM    2  C1  UNL     1      59.898  48.071 140.708  1.00  0.00     0.108 C 
HETATM    3  C2  UNL     1      60.224  49.023 139.651  1.00  0.00     0.109 A 
HETATM    4  S1  UNL     1      60.262  48.773 137.969  1.00  0.00    -0.072 SA
HETATM    5  C3  UNL     1      60.720  50.342 137.467  1.00  0.00     0.075 A 
HETATM    6  C12 UNL     1      60.829  51.018 138.655  1.00  0.00     0.052 A 
HETATM    7  C13 UNL     1      60.576  50.346 139.780  1.00  0.00     0.109 A 
ENDROOT
BRANCH   7   8
HETATM    8  S3  UNL     1      60.678  51.066 141.406  1.00  0.00     0.266 S 
HETATM    9  O4  UNL     1      60.790  52.541 141.207  1.00  0.00    -0.200 OA
HETATM   10  O5  UNL     1      59.459  50.715 142.207  1.00  0.00    -0.200 OA
BRANCH   8  11
HETATM   11  N4  UNL     1      62.065  50.521 142.256  1.00  0.00    -0.285 N 
HETATM   12  C14 UNL     1      63.126  51.440 142.216  1.00  0.00     0.086 C 
HETATM   13  C15 UNL     1      63.544  51.968 143.582  1.00  0.00     0.119 C 
HETATM   14  S4  UNL     1      64.035  50.502 144.613  1.00  0.00    -0.162 SA
HETATM   15  C16 UNL     1      63.016  49.090 143.949  1.00  0.00     0.095 C 
HETATM   16  C17 UNL     1      61.763  49.815 143.439  1.00  0.00     0.151 C 
ENDBRANCH   8  11
ENDBRANCH   7   8
BRANCH   5  17
HETATM   17  C4  UNL     1      60.943  50.844 136.090  1.00  0.00     0.258 C 
HETATM   18  O1  UNL     1      59.962  51.390 135.524  1.00  0.00    -0.267 OA
HETATM   19  N2  UNL     1      62.217  50.672 135.528  1.00  0.00    -0.355 N 
ATOM     20  H2  UNL     1      62.940  50.211 136.078  1.00  0.00     0.162 HD
BRANCH  19  21
HETATM   21  C5  UNL     1      62.535  51.128 134.196  1.00  0.00     0.139 C 
BRANCH  21  22
HETATM   22  C6  UNL     1      63.275  50.092 133.389  1.00  0.00     0.182 C 
BRANCH  22  23
HETATM   23  S2  UNL     1      63.194  50.324 131.659  1.00  0.00     0.230 S 
HETATM   24  O2  UNL     1      62.494  49.135 131.007  1.00  0.00    -0.206 OA
HETATM   25  O3  UNL     1      62.244  51.494 131.405  1.00  0.00    -0.206 OA
BRANCH  23  26
HETATM   26  N3  UNL     1      64.649  50.569 130.851  1.00  0.00    -0.311 N 
HETATM   27  C7  UNL     1      64.628  51.366 129.674  1.00  0.00     0.135 C 
HETATM   28  C8  UNL     1      65.580  50.678 128.683  1.00  0.00     0.021 C 
HETATM   29  C9  UNL     1      66.824  50.304 129.429  1.00  0.00     0.003 C 
HETATM   30  C10 UNL     1      66.979  51.022 130.747  1.00  0.00     0.021 C 
HETATM   31  C11 UNL     1      65.797  50.797 131.664  1.00  0.00     0.135 C 
ENDBRANCH  23  26
ENDBRANCH  22  23
ENDBRANCH  21  22
ENDBRANCH  19  21
ENDBRANCH   5  17
TORSDOF 7
ENDMDL
