MODEL 1
REMARK VINA RESULT: -6.916451343      0.000      0.000
REMARK  20 active torsions:
REMARK  status: ('A' for Active; 'I' for Inactive)
REMARK    1  A    between atoms: N1_2  and  C2_4 
REMARK    2  A    between atoms: C3_7  and  N3_8 
REMARK    3  A    between atoms: N3_8  and  C4_10 
REMARK       I    between atoms: N4_13  and  C7_15 
REMARK    4  A    between atoms: C7_15  and  C8_17 
REMARK    5  A    between atoms: C8_17  and  O2_18 
REMARK    6  A    between atoms: C9_22  and  N6_23 
REMARK    7  A    between atoms: N6_23  and  C10_25 
REMARK    8  A    between atoms: C14_31  and  N8_32 
REMARK    9  A    between atoms: C15_41  and  N12_42 
REMARK   10  A    between atoms: N12_42  and  C16_44 
REMARK   11  A    between atoms: C16_44  and  C17_45 
REMARK   12  A    between atoms: C16_44  and  C21_55 
REMARK   13  A    between atoms: C17_45  and  C18_46 
REMARK   14  A    between atoms: C20_49  and  N13_50 
REMARK       I    between atoms: C21_55  and  N15_57 
REMARK   15  A    between atoms: N15_57  and  C22_58 
REMARK   16  A    between atoms: C22_58  and  C23_59 
REMARK   17  A    between atoms: C23_59  and  C24_60 
REMARK   18  A    between atoms: C24_60  and  C25_61 
REMARK   19  A    between atoms: C25_61  and  C26_62 
REMARK   20  A    between atoms: C26_62  and  N16_63 
ROOT
HETATM    1  C2  UNL     1     -30.773  11.687 -16.160  1.00  0.00     0.706 A 
HETATM    2  N2  UNL     1     -30.474  12.996 -16.133  1.00  0.00    -0.021 N 
ATOM      3  H2  UNL     1     -30.919  13.632 -16.795  1.00  0.00     0.203 HD
HETATM    4  C3  UNL     1     -29.591  13.472 -15.238  1.00  0.00     0.713 A 
HETATM    5  N11 UNL     1     -29.014  12.619 -14.375  1.00  0.00    -0.021 N 
ATOM      6  H11 UNL     1     -28.344  12.984 -13.698  1.00  0.00     0.203 HD
HETATM    7  C15 UNL     1     -29.286  11.299 -14.371  1.00  0.00     0.708 A 
HETATM    8  N17 UNL     1     -30.171  10.844 -15.272  1.00  0.00    -0.022 N 
ATOM      9  H17 UNL     1     -30.397   9.850 -15.293  1.00  0.00     0.203 HD
ENDROOT
BRANCH   4  10
HETATM   10  N3  UNL     1     -29.252  14.707 -15.196  1.00  0.00    -0.175 N 
ATOM     11  H3  UNL     1     -28.352  14.971 -15.598  1.00  0.00     0.186 HD
BRANCH  10  12
HETATM   12  C4  UNL     1     -30.048  15.725 -14.625  1.00  0.00     0.140 A 
HETATM   13  C5  UNL     1     -30.044  15.903 -13.263  1.00  0.00     0.098 A 
HETATM   14  C6  UNL     1     -30.814  16.891 -12.697  1.00  0.00     0.127 A 
HETATM   15  N4  UNL     1     -30.875  17.124 -11.445  1.00  0.00    -0.311 N 
HETATM   16  N5  UNL     1     -31.572  17.681 -13.516  1.00  0.00    -0.176 N 
HETATM   17  C7  UNL     1     -30.128  16.354 -10.525  1.00  0.00     0.246 C 
ATOM     18  H4  UNL     1     -31.471  17.877 -11.103  1.00  0.00     0.170 HD
HETATM   19  O1  UNL     1     -29.019  16.770 -10.106  1.00  0.00    -0.271 OA
HETATM   20  C9  UNL     1     -31.579  17.512 -14.841  1.00  0.00     0.687 A 
ATOM     21  H5  UNL     1     -32.145  18.418 -13.106  1.00  0.00     0.186 HD
HETATM   22  N10 UNL     1     -30.822  16.545 -15.369  1.00  0.00    -0.176 N 
ATOM     23  H10 UNL     1     -30.830  16.420 -16.381  1.00  0.00     0.186 HD
BRANCH  17  24
HETATM   24  C8  UNL     1     -30.610  15.039 -10.016  1.00  0.00     0.267 C 
BRANCH  24  25
HETATM   25  O2  UNL     1     -30.378  14.943  -8.651  1.00  0.00    -0.392 OA
ATOM     26  H2  UNL     1     -30.171  14.046  -8.417  1.00  0.00     0.210 HD
ENDBRANCH  24  25
ENDBRANCH  17  24
BRANCH  20  27
HETATM   27  N6  UNL     1     -32.364  18.326 -15.657  1.00  0.00    -0.176 N 
ATOM     28  H6  UNL     1     -31.886  19.057 -16.184  1.00  0.00     0.186 HD
BRANCH  27  29
HETATM   29  C10 UNL     1     -33.638  18.235 -15.803  1.00  0.00     0.138 A 
HETATM   30  C11 UNL     1     -34.350  17.058 -15.687  1.00  0.00     0.074 A 
HETATM   31  C12 UNL     1     -35.703  17.067 -15.867  1.00  0.00     0.026 A 
HETATM   32  C13 UNL     1     -36.513  15.826 -15.750  1.00  0.00     0.069 C 
HETATM   33  N7  UNL     1     -36.313  18.248 -16.157  1.00  0.00    -0.196 N 
HETATM   34  C14 UNL     1     -35.654  19.405 -16.278  1.00  0.00     0.677 A 
ATOM     35  H7  UNL     1     -37.324  18.251 -16.290  1.00  0.00     0.184 HD
HETATM   36  N9  UNL     1     -34.305  19.361 -16.092  1.00  0.00    -0.176 N 
ATOM     37  H9  UNL     1     -33.776  20.229 -16.179  1.00  0.00     0.186 HD
BRANCH  34  38
HETATM   38  N8  UNL     1     -36.254  20.533 -16.562  1.00  0.00    -0.234 N 
ATOM     39  H82 UNL     1     -37.165  20.538 -17.020  1.00  0.00     0.174 HD
ATOM     40  H81 UNL     1     -35.848  21.443 -16.341  1.00  0.00     0.174 HD
ENDBRANCH  34  38
ENDBRANCH  27  29
ENDBRANCH  20  27
ENDBRANCH  10  12
ENDBRANCH   4  10
BRANCH   1  41
HETATM   41  N1  UNL     1     -31.614  11.207 -17.005  1.00  0.00    -0.229 N 
HETATM   42  C1  UNL     1     -31.982  12.022 -18.141  1.00  0.00     0.165 C 
ATOM     43  H1  UNL     1     -32.012  10.276 -16.878  1.00  0.00     0.177 HD
ENDBRANCH   1  41
BRANCH   7  44
HETATM   44  N12 UNL     1     -28.727  10.481 -13.552  1.00  0.00    -0.210 N 
ATOM     45  H12 UNL     1     -29.184   9.584 -13.384  1.00  0.00     0.178 HD
BRANCH  44  46
HETATM   46  C16 UNL     1     -27.476  10.758 -12.847  1.00  0.00     0.212 C 
BRANCH  46  47
HETATM   47  C17 UNL     1     -26.315  10.395 -13.680  1.00  0.00     0.094 C 
BRANCH  47  48
HETATM   48  C18 UNL     1     -24.996  10.573 -12.935  1.00  0.00     0.020 A 
HETATM   49  C19 UNL     1     -23.984   9.652 -12.964  1.00  0.00     0.078 A 
HETATM   50  S1  UNL     1     -22.769  10.412 -12.038  1.00  0.00    -0.064 SA
HETATM   51  C20 UNL     1     -23.604  11.841 -11.667  1.00  0.00     0.142 A 
HETATM   52  N14 UNL     1     -24.771  11.689 -12.259  1.00  0.00    -0.340 N 
ATOM     53  H14 UNL     1     -25.486  12.415 -12.199  1.00  0.00     0.167 HD
BRANCH  51  54
HETATM   54  N13 UNL     1     -23.166  12.855 -10.956  1.00  0.00    -0.380 N 
ATOM     55 2H13 UNL     1     -22.309  13.396 -11.072  1.00  0.00     0.158 HD
ATOM     56 1H13 UNL     1     -23.617  13.282 -10.146  1.00  0.00     0.158 HD
ENDBRANCH  51  54
ENDBRANCH  47  48
ENDBRANCH  46  47
BRANCH  46  57
HETATM   57  C21 UNL     1     -27.509   9.639 -11.749  1.00  0.00     0.314 C 
HETATM   58  O3  UNL     1     -27.188  10.164 -10.631  1.00  0.00    -0.255 OA
HETATM   59  N15 UNL     1     -27.835   8.383 -12.068  1.00  0.00    -0.386 NA
BRANCH  59  60
HETATM   60  C22 UNL     1     -28.177   7.063 -12.401  1.00  0.00     0.159 C 
BRANCH  60  61
HETATM   61  C23 UNL     1     -27.015   6.141 -12.476  1.00  0.00     0.060 C 
BRANCH  61  62
HETATM   62  C24 UNL     1     -26.538   5.544 -11.232  1.00  0.00     0.008 C 
BRANCH  62  63
HETATM   63  C25 UNL     1     -25.150   5.649 -10.761  1.00  0.00     0.027 C 
BRANCH  63  64
HETATM   64  C26 UNL     1     -24.551   6.962 -10.445  1.00  0.00     0.229 C 
BRANCH  64  65
HETATM   65  N16 UNL     1     -25.476   7.786  -9.700  1.00  0.00    -0.079 N 
ATOM     66 3H16 UNL     1     -26.066   8.343 -10.319  1.00  0.00     0.274 HD
ATOM     67 2H16 UNL     1     -26.204   7.227  -9.254  1.00  0.00     0.274 HD
ATOM     68 1H16 UNL     1     -24.982   8.369  -9.025  1.00  0.00     0.274 HD
ENDBRANCH  64  65
ENDBRANCH  63  64
ENDBRANCH  62  63
ENDBRANCH  61  62
ENDBRANCH  60  61
ENDBRANCH  59  60
ENDBRANCH  46  57
ENDBRANCH  44  46
ENDBRANCH   7  44
TORSDOF 20
ENDMDL
MODEL 2
REMARK VINA RESULT: -6.884692838      5.717      9.639
REMARK  20 active torsions:
REMARK  status: ('A' for Active; 'I' for Inactive)
REMARK    1  A    between atoms: N1_2  and  C2_4 
REMARK    2  A    between atoms: C3_7  and  N3_8 
REMARK    3  A    between atoms: N3_8  and  C4_10 
REMARK       I    between atoms: N4_13  and  C7_15 
REMARK    4  A    between atoms: C7_15  and  C8_17 
REMARK    5  A    between atoms: C8_17  and  O2_18 
REMARK    6  A    between atoms: C9_22  and  N6_23 
REMARK    7  A    between atoms: N6_23  and  C10_25 
REMARK    8  A    between atoms: C14_31  and  N8_32 
REMARK    9  A    between atoms: C15_41  and  N12_42 
REMARK   10  A    between atoms: N12_42  and  C16_44 
REMARK   11  A    between atoms: C16_44  and  C17_45 
REMARK   12  A    between atoms: C16_44  and  C21_55 
REMARK   13  A    between atoms: C17_45  and  C18_46 
REMARK   14  A    between atoms: C20_49  and  N13_50 
REMARK       I    between atoms: C21_55  and  N15_57 
REMARK   15  A    between atoms: N15_57  and  C22_58 
REMARK   16  A    between atoms: C22_58  and  C23_59 
REMARK   17  A    between atoms: C23_59  and  C24_60 
REMARK   18  A    between atoms: C24_60  and  C25_61 
REMARK   19  A    between atoms: C25_61  and  C26_62 
REMARK   20  A    between atoms: C26_62  and  N16_63 
ROOT
HETATM    1  C2  UNL     1     -35.668  16.514 -16.362  1.00  0.00     0.706 A 
HETATM    2  N2  UNL     1     -36.416  17.393 -17.048  1.00  0.00    -0.021 N 
ATOM      3  H2  UNL     1     -37.353  17.131 -17.355  1.00  0.00     0.203 HD
HETATM    4  C3  UNL     1     -35.936  18.615 -17.332  1.00  0.00     0.713 A 
HETATM    5  N11 UNL     1     -34.699  18.942 -16.922  1.00  0.00    -0.021 N 
ATOM      6  H11 UNL     1     -34.339  19.872 -17.141  1.00  0.00     0.203 HD
HETATM    7  C15 UNL     1     -33.917  18.088 -16.232  1.00  0.00     0.708 A 
HETATM    8  N17 UNL     1     -34.415  16.873 -15.958  1.00  0.00    -0.022 N 
ATOM      9  H17 UNL     1     -33.846  16.205 -15.438  1.00  0.00     0.203 HD
ENDROOT
BRANCH   4  10
HETATM   10  N3  UNL     1     -36.602  19.476 -18.012  1.00  0.00    -0.175 N 
ATOM     11  H3  UNL     1     -37.263  20.072 -17.514  1.00  0.00     0.186 HD
BRANCH  10  12
HETATM   12  C4  UNL     1     -36.474  19.647 -19.408  1.00  0.00     0.140 A 
HETATM   13  C5  UNL     1     -37.604  19.701 -20.188  1.00  0.00     0.098 A 
HETATM   14  C6  UNL     1     -37.491  19.869 -21.548  1.00  0.00     0.127 A 
HETATM   15  N4  UNL     1     -38.483  19.925 -22.348  1.00  0.00    -0.311 N 
HETATM   16  N5  UNL     1     -36.243  19.982 -22.093  1.00  0.00    -0.176 N 
HETATM   17  C7  UNL     1     -39.809  19.813 -21.872  1.00  0.00     0.246 C 
ATOM     18  H4  UNL     1     -38.317  20.052 -23.346  1.00  0.00     0.170 HD
HETATM   19  O1  UNL     1     -40.489  20.846 -21.649  1.00  0.00    -0.271 OA
HETATM   20  C9  UNL     1     -35.142  19.931 -21.338  1.00  0.00     0.687 A 
ATOM     21  H5  UNL     1     -36.149  20.109 -23.101  1.00  0.00     0.186 HD
HETATM   22  N10 UNL     1     -35.275  19.766 -20.019  1.00  0.00    -0.176 N 
ATOM     23  H10 UNL     1     -34.432  19.729 -19.446  1.00  0.00     0.186 HD
BRANCH  17  24
HETATM   24  C8  UNL     1     -40.452  18.493 -21.617  1.00  0.00     0.267 C 
BRANCH  24  25
HETATM   25  O2  UNL     1     -41.640  18.398 -22.329  1.00  0.00    -0.392 OA
ATOM     26  H2  UNL     1     -42.314  18.920 -21.911  1.00  0.00     0.210 HD
ENDBRANCH  24  25
ENDBRANCH  17  24
BRANCH  20  27
HETATM   27  N6  UNL     1     -33.878  20.042 -21.917  1.00  0.00    -0.176 N 
ATOM     28  H6  UNL     1     -33.543  19.248 -22.461  1.00  0.00     0.186 HD
BRANCH  27  29
HETATM   29  C10 UNL     1     -33.098  21.060 -21.824  1.00  0.00     0.138 A 
HETATM   30  C11 UNL     1     -33.448  22.253 -21.223  1.00  0.00     0.074 A 
HETATM   31  C12 UNL     1     -32.546  23.277 -21.181  1.00  0.00     0.026 A 
HETATM   32  C13 UNL     1     -32.876  24.579 -20.544  1.00  0.00     0.069 C 
HETATM   33  N7  UNL     1     -31.320  23.087 -21.738  1.00  0.00    -0.196 N 
HETATM   34  C14 UNL     1     -30.949  21.947 -22.327  1.00  0.00     0.677 A 
ATOM     35  H7  UNL     1     -30.648  23.855 -21.704  1.00  0.00     0.184 HD
HETATM   36  N9  UNL     1     -31.872  20.945 -22.352  1.00  0.00    -0.176 N 
ATOM     37  H9  UNL     1     -31.617  20.062 -22.796  1.00  0.00     0.186 HD
BRANCH  34  38
HETATM   38  N8  UNL     1     -29.766  21.780 -22.862  1.00  0.00    -0.234 N 
ATOM     39  H82 UNL     1     -28.926  22.097 -22.379  1.00  0.00     0.174 HD
ATOM     40  H81 UNL     1     -29.630  21.332 -23.768  1.00  0.00     0.174 HD
ENDBRANCH  34  38
ENDBRANCH  27  29
ENDBRANCH  20  27
ENDBRANCH  10  12
ENDBRANCH   4  10
BRANCH   1  41
HETATM   41  N1  UNL     1     -36.104  15.338 -16.077  1.00  0.00    -0.229 N 
HETATM   42  C1  UNL     1     -36.401  15.037 -14.695  1.00  0.00     0.165 C 
ATOM     43  H1  UNL     1     -36.236  14.637 -16.806  1.00  0.00     0.177 HD
ENDBRANCH   1  41
BRANCH   7  44
HETATM   44  N12 UNL     1     -32.730  18.397 -15.848  1.00  0.00    -0.210 N 
ATOM     45  H12 UNL     1     -32.395  19.341 -16.039  1.00  0.00     0.178 HD
BRANCH  44  46
HETATM   46  C16 UNL     1     -31.830  17.476 -15.153  1.00  0.00     0.212 C 
BRANCH  46  47
HETATM   47  C17 UNL     1     -31.255  18.113 -13.953  1.00  0.00     0.094 C 
BRANCH  47  48
HETATM   48  C18 UNL     1     -31.198  17.155 -12.767  1.00  0.00     0.020 A 
HETATM   49  C19 UNL     1     -31.379  17.552 -11.470  1.00  0.00     0.078 A 
HETATM   50  S1  UNL     1     -31.285  16.076 -10.619  1.00  0.00    -0.064 SA
HETATM   51  C20 UNL     1     -31.022  15.048 -11.943  1.00  0.00     0.142 A 
HETATM   52  N14 UNL     1     -31.016  15.862 -12.979  1.00  0.00    -0.340 N 
ATOM     53  H14 UNL     1     -30.875  15.503 -13.924  1.00  0.00     0.167 HD
BRANCH  51  54
HETATM   54  N13 UNL     1     -30.869  13.743 -11.918  1.00  0.00    -0.380 N 
ATOM     55 2H13 UNL     1     -30.341  13.148 -12.557  1.00  0.00     0.158 HD
ATOM     56 1H13 UNL     1     -31.263  13.089 -11.242  1.00  0.00     0.158 HD
ENDBRANCH  51  54
ENDBRANCH  47  48
ENDBRANCH  46  47
BRANCH  46  57
HETATM   57  C21 UNL     1     -30.630  17.430 -16.161  1.00  0.00     0.314 C 
HETATM   58  O3  UNL     1     -30.690  18.466 -16.904  1.00  0.00    -0.255 OA
HETATM   59  N15 UNL     1     -29.761  16.415 -16.138  1.00  0.00    -0.386 NA
BRANCH  59  60
HETATM   60  C22 UNL     1     -28.848  15.349 -16.116  1.00  0.00     0.159 C 
BRANCH  60  61
HETATM   61  C23 UNL     1     -29.365  14.128 -15.446  1.00  0.00     0.060 C 
BRANCH  61  62
HETATM   62  C24 UNL     1     -28.484  13.442 -14.506  1.00  0.00     0.008 C 
BRANCH  62  63
HETATM   63  C25 UNL     1     -28.530  11.994 -14.259  1.00  0.00     0.027 C 
BRANCH  63  64
HETATM   64  C26 UNL     1     -27.313  11.249 -13.873  1.00  0.00     0.229 C 
BRANCH  64  65
HETATM   65  N16 UNL     1     -26.191  12.144 -13.703  1.00  0.00    -0.079 N 
ATOM     66 3H16 UNL     1     -26.490  13.066 -13.384  1.00  0.00     0.274 HD
ATOM     67 2H16 UNL     1     -25.618  11.881 -12.901  1.00  0.00     0.274 HD
ATOM     68 1H16 UNL     1     -25.639  12.202 -14.558  1.00  0.00     0.274 HD
ENDBRANCH  64  65
ENDBRANCH  63  64
ENDBRANCH  62  63
ENDBRANCH  61  62
ENDBRANCH  60  61
ENDBRANCH  59  60
ENDBRANCH  46  57
ENDBRANCH  44  46
ENDBRANCH   7  44
TORSDOF 20
ENDMDL
MODEL 3
REMARK VINA RESULT: -6.881221770      6.100      9.917
REMARK  20 active torsions:
REMARK  status: ('A' for Active; 'I' for Inactive)
REMARK    1  A    between atoms: N1_2  and  C2_4 
REMARK    2  A    between atoms: C3_7  and  N3_8 
REMARK    3  A    between atoms: N3_8  and  C4_10 
REMARK       I    between atoms: N4_13  and  C7_15 
REMARK    4  A    between atoms: C7_15  and  C8_17 
REMARK    5  A    between atoms: C8_17  and  O2_18 
REMARK    6  A    between atoms: C9_22  and  N6_23 
REMARK    7  A    between atoms: N6_23  and  C10_25 
REMARK    8  A    between atoms: C14_31  and  N8_32 
REMARK    9  A    between atoms: C15_41  and  N12_42 
REMARK   10  A    between atoms: N12_42  and  C16_44 
REMARK   11  A    between atoms: C16_44  and  C17_45 
REMARK   12  A    between atoms: C16_44  and  C21_55 
REMARK   13  A    between atoms: C17_45  and  C18_46 
REMARK   14  A    between atoms: C20_49  and  N13_50 
REMARK       I    between atoms: C21_55  and  N15_57 
REMARK   15  A    between atoms: N15_57  and  C22_58 
REMARK   16  A    between atoms: C22_58  and  C23_59 
REMARK   17  A    between atoms: C23_59  and  C24_60 
REMARK   18  A    between atoms: C24_60  and  C25_61 
REMARK   19  A    between atoms: C25_61  and  C26_62 
REMARK   20  A    between atoms: C26_62  and  N16_63 
ROOT
HETATM    1  C2  UNL     1     -33.684  16.830 -17.438  1.00  0.00     0.706 A 
HETATM    2  N2  UNL     1     -33.606  18.117 -17.813  1.00  0.00    -0.021 N 
ATOM      3  H2  UNL     1     -34.406  18.564 -18.260  1.00  0.00     0.203 HD
HETATM    4  C3  UNL     1     -32.479  18.817 -17.604  1.00  0.00     0.713 A 
HETATM    5  N11 UNL     1     -31.433  18.211 -17.016  1.00  0.00    -0.021 N 
ATOM      6  H11 UNL     1     -30.579  18.746 -16.859  1.00  0.00     0.203 HD
HETATM    7  C15 UNL     1     -31.471  16.921 -16.626  1.00  0.00     0.708 A 
HETATM    8  N17 UNL     1     -32.607  16.239 -16.844  1.00  0.00    -0.022 N 
ATOM      9  H17 UNL     1     -32.665  15.261 -16.560  1.00  0.00     0.203 HD
ENDROOT
BRANCH   4  10
HETATM   10  N3  UNL     1     -32.347  20.038 -17.973  1.00  0.00    -0.175 N 
ATOM     11  H3  UNL     1     -32.700  20.768 -17.353  1.00  0.00     0.186 HD
BRANCH  10  12
HETATM   12  C4  UNL     1     -31.743  20.434 -19.187  1.00  0.00     0.140 A 
HETATM   13  C5  UNL     1     -32.493  21.091 -20.132  1.00  0.00     0.098 A 
HETATM   14  C6  UNL     1     -31.915  21.481 -21.317  1.00  0.00     0.127 A 
HETATM   15  N4  UNL     1     -32.535  22.090 -22.251  1.00  0.00    -0.311 N 
HETATM   16  N5  UNL     1     -30.593  21.204 -21.524  1.00  0.00    -0.176 N 
HETATM   17  C7  UNL     1     -33.905  22.413 -22.124  1.00  0.00     0.246 C 
ATOM     18  H4  UNL     1     -32.035  22.348 -23.101  1.00  0.00     0.170 HD
HETATM   19  O1  UNL     1     -34.251  23.559 -21.741  1.00  0.00    -0.271 OA
HETATM   20  C9  UNL     1     -29.860  20.566 -20.607  1.00  0.00     0.687 A 
ATOM     21  H5  UNL     1     -30.154  21.492 -22.399  1.00  0.00     0.186 HD
HETATM   22  N10 UNL     1     -30.443  20.195 -19.464  1.00  0.00    -0.176 N 
ATOM     23  H10 UNL     1     -29.879  19.709 -18.766  1.00  0.00     0.186 HD
BRANCH  17  24
HETATM   24  C8  UNL     1     -34.984  21.433 -22.433  1.00  0.00     0.267 C 
BRANCH  24  25
HETATM   25  O2  UNL     1     -36.183  22.098 -22.649  1.00  0.00    -0.392 OA
ATOM     26  H2  UNL     1     -36.907  21.483 -22.618  1.00  0.00     0.210 HD
ENDBRANCH  24  25
ENDBRANCH  17  24
BRANCH  20  27
HETATM   27  N6  UNL     1     -28.514  20.289 -20.842  1.00  0.00    -0.176 N 
ATOM     28  H6  UNL     1     -28.298  19.452 -21.384  1.00  0.00     0.186 HD
BRANCH  27  29
HETATM   29  C10 UNL     1     -27.520  20.996 -20.435  1.00  0.00     0.138 A 
HETATM   30  C11 UNL     1     -27.644  22.229 -19.825  1.00  0.00     0.074 A 
HETATM   31  C12 UNL     1     -26.524  22.904 -19.433  1.00  0.00     0.026 A 
HETATM   32  C13 UNL     1     -26.606  24.232 -18.771  1.00  0.00     0.069 C 
HETATM   33  N7  UNL     1     -25.309  22.334 -19.659  1.00  0.00    -0.196 N 
HETATM   34  C14 UNL     1     -25.153  21.144 -20.247  1.00  0.00     0.677 A 
ATOM     35  H7  UNL     1     -24.474  22.841 -19.364  1.00  0.00     0.184 HD
HETATM   36  N9  UNL     1     -26.291  20.497 -20.625  1.00  0.00    -0.176 N 
ATOM     37  H9  UNL     1     -26.203  19.586 -21.077  1.00  0.00     0.186 HD
BRANCH  34  38
HETATM   38  N8  UNL     1     -23.978  20.610 -20.461  1.00  0.00    -0.234 N 
ATOM     39  H82 UNL     1     -23.850  19.902 -21.184  1.00  0.00     0.174 HD
ATOM     40  H81 UNL     1     -23.149  20.872 -19.927  1.00  0.00     0.174 HD
ENDBRANCH  34  38
ENDBRANCH  27  29
ENDBRANCH  20  27
ENDBRANCH  10  12
ENDBRANCH   4  10
BRANCH   1  41
HETATM   41  N1  UNL     1     -34.751  16.138 -17.627  1.00  0.00    -0.229 N 
HETATM   42  C1  UNL     1     -35.791  16.200 -16.625  1.00  0.00     0.165 C 
ATOM     43  H1  UNL     1     -34.860  15.561 -18.461  1.00  0.00     0.177 HD
ENDBRANCH   1  41
BRANCH   7  44
HETATM   44  N12 UNL     1     -30.469  16.337 -16.072  1.00  0.00    -0.210 N 
ATOM     45  H12 UNL     1     -29.553  16.779 -16.154  1.00  0.00     0.178 HD
BRANCH  44  46
HETATM   46  C16 UNL     1     -30.562  15.079 -15.333  1.00  0.00     0.212 C 
BRANCH  46  47
HETATM   47  C17 UNL     1     -29.557  15.031 -14.254  1.00  0.00     0.094 C 
BRANCH  47  48
HETATM   48  C18 UNL     1     -30.165  15.337 -12.889  1.00  0.00     0.020 A 
HETATM   49  C19 UNL     1     -30.263  16.601 -12.375  1.00  0.00     0.078 A 
HETATM   50  S1  UNL     1     -31.077  16.335 -10.899  1.00  0.00    -0.064 SA
HETATM   51  C20 UNL     1     -31.246  14.651 -11.015  1.00  0.00     0.142 A 
HETATM   52  N14 UNL     1     -30.680  14.355 -12.167  1.00  0.00    -0.340 N 
ATOM     53  H14 UNL     1     -30.639  13.389 -12.496  1.00  0.00     0.167 HD
BRANCH  51  54
HETATM   54  N13 UNL     1     -31.819  13.849 -10.147  1.00  0.00    -0.380 N 
ATOM     55 2H13 UNL     1     -32.273  12.949 -10.308  1.00  0.00     0.158 HD
ATOM     56 1H13 UNL     1     -31.915  13.994  -9.142  1.00  0.00     0.158 HD
ENDBRANCH  51  54
ENDBRANCH  47  48
ENDBRANCH  46  47
BRANCH  46  57
HETATM   57  C21 UNL     1     -30.007  14.074 -16.402  1.00  0.00     0.314 C 
HETATM   58  O3  UNL     1     -28.732  14.090 -16.343  1.00  0.00    -0.255 OA
HETATM   59  N15 UNL     1     -30.842  13.381 -17.181  1.00  0.00    -0.386 NA
BRANCH  59  60
HETATM   60  C22 UNL     1     -31.718  12.653 -18.002  1.00  0.00     0.159 C 
BRANCH  60  61
HETATM   61  C23 UNL     1     -31.715  13.088 -19.422  1.00  0.00     0.060 C 
BRANCH  61  62
HETATM   62  C24 UNL     1     -32.825  13.917 -19.882  1.00  0.00     0.008 C 
BRANCH  62  63
HETATM   63  C25 UNL     1     -32.783  14.721 -21.111  1.00  0.00     0.027 C 
BRANCH  63  64
HETATM   64  C26 UNL     1     -32.353  14.127 -22.394  1.00  0.00     0.229 C 
BRANCH  64  65
HETATM   65  N16 UNL     1     -30.933  14.302 -22.595  1.00  0.00    -0.079 N 
ATOM     66 3H16 UNL     1     -30.393  13.919 -21.818  1.00  0.00     0.274 HD
ATOM     67 2H16 UNL     1     -30.580  13.700 -23.339  1.00  0.00     0.274 HD
ATOM     68 1H16 UNL     1     -30.706  15.282 -22.763  1.00  0.00     0.274 HD
ENDBRANCH  64  65
ENDBRANCH  63  64
ENDBRANCH  62  63
ENDBRANCH  61  62
ENDBRANCH  60  61
ENDBRANCH  59  60
ENDBRANCH  46  57
ENDBRANCH  44  46
ENDBRANCH   7  44
TORSDOF 20
ENDMDL
MODEL 4
REMARK VINA RESULT: -6.860900907      3.516     10.118
REMARK  20 active torsions:
REMARK  status: ('A' for Active; 'I' for Inactive)
REMARK    1  A    between atoms: N1_2  and  C2_4 
REMARK    2  A    between atoms: C3_7  and  N3_8 
REMARK    3  A    between atoms: N3_8  and  C4_10 
REMARK       I    between atoms: N4_13  and  C7_15 
REMARK    4  A    between atoms: C7_15  and  C8_17 
REMARK    5  A    between atoms: C8_17  and  O2_18 
REMARK    6  A    between atoms: C9_22  and  N6_23 
REMARK    7  A    between atoms: N6_23  and  C10_25 
REMARK    8  A    between atoms: C14_31  and  N8_32 
REMARK    9  A    between atoms: C15_41  and  N12_42 
REMARK   10  A    between atoms: N12_42  and  C16_44 
REMARK   11  A    between atoms: C16_44  and  C17_45 
REMARK   12  A    between atoms: C16_44  and  C21_55 
REMARK   13  A    between atoms: C17_45  and  C18_46 
REMARK   14  A    between atoms: C20_49  and  N13_50 
REMARK       I    between atoms: C21_55  and  N15_57 
REMARK   15  A    between atoms: N15_57  and  C22_58 
REMARK   16  A    between atoms: C22_58  and  C23_59 
REMARK   17  A    between atoms: C23_59  and  C24_60 
REMARK   18  A    between atoms: C24_60  and  C25_61 
REMARK   19  A    between atoms: C25_61  and  C26_62 
REMARK   20  A    between atoms: C26_62  and  N16_63 
ROOT
HETATM    1  C2  UNL     1     -32.588  15.281 -17.180  1.00  0.00     0.706 A 
HETATM    2  N2  UNL     1     -31.431  15.109 -16.520  1.00  0.00    -0.021 N 
ATOM      3  H2  UNL     1     -30.758  14.416 -16.848  1.00  0.00     0.203 HD
HETATM    4  C3  UNL     1     -31.155  15.845 -15.430  1.00  0.00     0.713 A 
HETATM    5  N11 UNL     1     -32.053  16.752 -15.011  1.00  0.00    -0.021 N 
ATOM      6  H11 UNL     1     -31.840  17.309 -14.183  1.00  0.00     0.203 HD
HETATM    7  C15 UNL     1     -33.226  16.955 -15.645  1.00  0.00     0.708 A 
HETATM    8  N17 UNL     1     -33.482  16.210 -16.731  1.00  0.00    -0.022 N 
ATOM      9  H17 UNL     1     -34.361  16.340 -17.231  1.00  0.00     0.203 HD
ENDROOT
BRANCH   4  10
HETATM   10  N3  UNL     1     -30.078  15.693 -14.751  1.00  0.00    -0.175 N 
ATOM     11  H3  UNL     1     -29.406  16.461 -14.739  1.00  0.00     0.186 HD
BRANCH  10  12
HETATM   12  C4  UNL     1     -29.766  14.527 -14.017  1.00  0.00     0.140 A 
HETATM   13  C5  UNL     1     -30.510  14.207 -12.908  1.00  0.00     0.098 A 
HETATM   14  C6  UNL     1     -30.216  13.074 -12.187  1.00  0.00     0.127 A 
HETATM   15  N4  UNL     1     -30.849  12.703 -11.144  1.00  0.00    -0.311 N 
HETATM   16  N5  UNL     1     -29.179  12.285 -12.601  1.00  0.00    -0.176 N 
HETATM   17  C7  UNL     1     -31.932  13.461 -10.643  1.00  0.00     0.246 C 
ATOM     18  H4  UNL     1     -30.570  11.848 -10.664  1.00  0.00     0.170 HD
HETATM   19  O1  UNL     1     -33.113  13.147 -10.940  1.00  0.00    -0.271 OA
HETATM   20  C9  UNL     1     -28.453  12.592 -13.679  1.00  0.00     0.687 A 
ATOM     21  H5  UNL     1     -28.954  11.441 -12.074  1.00  0.00     0.186 HD
HETATM   22  N10 UNL     1     -28.756  13.699 -14.364  1.00  0.00    -0.176 N 
ATOM     23  H10 UNL     1     -28.200  13.929 -15.187  1.00  0.00     0.186 HD
BRANCH  17  24
HETATM   24  C8  UNL     1     -31.733  14.641  -9.757  1.00  0.00     0.267 C 
BRANCH  24  25
HETATM   25  O2  UNL     1     -30.959  14.288  -8.660  1.00  0.00    -0.392 OA
ATOM     26  H2  UNL     1     -31.455  14.406  -7.859  1.00  0.00     0.210 HD
ENDBRANCH  24  25
ENDBRANCH  17  24
BRANCH  20  27
HETATM   27  N6  UNL     1     -27.396  11.776 -14.079  1.00  0.00    -0.176 N 
ATOM     28  H6  UNL     1     -27.288  11.610 -15.080  1.00  0.00     0.186 HD
BRANCH  27  29
HETATM   29  C10 UNL     1     -26.544  11.213 -13.297  1.00  0.00     0.138 A 
HETATM   30  C11 UNL     1     -26.566   9.873 -12.963  1.00  0.00     0.074 A 
HETATM   31  C12 UNL     1     -25.617   9.373 -12.117  1.00  0.00     0.026 A 
HETATM   32  C13 UNL     1     -25.597   7.939 -11.731  1.00  0.00     0.069 C 
HETATM   33  N7  UNL     1     -24.673  10.221 -11.626  1.00  0.00    -0.196 N 
HETATM   34  C14 UNL     1     -24.625  11.522 -11.927  1.00  0.00     0.677 A 
ATOM     35  H7  UNL     1     -23.966   9.844 -10.994  1.00  0.00     0.184 HD
HETATM   36  N9  UNL     1     -25.585  11.988 -12.773  1.00  0.00    -0.176 N 
ATOM     37  H9  UNL     1     -25.573  12.978 -13.021  1.00  0.00     0.186 HD
BRANCH  34  38
HETATM   38  N8  UNL     1     -23.712  12.325 -11.443  1.00  0.00    -0.234 N 
ATOM     39  H82 UNL     1     -23.815  12.730 -10.512  1.00  0.00     0.174 HD
ATOM     40  H81 UNL     1     -22.870  12.578 -11.960  1.00  0.00     0.174 HD
ENDBRANCH  34  38
ENDBRANCH  27  29
ENDBRANCH  20  27
ENDBRANCH  10  12
ENDBRANCH   4  10
BRANCH   1  41
HETATM   41  N1  UNL     1     -32.875  14.591 -18.225  1.00  0.00    -0.229 N 
HETATM   42  C1  UNL     1     -32.242  13.302 -18.387  1.00  0.00     0.165 C 
ATOM     43  H1  UNL     1     -33.533  14.942 -18.921  1.00  0.00     0.177 HD
ENDBRANCH   1  41
BRANCH   7  44
HETATM   44  N12 UNL     1     -34.090  17.815 -15.239  1.00  0.00    -0.210 N 
ATOM     45  H12 UNL     1     -33.820  18.447 -14.484  1.00  0.00     0.178 HD
BRANCH  44  46
HETATM   46  C16 UNL     1     -35.437  17.945 -15.793  1.00  0.00     0.212 C 
BRANCH  46  47
HETATM   47  C17 UNL     1     -35.829  19.364 -15.890  1.00  0.00     0.094 C 
BRANCH  47  48
HETATM   48  C18 UNL     1     -34.992  20.121 -16.916  1.00  0.00     0.020 A 
HETATM   49  C19 UNL     1     -34.296  21.263 -16.625  1.00  0.00     0.078 A 
HETATM   50  S1  UNL     1     -33.510  21.601 -18.102  1.00  0.00    -0.064 SA
HETATM   51  C20 UNL     1     -34.104  20.288 -18.998  1.00  0.00     0.142 A 
HETATM   52  N14 UNL     1     -34.873  19.644 -18.145  1.00  0.00    -0.340 N 
ATOM     53  H14 UNL     1     -35.367  18.796 -18.424  1.00  0.00     0.167 HD
BRANCH  51  54
HETATM   54  N13 UNL     1     -33.838  19.997 -20.252  1.00  0.00    -0.380 N 
ATOM     55 2H13 UNL     1     -32.971  19.645 -20.657  1.00  0.00     0.158 HD
ATOM     56 1H13 UNL     1     -34.466  20.080 -21.051  1.00  0.00     0.158 HD
ENDBRANCH  51  54
ENDBRANCH  47  48
ENDBRANCH  46  47
BRANCH  46  57
HETATM   57  C21 UNL     1     -36.295  17.404 -14.598  1.00  0.00     0.314 C 
HETATM   58  O3  UNL     1     -36.789  18.402 -13.974  1.00  0.00    -0.255 OA
HETATM   59  N15 UNL     1     -36.406  16.090 -14.380  1.00  0.00    -0.386 NA
BRANCH  59  60
HETATM   60  C22 UNL     1     -36.523  14.711 -14.149  1.00  0.00     0.159 C 
BRANCH  60  61
HETATM   61  C23 UNL     1     -35.530  13.890 -14.889  1.00  0.00     0.060 C 
BRANCH  61  62
HETATM   62  C24 UNL     1     -34.231  13.664 -14.262  1.00  0.00     0.008 C 
BRANCH  62  63
HETATM   63  C25 UNL     1     -33.332  12.563 -14.633  1.00  0.00     0.027 C 
BRANCH  63  64
HETATM   64  C26 UNL     1     -33.650  11.166 -14.270  1.00  0.00     0.229 C 
BRANCH  64  65
HETATM   65  N16 UNL     1     -33.088  10.825 -12.983  1.00  0.00    -0.079 N 
ATOM     66 3H16 UNL     1     -32.902  11.656 -12.422  1.00  0.00     0.274 HD
ATOM     67 2H16 UNL     1     -33.777  10.380 -12.377  1.00  0.00     0.274 HD
ATOM     68 1H16 UNL     1     -32.253  10.249 -13.091  1.00  0.00     0.274 HD
ENDBRANCH  64  65
ENDBRANCH  63  64
ENDBRANCH  62  63
ENDBRANCH  61  62
ENDBRANCH  60  61
ENDBRANCH  59  60
ENDBRANCH  46  57
ENDBRANCH  44  46
ENDBRANCH   7  44
TORSDOF 20
ENDMDL
MODEL 5
REMARK VINA RESULT: -6.842036383      3.777      9.786
REMARK  20 active torsions:
REMARK  status: ('A' for Active; 'I' for Inactive)
REMARK    1  A    between atoms: N1_2  and  C2_4 
REMARK    2  A    between atoms: C3_7  and  N3_8 
REMARK    3  A    between atoms: N3_8  and  C4_10 
REMARK       I    between atoms: N4_13  and  C7_15 
REMARK    4  A    between atoms: C7_15  and  C8_17 
REMARK    5  A    between atoms: C8_17  and  O2_18 
REMARK    6  A    between atoms: C9_22  and  N6_23 
REMARK    7  A    between atoms: N6_23  and  C10_25 
REMARK    8  A    between atoms: C14_31  and  N8_32 
REMARK    9  A    between atoms: C15_41  and  N12_42 
REMARK   10  A    between atoms: N12_42  and  C16_44 
REMARK   11  A    between atoms: C16_44  and  C17_45 
REMARK   12  A    between atoms: C16_44  and  C21_55 
REMARK   13  A    between atoms: C17_45  and  C18_46 
REMARK   14  A    between atoms: C20_49  and  N13_50 
REMARK       I    between atoms: C21_55  and  N15_57 
REMARK   15  A    between atoms: N15_57  and  C22_58 
REMARK   16  A    between atoms: C22_58  and  C23_59 
REMARK   17  A    between atoms: C23_59  and  C24_60 
REMARK   18  A    between atoms: C24_60  and  C25_61 
REMARK   19  A    between atoms: C25_61  and  C26_62 
REMARK   20  A    between atoms: C26_62  and  N16_63 
ROOT
HETATM    1  C2  UNL     1     -28.702  13.437 -14.813  1.00  0.00     0.706 A 
HETATM    2  N2  UNL     1     -29.472  12.878 -15.761  1.00  0.00    -0.021 N 
ATOM      3  H2  UNL     1     -29.338  11.898 -16.010  1.00  0.00     0.203 HD
HETATM    4  C3  UNL     1     -30.419  13.603 -16.381  1.00  0.00     0.713 A 
HETATM    5  N11 UNL     1     -30.580  14.893 -16.041  1.00  0.00    -0.021 N 
ATOM      6  H11 UNL     1     -31.300  15.439 -16.515  1.00  0.00     0.203 HD
HETATM    7  C15 UNL     1     -29.827  15.491 -15.096  1.00  0.00     0.708 A 
HETATM    8  N17 UNL     1     -28.888  14.750 -14.488  1.00  0.00    -0.022 N 
ATOM      9  H17 UNL     1     -28.302  15.175 -13.770  1.00  0.00     0.203 HD
ENDROOT
BRANCH   4  10
HETATM   10  N3  UNL     1     -31.156  13.120 -17.313  1.00  0.00    -0.175 N 
ATOM     11  H3  UNL     1     -31.366  13.714 -18.114  1.00  0.00     0.186 HD
BRANCH  10  12
HETATM   12  C4  UNL     1     -31.694  11.814 -17.295  1.00  0.00     0.140 A 
HETATM   13  C5  UNL     1     -32.490  11.425 -16.246  1.00  0.00     0.098 A 
HETATM   14  C6  UNL     1     -33.020  10.156 -16.220  1.00  0.00     0.127 A 
HETATM   15  N4  UNL     1     -33.765   9.709 -15.286  1.00  0.00    -0.311 N 
HETATM   16  N5  UNL     1     -32.737   9.307 -17.253  1.00  0.00    -0.176 N 
HETATM   17  C7  UNL     1     -34.105  10.518 -14.177  1.00  0.00     0.246 C 
ATOM     18  H4  UNL     1     -34.120   8.755 -15.340  1.00  0.00     0.170 HD
HETATM   19  O1  UNL     1     -35.198  11.137 -14.159  1.00  0.00    -0.271 OA
HETATM   20  C9  UNL     1     -31.963   9.681 -18.275  1.00  0.00     0.687 A 
ATOM     21  H5  UNL     1     -33.128   8.364 -17.243  1.00  0.00     0.186 HD
HETATM   22  N10 UNL     1     -31.459  10.918 -18.279  1.00  0.00    -0.176 N 
ATOM     23  H10 UNL     1     -30.869  11.200 -19.062  1.00  0.00     0.186 HD
BRANCH  17  24
HETATM   24  C8  UNL     1     -33.204  10.671 -13.000  1.00  0.00     0.267 C 
BRANCH  24  25
HETATM   25  O2  UNL     1     -33.021  12.016 -12.713  1.00  0.00    -0.392 OA
ATOM     26  H2  UNL     1     -32.400  12.398 -13.323  1.00  0.00     0.210 HD
ENDBRANCH  24  25
ENDBRANCH  17  24
BRANCH  20  27
HETATM   27  N6  UNL     1     -31.683   8.795 -19.315  1.00  0.00    -0.176 N 
ATOM     28  H6  UNL     1     -31.946   9.085 -20.257  1.00  0.00     0.186 HD
BRANCH  27  29
HETATM   29  C10 UNL     1     -31.123   7.645 -19.190  1.00  0.00     0.138 A 
HETATM   30  C11 UNL     1     -29.883   7.444 -18.617  1.00  0.00     0.074 A 
HETATM   31  C12 UNL     1     -29.372   6.180 -18.537  1.00  0.00     0.026 A 
HETATM   32  C13 UNL     1     -28.044   5.914 -17.927  1.00  0.00     0.069 C 
HETATM   33  N7  UNL     1     -30.110   5.149 -19.030  1.00  0.00    -0.196 N 
HETATM   34  C14 UNL     1     -31.312   5.308 -19.592  1.00  0.00     0.677 A 
ATOM     35  H7  UNL     1     -29.726   4.206 -18.968  1.00  0.00     0.184 HD
HETATM   36  N9  UNL     1     -31.792   6.581 -19.656  1.00  0.00    -0.176 N 
ATOM     37  H9  UNL     1     -32.708   6.733 -20.080  1.00  0.00     0.186 HD
BRANCH  34  38
HETATM   38  N8  UNL     1     -32.008   4.306 -20.065  1.00  0.00    -0.234 N 
ATOM     39  H82 UNL     1     -32.426   3.618 -19.438  1.00  0.00     0.174 HD
ATOM     40  H81 UNL     1     -32.167   4.169 -21.064  1.00  0.00     0.174 HD
ENDBRANCH  34  38
ENDBRANCH  27  29
ENDBRANCH  20  27
ENDBRANCH  10  12
ENDBRANCH   4  10
BRANCH   1  41
HETATM   41  N1  UNL     1     -27.790  12.766 -14.205  1.00  0.00    -0.229 N 
HETATM   42  C1  UNL     1     -28.066  11.387 -13.870  1.00  0.00     0.165 C 
ATOM     43  H1  UNL     1     -26.896  13.194 -13.964  1.00  0.00     0.177 HD
ENDBRANCH   1  41
BRANCH   7  44
HETATM   44  N12 UNL     1     -29.975  16.728 -14.777  1.00  0.00    -0.210 N 
ATOM     45  H12 UNL     1     -29.687  17.435 -15.454  1.00  0.00     0.178 HD
BRANCH  44  46
HETATM   46  C16 UNL     1     -30.529  17.182 -13.502  1.00  0.00     0.212 C 
BRANCH  46  47
HETATM   47  C17 UNL     1     -31.659  16.327 -13.090  1.00  0.00     0.094 C 
BRANCH  47  48
HETATM   48  C18 UNL     1     -31.427  15.690 -11.723  1.00  0.00     0.020 A 
HETATM   49  C19 UNL     1     -30.798  16.332 -10.691  1.00  0.00     0.078 A 
HETATM   50  S1  UNL     1     -30.899  15.185  -9.431  1.00  0.00    -0.064 SA
HETATM   51  C20 UNL     1     -31.724  13.967 -10.276  1.00  0.00     0.142 A 
HETATM   52  N14 UNL     1     -31.892  14.475 -11.480  1.00  0.00    -0.340 N 
ATOM     53  H14 UNL     1     -32.370  13.944 -12.208  1.00  0.00     0.167 HD
BRANCH  51  54
HETATM   54  N13 UNL     1     -32.103  12.797  -9.814  1.00  0.00    -0.380 N 
ATOM     55 2H13 UNL     1     -31.577  12.131  -9.249  1.00  0.00     0.158 HD
ATOM     56 1H13 UNL     1     -33.007  12.344  -9.949  1.00  0.00     0.158 HD
ENDBRANCH  51  54
ENDBRANCH  47  48
ENDBRANCH  46  47
BRANCH  46  57
HETATM   57  C21 UNL     1     -31.219  18.518 -13.948  1.00  0.00     0.314 C 
HETATM   58  O3  UNL     1     -30.730  19.472 -13.253  1.00  0.00    -0.255 OA
HETATM   59  N15 UNL     1     -32.149  18.517 -14.906  1.00  0.00    -0.386 NA
BRANCH  59  60
HETATM   60  C22 UNL     1     -33.127  18.518 -15.913  1.00  0.00     0.159 C 
BRANCH  60  61
HETATM   61  C23 UNL     1     -33.957  17.286 -15.947  1.00  0.00     0.060 C 
BRANCH  61  62
HETATM   62  C24 UNL     1     -35.287  17.345 -15.348  1.00  0.00     0.008 C 
BRANCH  62  63
HETATM   63  C25 UNL     1     -35.820  16.309 -14.453  1.00  0.00     0.027 C 
BRANCH  63  64
HETATM   64  C26 UNL     1     -35.632  14.874 -14.752  1.00  0.00     0.229 C 
BRANCH  64  65
HETATM   65  N16 UNL     1     -34.604  14.301 -13.914  1.00  0.00    -0.079 N 
ATOM     66 3H16 UNL     1     -34.425  14.878 -13.091  1.00  0.00     0.274 HD
ATOM     67 2H16 UNL     1     -34.929  13.457 -13.443  1.00  0.00     0.274 HD
ATOM     68 1H16 UNL     1     -33.752  14.131 -14.447  1.00  0.00     0.274 HD
ENDBRANCH  64  65
ENDBRANCH  63  64
ENDBRANCH  62  63
ENDBRANCH  61  62
ENDBRANCH  60  61
ENDBRANCH  59  60
ENDBRANCH  46  57
ENDBRANCH  44  46
ENDBRANCH   7  44
TORSDOF 20
ENDMDL
