MODEL 1
REMARK VINA RESULT: -8.067323538      0.000      0.000
REMARK  9 active torsions:
REMARK  status: ('A' for Active; 'I' for Inactive)
REMARK    1  A    between atoms: N1_1  and  C1_4 
REMARK    2  A    between atoms: C4_10  and  C5_11 
REMARK    3  A    between atoms: C5_11  and  C6_12 
REMARK    4  A    between atoms: C6_12  and  C7_13 
REMARK    5  A    between atoms: C7_13  and  N4_14 
REMARK    6  A    between atoms: C9_16  and  C10_17 
REMARK    7  A    between atoms: C10_17  and  N5_18 
REMARK    8  A    between atoms: C10_17  and  O1_22 
REMARK    9  A    between atoms: C11_30  and  C12_31 
REMARK       I    between atoms: C12_31  and  N9_33 
ROOT
HETATM    1  C1  UNL     1     -30.775   7.999 -28.835  1.00  0.00     0.129 A 
HETATM    2  N2  UNL     1     -31.077   8.527 -30.030  1.00  0.00    -0.349 N 
ATOM      3  H2  UNL     1     -30.377   8.482 -30.771  1.00  0.00     0.167 HD
HETATM    4  C2  UNL     1     -32.251   9.111 -30.298  1.00  0.00     0.107 A 
HETATM    5  C3  UNL     1     -33.170   9.157 -29.282  1.00  0.00     0.116 A 
HETATM    6  N3  UNL     1     -32.915   8.641 -28.063  1.00  0.00    -0.305 N 
HETATM    7  C4  UNL     1     -33.671   8.586 -26.948  1.00  0.00     0.088 A 
HETATM    8  N8  UNL     1     -32.940   7.968 -26.025  1.00  0.00    -0.339 N 
ATOM      9  H8  UNL     1     -33.252   7.779 -25.072  1.00  0.00     0.167 HD
HETATM   10  C11 UNL     1     -31.709   7.618 -26.522  1.00  0.00     0.133 A 
HETATM   11  C14 UNL     1     -31.702   8.049 -27.818  1.00  0.00     0.116 A 
ENDROOT
BRANCH   7  12
HETATM   12  C5  UNL     1     -35.067   9.129 -26.818  1.00  0.00     0.079 C 
BRANCH  12  13
HETATM   13  C6  UNL     1     -35.137   9.836 -25.483  1.00  0.00     0.029 C 
BRANCH  13  14
HETATM   14  C7  UNL     1     -35.982   9.064 -24.490  1.00  0.00     0.150 C 
BRANCH  14  15
HETATM   15  N4  UNL     1     -35.395   9.065 -23.168  1.00  0.00    -0.287 N 
HETATM   16  C8  UNL     1     -35.914   9.480 -22.016  1.00  0.00     0.142 A 
HETATM   17  C9  UNL     1     -34.968   9.275 -21.043  1.00  0.00     0.099 A 
HETATM   18  N6  UNL     1     -33.881   8.731 -21.638  1.00  0.00    -0.285 N 
HETATM   19  N7  UNL     1     -34.179   8.621 -22.920  1.00  0.00    -0.241 N 
ATOM     20  H6  UNL     1     -33.007   8.460 -21.187  1.00  0.00     0.188 HD
ATOM     21  H7  UNL     1     -33.549   8.241 -23.626  1.00  0.00     0.208 HD
BRANCH  17  22
HETATM   22  C10 UNL     1     -35.083   9.578 -19.607  1.00  0.00     0.370 C 
BRANCH  22  23
HETATM   23  N5  UNL     1     -35.730  10.879 -19.424  1.00  0.00    -0.047 N 
ATOM     24  H53 UNL     1     -35.378  11.371 -18.603  1.00  0.00     0.277 HD
ATOM     25  H52 UNL     1     -35.443  11.553 -20.134  1.00  0.00     0.277 HD
ATOM     26  H51 UNL     1     -36.743  10.761 -19.395  1.00  0.00     0.277 HD
ENDBRANCH  22  23
BRANCH  22  27
HETATM   27  O1  UNL     1     -33.809   9.593 -19.054  1.00  0.00    -0.365 OA
ATOM     28  H1  UNL     1     -33.302  10.276 -19.479  1.00  0.00     0.212 HD
ENDBRANCH  22  27
ENDBRANCH  17  22
ENDBRANCH  14  15
ENDBRANCH  13  14
ENDBRANCH  12  13
ENDBRANCH   7  12
BRANCH  10  29
HETATM   29  C12 UNL     1     -30.680   6.935 -25.779  1.00  0.00     0.277 C 
HETATM   30  O2  UNL     1     -29.495   6.791 -26.106  1.00  0.00    -0.266 OA
HETATM   31  N9  UNL     1     -31.027   6.335 -24.497  1.00  0.00    -0.291 N 
HETATM   32  C13 UNL     1     -31.216   5.038 -24.500  1.00  0.00     0.212 C 
ATOM     33  H9  UNL     1     -31.118   6.892 -23.648  1.00  0.00     0.172 HD
HETATM   34  N10 UNL     1     -31.122   4.149 -25.603  1.00  0.00    -0.256 N 
HETATM   35  N13 UNL     1     -31.561   4.222 -23.389  1.00  0.00    -0.256 N 
HETATM   36  N11 UNL     1     -31.597   2.895 -25.210  1.00  0.00    -0.006 NA
ATOM     37  H10 UNL     1     -30.766   4.385 -26.529  1.00  0.00     0.187 HD
HETATM   38  N12 UNL     1     -31.703   2.905 -23.837  1.00  0.00    -0.006 NA
ATOM     39  H13 UNL     1     -31.683   4.542 -22.428  1.00  0.00     0.187 HD
ENDBRANCH  10  29
BRANCH   1  40
HETATM   40  N1  UNL     1     -29.625   7.470 -28.700  1.00  0.00    -0.384 N 
ATOM     41  H12 UNL     1     -28.900   7.525 -29.416  1.00  0.00     0.157 HD
ATOM     42  H11 UNL     1     -29.435   6.972 -27.831  1.00  0.00     0.157 HD
ENDBRANCH   1  40
TORSDOF 9
ENDMDL
MODEL 2
REMARK VINA RESULT: -7.999596017      4.538      9.196
REMARK  9 active torsions:
REMARK  status: ('A' for Active; 'I' for Inactive)
REMARK    1  A    between atoms: N1_1  and  C1_4 
REMARK    2  A    between atoms: C4_10  and  C5_11 
REMARK    3  A    between atoms: C5_11  and  C6_12 
REMARK    4  A    between atoms: C6_12  and  C7_13 
REMARK    5  A    between atoms: C7_13  and  N4_14 
REMARK    6  A    between atoms: C9_16  and  C10_17 
REMARK    7  A    between atoms: C10_17  and  N5_18 
REMARK    8  A    between atoms: C10_17  and  O1_22 
REMARK    9  A    between atoms: C11_30  and  C12_31 
REMARK       I    between atoms: C12_31  and  N9_33 
ROOT
HETATM    1  C1  UNL     1     -30.853   8.239 -28.129  1.00  0.00     0.129 A 
HETATM    2  N2  UNL     1     -31.419   9.227 -28.837  1.00  0.00    -0.349 N 
ATOM      3  H2  UNL     1     -31.427  10.166 -28.439  1.00  0.00     0.167 HD
HETATM    4  C2  UNL     1     -31.974   9.042 -30.041  1.00  0.00     0.107 A 
HETATM    5  C3  UNL     1     -31.949   7.768 -30.549  1.00  0.00     0.116 A 
HETATM    6  N3  UNL     1     -31.392   6.741 -29.876  1.00  0.00    -0.305 N 
HETATM    7  C4  UNL     1     -31.267   5.437 -30.196  1.00  0.00     0.088 A 
HETATM    8  N8  UNL     1     -30.636   4.858 -29.179  1.00  0.00    -0.339 N 
ATOM      9  H8  UNL     1     -30.398   3.866 -29.136  1.00  0.00     0.167 HD
HETATM   10  C11 UNL     1     -30.347   5.768 -28.193  1.00  0.00     0.133 A 
HETATM   11  C14 UNL     1     -30.830   6.962 -28.645  1.00  0.00     0.116 A 
ENDROOT
BRANCH   7  12
HETATM   12  C5  UNL     1     -31.758   4.804 -31.468  1.00  0.00     0.079 C 
BRANCH  12  13
HETATM   13  C6  UNL     1     -30.573   4.099 -32.090  1.00  0.00     0.029 C 
BRANCH  13  14
HETATM   14  C7  UNL     1     -30.026   4.871 -33.273  1.00  0.00     0.150 C 
BRANCH  14  15
HETATM   15  N4  UNL     1     -28.580   4.886 -33.284  1.00  0.00    -0.287 N 
HETATM   16  C8  UNL     1     -27.745   4.902 -34.319  1.00  0.00     0.142 A 
HETATM   17  C9  UNL     1     -26.468   4.911 -33.816  1.00  0.00     0.099 A 
HETATM   18  N6  UNL     1     -26.561   4.900 -32.465  1.00  0.00    -0.285 N 
HETATM   19  N7  UNL     1     -27.851   4.885 -32.185  1.00  0.00    -0.241 N 
ATOM     20  H6  UNL     1     -25.789   4.903 -31.798  1.00  0.00     0.188 HD
ATOM     21  H7  UNL     1     -28.234   4.874 -31.239  1.00  0.00     0.208 HD
BRANCH  17  22
HETATM   22  C10 UNL     1     -25.208   4.929 -34.576  1.00  0.00     0.370 C 
BRANCH  22  23
HETATM   23  N5  UNL     1     -24.526   6.209 -34.377  1.00  0.00    -0.047 N 
ATOM     24  H53 UNL     1     -24.104   6.279 -33.451  1.00  0.00     0.277 HD
ATOM     25  H52 UNL     1     -23.674   6.280 -34.933  1.00  0.00     0.277 HD
ATOM     26  H51 UNL     1     -25.170   6.978 -34.563  1.00  0.00     0.277 HD
ENDBRANCH  22  23
BRANCH  22  27
HETATM   27  O1  UNL     1     -25.499   4.744 -35.922  1.00  0.00    -0.365 OA
ATOM     28  H1  UNL     1     -25.221   5.516 -36.401  1.00  0.00     0.212 HD
ENDBRANCH  22  27
ENDBRANCH  17  22
ENDBRANCH  14  15
ENDBRANCH  13  14
ENDBRANCH  12  13
ENDBRANCH   7  12
BRANCH  10  29
HETATM   29  C12 UNL     1     -29.668   5.463 -26.958  1.00  0.00     0.277 C 
HETATM   30  O2  UNL     1     -28.518   5.028 -26.827  1.00  0.00    -0.266 OA
HETATM   31  N9  UNL     1     -30.376   5.679 -25.702  1.00  0.00    -0.291 N 
HETATM   32  C13 UNL     1     -30.877   4.611 -25.132  1.00  0.00     0.212 C 
ATOM     33  H9  UNL     1     -30.476   6.607 -25.292  1.00  0.00     0.172 HD
HETATM   34  N10 UNL     1     -30.811   3.269 -25.592  1.00  0.00    -0.256 N 
HETATM   35  N13 UNL     1     -31.606   4.554 -23.913  1.00  0.00    -0.256 N 
HETATM   36  N11 UNL     1     -31.644   2.480 -24.794  1.00  0.00    -0.006 NA
ATOM     37  H10 UNL     1     -30.249   2.935 -26.374  1.00  0.00     0.187 HD
HETATM   38  N12 UNL     1     -31.988   3.228 -23.690  1.00  0.00    -0.006 NA
ATOM     39  H13 UNL     1     -31.814   5.345 -23.305  1.00  0.00     0.187 HD
ENDBRANCH  10  29
BRANCH   1  40
HETATM   40  N1  UNL     1     -30.356   8.538 -26.996  1.00  0.00    -0.384 N 
ATOM     41  H12 UNL     1     -30.710   9.301 -26.418  1.00  0.00     0.157 HD
ATOM     42  H11 UNL     1     -29.569   7.981 -26.665  1.00  0.00     0.157 HD
ENDBRANCH   1  40
TORSDOF 9
ENDMDL
MODEL 3
REMARK VINA RESULT: -7.991581590      5.672     10.918
REMARK  9 active torsions:
REMARK  status: ('A' for Active; 'I' for Inactive)
REMARK    1  A    between atoms: N1_1  and  C1_4 
REMARK    2  A    between atoms: C4_10  and  C5_11 
REMARK    3  A    between atoms: C5_11  and  C6_12 
REMARK    4  A    between atoms: C6_12  and  C7_13 
REMARK    5  A    between atoms: C7_13  and  N4_14 
REMARK    6  A    between atoms: C9_16  and  C10_17 
REMARK    7  A    between atoms: C10_17  and  N5_18 
REMARK    8  A    between atoms: C10_17  and  O1_22 
REMARK    9  A    between atoms: C11_30  and  C12_31 
REMARK       I    between atoms: C12_31  and  N9_33 
ROOT
HETATM    1  C1  UNL     1     -32.167   5.778 -29.551  1.00  0.00     0.129 A 
HETATM    2  N2  UNL     1     -32.804   5.470 -30.690  1.00  0.00    -0.349 N 
ATOM      3  H2  UNL     1     -33.806   5.655 -30.750  1.00  0.00     0.167 HD
HETATM    4  C2  UNL     1     -32.192   4.932 -31.751  1.00  0.00     0.107 A 
HETATM    5  C3  UNL     1     -30.845   4.695 -31.639  1.00  0.00     0.116 A 
HETATM    6  N3  UNL     1     -30.160   4.986 -30.515  1.00  0.00    -0.305 N 
HETATM    7  C4  UNL     1     -28.856   4.833 -30.209  1.00  0.00     0.088 A 
HETATM    8  N8  UNL     1     -28.704   5.282 -28.966  1.00  0.00    -0.339 N 
ATOM      9  H8  UNL     1     -27.818   5.294 -28.461  1.00  0.00     0.167 HD
HETATM   10  C11 UNL     1     -29.896   5.728 -28.453  1.00  0.00     0.133 A 
HETATM   11  C14 UNL     1     -30.815   5.537 -29.444  1.00  0.00     0.116 A 
ENDROOT
BRANCH   7  12
HETATM   12  C5  UNL     1     -27.810   4.260 -31.125  1.00  0.00     0.079 C 
BRANCH  12  13
HETATM   13  C6  UNL     1     -27.717   5.190 -32.315  1.00  0.00     0.029 C 
BRANCH  13  14
HETATM   14  C7  UNL     1     -27.694   4.421 -33.620  1.00  0.00     0.150 C 
BRANCH  14  15
HETATM   15  N4  UNL     1     -26.639   4.883 -34.497  1.00  0.00    -0.287 N 
HETATM   16  C8  UNL     1     -25.576   5.631 -34.215  1.00  0.00     0.142 A 
HETATM   17  C9  UNL     1     -24.872   5.798 -35.381  1.00  0.00     0.099 A 
HETATM   18  N6  UNL     1     -25.535   5.135 -36.358  1.00  0.00    -0.285 N 
HETATM   19  N7  UNL     1     -26.595   4.597 -35.783  1.00  0.00    -0.241 N 
ATOM     20  H6  UNL     1     -25.269   5.066 -37.340  1.00  0.00     0.188 HD
ATOM     21  H7  UNL     1     -27.291   4.033 -36.272  1.00  0.00     0.208 HD
BRANCH  17  22
HETATM   22  C10 UNL     1     -23.622   6.551 -35.570  1.00  0.00     0.370 C 
BRANCH  22  23
HETATM   23  N5  UNL     1     -23.269   6.581 -36.991  1.00  0.00    -0.047 N 
ATOM     24  H53 UNL     1     -22.295   6.843 -37.139  1.00  0.00     0.277 HD
ATOM     25  H52 UNL     1     -23.233   5.646 -37.396  1.00  0.00     0.277 HD
ATOM     26  H51 UNL     1     -23.912   7.193 -37.495  1.00  0.00     0.277 HD
ENDBRANCH  22  23
BRANCH  22  27
HETATM   27  O1  UNL     1     -22.616   5.933 -34.838  1.00  0.00    -0.365 OA
ATOM     28  H1  UNL     1     -21.776   6.252 -35.147  1.00  0.00     0.212 HD
ENDBRANCH  22  27
ENDBRANCH  17  22
ENDBRANCH  14  15
ENDBRANCH  13  14
ENDBRANCH  12  13
ENDBRANCH   7  12
BRANCH  10  29
HETATM   29  C12 UNL     1     -30.075   6.277 -27.132  1.00  0.00     0.277 C 
HETATM   30  O2  UNL     1     -30.856   5.880 -26.259  1.00  0.00    -0.266 OA
HETATM   31  N9  UNL     1     -29.268   7.426 -26.739  1.00  0.00    -0.291 N 
HETATM   32  C13 UNL     1     -29.863   8.591 -26.783  1.00  0.00     0.212 C 
ATOM     33  H9  UNL     1     -28.296   7.327 -26.448  1.00  0.00     0.172 HD
HETATM   34  N10 UNL     1     -31.202   8.870 -27.167  1.00  0.00    -0.256 N 
HETATM   35  N13 UNL     1     -29.299   9.854 -26.453  1.00  0.00    -0.256 N 
HETATM   36  N11 UNL     1     -31.362  10.254 -27.265  1.00  0.00    -0.006 NA
ATOM     37  H10 UNL     1     -31.927   8.174 -27.342  1.00  0.00     0.187 HD
HETATM   38  N12 UNL     1     -30.264  10.840 -26.676  1.00  0.00    -0.006 NA
ATOM     39  H13 UNL     1     -28.351  10.013 -26.111  1.00  0.00     0.187 HD
ENDBRANCH  10  29
BRANCH   1  40
HETATM   40  N1  UNL     1     -32.858   6.286 -28.610  1.00  0.00    -0.384 N 
ATOM     41  H12 UNL     1     -33.569   5.764 -28.097  1.00  0.00     0.157 HD
ATOM     42  H11 UNL     1     -32.681   7.261 -28.370  1.00  0.00     0.157 HD
ENDBRANCH   1  40
TORSDOF 9
ENDMDL
MODEL 4
REMARK VINA RESULT: -7.971630444      2.623      3.285
REMARK  9 active torsions:
REMARK  status: ('A' for Active; 'I' for Inactive)
REMARK    1  A    between atoms: N1_1  and  C1_4 
REMARK    2  A    between atoms: C4_10  and  C5_11 
REMARK    3  A    between atoms: C5_11  and  C6_12 
REMARK    4  A    between atoms: C6_12  and  C7_13 
REMARK    5  A    between atoms: C7_13  and  N4_14 
REMARK    6  A    between atoms: C9_16  and  C10_17 
REMARK    7  A    between atoms: C10_17  and  N5_18 
REMARK    8  A    between atoms: C10_17  and  O1_22 
REMARK    9  A    between atoms: C11_30  and  C12_31 
REMARK       I    between atoms: C12_31  and  N9_33 
ROOT
HETATM    1  C1  UNL     1     -32.488   7.807 -27.341  1.00  0.00     0.129 A 
HETATM    2  N2  UNL     1     -33.292   8.292 -28.298  1.00  0.00    -0.349 N 
ATOM      3  H2  UNL     1     -33.106   8.030 -29.267  1.00  0.00     0.167 HD
HETATM    4  C2  UNL     1     -34.327   9.103 -28.046  1.00  0.00     0.107 A 
HETATM    5  C3  UNL     1     -34.550   9.437 -26.735  1.00  0.00     0.116 A 
HETATM    6  N3  UNL     1     -33.771   8.976 -25.737  1.00  0.00    -0.305 N 
HETATM    7  C4  UNL     1     -33.822   9.183 -24.405  1.00  0.00     0.088 A 
HETATM    8  N8  UNL     1     -32.817   8.491 -23.876  1.00  0.00    -0.339 N 
ATOM      9  H8  UNL     1     -32.603   8.454 -22.879  1.00  0.00     0.167 HD
HETATM   10  C11 UNL     1     -32.104   7.833 -24.847  1.00  0.00     0.133 A 
HETATM   11  C14 UNL     1     -32.718   8.146 -26.027  1.00  0.00     0.116 A 
ENDROOT
BRANCH   7  12
HETATM   12  C5  UNL     1     -34.838  10.036 -23.698  1.00  0.00     0.079 C 
BRANCH  12  13
HETATM   13  C6  UNL     1     -35.039   9.428 -22.327  1.00  0.00     0.029 C 
BRANCH  13  14
HETATM   14  C7  UNL     1     -36.317   9.925 -21.682  1.00  0.00     0.150 C 
BRANCH  14  15
HETATM   15  N4  UNL     1     -37.222   8.839 -21.374  1.00  0.00    -0.287 N 
HETATM   16  C8  UNL     1     -37.516   7.759 -22.092  1.00  0.00     0.142 A 
HETATM   17  C9  UNL     1     -38.428   7.026 -21.374  1.00  0.00     0.099 A 
HETATM   18  N6  UNL     1     -38.668   7.690 -20.220  1.00  0.00    -0.285 N 
HETATM   19  N7  UNL     1     -37.921   8.779 -20.258  1.00  0.00    -0.241 N 
ATOM     20  H6  UNL     1     -39.300   7.407 -19.470  1.00  0.00     0.188 HD
ATOM     21  H7  UNL     1     -37.891   9.482 -19.520  1.00  0.00     0.208 HD
BRANCH  17  22
HETATM   22  C10 UNL     1     -39.050   5.749 -21.760  1.00  0.00     0.370 C 
BRANCH  22  23
HETATM   23  N5  UNL     1     -38.557   4.675 -20.895  1.00  0.00    -0.047 N 
ATOM     24  H53 UNL     1     -38.044   5.035 -20.090  1.00  0.00     0.277 HD
ATOM     25  H52 UNL     1     -39.312   4.210 -20.392  1.00  0.00     0.277 HD
ATOM     26  H51 UNL     1     -37.999   4.018 -21.441  1.00  0.00     0.277 HD
ENDBRANCH  22  23
BRANCH  22  27
HETATM   27  O1  UNL     1     -38.731   5.482 -23.085  1.00  0.00    -0.365 OA
ATOM     28  H1  UNL     1     -37.808   5.261 -23.137  1.00  0.00     0.212 HD
ENDBRANCH  22  27
ENDBRANCH  17  22
ENDBRANCH  14  15
ENDBRANCH  13  14
ENDBRANCH  12  13
ENDBRANCH   7  12
BRANCH  10  29
HETATM   29  C12 UNL     1     -30.955   6.996 -24.608  1.00  0.00     0.277 C 
HETATM   30  O2  UNL     1     -29.883   7.008 -25.224  1.00  0.00    -0.266 OA
HETATM   31  N9  UNL     1     -31.020   6.016 -23.531  1.00  0.00    -0.291 N 
HETATM   32  C13 UNL     1     -31.247   4.777 -23.892  1.00  0.00     0.212 C 
ATOM     33  H9  UNL     1     -30.895   6.279 -22.554  1.00  0.00     0.172 HD
HETATM   34  N10 UNL     1     -31.438   4.276 -25.207  1.00  0.00    -0.256 N 
HETATM   35  N13 UNL     1     -31.354   3.644 -23.040  1.00  0.00    -0.256 N 
HETATM   36  N11 UNL     1     -31.851   2.944 -25.123  1.00  0.00    -0.006 NA
ATOM     37  H10 UNL     1     -31.296   4.801 -26.069  1.00  0.00     0.187 HD
HETATM   38  N12 UNL     1     -31.640   2.526 -23.829  1.00  0.00    -0.006 NA
ATOM     39  H13 UNL     1     -31.243   3.647 -22.026  1.00  0.00     0.187 HD
ENDBRANCH  10  29
BRANCH   1  40
HETATM   40  N1  UNL     1     -31.537   7.043 -27.705  1.00  0.00    -0.384 N 
ATOM     41  H12 UNL     1     -30.628   7.393 -28.008  1.00  0.00     0.157 HD
ATOM     42  H11 UNL     1     -31.706   6.038 -27.686  1.00  0.00     0.157 HD
ENDBRANCH   1  40
TORSDOF 9
ENDMDL
MODEL 5
REMARK VINA RESULT: -7.931184137      2.042      6.253
REMARK  9 active torsions:
REMARK  status: ('A' for Active; 'I' for Inactive)
REMARK    1  A    between atoms: N1_1  and  C1_4 
REMARK    2  A    between atoms: C4_10  and  C5_11 
REMARK    3  A    between atoms: C5_11  and  C6_12 
REMARK    4  A    between atoms: C6_12  and  C7_13 
REMARK    5  A    between atoms: C7_13  and  N4_14 
REMARK    6  A    between atoms: C9_16  and  C10_17 
REMARK    7  A    between atoms: C10_17  and  N5_18 
REMARK    8  A    between atoms: C10_17  and  O1_22 
REMARK    9  A    between atoms: C11_30  and  C12_31 
REMARK       I    between atoms: C12_31  and  N9_33 
ROOT
HETATM    1  C1  UNL     1     -33.481   8.545 -22.989  1.00  0.00     0.129 A 
HETATM    2  N2  UNL     1     -34.536   9.250 -22.557  1.00  0.00    -0.349 N 
ATOM      3  H2  UNL     1     -34.655   9.378 -21.552  1.00  0.00     0.167 HD
HETATM    4  C2  UNL     1     -35.441   9.794 -23.379  1.00  0.00     0.107 A 
HETATM    5  C3  UNL     1     -35.254   9.603 -24.724  1.00  0.00     0.116 A 
HETATM    6  N3  UNL     1     -34.210   8.902 -25.209  1.00  0.00    -0.305 N 
HETATM    7  C4  UNL     1     -33.853   8.606 -26.475  1.00  0.00     0.088 A 
HETATM    8  N8  UNL     1     -32.736   7.888 -26.394  1.00  0.00    -0.339 N 
ATOM      9  H8  UNL     1     -32.228   7.519 -27.199  1.00  0.00     0.167 HD
HETATM   10  C11 UNL     1     -32.357   7.708 -25.088  1.00  0.00     0.133 A 
HETATM   11  C14 UNL     1     -33.299   8.357 -24.341  1.00  0.00     0.116 A 
ENDROOT
BRANCH   7  12
HETATM   12  C5  UNL     1     -34.602   9.027 -27.709  1.00  0.00     0.079 C 
BRANCH  12  13
HETATM   13  C6  UNL     1     -33.573   9.564 -28.680  1.00  0.00     0.029 C 
BRANCH  13  14
HETATM   14  C7  UNL     1     -33.211   8.533 -29.730  1.00  0.00     0.150 C 
BRANCH  14  15
HETATM   15  N4  UNL     1     -31.883   7.997 -29.521  1.00  0.00    -0.287 N 
HETATM   16  C8  UNL     1     -31.496   6.730 -29.401  1.00  0.00     0.142 A 
HETATM   17  C9  UNL     1     -30.136   6.733 -29.216  1.00  0.00     0.099 A 
HETATM   18  N6  UNL     1     -29.725   8.023 -29.230  1.00  0.00    -0.285 N 
HETATM   19  N7  UNL     1     -30.809   8.753 -29.416  1.00  0.00    -0.241 N 
ATOM     20  H6  UNL     1     -28.769   8.361 -29.118  1.00  0.00     0.188 HD
ATOM     21  H7  UNL     1     -30.813   9.772 -29.470  1.00  0.00     0.208 HD
BRANCH  17  22
HETATM   22  C10 UNL     1     -29.256   5.567 -29.035  1.00  0.00     0.370 C 
BRANCH  22  23
HETATM   23  N5  UNL     1     -28.963   5.382 -27.612  1.00  0.00    -0.047 N 
ATOM     24  H53 UNL     1     -29.641   5.857 -27.016  1.00  0.00     0.277 HD
ATOM     25  H52 UNL     1     -29.140   4.427 -27.305  1.00  0.00     0.277 HD
ATOM     26  H51 UNL     1     -28.006   5.677 -27.414  1.00  0.00     0.277 HD
ENDBRANCH  22  23
BRANCH  22  27
HETATM   27  O1  UNL     1     -28.082   5.783 -29.744  1.00  0.00    -0.365 OA
ATOM     28  H1  UNL     1     -28.049   5.171 -30.470  1.00  0.00     0.212 HD
ENDBRANCH  22  27
ENDBRANCH  17  22
ENDBRANCH  14  15
ENDBRANCH  13  14
ENDBRANCH  12  13
ENDBRANCH   7  12
BRANCH  10  29
HETATM   29  C12 UNL     1     -31.192   6.977 -24.657  1.00  0.00     0.277 C 
HETATM   30  O2  UNL     1     -30.046   7.060 -25.117  1.00  0.00    -0.266 OA
HETATM   31  N9  UNL     1     -31.332   6.027 -23.561  1.00  0.00    -0.291 N 
HETATM   32  C13 UNL     1     -31.407   4.763 -23.899  1.00  0.00     0.212 C 
ATOM     33  H9  UNL     1     -31.368   6.327 -22.587  1.00  0.00     0.172 HD
HETATM   34  N10 UNL     1     -31.369   4.210 -25.207  1.00  0.00    -0.256 N 
HETATM   35  N13 UNL     1     -31.546   3.650 -23.026  1.00  0.00    -0.256 N 
HETATM   36  N11 UNL     1     -31.685   2.851 -25.129  1.00  0.00    -0.006 NA
ATOM     37  H10 UNL     1     -31.148   4.720 -26.062  1.00  0.00     0.187 HD
HETATM   38  N12 UNL     1     -31.628   2.490 -23.801  1.00  0.00    -0.006 NA
ATOM     39  H13 UNL     1     -31.581   3.692 -22.008  1.00  0.00     0.187 HD
ENDBRANCH  10  29
BRANCH   1  40
HETATM   40  N1  UNL     1     -32.687   8.077 -22.111  1.00  0.00    -0.384 N 
ATOM     41  H12 UNL     1     -32.571   8.494 -21.187  1.00  0.00     0.157 HD
ATOM     42  H11 UNL     1     -32.150   7.246 -22.357  1.00  0.00     0.157 HD
ENDBRANCH   1  40
TORSDOF 9
ENDMDL
