MODEL 1
REMARK VINA RESULT: -6.300147363      0.000      0.000
REMARK  11 active torsions:
REMARK  status: ('A' for Active; 'I' for Inactive)
REMARK    1  A    between atoms: O1_2  and  C2_3 
REMARK    2  A    between atoms: C3_5  and  C4_6 
REMARK    3  A    between atoms: C4_6  and  N1_7 
REMARK    4  A    between atoms: N1_7  and  N2_8 
REMARK    5  A    between atoms: C6_12  and  O3_13 
REMARK    6  A    between atoms: O3_13  and  C7_14 
REMARK    7  A    between atoms: C10_21  and  O5_22 
REMARK    8  A    between atoms: O5_22  and  C11_23 
REMARK    9  A    between atoms: C13_25  and  N4_26 
REMARK   10  A    between atoms: C15_31  and  N5_32 
REMARK   11  A    between atoms: C16_36  and  O6_37 
ROOT
HETATM    1  C2  UNL     1     -31.156   8.765 -26.987  1.00  0.00     0.290 C 
HETATM    2  O2  UNL     1     -31.071  10.002 -26.254  1.00  0.00    -0.352 OA
HETATM    3  C3  UNL     1     -32.318  10.525 -26.465  1.00  0.00     0.143 C 
HETATM    4  C5  UNL     1     -33.411   9.804 -25.835  1.00  0.00     0.068 C 
HETATM    5  C6  UNL     1     -32.993   8.382 -25.358  1.00  0.00     0.162 C 
HETATM    6  C10 UNL     1     -31.826   7.805 -26.023  1.00  0.00     0.206 C 
ENDROOT
BRANCH   6   7
HETATM    7  O5  UNL     1     -30.935   7.438 -25.021  1.00  0.00    -0.370 OA
BRANCH   7   8
HETATM    8  C11 UNL     1     -30.539   6.141 -25.059  1.00  0.00     0.155 C 
HETATM    9  C12 UNL     1     -30.897   5.468 -26.422  1.00  0.00     0.067 C 
HETATM   10  C13 UNL     1     -30.479   4.045 -26.354  1.00  0.00     0.188 C 
HETATM   11  C14 UNL     1     -31.047   3.285 -25.185  1.00  0.00     0.068 C 
HETATM   12  C15 UNL     1     -30.839   4.040 -23.858  1.00  0.00     0.216 C 
HETATM   13  C16 UNL     1     -31.434   5.392 -24.089  1.00  0.00     0.177 C 
BRANCH  10  14
HETATM   14  N4  UNL     1     -29.055   3.908 -26.410  1.00  0.00    -0.075 N 
ATOM     15  H43 UNL     1     -28.587   4.789 -26.199  1.00  0.00     0.274 HD
ATOM     16  H42 UNL     1     -28.704   3.352 -25.629  1.00  0.00     0.274 HD
ATOM     17  H41 UNL     1     -28.747   3.528 -27.305  1.00  0.00     0.274 HD
ENDBRANCH  10  14
BRANCH  12  18
HETATM   18  N5  UNL     1     -31.593   3.296 -22.854  1.00  0.00    -0.072 N 
ATOM     19  H53 UNL     1     -32.548   3.079 -23.138  1.00  0.00     0.274 HD
ATOM     20  H52 UNL     1     -31.278   2.333 -22.738  1.00  0.00     0.274 HD
ATOM     21  H51 UNL     1     -31.538   3.848 -21.999  1.00  0.00     0.274 HD
ENDBRANCH  12  18
BRANCH  13  22
HETATM   22  O6  UNL     1     -31.811   6.088 -22.975  1.00  0.00    -0.391 OA
ATOM     23  H6  UNL     1     -32.622   6.577 -23.051  1.00  0.00     0.210 HD
ENDBRANCH  13  22
ENDBRANCH   7   8
ENDBRANCH   6   7
BRANCH   1  24
HETATM   24  O1  UNL     1     -29.965   8.442 -27.487  1.00  0.00    -0.363 OA
HETATM   25  C1  UNL     1     -30.065   8.071 -28.868  1.00  0.00     0.204 C 
ENDBRANCH   1  24
BRANCH   5  26
HETATM   26  O3  UNL     1     -32.843   8.531 -23.949  1.00  0.00    -0.331 OA
BRANCH  26  27
HETATM   27  C7  UNL     1     -34.001   9.067 -23.416  1.00  0.00     0.469 C 
HETATM   28  N3  UNL     1     -33.844   8.865 -21.917  1.00  0.00    -0.023 N 
HETATM   29  C8  UNL     1     -35.147   9.239 -21.449  1.00  0.00     0.264 C 
ATOM     30  H32 UNL     1     -33.525   7.939 -21.631  1.00  0.00     0.283 HD
ATOM     31  H31 UNL     1     -33.065   9.365 -21.488  1.00  0.00     0.283 HD
HETATM   32  C9  UNL     1     -36.029   8.832 -22.607  1.00  0.00     0.200 C 
HETATM   33  O4  UNL     1     -35.164   8.398 -23.637  1.00  0.00    -0.337 OA
ENDBRANCH  26  27
ENDBRANCH   5  26
BRANCH   3  34
HETATM   34  C4  UNL     1     -32.387  12.019 -26.502  1.00  0.00     0.166 C 
BRANCH  34  35
HETATM   35  N1  UNL     1     -31.963  12.410 -27.828  1.00  0.00    -0.146 NA
BRANCH  35  36
HETATM   36  N2  UNL     1     -32.386  11.566 -28.787  1.00  0.00    -0.348 N 
ATOM     37  H22 UNL     1     -31.898  11.454 -29.675  1.00  0.00     0.172 HD
ATOM     38  H21 UNL     1     -33.235  11.063 -28.530  1.00  0.00     0.172 HD
ENDBRANCH  35  36
ENDBRANCH  34  35
ENDBRANCH   3  34
TORSDOF 11
ENDMDL
MODEL 2
REMARK VINA RESULT: -6.199427058      3.503      6.378
REMARK  11 active torsions:
REMARK  status: ('A' for Active; 'I' for Inactive)
REMARK    1  A    between atoms: O1_2  and  C2_3 
REMARK    2  A    between atoms: C3_5  and  C4_6 
REMARK    3  A    between atoms: C4_6  and  N1_7 
REMARK    4  A    between atoms: N1_7  and  N2_8 
REMARK    5  A    between atoms: C6_12  and  O3_13 
REMARK    6  A    between atoms: O3_13  and  C7_14 
REMARK    7  A    between atoms: C10_21  and  O5_22 
REMARK    8  A    between atoms: O5_22  and  C11_23 
REMARK    9  A    between atoms: C13_25  and  N4_26 
REMARK   10  A    between atoms: C15_31  and  N5_32 
REMARK   11  A    between atoms: C16_36  and  O6_37 
ROOT
HETATM    1  C2  UNL     1     -29.713   5.664 -26.613  1.00  0.00     0.290 C 
HETATM    2  O2  UNL     1     -30.901   5.621 -25.799  1.00  0.00    -0.352 OA
HETATM    3  C3  UNL     1     -30.930   6.896 -25.301  1.00  0.00     0.143 C 
HETATM    4  C5  UNL     1     -31.196   7.940 -26.276  1.00  0.00     0.068 C 
HETATM    5  C6  UNL     1     -31.025   7.446 -27.743  1.00  0.00     0.162 C 
HETATM    6  C10 UNL     1     -30.179   6.267 -27.923  1.00  0.00     0.206 C 
ENDROOT
BRANCH   6   7
HETATM    7  O5  UNL     1     -30.932   5.338 -28.634  1.00  0.00    -0.370 OA
BRANCH   7   8
HETATM    8  C11 UNL     1     -30.349   4.884 -29.771  1.00  0.00     0.155 C 
HETATM    9  C12 UNL     1     -29.105   5.742 -30.165  1.00  0.00     0.067 C 
HETATM   10  C13 UNL     1     -28.568   5.210 -31.442  1.00  0.00     0.188 C 
HETATM   11  C14 UNL     1     -29.575   5.134 -32.559  1.00  0.00     0.068 C 
HETATM   12  C15 UNL     1     -30.872   4.433 -32.110  1.00  0.00     0.216 C 
HETATM   13  C16 UNL     1     -31.317   5.189 -30.899  1.00  0.00     0.177 C 
BRANCH  10  14
HETATM   14  N4  UNL     1     -27.913   3.949 -31.257  1.00  0.00    -0.075 N 
ATOM     15  H43 UNL     1     -27.182   4.010 -30.549  1.00  0.00     0.274 HD
ATOM     16  H42 UNL     1     -28.526   3.277 -30.795  1.00  0.00     0.274 HD
ATOM     17  H41 UNL     1     -27.551   3.579 -32.137  1.00  0.00     0.274 HD
ENDBRANCH  10  14
BRANCH  12  18
HETATM   18  N5  UNL     1     -31.815   4.598 -33.212  1.00  0.00    -0.072 N 
ATOM     19  H53 UNL     1     -31.747   5.504 -33.675  1.00  0.00     0.274 HD
ATOM     20  H52 UNL     1     -31.593   4.026 -34.027  1.00  0.00     0.274 HD
ATOM     21  H51 UNL     1     -32.737   4.408 -32.819  1.00  0.00     0.274 HD
ENDBRANCH  12  18
BRANCH  13  22
HETATM   22  O6  UNL     1     -32.643   5.099 -30.581  1.00  0.00    -0.391 OA
ATOM     23  H6  UNL     1     -33.207   4.754 -31.263  1.00  0.00     0.210 HD
ENDBRANCH  13  22
ENDBRANCH   7   8
ENDBRANCH   6   7
BRANCH   1  24
HETATM   24  O1  UNL     1     -29.125   4.470 -26.632  1.00  0.00    -0.363 OA
HETATM   25  C1  UNL     1     -30.031   3.437 -26.223  1.00  0.00     0.204 C 
ENDBRANCH   1  24
BRANCH   5  26
HETATM   26  O3  UNL     1     -32.364   7.272 -28.197  1.00  0.00    -0.331 OA
BRANCH  26  27
HETATM   27  C7  UNL     1     -32.688   8.289 -29.078  1.00  0.00     0.469 C 
HETATM   28  N3  UNL     1     -33.845   7.721 -29.885  1.00  0.00    -0.023 N 
HETATM   29  C8  UNL     1     -33.988   8.721 -30.904  1.00  0.00     0.264 C 
ATOM     30  H32 UNL     1     -33.716   6.768 -30.223  1.00  0.00     0.283 HD
ATOM     31  H31 UNL     1     -34.690   7.515 -29.353  1.00  0.00     0.283 HD
HETATM   32  C9  UNL     1     -32.569   9.216 -31.065  1.00  0.00     0.200 C 
HETATM   33  O4  UNL     1     -31.803   8.566 -30.072  1.00  0.00    -0.337 OA
ENDBRANCH  26  27
ENDBRANCH   5  26
BRANCH   3  34
HETATM   34  C4  UNL     1     -31.531   7.036 -23.938  1.00  0.00     0.166 C 
BRANCH  34  35
HETATM   35  N1  UNL     1     -31.062   5.902 -23.173  1.00  0.00    -0.146 NA
BRANCH  35  36
HETATM   36  N2  UNL     1     -31.905   4.853 -23.215  1.00  0.00    -0.348 N 
ATOM     37  H22 UNL     1     -32.878   4.941 -23.507  1.00  0.00     0.172 HD
ATOM     38  H21 UNL     1     -31.468   3.977 -22.928  1.00  0.00     0.172 HD
ENDBRANCH  35  36
ENDBRANCH  34  35
ENDBRANCH   3  34
TORSDOF 11
ENDMDL
MODEL 3
REMARK VINA RESULT: -6.083924255      2.035      5.690
REMARK  11 active torsions:
REMARK  status: ('A' for Active; 'I' for Inactive)
REMARK    1  A    between atoms: O1_2  and  C2_3 
REMARK    2  A    between atoms: C3_5  and  C4_6 
REMARK    3  A    between atoms: C4_6  and  N1_7 
REMARK    4  A    between atoms: N1_7  and  N2_8 
REMARK    5  A    between atoms: C6_12  and  O3_13 
REMARK    6  A    between atoms: O3_13  and  C7_14 
REMARK    7  A    between atoms: C10_21  and  O5_22 
REMARK    8  A    between atoms: O5_22  and  C11_23 
REMARK    9  A    between atoms: C13_25  and  N4_26 
REMARK   10  A    between atoms: C15_31  and  N5_32 
REMARK   11  A    between atoms: C16_36  and  O6_37 
ROOT
HETATM    1  C2  UNL     1     -30.507   6.431 -26.086  1.00  0.00     0.290 C 
HETATM    2  O2  UNL     1     -31.354   5.386 -25.571  1.00  0.00    -0.352 OA
HETATM    3  C3  UNL     1     -31.090   5.464 -24.231  1.00  0.00     0.143 C 
HETATM    4  C5  UNL     1     -31.560   6.670 -23.571  1.00  0.00     0.068 C 
HETATM    5  C6  UNL     1     -31.937   7.795 -24.580  1.00  0.00     0.162 C 
HETATM    6  C10 UNL     1     -31.321   7.697 -25.902  1.00  0.00     0.206 C 
ENDROOT
BRANCH   6   7
HETATM    7  O5  UNL     1     -32.355   7.737 -26.831  1.00  0.00    -0.370 OA
BRANCH   7   8
HETATM    8  C11 UNL     1     -32.244   8.716 -27.762  1.00  0.00     0.155 C 
HETATM    9  C12 UNL     1     -33.406   9.754 -27.651  1.00  0.00     0.067 C 
HETATM   10  C13 UNL     1     -33.234  10.751 -28.738  1.00  0.00     0.188 C 
HETATM   11  C14 UNL     1     -33.141  10.158 -30.119  1.00  0.00     0.068 C 
HETATM   12  C15 UNL     1     -32.110   9.014 -30.180  1.00  0.00     0.216 C 
HETATM   13  C16 UNL     1     -32.527   8.064 -29.103  1.00  0.00     0.177 C 
BRANCH  10  14
HETATM   14  N4  UNL     1     -32.131  11.629 -28.483  1.00  0.00    -0.075 N 
ATOM     15  H43 UNL     1     -31.592  11.323 -27.674  1.00  0.00     0.274 HD
ATOM     16  H42 UNL     1     -31.410  11.536 -29.198  1.00  0.00     0.274 HD
ATOM     17  H41 UNL     1     -32.435  12.598 -28.384  1.00  0.00     0.274 HD
ENDBRANCH  10  14
BRANCH  12  18
HETATM   18  N5  UNL     1     -32.259   8.414 -31.502  1.00  0.00    -0.072 N 
ATOM     19  H53 UNL     1     -32.561   9.074 -32.218  1.00  0.00     0.274 HD
ATOM     20  H52 UNL     1     -31.372   8.159 -31.936  1.00  0.00     0.274 HD
ATOM     21  H51 UNL     1     -32.894   7.626 -31.379  1.00  0.00     0.274 HD
ENDBRANCH  12  18
BRANCH  13  22
HETATM   22  O6  UNL     1     -32.100   6.773 -29.235  1.00  0.00    -0.391 OA
ATOM     23  H6  UNL     1     -32.435   6.161 -28.589  1.00  0.00     0.210 HD
ENDBRANCH  13  22
ENDBRANCH   7   8
ENDBRANCH   6   7
BRANCH   1  24
HETATM   24  O1  UNL     1     -30.080   6.118 -27.307  1.00  0.00    -0.363 OA
HETATM   25  C1  UNL     1     -29.300   4.915 -27.292  1.00  0.00     0.204 C 
ENDBRANCH   1  24
BRANCH   5  26
HETATM   26  O3  UNL     1     -33.362   7.762 -24.601  1.00  0.00    -0.331 OA
BRANCH  26  27
HETATM   27  C7  UNL     1     -33.857   8.655 -23.668  1.00  0.00     0.469 C 
HETATM   28  N3  UNL     1     -35.260   8.145 -23.379  1.00  0.00    -0.023 N 
HETATM   29  C8  UNL     1     -35.785   9.216 -22.583  1.00  0.00     0.264 C 
ATOM     30  H32 UNL     1     -35.813   7.896 -24.199  1.00  0.00     0.283 HD
ATOM     31  H31 UNL     1     -35.309   7.219 -22.953  1.00  0.00     0.283 HD
HETATM   32  C9  UNL     1     -35.062  10.417 -23.148  1.00  0.00     0.200 C 
HETATM   33  O4  UNL     1     -34.133   9.918 -24.090  1.00  0.00    -0.337 OA
ENDBRANCH  26  27
ENDBRANCH   5  26
BRANCH   3  34
HETATM   34  C4  UNL     1     -31.185   4.170 -23.485  1.00  0.00     0.166 C 
BRANCH  34  35
HETATM   35  N1  UNL     1     -31.966   3.282 -24.316  1.00  0.00    -0.146 NA
BRANCH  35  36
HETATM   36  N2  UNL     1     -31.224   2.613 -25.217  1.00  0.00    -0.348 N 
ATOM     37  H22 UNL     1     -30.602   3.083 -25.874  1.00  0.00     0.172 HD
ATOM     38  H21 UNL     1     -31.352   1.602 -25.169  1.00  0.00     0.172 HD
ENDBRANCH  35  36
ENDBRANCH  34  35
ENDBRANCH   3  34
TORSDOF 11
ENDMDL
MODEL 4
REMARK VINA RESULT: -6.031390770      2.411      5.559
REMARK  11 active torsions:
REMARK  status: ('A' for Active; 'I' for Inactive)
REMARK    1  A    between atoms: O1_2  and  C2_3 
REMARK    2  A    between atoms: C3_5  and  C4_6 
REMARK    3  A    between atoms: C4_6  and  N1_7 
REMARK    4  A    between atoms: N1_7  and  N2_8 
REMARK    5  A    between atoms: C6_12  and  O3_13 
REMARK    6  A    between atoms: O3_13  and  C7_14 
REMARK    7  A    between atoms: C10_21  and  O5_22 
REMARK    8  A    between atoms: O5_22  and  C11_23 
REMARK    9  A    between atoms: C13_25  and  N4_26 
REMARK   10  A    between atoms: C15_31  and  N5_32 
REMARK   11  A    between atoms: C16_36  and  O6_37 
ROOT
HETATM    1  C2  UNL     1     -30.401   5.587 -25.692  1.00  0.00     0.290 C 
HETATM    2  O2  UNL     1     -31.425   4.684 -25.236  1.00  0.00    -0.352 OA
HETATM    3  C3  UNL     1     -31.186   4.664 -23.889  1.00  0.00     0.143 C 
HETATM    4  C5  UNL     1     -31.461   5.907 -23.189  1.00  0.00     0.068 C 
HETATM    5  C6  UNL     1     -31.616   7.117 -24.156  1.00  0.00     0.162 C 
HETATM    6  C10 UNL     1     -30.992   6.965 -25.470  1.00  0.00     0.206 C 
ENDROOT
BRANCH   6   7
HETATM    7  O5  UNL     1     -31.980   7.217 -26.415  1.00  0.00    -0.370 OA
BRANCH   7   8
HETATM    8  C11 UNL     1     -31.562   7.163 -27.704  1.00  0.00     0.155 C 
HETATM    9  C12 UNL     1     -30.466   8.235 -28.001  1.00  0.00     0.067 C 
HETATM   10  C13 UNL     1     -30.110   8.139 -29.439  1.00  0.00     0.188 C 
HETATM   11  C14 UNL     1     -31.280   8.255 -30.380  1.00  0.00     0.068 C 
HETATM   12  C15 UNL     1     -32.431   7.312 -29.978  1.00  0.00     0.216 C 
HETATM   13  C16 UNL     1     -32.723   7.649 -28.551  1.00  0.00     0.177 C 
BRANCH  10  14
HETATM   14  N4  UNL     1     -29.345   6.961 -29.718  1.00  0.00    -0.075 N 
ATOM     15  H43 UNL     1     -29.428   6.276 -28.967  1.00  0.00     0.274 HD
ATOM     16  H42 UNL     1     -29.761   6.418 -30.475  1.00  0.00     0.274 HD
ATOM     17  H41 UNL     1     -28.368   7.183 -29.913  1.00  0.00     0.274 HD
ENDBRANCH  10  14
BRANCH  12  18
HETATM   18  N5  UNL     1     -33.552   7.661 -30.844  1.00  0.00    -0.072 N 
ATOM     19  H53 UNL     1     -33.328   8.379 -31.533  1.00  0.00     0.274 HD
ATOM     20  H52 UNL     1     -33.799   6.927 -31.508  1.00  0.00     0.274 HD
ATOM     21  H51 UNL     1     -34.316   7.919 -30.220  1.00  0.00     0.274 HD
ENDBRANCH  12  18
BRANCH  13  22
HETATM   22  O6  UNL     1     -33.968   7.322 -28.092  1.00  0.00    -0.391 OA
ATOM     23  H6  UNL     1     -34.532   8.055 -27.875  1.00  0.00     0.210 HD
ENDBRANCH  13  22
ENDBRANCH   7   8
ENDBRANCH   6   7
BRANCH   1  24
HETATM   24  O1  UNL     1     -30.002   5.252 -26.916  1.00  0.00    -0.363 OA
HETATM   25  C1  UNL     1     -28.921   4.310 -26.871  1.00  0.00     0.204 C 
ENDBRANCH   1  24
BRANCH   5  26
HETATM   26  O3  UNL     1     -33.024   7.329 -24.205  1.00  0.00    -0.331 OA
BRANCH  26  27
HETATM   27  C7  UNL     1     -33.323   8.564 -23.659  1.00  0.00     0.469 C 
HETATM   28  N3  UNL     1     -34.654   8.342 -22.956  1.00  0.00    -0.023 N 
HETATM   29  C8  UNL     1     -35.006   9.686 -22.601  1.00  0.00     0.264 C 
ATOM     30  H32 UNL     1     -35.354   7.834 -23.496  1.00  0.00     0.283 HD
ATOM     31  H31 UNL     1     -34.635   7.676 -22.183  1.00  0.00     0.283 HD
HETATM   32  C9  UNL     1     -34.385  10.485 -23.723  1.00  0.00     0.200 C 
HETATM   33  O4  UNL     1     -33.657   9.567 -24.514  1.00  0.00    -0.337 OA
ENDBRANCH  26  27
ENDBRANCH   5  26
BRANCH   3  34
HETATM   34  C4  UNL     1     -31.517   3.378 -23.199  1.00  0.00     0.166 C 
BRANCH  34  35
HETATM   35  N1  UNL     1     -30.349   3.022 -22.426  1.00  0.00    -0.146 NA
BRANCH  35  36
HETATM   36  N2  UNL     1     -30.449   1.812 -21.845  1.00  0.00    -0.348 N 
ATOM     37  H22 UNL     1     -31.310   1.266 -21.859  1.00  0.00     0.172 HD
ATOM     38  H21 UNL     1     -29.584   1.510 -21.398  1.00  0.00     0.172 HD
ENDBRANCH  35  36
ENDBRANCH  34  35
ENDBRANCH   3  34
TORSDOF 11
ENDMDL
MODEL 5
REMARK VINA RESULT: -6.004042768      4.696      7.139
REMARK  11 active torsions:
REMARK  status: ('A' for Active; 'I' for Inactive)
REMARK    1  A    between atoms: O1_2  and  C2_3 
REMARK    2  A    between atoms: C3_5  and  C4_6 
REMARK    3  A    between atoms: C4_6  and  N1_7 
REMARK    4  A    between atoms: N1_7  and  N2_8 
REMARK    5  A    between atoms: C6_12  and  O3_13 
REMARK    6  A    between atoms: O3_13  and  C7_14 
REMARK    7  A    between atoms: C10_21  and  O5_22 
REMARK    8  A    between atoms: O5_22  and  C11_23 
REMARK    9  A    between atoms: C13_25  and  N4_26 
REMARK   10  A    between atoms: C15_31  and  N5_32 
REMARK   11  A    between atoms: C16_36  and  O6_37 
ROOT
HETATM    1  C2  UNL     1     -28.773   4.317 -31.750  1.00  0.00     0.290 C 
HETATM    2  O2  UNL     1     -28.743   5.283 -32.817  1.00  0.00    -0.352 OA
HETATM    3  C3  UNL     1     -29.762   4.835 -33.613  1.00  0.00     0.143 C 
HETATM    4  C5  UNL     1     -31.095   4.960 -33.048  1.00  0.00     0.068 C 
HETATM    5  C6  UNL     1     -31.071   5.231 -31.515  1.00  0.00     0.162 C 
HETATM    6  C10 UNL     1     -29.853   4.826 -30.816  1.00  0.00     0.206 C 
ENDROOT
BRANCH   6   7
HETATM    7  O5  UNL     1     -29.397   5.944 -30.125  1.00  0.00    -0.370 OA
BRANCH   7   8
HETATM    8  C11 UNL     1     -29.320   5.788 -28.780  1.00  0.00     0.155 C 
HETATM    9  C12 UNL     1     -30.173   4.576 -28.288  1.00  0.00     0.067 C 
HETATM   10  C13 UNL     1     -30.073   4.516 -26.809  1.00  0.00     0.188 C 
HETATM   11  C14 UNL     1     -30.454   5.793 -26.106  1.00  0.00     0.068 C 
HETATM   12  C15 UNL     1     -29.732   7.013 -26.711  1.00  0.00     0.216 C 
HETATM   13  C16 UNL     1     -30.057   6.966 -28.170  1.00  0.00     0.177 C 
BRANCH  10  14
HETATM   14  N4  UNL     1     -28.784   4.063 -26.382  1.00  0.00    -0.075 N 
ATOM     15  H43 UNL     1     -28.829   3.118 -26.001  1.00  0.00     0.274 HD
ATOM     16  H42 UNL     1     -28.171   3.883 -27.177  1.00  0.00     0.274 HD
ATOM     17  H41 UNL     1     -28.355   4.711 -25.720  1.00  0.00     0.274 HD
ENDBRANCH  10  14
BRANCH  12  18
HETATM   18  N5  UNL     1     -30.328   8.184 -26.075  1.00  0.00    -0.072 N 
ATOM     19  H53 UNL     1     -30.268   8.169 -25.057  1.00  0.00     0.274 HD
ATOM     20  H52 UNL     1     -29.794   9.041 -26.217  1.00  0.00     0.274 HD
ATOM     21  H51 UNL     1     -31.283   8.236 -26.427  1.00  0.00     0.274 HD
ENDBRANCH  12  18
BRANCH  13  22
HETATM   22  O6  UNL     1     -29.956   8.145 -28.853  1.00  0.00    -0.391 OA
ATOM     23  H6  UNL     1     -29.072   8.458 -29.003  1.00  0.00     0.210 HD
ENDBRANCH  13  22
ENDBRANCH   7   8
ENDBRANCH   6   7
BRANCH   1  24
HETATM   24  O1  UNL     1     -27.547   4.126 -31.266  1.00  0.00    -0.363 OA
HETATM   25  C1  UNL     1     -26.592   4.967 -31.926  1.00  0.00     0.204 C 
ENDBRANCH   1  24
BRANCH   5  26
HETATM   26  O3  UNL     1     -31.361   6.623 -31.415  1.00  0.00    -0.331 OA
BRANCH  26  27
HETATM   27  C7  UNL     1     -32.652   6.792 -30.949  1.00  0.00     0.469 C 
HETATM   28  N3  UNL     1     -32.651   8.196 -30.365  1.00  0.00    -0.023 N 
HETATM   29  C8  UNL     1     -33.931   8.228 -29.719  1.00  0.00     0.264 C 
ATOM     30  H32 UNL     1     -31.854   8.422 -29.770  1.00  0.00     0.283 HD
ATOM     31  H31 UNL     1     -32.480   8.948 -31.034  1.00  0.00     0.283 HD
HETATM   32  C9  UNL     1     -34.120   6.785 -29.314  1.00  0.00     0.200 C 
HETATM   33  O4  UNL     1     -33.028   6.070 -29.860  1.00  0.00    -0.337 OA
ENDBRANCH  26  27
ENDBRANCH   5  26
BRANCH   3  34
HETATM   34  C4  UNL     1     -29.591   5.091 -35.077  1.00  0.00     0.166 C 
BRANCH  34  35
HETATM   35  N1  UNL     1     -28.487   4.261 -35.505  1.00  0.00    -0.146 NA
BRANCH  35  36
HETATM   36  N2  UNL     1     -27.306   4.907 -35.492  1.00  0.00    -0.348 N 
ATOM     37  H22 UNL     1     -27.222   5.903 -35.689  1.00  0.00     0.172 HD
ATOM     38  H21 UNL     1     -26.520   4.297 -35.268  1.00  0.00     0.172 HD
ENDBRANCH  35  36
ENDBRANCH  34  35
ENDBRANCH   3  34
TORSDOF 11
ENDMDL
