MODEL 1
REMARK VINA RESULT: -9.521073946      0.000      0.000
REMARK  13 active torsions:
REMARK  status: ('A' for Active; 'I' for Inactive)
REMARK    1  A    between atoms: C4_6  and  C5_7 
REMARK    2  A    between atoms: C5_7  and  C6_8 
REMARK    3  A    between atoms: C10_15  and  C11_16 
REMARK    4  A    between atoms: C11_16  and  C12_17 
REMARK    5  A    between atoms: C12_17  and  C13_18 
REMARK    6  A    between atoms: C13_18  and  N3_19 
REMARK    7  A    between atoms: C16_28  and  C17_29 
REMARK    8  A    between atoms: C17_29  and  C18_30 
REMARK    9  A    between atoms: C18_30  and  C19_31 
REMARK   10  A    between atoms: C21_35  and  O4_36 
REMARK   11  A    between atoms: C22_38  and  C23_39 
REMARK   12  A    between atoms: C23_39  and  C24_40 
REMARK   13  A    between atoms: C29_47  and  O5_48 
ROOT
HETATM    1  C1  UNL     1     -16.337  18.863 -25.325  1.00  0.00     0.029 C 
HETATM    2  C2  UNL     1     -16.623  17.998 -24.374  1.00  0.00     0.053 C 
HETATM    3  C3  UNL     1     -17.700  17.854 -23.403  1.00  0.00     0.256 C 
HETATM    4  O1  UNL     1     -18.476  18.644 -22.761  1.00  0.00    -0.268 OA
HETATM    5  N1  UNL     1     -17.498  16.448 -23.488  1.00  0.00    -0.292 N 
HETATM    6  C4  UNL     1     -17.993  15.117 -23.401  1.00  0.00     0.193 C 
HETATM    7  N2  UNL     1     -18.625  14.939 -22.077  1.00  0.00    -0.335 N 
ATOM      8  H2  UNL     1     -18.520  15.720 -21.429  1.00  0.00     0.164 HD
HETATM    9  C9  UNL     1     -19.339  13.857 -21.599  1.00  0.00     0.265 C 
HETATM   10  O2  UNL     1     -20.514  14.122 -21.134  1.00  0.00    -0.266 OA
HETATM   11  C10 UNL     1     -18.996  12.421 -21.521  1.00  0.00     0.080 C 
HETATM   12  N6  UNL     1     -17.631  12.073 -21.337  1.00  0.00    -0.324 N 
ATOM     13  H6  UNL     1     -17.425  11.110 -21.603  1.00  0.00     0.169 HD
HETATM   14  C15 UNL     1     -16.515  12.757 -20.874  1.00  0.00     0.244 C 
HETATM   15  O3  UNL     1     -15.431  12.600 -21.504  1.00  0.00    -0.271 OA
HETATM   16  C16 UNL     1     -16.373  13.664 -19.737  1.00  0.00     0.175 C 
HETATM   17  N7  UNL     1     -15.312  14.617 -19.789  1.00  0.00    -0.359 N 
ATOM     18  H7  UNL     1     -14.565  14.410 -19.127  1.00  0.00     0.162 HD
HETATM   19  C21 UNL     1     -15.063  15.771 -20.542  1.00  0.00     0.146 C 
HETATM   20  C22 UNL     1     -14.707  15.979 -21.946  1.00  0.00     0.303 C 
HETATM   21  N9  UNL     1     -15.507  17.085 -22.467  1.00  0.00     0.124 N 
HETATM   22  C33 UNL     1     -14.751  18.324 -22.538  1.00  0.00     0.314 C 
HETATM   23  C34 UNL     1     -16.095  16.760 -23.763  1.00  0.00     0.367 C 
ENDROOT
BRANCH  20  24
HETATM   24  C23 UNL     1     -13.267  16.274 -22.219  1.00  0.00     0.085 C 
BRANCH  24  25
HETATM   25  C24 UNL     1     -12.730  15.803 -23.499  1.00  0.00    -0.028 A 
HETATM   26  C25 UNL     1     -12.303  14.493 -23.789  1.00  0.00     0.096 A 
HETATM   27  N8  UNL     1     -11.842  14.491 -25.034  1.00  0.00    -0.365 N 
HETATM   28  C26 UNL     1     -11.937  15.710 -25.587  1.00  0.00     0.043 A 
ATOM     29  H8  UNL     1     -11.465  13.671 -25.509  1.00  0.00     0.165 HD
HETATM   30  C27 UNL     1     -11.623  16.220 -26.820  1.00  0.00     0.033 A 
HETATM   31  C32 UNL     1     -12.499  16.548 -24.624  1.00  0.00     0.001 A 
HETATM   32  C28 UNL     1     -11.833  17.541 -27.178  1.00  0.00     0.039 A 
HETATM   33  C29 UNL     1     -12.388  18.381 -26.240  1.00  0.00     0.069 A 
HETATM   34  C31 UNL     1     -12.705  17.872 -24.999  1.00  0.00     0.051 A 
BRANCH  33  35
HETATM   35  O5  UNL     1     -12.640  19.720 -26.499  1.00  0.00    -0.356 OA
HETATM   36  C30 UNL     1     -13.470  20.135 -27.566  1.00  0.00     0.210 C 
ENDBRANCH  33  35
ENDBRANCH  24  25
ENDBRANCH  20  24
BRANCH  19  37
HETATM   37  O4  UNL     1     -15.142  16.925 -19.942  1.00  0.00    -0.348 OA
ATOM     38  H4  UNL     1     -15.972  17.387 -19.965  1.00  0.00     0.219 HD
ENDBRANCH  19  37
BRANCH  16  39
HETATM   39  C17 UNL     1     -16.076  12.704 -18.552  1.00  0.00     0.035 C 
BRANCH  39  40
HETATM   40  C18 UNL     1     -14.718  12.937 -17.970  1.00  0.00     0.002 C 
BRANCH  40  41
HETATM   41  C19 UNL     1     -14.218  11.611 -17.382  1.00  0.00    -0.004 C 
HETATM   42  C20 UNL     1     -14.912  10.516 -18.189  1.00  0.00     0.005 C 
ENDBRANCH  40  41
ENDBRANCH  39  40
ENDBRANCH  16  39
BRANCH   6  43
HETATM   43  C5  UNL     1     -18.823  14.665 -24.512  1.00  0.00     0.051 C 
BRANCH  43  44
HETATM   44  C6  UNL     1     -20.054  15.336 -24.942  1.00  0.00    -0.019 C 
HETATM   45  C7  UNL     1     -19.566  16.428 -25.965  1.00  0.00     0.009 C 
HETATM   46  C8  UNL     1     -20.794  16.167 -23.925  1.00  0.00     0.009 C 
ENDBRANCH  43  44
ENDBRANCH   6  43
BRANCH  11  47
HETATM   47  C11 UNL     1     -19.977  11.592 -20.759  1.00  0.00     0.064 C 
BRANCH  47  48
HETATM   48  C12 UNL     1     -19.773  11.416 -19.306  1.00  0.00     0.026 C 
BRANCH  48  49
HETATM   49  C13 UNL     1     -19.186  10.073 -18.937  1.00  0.00     0.122 C 
BRANCH  49  50
HETATM   50  N3  UNL     1     -18.501  10.049 -17.685  1.00  0.00    -0.367 N 
HETATM   51  C14 UNL     1     -18.388   8.902 -17.103  1.00  0.00     0.196 C 
HETATM   52  N4  UNL     1     -17.716   8.828 -15.860  1.00  0.00    -0.067 NA
HETATM   53  N5  UNL     1     -18.909   7.691 -17.650  1.00  0.00    -0.067 NA
ATOM     54  H3  UNL     1     -18.119  10.899 -17.270  1.00  0.00     0.161 HD
ENDBRANCH  49  50
ENDBRANCH  48  49
ENDBRANCH  47  48
ENDBRANCH  11  47
TORSDOF 13
ENDMDL
MODEL 2
REMARK VINA RESULT: -8.859106892      5.528     12.665
REMARK  13 active torsions:
REMARK  status: ('A' for Active; 'I' for Inactive)
REMARK    1  A    between atoms: C4_6  and  C5_7 
REMARK    2  A    between atoms: C5_7  and  C6_8 
REMARK    3  A    between atoms: C10_15  and  C11_16 
REMARK    4  A    between atoms: C11_16  and  C12_17 
REMARK    5  A    between atoms: C12_17  and  C13_18 
REMARK    6  A    between atoms: C13_18  and  N3_19 
REMARK    7  A    between atoms: C16_28  and  C17_29 
REMARK    8  A    between atoms: C17_29  and  C18_30 
REMARK    9  A    between atoms: C18_30  and  C19_31 
REMARK   10  A    between atoms: C21_35  and  O4_36 
REMARK   11  A    between atoms: C22_38  and  C23_39 
REMARK   12  A    between atoms: C23_39  and  C24_40 
REMARK   13  A    between atoms: C29_47  and  O5_48 
ROOT
HETATM    1  C1  UNL     1     -21.923   3.819 -18.454  1.00  0.00     0.029 C 
HETATM    2  C2  UNL     1     -20.877   4.611 -18.337  1.00  0.00     0.053 C 
HETATM    3  C3  UNL     1     -20.008   5.312 -19.273  1.00  0.00     0.256 C 
HETATM    4  O1  UNL     1     -19.584   5.116 -20.465  1.00  0.00    -0.268 OA
HETATM    5  N1  UNL     1     -19.841   6.307 -18.269  1.00  0.00    -0.292 N 
HETATM    6  C4  UNL     1     -19.587   7.653 -17.888  1.00  0.00     0.193 C 
HETATM    7  N2  UNL     1     -18.321   8.086 -18.516  1.00  0.00    -0.335 N 
ATOM      8  H2  UNL     1     -17.803   7.360 -19.011  1.00  0.00     0.164 HD
HETATM    9  C9  UNL     1     -17.746   9.343 -18.524  1.00  0.00     0.265 C 
HETATM   10  O2  UNL     1     -17.451   9.816 -19.689  1.00  0.00    -0.266 OA
HETATM   11  C10 UNL     1     -17.400  10.263 -17.421  1.00  0.00     0.080 C 
HETATM   12  N6  UNL     1     -17.026   9.694 -16.173  1.00  0.00    -0.324 N 
ATOM     13  H6  UNL     1     -17.110  10.349 -15.395  1.00  0.00     0.169 HD
HETATM   14  C15 UNL     1     -16.573   8.442 -15.782  1.00  0.00     0.244 C 
HETATM   15  O3  UNL     1     -17.057   7.949 -14.724  1.00  0.00    -0.271 OA
HETATM   16  C16 UNL     1     -15.591   7.559 -16.409  1.00  0.00     0.175 C 
HETATM   17  N7  UNL     1     -15.693   6.164 -16.128  1.00  0.00    -0.359 N 
ATOM     18  H7  UNL     1     -14.934   5.826 -15.536  1.00  0.00     0.162 HD
HETATM   19  C21 UNL     1     -16.595   5.152 -16.479  1.00  0.00     0.146 C 
HETATM   20  C22 UNL     1     -17.972   4.870 -16.071  1.00  0.00     0.303 C 
HETATM   21  N9  UNL     1     -18.744   4.519 -17.260  1.00  0.00     0.124 N 
HETATM   22  C33 UNL     1     -18.941   3.085 -17.384  1.00  0.00     0.314 C 
HETATM   23  C34 UNL     1     -20.022   5.224 -17.300  1.00  0.00     0.367 C 
ENDROOT
BRANCH  20  24
HETATM   24  C23 UNL     1     -18.144   3.779 -15.063  1.00  0.00     0.085 C 
BRANCH  24  25
HETATM   25  C24 UNL     1     -16.923   3.259 -14.441  1.00  0.00    -0.028 A 
HETATM   26  C25 UNL     1     -16.189   3.877 -13.410  1.00  0.00     0.096 A 
HETATM   27  N8  UNL     1     -15.130   3.115 -13.163  1.00  0.00    -0.365 N 
HETATM   28  C26 UNL     1     -15.115   2.035 -13.960  1.00  0.00     0.043 A 
ATOM     29  H8  UNL     1     -14.420   3.322 -12.460  1.00  0.00     0.165 HD
HETATM   30  C27 UNL     1     -14.271   0.962 -14.090  1.00  0.00     0.033 A 
HETATM   31  C32 UNL     1     -16.247   2.117 -14.772  1.00  0.00     0.001 A 
HETATM   32  C28 UNL     1     -14.476  -0.067 -14.993  1.00  0.00     0.039 A 
HETATM   33  C29 UNL     1     -15.588  -0.003 -15.800  1.00  0.00     0.069 A 
HETATM   34  C31 UNL     1     -16.439   1.074 -15.673  1.00  0.00     0.051 A 
BRANCH  33  35
HETATM   35  O5  UNL     1     -15.883  -0.983 -16.736  1.00  0.00    -0.356 OA
HETATM   36  C30 UNL     1     -16.914  -0.825 -17.690  1.00  0.00     0.210 C 
ENDBRANCH  33  35
ENDBRANCH  24  25
ENDBRANCH  20  24
BRANCH  19  37
HETATM   37  O4  UNL     1     -16.204   4.247 -17.329  1.00  0.00    -0.348 OA
ATOM     38  H4  UNL     1     -16.866   3.708 -17.748  1.00  0.00     0.219 HD
ENDBRANCH  19  37
BRANCH  16  39
HETATM   39  C17 UNL     1     -14.241   8.054 -15.820  1.00  0.00     0.035 C 
BRANCH  39  40
HETATM   40  C18 UNL     1     -13.624   9.126 -16.663  1.00  0.00     0.002 C 
BRANCH  40  41
HETATM   41  C19 UNL     1     -13.656  10.436 -15.866  1.00  0.00    -0.004 C 
HETATM   42  C20 UNL     1     -13.426  11.545 -16.889  1.00  0.00     0.005 C 
ENDBRANCH  40  41
ENDBRANCH  39  40
ENDBRANCH  16  39
BRANCH   6  43
HETATM   43  C5  UNL     1     -20.686   8.593 -18.075  1.00  0.00     0.051 C 
BRANCH  43  44
HETATM   44  C6  UNL     1     -20.942   9.317 -19.325  1.00  0.00    -0.019 C 
HETATM   45  C7  UNL     1     -21.136  10.813 -18.877  1.00  0.00     0.009 C 
HETATM   46  C8  UNL     1     -22.235   9.036 -20.048  1.00  0.00     0.009 C 
ENDBRANCH  43  44
ENDBRANCH   6  43
BRANCH  11  47
HETATM   47  C11 UNL     1     -16.615  11.462 -17.839  1.00  0.00     0.064 C 
BRANCH  47  48
HETATM   48  C12 UNL     1     -17.332  12.740 -18.036  1.00  0.00     0.026 C 
BRANCH  48  49
HETATM   49  C13 UNL     1     -17.082  13.370 -19.388  1.00  0.00     0.122 C 
BRANCH  49  50
HETATM   50  N3  UNL     1     -17.512  12.581 -20.497  1.00  0.00    -0.367 N 
HETATM   51  C14 UNL     1     -16.648  12.371 -21.433  1.00  0.00     0.196 C 
HETATM   52  N4  UNL     1     -17.027  11.595 -22.554  1.00  0.00    -0.067 NA
HETATM   53  N5  UNL     1     -15.316  12.884 -21.400  1.00  0.00    -0.067 NA
ATOM     54  H3  UNL     1     -18.458  12.202 -20.548  1.00  0.00     0.161 HD
ENDBRANCH  49  50
ENDBRANCH  48  49
ENDBRANCH  47  48
ENDBRANCH  11  47
TORSDOF 13
ENDMDL
MODEL 3
REMARK VINA RESULT: -8.748825372      2.749      6.389
REMARK  13 active torsions:
REMARK  status: ('A' for Active; 'I' for Inactive)
REMARK    1  A    between atoms: C4_6  and  C5_7 
REMARK    2  A    between atoms: C5_7  and  C6_8 
REMARK    3  A    between atoms: C10_15  and  C11_16 
REMARK    4  A    between atoms: C11_16  and  C12_17 
REMARK    5  A    between atoms: C12_17  and  C13_18 
REMARK    6  A    between atoms: C13_18  and  N3_19 
REMARK    7  A    between atoms: C16_28  and  C17_29 
REMARK    8  A    between atoms: C17_29  and  C18_30 
REMARK    9  A    between atoms: C18_30  and  C19_31 
REMARK   10  A    between atoms: C21_35  and  O4_36 
REMARK   11  A    between atoms: C22_38  and  C23_39 
REMARK   12  A    between atoms: C23_39  and  C24_40 
REMARK   13  A    between atoms: C29_47  and  O5_48 
ROOT
HETATM    1  C1  UNL     1     -13.363  16.260 -20.373  1.00  0.00     0.029 C 
HETATM    2  C2  UNL     1     -14.164  15.215 -20.385  1.00  0.00     0.053 C 
HETATM    3  C3  UNL     1     -14.001  13.797 -20.675  1.00  0.00     0.256 C 
HETATM    4  O1  UNL     1     -13.252  13.089 -21.435  1.00  0.00    -0.268 OA
HETATM    5  N1  UNL     1     -15.045  13.554 -19.738  1.00  0.00    -0.292 N 
HETATM    6  C4  UNL     1     -15.683  12.715 -18.783  1.00  0.00     0.193 C 
HETATM    7  N2  UNL     1     -15.957  11.409 -19.417  1.00  0.00    -0.335 N 
ATOM      8  H2  UNL     1     -15.754  11.351 -20.415  1.00  0.00     0.164 HD
HETATM    9  C9  UNL     1     -16.452  10.255 -18.839  1.00  0.00     0.265 C 
HETATM   10  O2  UNL     1     -15.744   9.190 -19.019  1.00  0.00    -0.266 OA
HETATM   11  C10 UNL     1     -17.668  10.012 -18.035  1.00  0.00     0.080 C 
HETATM   12  N6  UNL     1     -18.813  10.811 -18.304  1.00  0.00    -0.324 N 
ATOM     13  H6  UNL     1     -19.484  10.817 -17.536  1.00  0.00     0.169 HD
HETATM   14  C15 UNL     1     -19.218  11.583 -19.383  1.00  0.00     0.244 C 
HETATM   15  O3  UNL     1     -19.729  12.712 -19.135  1.00  0.00    -0.271 OA
HETATM   16  C16 UNL     1     -19.151  11.305 -20.817  1.00  0.00     0.175 C 
HETATM   17  N7  UNL     1     -19.129  12.425 -21.701  1.00  0.00    -0.359 N 
ATOM     18  H7  UNL     1     -19.996  12.526 -22.229  1.00  0.00     0.162 HD
HETATM   19  C21 UNL     1     -18.191  13.417 -22.008  1.00  0.00     0.146 C 
HETATM   20  C22 UNL     1     -17.694  14.575 -21.262  1.00  0.00     0.303 C 
HETATM   21  N9  UNL     1     -16.243  14.635 -21.415  1.00  0.00     0.124 N 
HETATM   22  C33 UNL     1     -15.833  15.629 -22.391  1.00  0.00     0.314 C 
HETATM   23  C34 UNL     1     -15.576  14.859 -20.135  1.00  0.00     0.367 C 
ENDROOT
BRANCH  20  24
HETATM   24  C23 UNL     1     -18.262  15.900 -21.659  1.00  0.00     0.085 C 
BRANCH  24  25
HETATM   25  C24 UNL     1     -19.348  15.883 -22.643  1.00  0.00    -0.028 A 
HETATM   26  C25 UNL     1     -20.599  15.256 -22.487  1.00  0.00     0.096 A 
HETATM   27  N8  UNL     1     -21.276  15.430 -23.616  1.00  0.00    -0.365 N 
HETATM   28  C26 UNL     1     -20.557  16.130 -24.507  1.00  0.00     0.043 A 
ATOM     29  H8  UNL     1     -22.218  15.077 -23.785  1.00  0.00     0.165 HD
HETATM   30  C27 UNL     1     -20.799  16.578 -25.780  1.00  0.00     0.033 A 
HETATM   31  C32 UNL     1     -19.336  16.423 -23.900  1.00  0.00     0.001 A 
HETATM   32  C28 UNL     1     -19.890  17.319 -26.516  1.00  0.00     0.039 A 
HETATM   33  C29 UNL     1     -18.680  17.617 -25.932  1.00  0.00     0.069 A 
HETATM   34  C31 UNL     1     -18.433  17.169 -24.653  1.00  0.00     0.051 A 
BRANCH  33  35
HETATM   35  O5  UNL     1     -17.703  18.354 -26.585  1.00  0.00    -0.356 OA
HETATM   36  C30 UNL     1     -16.348  18.327 -26.182  1.00  0.00     0.210 C 
ENDBRANCH  33  35
ENDBRANCH  24  25
ENDBRANCH  20  24
BRANCH  19  37
HETATM   37  O4  UNL     1     -17.603  13.369 -23.170  1.00  0.00    -0.348 OA
ATOM     38  H4  UNL     1     -16.864  13.947 -23.323  1.00  0.00     0.219 HD
ENDBRANCH  19  37
BRANCH  16  39
HETATM   39  C17 UNL     1     -20.468  10.525 -21.088  1.00  0.00     0.035 C 
BRANCH  39  40
HETATM   40  C18 UNL     1     -20.383   9.106 -20.620  1.00  0.00     0.002 C 
BRANCH  40  41
HETATM   41  C19 UNL     1     -21.762   8.697 -20.088  1.00  0.00    -0.004 C 
HETATM   42  C20 UNL     1     -21.633   8.702 -18.567  1.00  0.00     0.005 C 
ENDBRANCH  40  41
ENDBRANCH  39  40
ENDBRANCH  16  39
BRANCH   6  43
HETATM   43  C5  UNL     1     -15.030  12.610 -17.482  1.00  0.00     0.051 C 
BRANCH  43  44
HETATM   44  C6  UNL     1     -14.164  11.495 -17.087  1.00  0.00    -0.019 C 
HETATM   45  C7  UNL     1     -13.839  11.772 -15.572  1.00  0.00     0.009 C 
HETATM   46  C8  UNL     1     -12.786  11.426 -17.696  1.00  0.00     0.009 C 
ENDBRANCH  43  44
ENDBRANCH   6  43
BRANCH  11  47
HETATM   47  C11 UNL     1     -17.944   8.573 -17.750  1.00  0.00     0.064 C 
BRANCH  47  48
HETATM   48  C12 UNL     1     -18.212   8.170 -16.354  1.00  0.00     0.026 C 
BRANCH  48  49
HETATM   49  C13 UNL     1     -17.256   7.119 -15.835  1.00  0.00     0.122 C 
BRANCH  49  50
HETATM   50  N3  UNL     1     -15.933   7.210 -16.360  1.00  0.00    -0.367 N 
HETATM   51  C14 UNL     1     -15.113   7.994 -15.744  1.00  0.00     0.196 C 
HETATM   52  N4  UNL     1     -13.789   8.118 -16.227  1.00  0.00    -0.067 NA
HETATM   53  N5  UNL     1     -15.472   8.753 -14.589  1.00  0.00    -0.067 NA
ATOM     54  H3  UNL     1     -15.648   6.680 -17.185  1.00  0.00     0.161 HD
ENDBRANCH  49  50
ENDBRANCH  48  49
ENDBRANCH  47  48
ENDBRANCH  11  47
TORSDOF 13
ENDMDL
MODEL 4
REMARK VINA RESULT: -8.593425256      2.775      6.474
REMARK  13 active torsions:
REMARK  status: ('A' for Active; 'I' for Inactive)
REMARK    1  A    between atoms: C4_6  and  C5_7 
REMARK    2  A    between atoms: C5_7  and  C6_8 
REMARK    3  A    between atoms: C10_15  and  C11_16 
REMARK    4  A    between atoms: C11_16  and  C12_17 
REMARK    5  A    between atoms: C12_17  and  C13_18 
REMARK    6  A    between atoms: C13_18  and  N3_19 
REMARK    7  A    between atoms: C16_28  and  C17_29 
REMARK    8  A    between atoms: C17_29  and  C18_30 
REMARK    9  A    between atoms: C18_30  and  C19_31 
REMARK   10  A    between atoms: C21_35  and  O4_36 
REMARK   11  A    between atoms: C22_38  and  C23_39 
REMARK   12  A    between atoms: C23_39  and  C24_40 
REMARK   13  A    between atoms: C29_47  and  O5_48 
ROOT
HETATM    1  C1  UNL     1     -13.338  16.197 -20.506  1.00  0.00     0.029 C 
HETATM    2  C2  UNL     1     -14.126  15.143 -20.475  1.00  0.00     0.053 C 
HETATM    3  C3  UNL     1     -13.961  13.725 -20.768  1.00  0.00     0.256 C 
HETATM    4  O1  UNL     1     -13.241  13.023 -21.561  1.00  0.00    -0.268 OA
HETATM    5  N1  UNL     1     -14.955  13.474 -19.781  1.00  0.00    -0.292 N 
HETATM    6  C4  UNL     1     -15.536  12.631 -18.793  1.00  0.00     0.193 C 
HETATM    7  N2  UNL     1     -15.826  11.320 -19.409  1.00  0.00    -0.335 N 
ATOM      8  H2  UNL     1     -15.670  11.261 -20.415  1.00  0.00     0.164 HD
HETATM    9  C9  UNL     1     -16.278  10.163 -18.803  1.00  0.00     0.265 C 
HETATM   10  O2  UNL     1     -15.567   9.105 -19.014  1.00  0.00    -0.266 OA
HETATM   11  C10 UNL     1     -17.451   9.908 -17.941  1.00  0.00     0.080 C 
HETATM   12  N6  UNL     1     -18.617  10.693 -18.157  1.00  0.00    -0.324 N 
ATOM     13  H6  UNL     1     -19.250  10.694 -17.357  1.00  0.00     0.169 HD
HETATM   14  C15 UNL     1     -19.082  11.456 -19.218  1.00  0.00     0.244 C 
HETATM   15  O3  UNL     1     -19.594  12.580 -18.949  1.00  0.00    -0.271 OA
HETATM   16  C16 UNL     1     -19.082  11.173 -20.652  1.00  0.00     0.175 C 
HETATM   17  N7  UNL     1     -19.116  12.290 -21.539  1.00  0.00    -0.359 N 
ATOM     18  H7  UNL     1     -20.009  12.379 -22.025  1.00  0.00     0.162 HD
HETATM   19  C21 UNL     1     -18.205  13.292 -21.895  1.00  0.00     0.146 C 
HETATM   20  C22 UNL     1     -17.687  14.458 -21.178  1.00  0.00     0.303 C 
HETATM   21  N9  UNL     1     -16.245  14.534 -21.401  1.00  0.00     0.124 N 
HETATM   22  C33 UNL     1     -15.895  15.530 -22.399  1.00  0.00     0.314 C 
HETATM   23  C34 UNL     1     -15.520  14.771 -20.156  1.00  0.00     0.367 C 
ENDROOT
BRANCH  20  24
HETATM   24  C23 UNL     1     -18.288  15.775 -21.552  1.00  0.00     0.085 C 
BRANCH  24  25
HETATM   25  C24 UNL     1     -19.397  15.744 -22.510  1.00  0.00    -0.028 A 
HETATM   26  C25 UNL     1     -20.634  15.097 -22.328  1.00  0.00     0.096 A 
HETATM   27  N8  UNL     1     -21.339  15.265 -23.441  1.00  0.00    -0.365 N 
HETATM   28  C26 UNL     1     -20.652  15.979 -24.345  1.00  0.00     0.043 A 
ATOM     29  H8  UNL     1     -22.279  14.898 -23.589  1.00  0.00     0.165 HD
HETATM   30  C27 UNL     1     -20.930  16.428 -25.611  1.00  0.00     0.033 A 
HETATM   31  C32 UNL     1     -19.422  16.289 -23.765  1.00  0.00     0.001 A 
HETATM   32  C28 UNL     1     -20.049  17.185 -26.364  1.00  0.00     0.039 A 
HETATM   33  C29 UNL     1     -18.832  17.501 -25.807  1.00  0.00     0.069 A 
HETATM   34  C31 UNL     1     -18.548  17.052 -24.536  1.00  0.00     0.051 A 
BRANCH  33  35
HETATM   35  O5  UNL     1     -17.881  18.254 -26.479  1.00  0.00    -0.356 OA
HETATM   36  C30 UNL     1     -16.529  18.296 -26.069  1.00  0.00     0.210 C 
ENDBRANCH  33  35
ENDBRANCH  24  25
ENDBRANCH  20  24
BRANCH  19  37
HETATM   37  O4  UNL     1     -17.674  13.246 -23.084  1.00  0.00    -0.348 OA
ATOM     38  H4  UNL     1     -16.936  12.663 -23.223  1.00  0.00     0.219 HD
ENDBRANCH  19  37
BRANCH  16  39
HETATM   39  C17 UNL     1     -20.401  10.377 -20.856  1.00  0.00     0.035 C 
BRANCH  39  40
HETATM   40  C18 UNL     1     -20.272   8.957 -20.403  1.00  0.00     0.002 C 
BRANCH  40  41
HETATM   41  C19 UNL     1     -21.654   8.477 -19.943  1.00  0.00    -0.004 C 
HETATM   42  C20 UNL     1     -21.945   9.241 -18.653  1.00  0.00     0.005 C 
ENDBRANCH  40  41
ENDBRANCH  39  40
ENDBRANCH  16  39
BRANCH   6  43
HETATM   43  C5  UNL     1     -14.820  12.539 -17.525  1.00  0.00     0.051 C 
BRANCH  43  44
HETATM   44  C6  UNL     1     -13.884  11.462 -17.188  1.00  0.00    -0.019 C 
HETATM   45  C7  UNL     1     -14.264  11.062 -15.714  1.00  0.00     0.009 C 
HETATM   46  C8  UNL     1     -12.425  11.815 -17.052  1.00  0.00     0.009 C 
ENDBRANCH  43  44
ENDBRANCH   6  43
BRANCH  11  47
HETATM   47  C11 UNL     1     -17.695   8.467 -17.638  1.00  0.00     0.064 C 
BRANCH  47  48
HETATM   48  C12 UNL     1     -18.917   8.101 -16.891  1.00  0.00     0.026 C 
BRANCH  48  49
HETATM   49  C13 UNL     1     -19.438   6.721 -17.224  1.00  0.00     0.122 C 
BRANCH  49  50
HETATM   50  N3  UNL     1     -18.869   6.141 -18.397  1.00  0.00    -0.367 N 
HETATM   51  C14 UNL     1     -19.614   5.324 -19.064  1.00  0.00     0.196 C 
HETATM   52  N4  UNL     1     -19.094   4.723 -20.235  1.00  0.00    -0.067 NA
HETATM   53  N5  UNL     1     -20.948   4.990 -18.681  1.00  0.00    -0.067 NA
ATOM     54  H3  UNL     1     -17.917   6.360 -18.694  1.00  0.00     0.161 HD
ENDBRANCH  49  50
ENDBRANCH  48  49
ENDBRANCH  47  48
ENDBRANCH  11  47
TORSDOF 13
ENDMDL
MODEL 5
REMARK VINA RESULT: -8.590447185      5.480     12.878
REMARK  13 active torsions:
REMARK  status: ('A' for Active; 'I' for Inactive)
REMARK    1  A    between atoms: C4_6  and  C5_7 
REMARK    2  A    between atoms: C5_7  and  C6_8 
REMARK    3  A    between atoms: C10_15  and  C11_16 
REMARK    4  A    between atoms: C11_16  and  C12_17 
REMARK    5  A    between atoms: C12_17  and  C13_18 
REMARK    6  A    between atoms: C13_18  and  N3_19 
REMARK    7  A    between atoms: C16_28  and  C17_29 
REMARK    8  A    between atoms: C17_29  and  C18_30 
REMARK    9  A    between atoms: C18_30  and  C19_31 
REMARK   10  A    between atoms: C21_35  and  O4_36 
REMARK   11  A    between atoms: C22_38  and  C23_39 
REMARK   12  A    between atoms: C23_39  and  C24_40 
REMARK   13  A    between atoms: C29_47  and  O5_48 
ROOT
HETATM    1  C1  UNL     1     -21.626   3.499 -18.442  1.00  0.00     0.029 C 
HETATM    2  C2  UNL     1     -20.633   4.356 -18.320  1.00  0.00     0.053 C 
HETATM    3  C3  UNL     1     -19.793   5.097 -19.252  1.00  0.00     0.256 C 
HETATM    4  O1  UNL     1     -19.339   4.912 -20.435  1.00  0.00    -0.268 OA
HETATM    5  N1  UNL     1     -19.705   6.113 -18.259  1.00  0.00    -0.292 N 
HETATM    6  C4  UNL     1     -19.541   7.478 -17.894  1.00  0.00     0.193 C 
HETATM    7  N2  UNL     1     -18.295   7.980 -18.509  1.00  0.00    -0.335 N 
ATOM      8  H2  UNL     1     -17.724   7.281 -18.985  1.00  0.00     0.164 HD
HETATM    9  C9  UNL     1     -17.798   9.270 -18.525  1.00  0.00     0.265 C 
HETATM   10  O2  UNL     1     -17.514   9.745 -19.692  1.00  0.00    -0.266 OA
HETATM   11  C10 UNL     1     -17.528  10.224 -17.430  1.00  0.00     0.080 C 
HETATM   12  N6  UNL     1     -17.140   9.696 -16.169  1.00  0.00    -0.324 N 
ATOM     13  H6  UNL     1     -17.277  10.354 -15.402  1.00  0.00     0.169 HD
HETATM   14  C15 UNL     1     -16.617   8.480 -15.753  1.00  0.00     0.244 C 
HETATM   15  O3  UNL     1     -17.087   7.972 -14.696  1.00  0.00    -0.271 OA
HETATM   16  C16 UNL     1     -15.572   7.651 -16.352  1.00  0.00     0.175 C 
HETATM   17  N7  UNL     1     -15.592   6.256 -16.053  1.00  0.00    -0.359 N 
ATOM     18  H7  UNL     1     -14.823   5.974 -15.444  1.00  0.00     0.162 HD
HETATM   19  C21 UNL     1     -16.424   5.186 -16.403  1.00  0.00     0.146 C 
HETATM   20  C22 UNL     1     -17.787   4.824 -16.013  1.00  0.00     0.303 C 
HETATM   21  N9  UNL     1     -18.516   4.411 -17.209  1.00  0.00     0.124 N 
HETATM   22  C33 UNL     1     -18.623   2.966 -17.316  1.00  0.00     0.314 C 
HETATM   23  C34 UNL     1     -19.835   5.035 -17.278  1.00  0.00     0.367 C 
ENDROOT
BRANCH  20  24
HETATM   24  C23 UNL     1     -17.908   3.738 -14.992  1.00  0.00     0.085 C 
BRANCH  24  25
HETATM   25  C24 UNL     1     -16.739   3.504 -14.139  1.00  0.00    -0.028 A 
HETATM   26  C25 UNL     1     -15.433   3.219 -14.581  1.00  0.00     0.096 A 
HETATM   27  N8  UNL     1     -14.681   3.027 -13.504  1.00  0.00    -0.365 N 
HETATM   28  C26 UNL     1     -15.401   3.166 -12.380  1.00  0.00     0.043 A 
ATOM     29  H8  UNL     1     -13.686   2.801 -13.526  1.00  0.00     0.165 HD
HETATM   30  C27 UNL     1     -15.102   3.087 -11.045  1.00  0.00     0.033 A 
HETATM   31  C32 UNL     1     -16.705   3.470 -12.772  1.00  0.00     0.001 A 
HETATM   32  C28 UNL     1     -16.031   3.294 -10.039  1.00  0.00     0.039 A 
HETATM   33  C29 UNL     1     -17.322   3.596 -10.408  1.00  0.00     0.069 A 
HETATM   34  C31 UNL     1     -17.627   3.677 -11.749  1.00  0.00     0.051 A 
BRANCH  33  35
HETATM   35  O5  UNL     1     -18.325   3.822  -9.478  1.00  0.00    -0.356 OA
HETATM   36  C30 UNL     1     -19.579   4.365  -9.843  1.00  0.00     0.210 C 
ENDBRANCH  33  35
ENDBRANCH  24  25
ENDBRANCH  20  24
BRANCH  19  37
HETATM   37  O4  UNL     1     -15.963   4.296 -17.235  1.00  0.00    -0.348 OA
ATOM     38  H4  UNL     1     -15.432   4.595 -17.964  1.00  0.00     0.219 HD
ENDBRANCH  19  37
BRANCH  16  39
HETATM   39  C17 UNL     1     -14.265   8.237 -15.749  1.00  0.00     0.035 C 
BRANCH  39  40
HETATM   40  C18 UNL     1     -13.643   9.258 -16.650  1.00  0.00     0.002 C 
BRANCH  40  41
HETATM   41  C19 UNL     1     -13.726  10.622 -15.953  1.00  0.00    -0.004 C 
HETATM   42  C20 UNL     1     -13.489  11.658 -17.049  1.00  0.00     0.005 C 
ENDBRANCH  40  41
ENDBRANCH  39  40
ENDBRANCH  16  39
BRANCH   6  43
HETATM   43  C5  UNL     1     -20.693   8.345 -18.112  1.00  0.00     0.051 C 
BRANCH  43  44
HETATM   44  C6  UNL     1     -20.939   9.086 -19.353  1.00  0.00    -0.019 C 
HETATM   45  C7  UNL     1     -21.250  10.554 -18.876  1.00  0.00     0.009 C 
HETATM   46  C8  UNL     1     -22.175   8.744 -20.144  1.00  0.00     0.009 C 
ENDBRANCH  43  44
ENDBRANCH   6  43
BRANCH  11  47
HETATM   47  C11 UNL     1     -16.812  11.464 -17.853  1.00  0.00     0.064 C 
BRANCH  47  48
HETATM   48  C12 UNL     1     -17.566  12.735 -17.892  1.00  0.00     0.026 C 
BRANCH  48  49
HETATM   49  C13 UNL     1     -17.589  13.382 -19.258  1.00  0.00     0.122 C 
BRANCH  49  50
HETATM   50  N3  UNL     1     -17.713  12.466 -20.345  1.00  0.00    -0.367 N 
HETATM   51  C14 UNL     1     -16.833  12.555 -21.287  1.00  0.00     0.196 C 
HETATM   52  N4  UNL     1     -16.914  11.668 -22.386  1.00  0.00    -0.067 NA
HETATM   53  N5  UNL     1     -15.772  13.510 -21.280  1.00  0.00    -0.067 NA
ATOM     54  H3  UNL     1     -18.461  11.773 -20.378  1.00  0.00     0.161 HD
ENDBRANCH  49  50
ENDBRANCH  48  49
ENDBRANCH  47  48
ENDBRANCH  11  47
TORSDOF 13
ENDMDL
