MODEL 1
REMARK VINA RESULT: -8.937491843      0.000      0.000
REMARK  12 active torsions:
REMARK  status: ('A' for Active; 'I' for Inactive)
REMARK    1  A    between atoms: C2_2  and  C3_3 
REMARK       I    between atoms: C3_3  and  N1_5 
REMARK    2  A    between atoms: N1_5  and  C4_6 
REMARK    3  A    between atoms: C9_14  and  C10_15 
REMARK    4  A    between atoms: C10_15  and  C11_16 
REMARK    5  A    between atoms: C11_16  and  C12_17 
REMARK    6  A    between atoms: C12_17  and  N2_18 
REMARK       I    between atoms: N2_18  and  C13_20 
REMARK    7  A    between atoms: C13_20  and  C14_22 
REMARK    8  A    between atoms: C14_22  and  C15_23 
REMARK    9  A    between atoms: C15_23  and  C16_24 
REMARK   10  A    between atoms: C16_24  and  C17_25 
REMARK   11  A    between atoms: C17_25  and  C18_26 
REMARK   12  A    between atoms: C25_33  and  O6_34 
ROOT
HETATM    1  N2  UNL     1     -18.195  16.501 -24.841  1.00  0.00    -0.361 N 
ATOM      2  H2  UNL     1     -17.262  16.099 -24.745  1.00  0.00     0.162 HD
HETATM    3  C13 UNL     1     -18.362  17.865 -24.658  1.00  0.00     0.217 C 
HETATM    4  O5  UNL     1     -19.526  18.377 -24.670  1.00  0.00    -0.274 OA
ENDROOT
BRANCH   1   5
HETATM    5  C12 UNL     1     -19.301  15.633 -25.164  1.00  0.00     0.122 C 
BRANCH   5   6
HETATM    6  C11 UNL     1     -19.798  14.915 -23.951  1.00  0.00     0.022 C 
BRANCH   6   7
HETATM    7  C10 UNL     1     -18.945  14.824 -22.774  1.00  0.00     0.036 C 
BRANCH   7   8
HETATM    8  C9  UNL     1     -18.940  13.482 -22.085  1.00  0.00     0.152 C 
HETATM    9  C8  UNL     1     -17.915  12.509 -22.579  1.00  0.00     0.206 C 
HETATM   10  O4  UNL     1     -17.442  11.908 -21.335  1.00  0.00    -0.324 OA
HETATM   11  C7  UNL     1     -18.601  12.031 -20.596  1.00  0.00     0.344 C 
HETATM   12  C4  UNL     1     -18.644  11.552 -19.216  1.00  0.00     0.181 C 
HETATM   13  O3  UNL     1     -19.671  11.429 -21.317  1.00  0.00    -0.302 OA
HETATM   14  O7  UNL     1     -18.784  13.454 -20.720  1.00  0.00    -0.319 OA
HETATM   15  C5  UNL     1     -19.485  10.321 -18.941  1.00  0.00     0.247 C 
HETATM   16  O2  UNL     1     -19.836   9.562 -20.014  1.00  0.00    -0.360 OA
HETATM   17  C6  UNL     1     -19.373  10.066 -21.228  1.00  0.00     0.344 C 
BRANCH  12  18
HETATM   18  N1  UNL     1     -17.459  11.558 -18.455  1.00  0.00    -0.365 NA
HETATM   19  C3  UNL     1     -16.337  11.638 -17.743  1.00  0.00     0.315 C 
HETATM   20  O1  UNL     1     -15.669  12.689 -17.458  1.00  0.00    -0.252 OA
BRANCH  19  21
HETATM   21  C2  UNL     1     -15.695  10.410 -17.166  1.00  0.00     0.080 C 
HETATM   22  C1  UNL     1     -14.391  10.272 -17.121  1.00  0.00     0.018 C 
ENDBRANCH  19  21
ENDBRANCH  12  18
ENDBRANCH   7   8
ENDBRANCH   6   7
ENDBRANCH   5   6
ENDBRANCH   1   5
BRANCH   3  23
HETATM   23  C14 UNL     1     -17.233  18.810 -24.451  1.00  0.00     0.103 C 
BRANCH  23  24
HETATM   24  C15 UNL     1     -16.779  18.572 -23.000  1.00  0.00     0.009 C 
BRANCH  24  25
HETATM   25  C16 UNL     1     -15.269  18.574 -22.951  1.00  0.00     0.001 C 
BRANCH  25  26
HETATM   26  C17 UNL     1     -14.815  18.039 -21.625  1.00  0.00     0.005 C 
BRANCH  26  27
HETATM   27  C18 UNL     1     -13.769  16.957 -21.760  1.00  0.00    -0.006 C 
HETATM   28  C19 UNL     1     -13.378  16.417 -20.398  1.00  0.00    -0.007 C 
HETATM   29  C20 UNL     1     -12.400  15.295 -20.597  1.00  0.00     0.010 C 
HETATM   30  C27 UNL     1     -14.598  15.843 -19.695  1.00  0.00     0.043 C 
HETATM   31  C21 UNL     1     -12.986  14.158 -21.389  1.00  0.00    -0.011 C 
HETATM   32  C22 UNL     1     -13.319  14.731 -22.750  1.00  0.00     0.010 C 
HETATM   33  C26 UNL     1     -14.178  13.634 -20.675  1.00  0.00     0.042 C 
HETATM   34  C23 UNL     1     -14.342  15.831 -22.563  1.00  0.00    -0.007 C 
HETATM   35  C24 UNL     1     -15.548  15.189 -21.911  1.00  0.00     0.043 C 
HETATM   36  C25 UNL     1     -15.193  14.746 -20.511  1.00  0.00     0.059 C 
BRANCH  36  37
HETATM   37  O6  UNL     1     -16.367  14.329 -19.884  1.00  0.00    -0.390 OA
ATOM     38  H6  UNL     1     -16.125  13.777 -19.149  1.00  0.00     0.210 HD
ENDBRANCH  36  37
ENDBRANCH  26  27
ENDBRANCH  25  26
ENDBRANCH  24  25
ENDBRANCH  23  24
ENDBRANCH   3  23
TORSDOF 12
ENDMDL
MODEL 2
REMARK VINA RESULT: -8.453731254      2.224      8.773
REMARK  12 active torsions:
REMARK  status: ('A' for Active; 'I' for Inactive)
REMARK    1  A    between atoms: C2_2  and  C3_3 
REMARK       I    between atoms: C3_3  and  N1_5 
REMARK    2  A    between atoms: N1_5  and  C4_6 
REMARK    3  A    between atoms: C9_14  and  C10_15 
REMARK    4  A    between atoms: C10_15  and  C11_16 
REMARK    5  A    between atoms: C11_16  and  C12_17 
REMARK    6  A    between atoms: C12_17  and  N2_18 
REMARK       I    between atoms: N2_18  and  C13_20 
REMARK    7  A    between atoms: C13_20  and  C14_22 
REMARK    8  A    between atoms: C14_22  and  C15_23 
REMARK    9  A    between atoms: C15_23  and  C16_24 
REMARK   10  A    between atoms: C16_24  and  C17_25 
REMARK   11  A    between atoms: C17_25  and  C18_26 
REMARK   12  A    between atoms: C25_33  and  O6_34 
ROOT
HETATM    1  N2  UNL     1     -15.589   9.150 -16.555  1.00  0.00    -0.361 N 
ATOM      2  H2  UNL     1     -16.158   8.987 -17.386  1.00  0.00     0.162 HD
HETATM    3  C13 UNL     1     -15.847   8.417 -15.407  1.00  0.00     0.217 C 
HETATM    4  O5  UNL     1     -15.222   8.672 -14.329  1.00  0.00    -0.274 OA
ENDROOT
BRANCH   1   5
HETATM    5  C12 UNL     1     -14.538  10.138 -16.611  1.00  0.00     0.122 C 
BRANCH   5   6
HETATM    6  C11 UNL     1     -14.552  10.872 -17.913  1.00  0.00     0.022 C 
BRANCH   6   7
HETATM    7  C10 UNL     1     -15.411  12.038 -18.067  1.00  0.00     0.036 C 
BRANCH   7   8
HETATM    8  C9  UNL     1     -15.165  12.859 -19.308  1.00  0.00     0.152 C 
HETATM    9  C8  UNL     1     -14.833  12.077 -20.541  1.00  0.00     0.206 C 
HETATM   10  O4  UNL     1     -15.594  12.787 -21.565  1.00  0.00    -0.324 OA
HETATM   11  C7  UNL     1     -15.571  14.046 -21.000  1.00  0.00     0.344 C 
HETATM   12  C4  UNL     1     -16.228  15.164 -21.675  1.00  0.00     0.181 C 
HETATM   13  O3  UNL     1     -14.218  14.406 -20.739  1.00  0.00    -0.302 OA
HETATM   14  O7  UNL     1     -16.152  13.719 -19.724  1.00  0.00    -0.319 OA
HETATM   15  C5  UNL     1     -15.330  16.231 -22.271  1.00  0.00     0.247 C 
HETATM   16  O2  UNL     1     -14.021  15.906 -22.450  1.00  0.00    -0.360 OA
HETATM   17  C6  UNL     1     -13.703  14.618 -22.022  1.00  0.00     0.344 C 
BRANCH  12  18
HETATM   18  N1  UNL     1     -17.348  14.907 -22.488  1.00  0.00    -0.365 NA
HETATM   19  C3  UNL     1     -18.447  14.652 -23.195  1.00  0.00     0.315 C 
HETATM   20  O1  UNL     1     -19.603  14.338 -22.751  1.00  0.00    -0.252 OA
BRANCH  19  21
HETATM   21  C2  UNL     1     -18.434  14.708 -24.695  1.00  0.00     0.080 C 
HETATM   22  C1  UNL     1     -19.404  15.278 -25.370  1.00  0.00     0.018 C 
ENDBRANCH  19  21
ENDBRANCH  12  18
ENDBRANCH   7   8
ENDBRANCH   6   7
ENDBRANCH   5   6
ENDBRANCH   1   5
BRANCH   3  23
HETATM   23  C14 UNL     1     -16.832   7.306 -15.347  1.00  0.00     0.103 C 
BRANCH  23  24
HETATM   24  C15 UNL     1     -18.119   7.884 -15.964  1.00  0.00     0.009 C 
BRANCH  24  25
HETATM   25  C16 UNL     1     -18.351   7.238 -17.309  1.00  0.00     0.001 C 
BRANCH  25  26
HETATM   26  C17 UNL     1     -19.500   7.918 -17.994  1.00  0.00     0.005 C 
BRANCH  26  27
HETATM   27  C18 UNL     1     -19.128   8.465 -19.353  1.00  0.00    -0.006 C 
HETATM   28  C19 UNL     1     -20.343   9.051 -20.045  1.00  0.00    -0.007 C 
HETATM   29  C20 UNL     1     -19.902   9.649 -21.350  1.00  0.00     0.010 C 
HETATM   30  C27 UNL     1     -20.932  10.172 -19.203  1.00  0.00     0.043 C 
HETATM   31  C21 UNL     1     -18.902  10.757 -21.163  1.00  0.00    -0.011 C 
HETATM   32  C22 UNL     1     -17.694  10.120 -20.512  1.00  0.00     0.010 C 
HETATM   33  C26 UNL     1     -19.512  11.825 -20.328  1.00  0.00     0.042 C 
HETATM   34  C23 UNL     1     -18.120   9.556 -19.172  1.00  0.00    -0.007 C 
HETATM   35  C24 UNL     1     -18.645  10.724 -18.364  1.00  0.00     0.043 C 
HETATM   36  C25 UNL     1     -19.918  11.244 -18.990  1.00  0.00     0.059 C 
BRANCH  36  37
HETATM   37  O6  UNL     1     -20.465  12.191 -18.125  1.00  0.00    -0.390 OA
ATOM     38  H6  UNL     1     -19.841  12.901 -18.038  1.00  0.00     0.210 HD
ENDBRANCH  36  37
ENDBRANCH  26  27
ENDBRANCH  25  26
ENDBRANCH  24  25
ENDBRANCH  23  24
ENDBRANCH   3  23
TORSDOF 12
ENDMDL
MODEL 3
REMARK VINA RESULT: -8.302920498      3.799      7.891
REMARK  12 active torsions:
REMARK  status: ('A' for Active; 'I' for Inactive)
REMARK    1  A    between atoms: C2_2  and  C3_3 
REMARK       I    between atoms: C3_3  and  N1_5 
REMARK    2  A    between atoms: N1_5  and  C4_6 
REMARK    3  A    between atoms: C9_14  and  C10_15 
REMARK    4  A    between atoms: C10_15  and  C11_16 
REMARK    5  A    between atoms: C11_16  and  C12_17 
REMARK    6  A    between atoms: C12_17  and  N2_18 
REMARK       I    between atoms: N2_18  and  C13_20 
REMARK    7  A    between atoms: C13_20  and  C14_22 
REMARK    8  A    between atoms: C14_22  and  C15_23 
REMARK    9  A    between atoms: C15_23  and  C16_24 
REMARK   10  A    between atoms: C16_24  and  C17_25 
REMARK   11  A    between atoms: C17_25  and  C18_26 
REMARK   12  A    between atoms: C25_33  and  O6_34 
ROOT
HETATM    1  N2  UNL     1     -14.764  11.579 -18.918  1.00  0.00    -0.361 N 
ATOM      2  H2  UNL     1     -14.165  10.907 -19.399  1.00  0.00     0.162 HD
HETATM    3  C13 UNL     1     -15.132  12.744 -19.574  1.00  0.00     0.217 C 
HETATM    4  O5  UNL     1     -15.790  13.644 -18.964  1.00  0.00    -0.274 OA
ENDROOT
BRANCH   1   5
HETATM    5  C12 UNL     1     -15.204  11.288 -17.575  1.00  0.00     0.122 C 
BRANCH   5   6
HETATM    6  C11 UNL     1     -14.110  10.664 -16.770  1.00  0.00     0.022 C 
BRANCH   6   7
HETATM    7  C10 UNL     1     -13.711   9.291 -17.048  1.00  0.00     0.036 C 
BRANCH   7   8
HETATM    8  C9  UNL     1     -14.449   8.235 -16.264  1.00  0.00     0.152 C 
HETATM    9  C8  UNL     1     -14.846   8.626 -14.874  1.00  0.00     0.206 C 
HETATM   10  O4  UNL     1     -16.189   8.063 -14.772  1.00  0.00    -0.324 OA
HETATM   11  C7  UNL     1     -16.028   6.993 -15.628  1.00  0.00     0.344 C 
HETATM   12  C4  UNL     1     -17.141   6.079 -15.875  1.00  0.00     0.181 C 
HETATM   13  O3  UNL     1     -14.902   6.232 -15.204  1.00  0.00    -0.302 OA
HETATM   14  O7  UNL     1     -15.605   7.718 -16.798  1.00  0.00    -0.319 OA
HETATM   15  C5  UNL     1     -17.021   4.680 -15.304  1.00  0.00     0.247 C 
HETATM   16  O2  UNL     1     -16.090   4.488 -14.331  1.00  0.00    -0.360 OA
HETATM   17  C6  UNL     1     -15.360   5.636 -14.025  1.00  0.00     0.344 C 
BRANCH  12  18
HETATM   18  N1  UNL     1     -18.459   6.569 -15.789  1.00  0.00    -0.365 NA
HETATM   19  C3  UNL     1     -19.678   7.088 -15.666  1.00  0.00     0.315 C 
HETATM   20  O1  UNL     1     -20.017   8.134 -15.015  1.00  0.00    -0.252 OA
BRANCH  19  21
HETATM   21  C2  UNL     1     -20.865   6.447 -16.325  1.00  0.00     0.080 C 
HETATM   22  C1  UNL     1     -22.085   6.881 -16.117  1.00  0.00     0.018 C 
ENDBRANCH  19  21
ENDBRANCH  12  18
ENDBRANCH   7   8
ENDBRANCH   6   7
ENDBRANCH   5   6
ENDBRANCH   1   5
BRANCH   3  23
HETATM   23  C14 UNL     1     -14.806  13.021 -20.998  1.00  0.00     0.103 C 
BRANCH  23  24
HETATM   24  C15 UNL     1     -16.171  13.149 -21.698  1.00  0.00     0.009 C 
BRANCH  24  25
HETATM   25  C16 UNL     1     -16.693  11.767 -22.011  1.00  0.00     0.001 C 
BRANCH  25  26
HETATM   26  C17 UNL     1     -18.141  11.685 -21.625  1.00  0.00     0.005 C 
BRANCH  26  27
HETATM   27  C18 UNL     1     -18.525  10.325 -21.088  1.00  0.00    -0.006 C 
HETATM   28  C19 UNL     1     -18.012  10.143 -19.673  1.00  0.00    -0.007 C 
HETATM   29  C20 UNL     1     -18.490   8.814 -19.164  1.00  0.00     0.010 C 
HETATM   30  C27 UNL     1     -18.592  11.217 -18.766  1.00  0.00     0.043 C 
HETATM   31  C21 UNL     1     -19.991   8.723 -19.123  1.00  0.00    -0.011 C 
HETATM   32  C22 UNL     1     -20.455   8.865 -20.556  1.00  0.00     0.010 C 
HETATM   33  C26 UNL     1     -20.517   9.793 -18.236  1.00  0.00     0.042 C 
HETATM   34  C23 UNL     1     -20.019  10.224 -21.062  1.00  0.00    -0.007 C 
HETATM   35  C24 UNL     1     -20.668  11.247 -20.155  1.00  0.00     0.043 C 
HETATM   36  C25 UNL     1     -20.081  11.142 -18.767  1.00  0.00     0.059 C 
BRANCH  36  37
HETATM   37  O6  UNL     1     -20.568  12.211 -18.014  1.00  0.00    -0.390 OA
ATOM     38  H6  UNL     1     -21.480  12.037 -17.816  1.00  0.00     0.210 HD
ENDBRANCH  36  37
ENDBRANCH  26  27
ENDBRANCH  25  26
ENDBRANCH  24  25
ENDBRANCH  23  24
ENDBRANCH   3  23
TORSDOF 12
ENDMDL
MODEL 4
REMARK VINA RESULT: -8.295106679      3.811     10.108
REMARK  12 active torsions:
REMARK  status: ('A' for Active; 'I' for Inactive)
REMARK    1  A    between atoms: C2_2  and  C3_3 
REMARK       I    between atoms: C3_3  and  N1_5 
REMARK    2  A    between atoms: N1_5  and  C4_6 
REMARK    3  A    between atoms: C9_14  and  C10_15 
REMARK    4  A    between atoms: C10_15  and  C11_16 
REMARK    5  A    between atoms: C11_16  and  C12_17 
REMARK    6  A    between atoms: C12_17  and  N2_18 
REMARK       I    between atoms: N2_18  and  C13_20 
REMARK    7  A    between atoms: C13_20  and  C14_22 
REMARK    8  A    between atoms: C14_22  and  C15_23 
REMARK    9  A    between atoms: C15_23  and  C16_24 
REMARK   10  A    between atoms: C16_24  and  C17_25 
REMARK   11  A    between atoms: C17_25  and  C18_26 
REMARK   12  A    between atoms: C25_33  and  O6_34 
ROOT
HETATM    1  N2  UNL     1     -13.700   7.528 -15.235  1.00  0.00    -0.361 N 
ATOM      2  H2  UNL     1     -13.243   6.723 -15.665  1.00  0.00     0.162 HD
HETATM    3  C13 UNL     1     -14.935   7.357 -14.629  1.00  0.00     0.217 C 
HETATM    4  O5  UNL     1     -15.573   8.359 -14.176  1.00  0.00    -0.274 OA
ENDROOT
BRANCH   1   5
HETATM    5  C12 UNL     1     -13.041   8.811 -15.275  1.00  0.00     0.122 C 
BRANCH   5   6
HETATM    6  C11 UNL     1     -13.366   9.548 -16.534  1.00  0.00     0.022 C 
BRANCH   6   7
HETATM    7  C10 UNL     1     -14.076  10.817 -16.456  1.00  0.00     0.036 C 
BRANCH   7   8
HETATM    8  C9  UNL     1     -14.758  11.252 -17.729  1.00  0.00     0.152 C 
HETATM    9  C8  UNL     1     -14.946  10.179 -18.757  1.00  0.00     0.206 C 
HETATM   10  O4  UNL     1     -16.292  10.461 -19.248  1.00  0.00    -0.324 OA
HETATM   11  C7  UNL     1     -16.302  11.826 -19.043  1.00  0.00     0.344 C 
HETATM   12  C4  UNL     1     -17.484  12.611 -19.393  1.00  0.00     0.181 C 
HETATM   13  O3  UNL     1     -15.171  12.396 -19.694  1.00  0.00    -0.302 OA
HETATM   14  O7  UNL     1     -15.999  11.833 -17.635  1.00  0.00    -0.319 OA
HETATM   15  C5  UNL     1     -17.363  13.543 -20.582  1.00  0.00     0.247 C 
HETATM   16  O2  UNL     1     -16.322  13.327 -21.432  1.00  0.00    -0.360 OA
HETATM   17  C6  UNL     1     -15.499  12.270 -21.047  1.00  0.00     0.344 C 
BRANCH  12  18
HETATM   18  N1  UNL     1     -18.751  11.999 -19.333  1.00  0.00    -0.365 NA
HETATM   19  C3  UNL     1     -19.964  11.463 -19.216  1.00  0.00     0.315 C 
HETATM   20  O1  UNL     1     -20.843  11.714 -18.324  1.00  0.00    -0.252 OA
BRANCH  19  21
HETATM   21  C2  UNL     1     -20.452  10.429 -20.189  1.00  0.00     0.080 C 
HETATM   22  C1  UNL     1     -19.700  10.006 -21.177  1.00  0.00     0.018 C 
ENDBRANCH  19  21
ENDBRANCH  12  18
ENDBRANCH   7   8
ENDBRANCH   6   7
ENDBRANCH   5   6
ENDBRANCH   1   5
BRANCH   3  23
HETATM   23  C14 UNL     1     -15.587   6.031 -14.455  1.00  0.00     0.103 C 
BRANCH  23  24
HETATM   24  C15 UNL     1     -15.363   5.302 -15.792  1.00  0.00     0.009 C 
BRANCH  24  25
HETATM   25  C16 UNL     1     -16.555   4.418 -16.074  1.00  0.00     0.001 C 
BRANCH  25  26
HETATM   26  C17 UNL     1     -17.809   5.133 -15.666  1.00  0.00     0.005 C 
BRANCH  26  27
HETATM   27  C18 UNL     1     -18.652   5.554 -16.848  1.00  0.00    -0.006 C 
HETATM   28  C19 UNL     1     -20.128   5.476 -16.510  1.00  0.00    -0.007 C 
HETATM   29  C20 UNL     1     -20.910   5.979 -17.688  1.00  0.00     0.010 C 
HETATM   30  C27 UNL     1     -20.440   6.384 -15.330  1.00  0.00     0.043 C 
HETATM   31  C21 UNL     1     -20.590   7.412 -18.018  1.00  0.00    -0.011 C 
HETATM   32  C22 UNL     1     -19.124   7.434 -18.391  1.00  0.00     0.010 C 
HETATM   33  C26 UNL     1     -20.900   8.261 -16.839  1.00  0.00     0.042 C 
HETATM   34  C23 UNL     1     -18.324   6.973 -17.192  1.00  0.00    -0.007 C 
HETATM   35  C24 UNL     1     -18.635   7.943 -16.071  1.00  0.00     0.043 C 
HETATM   36  C25 UNL     1     -20.079   7.793 -15.656  1.00  0.00     0.059 C 
BRANCH  36  37
HETATM   37  O6  UNL     1     -20.278   8.565 -14.511  1.00  0.00    -0.390 OA
ATOM     38  H6  UNL     1     -21.014   8.198 -14.036  1.00  0.00     0.210 HD
ENDBRANCH  36  37
ENDBRANCH  26  27
ENDBRANCH  25  26
ENDBRANCH  24  25
ENDBRANCH  23  24
ENDBRANCH   3  23
TORSDOF 12
ENDMDL
MODEL 5
REMARK VINA RESULT: -8.284344529      1.366      1.930
REMARK  12 active torsions:
REMARK  status: ('A' for Active; 'I' for Inactive)
REMARK    1  A    between atoms: C2_2  and  C3_3 
REMARK       I    between atoms: C3_3  and  N1_5 
REMARK    2  A    between atoms: N1_5  and  C4_6 
REMARK    3  A    between atoms: C9_14  and  C10_15 
REMARK    4  A    between atoms: C10_15  and  C11_16 
REMARK    5  A    between atoms: C11_16  and  C12_17 
REMARK    6  A    between atoms: C12_17  and  N2_18 
REMARK       I    between atoms: N2_18  and  C13_20 
REMARK    7  A    between atoms: C13_20  and  C14_22 
REMARK    8  A    between atoms: C14_22  and  C15_23 
REMARK    9  A    between atoms: C15_23  and  C16_24 
REMARK   10  A    between atoms: C16_24  and  C17_25 
REMARK   11  A    between atoms: C17_25  and  C18_26 
REMARK   12  A    between atoms: C25_33  and  O6_34 
ROOT
HETATM    1  N2  UNL     1     -17.959  16.679 -23.476  1.00  0.00    -0.361 N 
ATOM      2  H2  UNL     1     -17.968  16.644 -22.456  1.00  0.00     0.162 HD
HETATM    3  C13 UNL     1     -17.563  17.849 -24.105  1.00  0.00     0.217 C 
HETATM    4  O5  UNL     1     -17.641  17.956 -25.370  1.00  0.00    -0.274 OA
ENDROOT
BRANCH   1   5
HETATM    5  C12 UNL     1     -18.359  15.510 -24.220  1.00  0.00     0.122 C 
BRANCH   5   6
HETATM    6  C11 UNL     1     -19.126  14.556 -23.361  1.00  0.00     0.022 C 
BRANCH   6   7
HETATM    7  C10 UNL     1     -18.760  14.403 -21.960  1.00  0.00     0.036 C 
BRANCH   7   8
HETATM    8  C9  UNL     1     -18.877  13.002 -21.414  1.00  0.00     0.152 C 
HETATM    9  C8  UNL     1     -17.978  11.987 -22.049  1.00  0.00     0.206 C 
HETATM   10  O4  UNL     1     -17.534  11.211 -20.895  1.00  0.00    -0.324 OA
HETATM   11  C7  UNL     1     -18.649  11.373 -20.098  1.00  0.00     0.344 C 
HETATM   12  C4  UNL     1     -18.700  10.756 -18.774  1.00  0.00     0.181 C 
HETATM   13  O3  UNL     1     -19.799  10.965 -20.832  1.00  0.00    -0.302 OA
HETATM   14  O7  UNL     1     -18.683  12.812 -20.067  1.00  0.00    -0.319 OA
HETATM   15  C5  UNL     1     -19.659   9.596 -18.592  1.00  0.00     0.247 C 
HETATM   16  O2  UNL     1     -20.123   8.996 -19.722  1.00  0.00    -0.360 OA
HETATM   17  C6  UNL     1     -19.647   9.576 -20.896  1.00  0.00     0.344 C 
BRANCH  12  18
HETATM   18  N1  UNL     1     -17.498  10.558 -18.068  1.00  0.00    -0.365 NA
HETATM   19  C3  UNL     1     -16.396  10.316 -17.361  1.00  0.00     0.315 C 
HETATM   20  O1  UNL     1     -16.241   9.455 -16.430  1.00  0.00    -0.252 OA
BRANCH  19  21
HETATM   21  C2  UNL     1     -15.134  11.094 -17.601  1.00  0.00     0.080 C 
HETATM   22  C1  UNL     1     -13.977  10.686 -17.139  1.00  0.00     0.018 C 
ENDBRANCH  19  21
ENDBRANCH  12  18
ENDBRANCH   7   8
ENDBRANCH   6   7
ENDBRANCH   5   6
ENDBRANCH   1   5
BRANCH   3  23
HETATM   23  C14 UNL     1     -17.025  19.030 -23.379  1.00  0.00     0.103 C 
BRANCH  23  24
HETATM   24  C15 UNL     1     -15.499  18.943 -23.559  1.00  0.00     0.009 C 
BRANCH  24  25
HETATM   25  C16 UNL     1     -14.836  19.110 -22.212  1.00  0.00     0.001 C 
BRANCH  25  26
HETATM   26  C17 UNL     1     -13.985  17.908 -21.926  1.00  0.00     0.005 C 
BRANCH  26  27
HETATM   27  C18 UNL     1     -14.801  16.656 -21.699  1.00  0.00    -0.006 C 
HETATM   28  C19 UNL     1     -14.385  15.563 -22.663  1.00  0.00    -0.007 C 
HETATM   29  C20 UNL     1     -15.170  14.324 -22.341  1.00  0.00     0.010 C 
HETATM   30  C27 UNL     1     -12.912  15.236 -22.475  1.00  0.00     0.043 C 
HETATM   31  C21 UNL     1     -14.908  13.828 -20.945  1.00  0.00    -0.011 C 
HETATM   32  C22 UNL     1     -15.377  14.929 -20.019  1.00  0.00     0.010 C 
HETATM   33  C26 UNL     1     -13.459  13.530 -20.801  1.00  0.00     0.042 C 
HETATM   34  C23 UNL     1     -14.557  16.169 -20.305  1.00  0.00    -0.007 C 
HETATM   35  C24 UNL     1     -13.113  15.796 -20.050  1.00  0.00     0.043 C 
HETATM   36  C25 UNL     1     -12.660  14.785 -21.077  1.00  0.00     0.059 C 
BRANCH  36  37
HETATM   37  O6  UNL     1     -11.285  14.605 -20.923  1.00  0.00    -0.390 OA
ATOM     38  H6  UNL     1     -10.851  15.386 -21.246  1.00  0.00     0.210 HD
ENDBRANCH  36  37
ENDBRANCH  26  27
ENDBRANCH  25  26
ENDBRANCH  24  25
ENDBRANCH  23  24
ENDBRANCH   3  23
TORSDOF 12
ENDMDL
