MODEL 1
REMARK VINA RESULT: -7.577543302      0.000      0.000
REMARK  15 active torsions:
REMARK  status: ('A' for Active; 'I' for Inactive)
REMARK    1  A    between atoms: C3_3  and  C4_4 
REMARK    2  A    between atoms: C4_4  and  C5_5 
REMARK    3  A    between atoms: C5_5  and  C6_6 
REMARK    4  A    between atoms: C11_17  and  C12_18 
REMARK    5  A    between atoms: C12_18  and  C13_19 
REMARK    6  A    between atoms: C13_19  and  C14_20 
REMARK    7  A    between atoms: C14_20  and  C15_21 
REMARK    8  A    between atoms: C15_21  and  N3_22 
REMARK    9  A    between atoms: C18_30  and  C19_31 
REMARK   10  A    between atoms: C19_31  and  C20_32 
REMARK   11  A    between atoms: C23_37  and  O4_38 
REMARK   12  A    between atoms: C24_40  and  C25_41 
REMARK   13  A    between atoms: C25_41  and  C26_42 
REMARK   14  A    between atoms: C30_49  and  C31_50 
REMARK   15  A    between atoms: C31_50  and  C32_51 
ROOT
HETATM    1  C1  UNL     1       0.370 -25.701  61.412  1.00  0.00     0.112 C 
HETATM    2  C2  UNL     1       0.546 -24.494  60.615  1.00  0.00    -0.111 C 
HETATM    3  C3  UNL     1       0.675 -23.513  59.948  1.00  0.00    -0.107 C 
ENDROOT
BRANCH   3   4
HETATM    4  C4  UNL     1       0.826 -22.289  59.086  1.00  0.00     0.096 C 
BRANCH   4   5
HETATM    5  C5  UNL     1      -0.054 -22.465  57.909  1.00  0.00     0.047 C 
BRANCH   5   6
HETATM    6  C6  UNL     1      -1.148 -21.456  57.689  1.00  0.00     0.177 C 
HETATM    7  N1  UNL     1      -1.416 -21.530  56.247  1.00  0.00    -0.346 N 
HETATM    8  C7  UNL     1      -0.952 -20.651  55.275  1.00  0.00     0.240 C 
ATOM      9  H1  UNL     1      -1.999 -22.303  55.927  1.00  0.00     0.163 HD
HETATM   10  O1  UNL     1      -1.375 -20.720  54.079  1.00  0.00    -0.271 OA
HETATM   11  C8  UNL     1       0.060 -19.554  55.492  1.00  0.00     0.172 C 
HETATM   12  C9  UNL     1      -0.634 -18.454  56.222  1.00  0.00     0.042 C 
HETATM   13  N2  UNL     1       0.777 -19.184  54.319  1.00  0.00    -0.346 N 
HETATM   14  C10 UNL     1       0.384 -18.888  53.023  1.00  0.00     0.241 C 
ATOM     15  H2  UNL     1       1.785 -19.125  54.461  1.00  0.00     0.163 HD
HETATM   16  O2  UNL     1       0.815 -19.676  52.090  1.00  0.00    -0.271 OA
HETATM   17  C11 UNL     1      -0.466 -17.796  52.500  1.00  0.00     0.178 C 
HETATM   18  N4  UNL     1      -1.532 -18.239  51.618  1.00  0.00    -0.341 N 
HETATM   19  C16 UNL     1      -1.254 -18.862  50.306  1.00  0.00     0.153 C 
HETATM   20  C17 UNL     1      -2.885 -18.077  52.007  1.00  0.00     0.243 C 
HETATM   21  O3  UNL     1      -3.663 -19.042  51.665  1.00  0.00    -0.271 OA
HETATM   22  C18 UNL     1      -3.512 -16.977  52.732  1.00  0.00     0.176 C 
HETATM   23  N5  UNL     1      -3.689 -17.115  54.140  1.00  0.00    -0.359 N 
HETATM   24  C23 UNL     1      -4.742 -17.466  54.965  1.00  0.00     0.135 C 
ATOM     25  H5  UNL     1      -2.838 -16.906  54.663  1.00  0.00     0.162 HD
HETATM   26  C24 UNL     1      -5.498 -18.704  55.161  1.00  0.00     0.159 C 
HETATM   27  N6  UNL     1      -4.774 -19.934  55.106  1.00  0.00    -0.347 N 
HETATM   28  C29 UNL     1      -4.763 -20.976  56.062  1.00  0.00     0.241 C 
ATOM     29  H6  UNL     1      -4.194 -20.078  54.278  1.00  0.00     0.163 HD
HETATM   30  O5  UNL     1      -4.902 -22.196  55.700  1.00  0.00    -0.271 OA
HETATM   31  C30 UNL     1      -4.595 -20.764  57.518  1.00  0.00     0.177 C 
HETATM   32  N7  UNL     1      -3.697 -21.733  58.094  1.00  0.00    -0.346 N 
HETATM   33  C35 UNL     1      -2.368 -21.644  58.489  1.00  0.00     0.241 C 
ATOM     34  H7  UNL     1      -4.113 -22.653  58.236  1.00  0.00     0.163 HD
HETATM   35  O6  UNL     1      -2.143 -21.738  59.763  1.00  0.00    -0.271 OA
BRANCH  17  36
HETATM   36  C12 UNL     1       0.336 -16.809  51.670  1.00  0.00     0.035 C 
BRANCH  36  37
HETATM   37  C13 UNL     1      -0.215 -15.440  51.594  1.00  0.00     0.004 C 
BRANCH  37  38
HETATM   38  C14 UNL     1      -0.090 -14.680  52.895  1.00  0.00     0.027 C 
BRANCH  38  39
HETATM   39  C15 UNL     1      -0.116 -13.181  52.664  1.00  0.00     0.229 C 
BRANCH  39  40
HETATM   40  N3  UNL     1      -0.871 -12.515  53.698  1.00  0.00    -0.079 N 
ATOM     41  H33 UNL     1      -1.451 -13.170  54.222  1.00  0.00     0.274 HD
ATOM     42  H32 UNL     1      -0.270 -12.197  54.458  1.00  0.00     0.274 HD
ATOM     43  H31 UNL     1      -1.423 -11.750  53.308  1.00  0.00     0.274 HD
ENDBRANCH  39  40
ENDBRANCH  38  39
ENDBRANCH  37  38
ENDBRANCH  36  37
ENDBRANCH  17  36
BRANCH  22  44
HETATM   44  C19 UNL     1      -4.767 -16.610  51.950  1.00  0.00     0.038 C 
BRANCH  44  45
HETATM   45  C20 UNL     1      -4.414 -15.427  51.032  1.00  0.00    -0.020 C 
HETATM   46  C21 UNL     1      -5.754 -14.825  50.606  1.00  0.00     0.009 C 
HETATM   47  C22 UNL     1      -3.640 -14.368  51.741  1.00  0.00     0.009 C 
ENDBRANCH  44  45
ENDBRANCH  22  44
BRANCH  24  48
HETATM   48  O4  UNL     1      -5.166 -16.503  55.740  1.00  0.00    -0.348 OA
ATOM     49  H4  UNL     1      -5.995 -16.123  55.476  1.00  0.00     0.219 HD
ENDBRANCH  24  48
BRANCH  26  50
HETATM   50  C25 UNL     1      -6.692 -18.866  54.232  1.00  0.00     0.037 C 
BRANCH  50  51
HETATM   51  C26 UNL     1      -7.496 -17.602  54.079  1.00  0.00    -0.020 C 
HETATM   52  C27 UNL     1      -8.556 -17.474  55.118  1.00  0.00     0.009 C 
HETATM   53  C28 UNL     1      -8.156 -17.681  52.708  1.00  0.00     0.009 C 
ENDBRANCH  50  51
ENDBRANCH  26  50
BRANCH  31  54
HETATM   54  C31 UNL     1      -6.006 -21.008  58.101  1.00  0.00     0.038 C 
BRANCH  54  55
HETATM   55  C32 UNL     1      -6.053 -22.248  58.935  1.00  0.00    -0.020 C 
HETATM   56  C33 UNL     1      -7.032 -23.195  58.274  1.00  0.00     0.009 C 
HETATM   57  C34 UNL     1      -6.586 -21.955  60.320  1.00  0.00     0.009 C 
ENDBRANCH  54  55
ENDBRANCH  31  54
ENDBRANCH   5   6
ENDBRANCH   4   5
ENDBRANCH   3   4
TORSDOF 15
ENDMDL
MODEL 2
REMARK VINA RESULT: -6.961158665      2.853      8.476
REMARK  15 active torsions:
REMARK  status: ('A' for Active; 'I' for Inactive)
REMARK    1  A    between atoms: C3_3  and  C4_4 
REMARK    2  A    between atoms: C4_4  and  C5_5 
REMARK    3  A    between atoms: C5_5  and  C6_6 
REMARK    4  A    between atoms: C11_17  and  C12_18 
REMARK    5  A    between atoms: C12_18  and  C13_19 
REMARK    6  A    between atoms: C13_19  and  C14_20 
REMARK    7  A    between atoms: C14_20  and  C15_21 
REMARK    8  A    between atoms: C15_21  and  N3_22 
REMARK    9  A    between atoms: C18_30  and  C19_31 
REMARK   10  A    between atoms: C19_31  and  C20_32 
REMARK   11  A    between atoms: C23_37  and  O4_38 
REMARK   12  A    between atoms: C24_40  and  C25_41 
REMARK   13  A    between atoms: C25_41  and  C26_42 
REMARK   14  A    between atoms: C30_49  and  C31_50 
REMARK   15  A    between atoms: C31_50  and  C32_51 
ROOT
HETATM    1  C1  UNL     1      -1.173 -21.461  47.135  1.00  0.00     0.112 C 
HETATM    2  C2  UNL     1      -0.820 -20.080  46.828  1.00  0.00    -0.111 C 
HETATM    3  C3  UNL     1      -0.547 -18.950  46.562  1.00  0.00    -0.107 C 
ENDROOT
BRANCH   3   4
HETATM    4  C4  UNL     1      -0.218 -17.525  46.204  1.00  0.00     0.096 C 
BRANCH   4   5
HETATM    5  C5  UNL     1      -0.790 -16.660  47.260  1.00  0.00     0.047 C 
BRANCH   5   6
HETATM    6  C6  UNL     1      -2.014 -17.147  47.985  1.00  0.00     0.177 C 
HETATM    7  N1  UNL     1      -1.855 -16.619  49.347  1.00  0.00    -0.346 N 
HETATM    8  C7  UNL     1      -1.402 -17.323  50.457  1.00  0.00     0.240 C 
ATOM      9  H1  UNL     1      -2.100 -15.640  49.492  1.00  0.00     0.163 HD
HETATM   10  O1  UNL     1      -1.453 -16.811  51.618  1.00  0.00    -0.271 OA
HETATM   11  C8  UNL     1      -0.819 -18.714  50.439  1.00  0.00     0.172 C 
HETATM   12  C9  UNL     1      -1.953 -19.663  50.243  1.00  0.00     0.042 C 
HETATM   13  N2  UNL     1       0.059 -18.991  51.524  1.00  0.00    -0.346 N 
HETATM   14  C10 UNL     1      -0.036 -18.794  52.894  1.00  0.00     0.241 C 
ATOM     15  H2  UNL     1       0.937 -19.422  51.236  1.00  0.00     0.163 HD
HETATM   16  O2  UNL     1       0.826 -17.987  53.426  1.00  0.00    -0.271 OA
HETATM   17  C11 UNL     1      -0.976 -19.362  53.885  1.00  0.00     0.178 C 
HETATM   18  N4  UNL     1      -1.605 -18.374  54.744  1.00  0.00    -0.341 N 
HETATM   19  C16 UNL     1      -0.828 -17.567  55.710  1.00  0.00     0.153 C 
HETATM   20  C17 UNL     1      -3.005 -18.162  54.671  1.00  0.00     0.243 C 
HETATM   21  O3  UNL     1      -3.373 -16.938  54.809  1.00  0.00    -0.271 OA
HETATM   22  C18 UNL     1      -4.076 -19.132  54.469  1.00  0.00     0.176 C 
HETATM   23  N5  UNL     1      -4.580 -19.308  53.146  1.00  0.00    -0.359 N 
HETATM   24  C23 UNL     1      -5.682 -18.846  52.449  1.00  0.00     0.135 C 
ATOM     25  H5  UNL     1      -3.990 -19.919  52.582  1.00  0.00     0.162 HD
HETATM   26  C24 UNL     1      -6.100 -17.519  51.993  1.00  0.00     0.159 C 
HETATM   27  N6  UNL     1      -5.084 -16.637  51.514  1.00  0.00    -0.347 N 
HETATM   28  C29 UNL     1      -5.050 -15.942  50.284  1.00  0.00     0.241 C 
ATOM     29  H6  UNL     1      -4.287 -16.490  52.135  1.00  0.00     0.163 HD
HETATM   30  O5  UNL     1      -4.753 -14.697  50.243  1.00  0.00    -0.271 OA
HETATM   31  C30 UNL     1      -5.343 -16.564  48.971  1.00  0.00     0.177 C 
HETATM   32  N7  UNL     1      -4.406 -16.138  47.963  1.00  0.00    -0.346 N 
HETATM   33  C35 UNL     1      -3.307 -16.769  47.393  1.00  0.00     0.241 C 
ATOM     34  H7  UNL     1      -4.581 -15.201  47.601  1.00  0.00     0.163 HD
HETATM   35  O6  UNL     1      -3.416 -17.087  46.141  1.00  0.00    -0.271 OA
BRANCH  17  36
HETATM   36  C12 UNL     1      -0.277 -20.313  54.840  1.00  0.00     0.035 C 
BRANCH  36  37
HETATM   37  C13 UNL     1      -1.164 -21.107  55.715  1.00  0.00     0.004 C 
BRANCH  37  38
HETATM   38  C14 UNL     1      -0.749 -21.068  57.169  1.00  0.00     0.027 C 
BRANCH  38  39
HETATM   39  C15 UNL     1      -1.702 -20.223  57.994  1.00  0.00     0.229 C 
BRANCH  39  40
HETATM   40  N3  UNL     1      -2.371 -21.026  58.988  1.00  0.00    -0.079 N 
ATOM     41  H33 UNL     1      -2.196 -22.021  58.849  1.00  0.00     0.274 HD
ATOM     42  H32 UNL     1      -1.944 -20.920  59.908  1.00  0.00     0.274 HD
ATOM     43  H31 UNL     1      -3.371 -20.819  59.010  1.00  0.00     0.274 HD
ENDBRANCH  39  40
ENDBRANCH  38  39
ENDBRANCH  37  38
ENDBRANCH  36  37
ENDBRANCH  17  36
BRANCH  22  44
HETATM   44  C19 UNL     1      -5.125 -18.840  55.534  1.00  0.00     0.038 C 
BRANCH  44  45
HETATM   45  C20 UNL     1      -5.025 -19.943  56.602  1.00  0.00    -0.020 C 
HETATM   46  C21 UNL     1      -5.623 -19.338  57.873  1.00  0.00     0.009 C 
HETATM   47  C22 UNL     1      -5.823 -21.150  56.248  1.00  0.00     0.009 C 
ENDBRANCH  44  45
ENDBRANCH  22  44
BRANCH  24  48
HETATM   48  O4  UNL     1      -6.541 -19.773  52.119  1.00  0.00    -0.348 OA
ATOM     49  H4  UNL     1      -6.804 -19.758  51.206  1.00  0.00     0.219 HD
ENDBRANCH  24  48
BRANCH  26  50
HETATM   50  C25 UNL     1      -6.911 -16.731  53.010  1.00  0.00     0.037 C 
BRANCH  50  51
HETATM   51  C26 UNL     1      -8.386 -17.017  52.938  1.00  0.00    -0.020 C 
HETATM   52  C27 UNL     1      -8.787 -18.160  53.806  1.00  0.00     0.009 C 
HETATM   53  C28 UNL     1      -8.680 -17.375  51.486  1.00  0.00     0.009 C 
ENDBRANCH  50  51
ENDBRANCH  26  50
BRANCH  31  54
HETATM   54  C31 UNL     1      -6.738 -16.015  48.596  1.00  0.00     0.038 C 
BRANCH  54  55
HETATM   55  C32 UNL     1      -6.778 -15.521  47.186  1.00  0.00    -0.020 C 
HETATM   56  C33 UNL     1      -7.368 -14.127  47.216  1.00  0.00     0.009 C 
HETATM   57  C34 UNL     1      -7.693 -16.371  46.334  1.00  0.00     0.009 C 
ENDBRANCH  54  55
ENDBRANCH  31  54
ENDBRANCH   5   6
ENDBRANCH   4   5
ENDBRANCH   3   4
TORSDOF 15
ENDMDL
MODEL 3
REMARK VINA RESULT: -6.910093090      3.169      5.110
REMARK  15 active torsions:
REMARK  status: ('A' for Active; 'I' for Inactive)
REMARK    1  A    between atoms: C3_3  and  C4_4 
REMARK    2  A    between atoms: C4_4  and  C5_5 
REMARK    3  A    between atoms: C5_5  and  C6_6 
REMARK    4  A    between atoms: C11_17  and  C12_18 
REMARK    5  A    between atoms: C12_18  and  C13_19 
REMARK    6  A    between atoms: C13_19  and  C14_20 
REMARK    7  A    between atoms: C14_20  and  C15_21 
REMARK    8  A    between atoms: C15_21  and  N3_22 
REMARK    9  A    between atoms: C18_30  and  C19_31 
REMARK   10  A    between atoms: C19_31  and  C20_32 
REMARK   11  A    between atoms: C23_37  and  O4_38 
REMARK   12  A    between atoms: C24_40  and  C25_41 
REMARK   13  A    between atoms: C25_41  and  C26_42 
REMARK   14  A    between atoms: C30_49  and  C31_50 
REMARK   15  A    between atoms: C31_50  and  C32_51 
ROOT
HETATM    1  C1  UNL     1      -1.033 -21.480  56.938  1.00  0.00     0.112 C 
HETATM    2  C2  UNL     1      -0.527 -20.852  55.723  1.00  0.00    -0.111 C 
HETATM    3  C3  UNL     1      -0.101 -20.356  54.726  1.00  0.00    -0.107 C 
ENDROOT
BRANCH   3   4
HETATM    4  C4  UNL     1       0.458 -19.749  53.467  1.00  0.00     0.096 C 
BRANCH   4   5
HETATM    5  C5  UNL     1       0.383 -18.278  53.613  1.00  0.00     0.047 C 
BRANCH   5   6
HETATM    6  C6  UNL     1      -0.962 -17.621  53.465  1.00  0.00     0.177 C 
HETATM    7  N1  UNL     1      -1.483 -18.161  52.202  1.00  0.00    -0.346 N 
HETATM    8  C7  UNL     1      -1.477 -17.523  50.968  1.00  0.00     0.240 C 
ATOM      9  H1  UNL     1      -1.890 -19.095  52.235  1.00  0.00     0.163 HD
HETATM   10  O1  UNL     1      -2.097 -18.018  49.975  1.00  0.00    -0.271 OA
HETATM   11  C8  UNL     1      -0.774 -16.227  50.650  1.00  0.00     0.172 C 
HETATM   12  C9  UNL     1      -1.576 -15.130  51.265  1.00  0.00     0.042 C 
HETATM   13  N2  UNL     1      -0.433 -16.071  49.277  1.00  0.00    -0.346 N 
HETATM   14  C10 UNL     1      -1.143 -16.247  48.099  1.00  0.00     0.241 C 
ATOM     15  H2  UNL     1       0.530 -15.768  49.130  1.00  0.00     0.163 HD
HETATM   16  O2  UNL     1      -0.712 -17.165  47.293  1.00  0.00    -0.271 OA
HETATM   17  C11 UNL     1      -2.341 -15.550  47.584  1.00  0.00     0.178 C 
HETATM   18  N4  UNL     1      -3.403 -16.437  47.142  1.00  0.00    -0.341 N 
HETATM   19  C16 UNL     1      -3.238 -17.340  45.982  1.00  0.00     0.153 C 
HETATM   20  C17 UNL     1      -4.643 -16.451  47.827  1.00  0.00     0.243 C 
HETATM   21  O3  UNL     1      -5.187 -17.612  47.934  1.00  0.00    -0.271 OA
HETATM   22  C18 UNL     1      -5.385 -15.342  48.419  1.00  0.00     0.176 C 
HETATM   23  N5  UNL     1      -5.231 -15.102  49.816  1.00  0.00    -0.359 N 
HETATM   24  C23 UNL     1      -5.965 -15.409  50.948  1.00  0.00     0.135 C 
ATOM     25  H5  UNL     1      -4.381 -14.582  50.032  1.00  0.00     0.162 HD
HETATM   26  C24 UNL     1      -6.305 -16.666  51.616  1.00  0.00     0.159 C 
HETATM   27  N6  UNL     1      -5.304 -17.684  51.656  1.00  0.00    -0.347 N 
HETATM   28  C29 UNL     1      -4.824 -18.381  52.788  1.00  0.00     0.241 C 
ATOM     29  H6  UNL     1      -4.886 -17.938  50.760  1.00  0.00     0.163 HD
HETATM   30  O5  UNL     1      -4.700 -19.656  52.767  1.00  0.00    -0.271 OA
HETATM   31  C30 UNL     1      -4.430 -17.730  54.059  1.00  0.00     0.177 C 
HETATM   32  N7  UNL     1      -3.208 -18.287  54.583  1.00  0.00    -0.346 N 
HETATM   33  C35 UNL     1      -1.901 -17.817  54.581  1.00  0.00     0.241 C 
ATOM     34  H7  UNL     1      -3.325 -19.192  55.038  1.00  0.00     0.163 HD
HETATM   35  O6  UNL     1      -1.408 -17.493  55.735  1.00  0.00    -0.271 OA
BRANCH  17  36
HETATM   36  C12 UNL     1      -2.016 -14.702  46.366  1.00  0.00     0.035 C 
BRANCH  36  37
HETATM   37  C13 UNL     1      -2.715 -13.402  46.288  1.00  0.00     0.004 C 
BRANCH  37  38
HETATM   38  C14 UNL     1      -2.632 -12.608  47.572  1.00  0.00     0.027 C 
BRANCH  38  39
HETATM   39  C15 UNL     1      -1.231 -12.072  47.801  1.00  0.00     0.229 C 
BRANCH  39  40
HETATM   40  N3  UNL     1      -0.778 -12.371  49.137  1.00  0.00    -0.079 N 
ATOM     41  H33 UNL     1      -1.499 -12.176  49.832  1.00  0.00     0.274 HD
ATOM     42  H32 UNL     1      -0.686 -13.376  49.287  1.00  0.00     0.274 HD
ATOM     43  H31 UNL     1       0.091 -11.878  49.346  1.00  0.00     0.274 HD
ENDBRANCH  39  40
ENDBRANCH  38  39
ENDBRANCH  37  38
ENDBRANCH  36  37
ENDBRANCH  17  36
BRANCH  22  44
HETATM   44  C19 UNL     1      -6.822 -15.480  47.934  1.00  0.00     0.038 C 
BRANCH  44  45
HETATM   45  C20 UNL     1      -6.833 -15.196  46.422  1.00  0.00    -0.020 C 
HETATM   46  C21 UNL     1      -8.226 -15.605  45.938  1.00  0.00     0.009 C 
HETATM   47  C22 UNL     1      -6.647 -13.749  46.115  1.00  0.00     0.009 C 
ENDBRANCH  44  45
ENDBRANCH  22  44
BRANCH  24  48
HETATM   48  O4  UNL     1      -6.467 -14.372  51.564  1.00  0.00    -0.348 OA
ATOM     49  H4  UNL     1      -7.363 -14.168  51.323  1.00  0.00     0.219 HD
ENDBRANCH  24  48
BRANCH  26  50
HETATM   50  C25 UNL     1      -7.574 -17.329  51.099  1.00  0.00     0.037 C 
BRANCH  50  51
HETATM   51  C26 UNL     1      -8.556 -17.656  52.192  1.00  0.00    -0.020 C 
HETATM   52  C27 UNL     1      -8.424 -16.747  53.365  1.00  0.00     0.009 C 
HETATM   53  C28 UNL     1      -8.242 -19.079  52.635  1.00  0.00     0.009 C 
ENDBRANCH  50  51
ENDBRANCH  26  50
BRANCH  31  54
HETATM   54  C31 UNL     1      -5.577 -18.080  55.034  1.00  0.00     0.038 C 
BRANCH  54  55
HETATM   55  C32 UNL     1      -5.200 -19.197  55.953  1.00  0.00    -0.020 C 
HETATM   56  C33 UNL     1      -6.065 -20.386  55.592  1.00  0.00     0.009 C 
HETATM   57  C34 UNL     1      -5.506 -18.848  57.392  1.00  0.00     0.009 C 
ENDBRANCH  54  55
ENDBRANCH  31  54
ENDBRANCH   5   6
ENDBRANCH   4   5
ENDBRANCH   3   4
TORSDOF 15
ENDMDL
MODEL 4
REMARK VINA RESULT: -6.744842945      2.254      8.356
REMARK  15 active torsions:
REMARK  status: ('A' for Active; 'I' for Inactive)
REMARK    1  A    between atoms: C3_3  and  C4_4 
REMARK    2  A    between atoms: C4_4  and  C5_5 
REMARK    3  A    between atoms: C5_5  and  C6_6 
REMARK    4  A    between atoms: C11_17  and  C12_18 
REMARK    5  A    between atoms: C12_18  and  C13_19 
REMARK    6  A    between atoms: C13_19  and  C14_20 
REMARK    7  A    between atoms: C14_20  and  C15_21 
REMARK    8  A    between atoms: C15_21  and  N3_22 
REMARK    9  A    between atoms: C18_30  and  C19_31 
REMARK   10  A    between atoms: C19_31  and  C20_32 
REMARK   11  A    between atoms: C23_37  and  O4_38 
REMARK   12  A    between atoms: C24_40  and  C25_41 
REMARK   13  A    between atoms: C25_41  and  C26_42 
REMARK   14  A    between atoms: C30_49  and  C31_50 
REMARK   15  A    between atoms: C31_50  and  C32_51 
ROOT
HETATM    1  C1  UNL     1      -0.106 -12.884  52.283  1.00  0.00     0.112 C 
HETATM    2  C2  UNL     1      -0.190 -13.583  51.006  1.00  0.00    -0.111 C 
HETATM    3  C3  UNL     1      -0.259 -14.174  49.972  1.00  0.00    -0.107 C 
ENDROOT
BRANCH   3   4
HETATM    4  C4  UNL     1      -0.341 -14.943  48.681  1.00  0.00     0.096 C 
BRANCH   4   5
HETATM    5  C5  UNL     1      -0.328 -16.383  49.022  1.00  0.00     0.047 C 
BRANCH   5   6
HETATM    6  C6  UNL     1      -1.614 -17.009  49.488  1.00  0.00     0.177 C 
HETATM    7  N1  UNL     1      -1.678 -16.670  50.915  1.00  0.00    -0.346 N 
HETATM    8  C7  UNL     1      -1.349 -17.504  51.977  1.00  0.00     0.240 C 
ATOM      9  H1  UNL     1      -1.995 -15.730  51.150  1.00  0.00     0.163 HD
HETATM   10  O1  UNL     1      -1.592 -17.160  53.175  1.00  0.00    -0.271 OA
HETATM   11  C8  UNL     1      -0.694 -18.858  51.862  1.00  0.00     0.172 C 
HETATM   12  C9  UNL     1      -1.735 -19.810  51.377  1.00  0.00     0.042 C 
HETATM   13  N2  UNL     1       0.036 -19.251  53.019  1.00  0.00    -0.346 N 
HETATM   14  C10 UNL     1      -0.263 -19.249  54.373  1.00  0.00     0.241 C 
ATOM     15  H2  UNL     1       0.968 -19.607  52.809  1.00  0.00     0.163 HD
HETATM   16  O2  UNL     1       0.470 -18.494  55.129  1.00  0.00    -0.271 OA
HETATM   17  C11 UNL     1      -1.301 -19.982  55.131  1.00  0.00     0.178 C 
HETATM   18  N4  UNL     1      -2.098 -19.145  56.011  1.00  0.00    -0.341 N 
HETATM   19  C16 UNL     1      -1.511 -18.453  57.179  1.00  0.00     0.153 C 
HETATM   20  C17 UNL     1      -3.483 -18.975  55.761  1.00  0.00     0.243 C 
HETATM   21  O3  UNL     1      -3.934 -17.795  56.003  1.00  0.00    -0.271 OA
HETATM   22  C18 UNL     1      -4.460 -19.945  55.276  1.00  0.00     0.176 C 
HETATM   23  N5  UNL     1      -4.762 -19.954  53.883  1.00  0.00    -0.359 N 
HETATM   24  C23 UNL     1      -5.777 -19.438  53.098  1.00  0.00     0.135 C 
ATOM     25  H5  UNL     1      -4.065 -20.459  53.336  1.00  0.00     0.162 HD
HETATM   26  C24 UNL     1      -6.198 -18.077  52.763  1.00  0.00     0.159 C 
HETATM   27  N6  UNL     1      -5.176 -17.102  52.561  1.00  0.00    -0.347 N 
HETATM   28  C29 UNL     1      -5.007 -16.242  51.451  1.00  0.00     0.241 C 
ATOM     29  H6  UNL     1      -4.484 -17.014  53.306  1.00  0.00     0.163 HD
HETATM   30  O5  UNL     1      -4.775 -14.994  51.620  1.00  0.00    -0.271 OA
HETATM   31  C30 UNL     1      -5.076 -16.686  50.039  1.00  0.00     0.177 C 
HETATM   32  N7  UNL     1      -4.030 -16.092  49.245  1.00  0.00    -0.346 N 
HETATM   33  C35 UNL     1      -2.829 -16.599  48.766  1.00  0.00     0.241 C 
ATOM     34  H7  UNL     1      -4.204 -15.121  48.989  1.00  0.00     0.163 HD
HETATM   35  O6  UNL     1      -2.742 -16.744  47.481  1.00  0.00    -0.271 OA
BRANCH  17  36
HETATM   36  C12 UNL     1      -0.692 -21.031  56.045  1.00  0.00     0.035 C 
BRANCH  36  37
HETATM   37  C13 UNL     1      -1.655 -21.833  56.828  1.00  0.00     0.004 C 
BRANCH  37  38
HETATM   38  C14 UNL     1      -1.267 -21.968  58.283  1.00  0.00     0.027 C 
BRANCH  38  39
HETATM   39  C15 UNL     1       0.224 -22.207  58.437  1.00  0.00     0.229 C 
BRANCH  39  40
HETATM   40  N3  UNL     1       0.492 -23.584  58.775  1.00  0.00    -0.079 N 
ATOM     41  H33 UNL     1      -0.368 -24.126  58.857  1.00  0.00     0.274 HD
ATOM     42  H32 UNL     1       0.918 -24.086  57.997  1.00  0.00     0.274 HD
ATOM     43  H31 UNL     1       1.059 -23.647  59.621  1.00  0.00     0.274 HD
ENDBRANCH  39  40
ENDBRANCH  38  39
ENDBRANCH  37  38
ENDBRANCH  36  37
ENDBRANCH  17  36
BRANCH  22  44
HETATM   44  C19 UNL     1      -5.664 -19.840  56.204  1.00  0.00     0.038 C 
BRANCH  44  45
HETATM   45  C20 UNL     1      -5.288 -20.517  57.533  1.00  0.00    -0.020 C 
HETATM   46  C21 UNL     1      -5.885 -19.631  58.628  1.00  0.00     0.009 C 
HETATM   47  C22 UNL     1      -5.883 -21.876  57.667  1.00  0.00     0.009 C 
ENDBRANCH  44  45
ENDBRANCH  22  44
BRANCH  24  48
HETATM   48  O4  UNL     1      -6.529 -20.341  52.525  1.00  0.00    -0.348 OA
ATOM     49  H4  UNL     1      -6.787 -20.129  51.636  1.00  0.00     0.219 HD
ENDBRANCH  24  48
BRANCH  26  50
HETATM   50  C25 UNL     1      -7.188 -17.466  53.745  1.00  0.00     0.037 C 
BRANCH  50  51
HETATM   51  C26 UNL     1      -8.623 -17.709  53.364  1.00  0.00    -0.020 C 
HETATM   52  C27 UNL     1      -8.961 -17.141  52.029  1.00  0.00     0.009 C 
HETATM   53  C28 UNL     1      -9.468 -17.013  54.424  1.00  0.00     0.009 C 
ENDBRANCH  50  51
ENDBRANCH  26  50
BRANCH  31  54
HETATM   54  C31 UNL     1      -6.432 -16.140  49.538  1.00  0.00     0.038 C 
BRANCH  54  55
HETATM   55  C32 UNL     1      -6.330 -15.593  48.151  1.00  0.00    -0.020 C 
HETATM   56  C33 UNL     1      -6.656 -14.116  48.226  1.00  0.00     0.009 C 
HETATM   57  C34 UNL     1      -7.354 -16.226  47.236  1.00  0.00     0.009 C 
ENDBRANCH  54  55
ENDBRANCH  31  54
ENDBRANCH   5   6
ENDBRANCH   4   5
ENDBRANCH   3   4
TORSDOF 15
ENDMDL
MODEL 5
REMARK VINA RESULT: -6.502550551      2.262      6.166
REMARK  15 active torsions:
REMARK  status: ('A' for Active; 'I' for Inactive)
REMARK    1  A    between atoms: C3_3  and  C4_4 
REMARK    2  A    between atoms: C4_4  and  C5_5 
REMARK    3  A    between atoms: C5_5  and  C6_6 
REMARK    4  A    between atoms: C11_17  and  C12_18 
REMARK    5  A    between atoms: C12_18  and  C13_19 
REMARK    6  A    between atoms: C13_19  and  C14_20 
REMARK    7  A    between atoms: C14_20  and  C15_21 
REMARK    8  A    between atoms: C15_21  and  N3_22 
REMARK    9  A    between atoms: C18_30  and  C19_31 
REMARK   10  A    between atoms: C19_31  and  C20_32 
REMARK   11  A    between atoms: C23_37  and  O4_38 
REMARK   12  A    between atoms: C24_40  and  C25_41 
REMARK   13  A    between atoms: C25_41  and  C26_42 
REMARK   14  A    between atoms: C30_49  and  C31_50 
REMARK   15  A    between atoms: C31_50  and  C32_51 
ROOT
HETATM    1  C1  UNL     1      -6.162 -23.256  62.076  1.00  0.00     0.112 C 
HETATM    2  C2  UNL     1      -6.239 -22.213  61.060  1.00  0.00    -0.111 C 
HETATM    3  C3  UNL     1      -6.281 -21.355  60.232  1.00  0.00    -0.107 C 
ENDROOT
BRANCH   3   4
HETATM    4  C4  UNL     1      -6.310 -20.261  59.200  1.00  0.00     0.096 C 
BRANCH   4   5
HETATM    5  C5  UNL     1      -6.530 -20.900  57.883  1.00  0.00     0.047 C 
BRANCH   5   6
HETATM    6  C6  UNL     1      -5.404 -20.868  56.886  1.00  0.00     0.177 C 
HETATM    7  N1  UNL     1      -5.360 -19.468  56.445  1.00  0.00    -0.346 N 
HETATM    8  C7  UNL     1      -5.890 -18.957  55.266  1.00  0.00     0.240 C 
ATOM      9  H1  UNL     1      -4.894 -18.806  57.065  1.00  0.00     0.163 HD
HETATM   10  O1  UNL     1      -5.656 -17.760  54.912  1.00  0.00    -0.271 OA
HETATM   11  C8  UNL     1      -6.769 -19.709  54.298  1.00  0.00     0.172 C 
HETATM   12  C9  UNL     1      -5.889 -20.651  53.548  1.00  0.00     0.042 C 
HETATM   13  N2  UNL     1      -7.619 -18.877  53.517  1.00  0.00    -0.346 N 
HETATM   14  C10 UNL     1      -7.400 -17.719  52.785  1.00  0.00     0.241 C 
ATOM     15  H2  UNL     1      -8.587 -19.197  53.491  1.00  0.00     0.163 HD
HETATM   16  O2  UNL     1      -8.027 -16.656  53.178  1.00  0.00    -0.271 OA
HETATM   17  C11 UNL     1      -6.553 -17.478  51.597  1.00  0.00     0.178 C 
HETATM   18  N4  UNL     1      -5.668 -16.332  51.719  1.00  0.00    -0.341 N 
HETATM   19  C16 UNL     1      -6.186 -14.951  51.824  1.00  0.00     0.153 C 
HETATM   20  C17 UNL     1      -4.264 -16.522  51.736  1.00  0.00     0.243 C 
HETATM   21  O3  UNL     1      -3.624 -15.739  52.531  1.00  0.00    -0.271 OA
HETATM   22  C18 UNL     1      -3.450 -17.470  50.982  1.00  0.00     0.176 C 
HETATM   23  N5  UNL     1      -3.079 -18.690  51.619  1.00  0.00    -0.359 N 
HETATM   24  C23 UNL     1      -1.946 -19.152  52.265  1.00  0.00     0.135 C 
ATOM     25  H5  UNL     1      -3.824 -19.387  51.592  1.00  0.00     0.162 HD
HETATM   26  C24 UNL     1      -1.271 -18.774  53.507  1.00  0.00     0.159 C 
HETATM   27  N6  UNL     1      -2.091 -18.414  54.619  1.00  0.00    -0.347 N 
HETATM   28  C29 UNL     1      -2.043 -18.933  55.934  1.00  0.00     0.241 C 
ATOM     29  H6  UNL     1      -2.796 -17.698  54.445  1.00  0.00     0.163 HD
HETATM   30  O5  UNL     1      -2.057 -18.150  56.947  1.00  0.00    -0.271 OA
HETATM   31  C30 UNL     1      -1.976 -20.378  56.254  1.00  0.00     0.177 C 
HETATM   32  N7  UNL     1      -2.854 -20.719  57.345  1.00  0.00    -0.346 N 
HETATM   33  C35 UNL     1      -4.098 -21.337  57.374  1.00  0.00     0.241 C 
ATOM     34  H7  UNL     1      -2.496 -20.460  58.264  1.00  0.00     0.163 HD
HETATM   35  O6  UNL     1      -4.139 -22.516  57.913  1.00  0.00    -0.271 OA
BRANCH  17  36
HETATM   36  C12 UNL     1      -7.388 -17.191  50.362  1.00  0.00     0.035 C 
BRANCH  36  37
HETATM   37  C13 UNL     1      -6.663 -17.240  49.075  1.00  0.00     0.004 C 
BRANCH  37  38
HETATM   38  C14 UNL     1      -7.147 -16.204  48.084  1.00  0.00     0.027 C 
BRANCH  38  39
HETATM   39  C15 UNL     1      -6.289 -14.953  48.130  1.00  0.00     0.229 C 
BRANCH  39  40
HETATM   40  N3  UNL     1      -7.089 -13.793  48.436  1.00  0.00    -0.079 N 
ATOM     41  H33 UNL     1      -7.737 -13.571  47.680  1.00  0.00     0.274 HD
ATOM     42  H32 UNL     1      -7.770 -13.988  49.171  1.00  0.00     0.274 HD
ATOM     43  H31 UNL     1      -6.498 -12.995  48.672  1.00  0.00     0.274 HD
ENDBRANCH  39  40
ENDBRANCH  38  39
ENDBRANCH  37  38
ENDBRANCH  36  37
ENDBRANCH  17  36
BRANCH  22  44
HETATM   44  C19 UNL     1      -2.300 -16.668  50.387  1.00  0.00     0.038 C 
BRANCH  44  45
HETATM   45  C20 UNL     1      -1.838 -17.394  49.111  1.00  0.00    -0.020 C 
HETATM   46  C21 UNL     1      -3.056 -17.413  48.186  1.00  0.00     0.009 C 
HETATM   47  C22 UNL     1      -0.741 -16.668  48.410  1.00  0.00     0.009 C 
ENDBRANCH  44  45
ENDBRANCH  22  44
BRANCH  24  48
HETATM   48  O4  UNL     1      -1.337 -20.133  51.653  1.00  0.00    -0.348 OA
ATOM     49  H4  UNL     1      -1.898 -20.651  51.087  1.00  0.00     0.219 HD
ENDBRANCH  24  48
BRANCH  26  50
HETATM   50  C25 UNL     1      -0.244 -17.662  53.351  1.00  0.00     0.037 C 
BRANCH  50  51
HETATM   51  C26 UNL     1       1.150 -18.176  53.112  1.00  0.00    -0.020 C 
HETATM   52  C27 UNL     1       1.509 -18.192  51.666  1.00  0.00     0.009 C 
HETATM   53  C28 UNL     1       1.174 -19.604  53.642  1.00  0.00     0.009 C 
ENDBRANCH  50  51
ENDBRANCH  26  50
BRANCH  31  54
HETATM   54  C31 UNL     1      -0.519 -20.594  56.721  1.00  0.00     0.038 C 
BRANCH  54  55
HETATM   55  C32 UNL     1      -0.452 -21.446  57.948  1.00  0.00    -0.020 C 
HETATM   56  C33 UNL     1       0.963 -21.355  58.480  1.00  0.00     0.009 C 
HETATM   57  C34 UNL     1      -0.708 -22.900  57.619  1.00  0.00     0.009 C 
ENDBRANCH  54  55
ENDBRANCH  31  54
ENDBRANCH   5   6
ENDBRANCH   4   5
ENDBRANCH   3   4
TORSDOF 15
ENDMDL
