MODEL 1
REMARK VINA RESULT: -9.957673442      0.000      0.000
REMARK  7 active torsions:
REMARK  status: ('A' for Active; 'I' for Inactive)
REMARK    1  A    between atoms: O1_2  and  C2_3 
REMARK    2  A    between atoms: C5_7  and  O2_8 
REMARK    3  A    between atoms: O2_8  and  C6_9 
REMARK    4  A    between atoms: C7_12  and  N2_13 
REMARK    5  A    between atoms: C12_23  and  S1_24 
REMARK    6  A    between atoms: S1_24  and  N5_27 
REMARK    7  A    between atoms: N5_27  and  C13_29 
ROOT
HETATM    1  C6  UNL     1      44.568   1.352  73.467  1.00  0.00     0.185 A 
HETATM    2  N1  UNL     1      44.182   2.627  73.634  1.00  0.00    -0.169 N 
ATOM      3  H1  UNL     1      43.953   2.952  74.574  1.00  0.00     0.186 HD
HETATM    4  C7  UNL     1      44.086   3.494  72.603  1.00  0.00     0.677 A 
HETATM    5  N3  UNL     1      44.388   3.063  71.366  1.00  0.00    -0.201 N 
ATOM      6  H3  UNL     1      44.315   3.722  70.590  1.00  0.00     0.183 HD
HETATM    7  C8  UNL     1      44.782   1.803  71.102  1.00  0.00     0.133 A 
HETATM    8  C9  UNL     1      44.866   0.949  72.187  1.00  0.00     0.112 A 
HETATM    9  C10 UNL     1      45.280  -0.404  71.972  1.00  0.00     0.105 C 
HETATM   10  N4  UNL     1      45.620  -1.495  71.779  1.00  0.00    -0.191 NA
ENDROOT
BRANCH   1  11
HETATM   11  O2  UNL     1      44.682   0.424  74.484  1.00  0.00    -0.290 OA
BRANCH  11  12
HETATM   12  C5  UNL     1      45.728   0.427  75.397  1.00  0.00     0.101 A 
HETATM   13  C4  UNL     1      45.556   0.189  76.735  1.00  0.00     0.070 A 
HETATM   14  C3  UNL     1      46.651   0.210  77.569  1.00  0.00     0.065 A 
HETATM   15 CL1  UNL     1      43.935  -0.134  77.322  1.00  0.00    -0.081 Cl
HETATM   16  C2  UNL     1      47.916   0.469  77.066  1.00  0.00     0.093 A 
HETATM   17  C12 UNL     1      48.136   0.717  75.714  1.00  0.00     0.115 A 
HETATM   18  C11 UNL     1      46.992   0.681  74.921  1.00  0.00     0.067 A 
BRANCH  16  19
HETATM   19  O1  UNL     1      49.008   0.479  77.942  1.00  0.00    -0.354 OA
HETATM   20  C1  UNL     1      49.109   1.478  78.938  1.00  0.00     0.210 C 
ENDBRANCH  16  19
BRANCH  17  21
HETATM   21  S1  UNL     1      49.707   1.081  75.054  1.00  0.00     0.266 S 
HETATM   22  O3  UNL     1      49.473   1.390  73.577  1.00  0.00    -0.200 OA
HETATM   23  O4  UNL     1      50.463  -0.243  75.157  1.00  0.00    -0.200 OA
BRANCH  21  24
HETATM   24  N5  UNL     1      50.515   2.345  75.802  1.00  0.00    -0.276 N 
ATOM     25  H5  UNL     1      50.003   2.753  76.584  1.00  0.00     0.179 HD
BRANCH  24  26
HETATM   26  C13 UNL     1      51.744   2.945  75.567  1.00  0.00     0.103 A 
HETATM   27  C14 UNL     1      51.911   3.761  74.464  1.00  0.00     0.146 A 
HETATM   28  F1  UNL     1      50.836   3.949  73.676  1.00  0.00    -0.204 F 
HETATM   29  C15 UNL     1      53.113   4.378  74.147  1.00  0.00     0.064 A 
HETATM   30  C16 UNL     1      54.206   4.178  74.962  1.00  0.00     0.015 A 
HETATM   31 BR1  UNL     1      55.855   5.041  74.503  1.00  0.00    -0.051 Br
HETATM   32  C17 UNL     1      54.086   3.371  76.073  1.00  0.00     0.045 A 
HETATM   33  C18 UNL     1      52.861   2.764  76.365  1.00  0.00     0.065 A 
HETATM   34 CL2  UNL     1      52.759   1.771  77.810  1.00  0.00    -0.082 Cl
ENDBRANCH  24  26
ENDBRANCH  21  24
ENDBRANCH  17  21
ENDBRANCH  11  12
ENDBRANCH   1  11
BRANCH   4  35
HETATM   35  N2  UNL     1      43.708   4.734  72.791  1.00  0.00    -0.234 N 
ATOM     36  H22 UNL     1      43.199   4.990  73.637  1.00  0.00     0.174 HD
ATOM     37  H21 UNL     1      43.911   5.459  72.103  1.00  0.00     0.174 HD
ENDBRANCH   4  35
TORSDOF 7
ENDMDL
MODEL 2
REMARK VINA RESULT: -9.819058527      1.916      2.230
REMARK  7 active torsions:
REMARK  status: ('A' for Active; 'I' for Inactive)
REMARK    1  A    between atoms: O1_2  and  C2_3 
REMARK    2  A    between atoms: C5_7  and  O2_8 
REMARK    3  A    between atoms: O2_8  and  C6_9 
REMARK    4  A    between atoms: C7_12  and  N2_13 
REMARK    5  A    between atoms: C12_23  and  S1_24 
REMARK    6  A    between atoms: S1_24  and  N5_27 
REMARK    7  A    between atoms: N5_27  and  C13_29 
ROOT
HETATM    1  C6  UNL     1      44.539  -1.150  74.375  1.00  0.00     0.185 A 
HETATM    2  N1  UNL     1      44.369   0.085  73.877  1.00  0.00    -0.169 N 
ATOM      3  H1  UNL     1      45.168   0.718  73.851  1.00  0.00     0.186 HD
HETATM    4  C7  UNL     1      43.179   0.519  73.410  1.00  0.00     0.677 A 
HETATM    5  N3  UNL     1      42.127  -0.317  73.445  1.00  0.00    -0.201 N 
ATOM      6  H3  UNL     1      41.230   0.014  73.090  1.00  0.00     0.183 HD
HETATM    7  C8  UNL     1      42.201  -1.573  73.927  1.00  0.00     0.133 A 
HETATM    8  C9  UNL     1      43.439  -1.975  74.396  1.00  0.00     0.112 A 
HETATM    9  C10 UNL     1      43.584  -3.299  74.921  1.00  0.00     0.105 C 
HETATM   10  N4  UNL     1      43.682  -4.375  75.339  1.00  0.00    -0.191 NA
ENDROOT
BRANCH   1  11
HETATM   11  O2  UNL     1      45.731  -1.644  74.866  1.00  0.00    -0.290 OA
BRANCH  11  12
HETATM   12  C5  UNL     1      46.593  -0.896  75.657  1.00  0.00     0.101 A 
HETATM   13  C4  UNL     1      46.373  -0.661  76.989  1.00  0.00     0.070 A 
HETATM   14  C3  UNL     1      47.281   0.093  77.698  1.00  0.00     0.065 A 
HETATM   15 CL1  UNL     1      44.935  -1.339  77.729  1.00  0.00    -0.081 Cl
HETATM   16  C2  UNL     1      48.407   0.611  77.077  1.00  0.00     0.093 A 
HETATM   17  C12 UNL     1      48.667   0.398  75.726  1.00  0.00     0.115 A 
HETATM   18  C11 UNL     1      47.715  -0.371  75.062  1.00  0.00     0.067 A 
BRANCH  16  19
HETATM   19  O1  UNL     1      49.311   1.369  77.828  1.00  0.00    -0.354 OA
HETATM   20  C1  UNL     1      49.976   0.790  78.934  1.00  0.00     0.210 C 
ENDBRANCH  16  19
BRANCH  17  21
HETATM   21  S1  UNL     1      50.052   1.064  74.905  1.00  0.00     0.266 S 
HETATM   22  O3  UNL     1      49.562   1.444  73.509  1.00  0.00    -0.200 OA
HETATM   23  O4  UNL     1      51.006  -0.122  74.776  1.00  0.00    -0.200 OA
BRANCH  21  24
HETATM   24  N5  UNL     1      50.760   2.381  75.662  1.00  0.00    -0.276 N 
ATOM     25  H5  UNL     1      50.211   2.752  76.437  1.00  0.00     0.179 HD
BRANCH  24  26
HETATM   26  C13 UNL     1      51.946   3.066  75.441  1.00  0.00     0.103 A 
HETATM   27  C14 UNL     1      52.053   3.930  74.368  1.00  0.00     0.146 A 
HETATM   28  F1  UNL     1      50.962   4.077  73.593  1.00  0.00    -0.204 F 
HETATM   29  C15 UNL     1      53.211   4.633  74.067  1.00  0.00     0.064 A 
HETATM   30  C16 UNL     1      54.321   4.474  74.868  1.00  0.00     0.015 A 
HETATM   31 BR1  UNL     1      55.908   5.456  74.432  1.00  0.00    -0.051 Br
HETATM   32  C17 UNL     1      54.261   3.622  75.951  1.00  0.00     0.045 A 
HETATM   33  C18 UNL     1      53.078   2.928  76.227  1.00  0.00     0.065 A 
HETATM   34 CL2  UNL     1      53.052   1.880  77.636  1.00  0.00    -0.082 Cl
ENDBRANCH  24  26
ENDBRANCH  21  24
ENDBRANCH  17  21
ENDBRANCH  11  12
ENDBRANCH   1  11
BRANCH   4  35
HETATM   35  N2  UNL     1      43.037   1.729  72.928  1.00  0.00    -0.234 N 
ATOM     36  H22 UNL     1      43.687   2.466  73.202  1.00  0.00     0.174 HD
ATOM     37  H21 UNL     1      42.284   1.955  72.278  1.00  0.00     0.174 HD
ENDBRANCH   4  35
TORSDOF 7
ENDMDL
MODEL 3
REMARK VINA RESULT: -9.812777128      1.909      3.209
REMARK  7 active torsions:
REMARK  status: ('A' for Active; 'I' for Inactive)
REMARK    1  A    between atoms: O1_2  and  C2_3 
REMARK    2  A    between atoms: C5_7  and  O2_8 
REMARK    3  A    between atoms: O2_8  and  C6_9 
REMARK    4  A    between atoms: C7_12  and  N2_13 
REMARK    5  A    between atoms: C12_23  and  S1_24 
REMARK    6  A    between atoms: S1_24  and  N5_27 
REMARK    7  A    between atoms: N5_27  and  C13_29 
ROOT
HETATM    1  C6  UNL     1      44.411  -1.580  74.623  1.00  0.00     0.185 A 
HETATM    2  N1  UNL     1      45.008  -2.721  75.005  1.00  0.00    -0.169 N 
ATOM      3  H1  UNL     1      45.786  -2.673  75.662  1.00  0.00     0.186 HD
HETATM    4  C7  UNL     1      44.613  -3.930  74.549  1.00  0.00     0.677 A 
HETATM    5  N3  UNL     1      43.587  -3.991  73.683  1.00  0.00    -0.201 N 
ATOM      6  H3  UNL     1      43.292  -4.907  73.342  1.00  0.00     0.183 HD
HETATM    7  C8  UNL     1      42.929  -2.901  73.244  1.00  0.00     0.133 A 
HETATM    8  C9  UNL     1      43.367  -1.684  73.735  1.00  0.00     0.112 A 
HETATM    9  C10 UNL     1      42.708  -0.488  73.307  1.00  0.00     0.105 C 
HETATM   10  N4  UNL     1      42.161   0.469  72.950  1.00  0.00    -0.191 NA
ENDROOT
BRANCH   1  11
HETATM   11  O2  UNL     1      44.773  -0.320  75.056  1.00  0.00    -0.290 OA
BRANCH  11  12
HETATM   12  C5  UNL     1      45.872  -0.086  75.872  1.00  0.00     0.101 A 
HETATM   13  C4  UNL     1      45.830  -0.196  77.237  1.00  0.00     0.070 A 
HETATM   14  C3  UNL     1      46.968   0.054  77.968  1.00  0.00     0.065 A 
HETATM   15 CL1  UNL     1      44.313  -0.655  77.989  1.00  0.00    -0.081 Cl
HETATM   16  C2  UNL     1      48.149   0.413  77.337  1.00  0.00     0.093 A 
HETATM   17  C12 UNL     1      48.236   0.539  75.953  1.00  0.00     0.115 A 
HETATM   18  C11 UNL     1      47.054   0.273  75.268  1.00  0.00     0.067 A 
BRANCH  16  19
HETATM   19  O1  UNL     1      49.288   0.656  78.111  1.00  0.00    -0.354 OA
HETATM   20  C1  UNL     1      49.305   1.730  79.032  1.00  0.00     0.210 C 
ENDBRANCH  16  19
BRANCH  17  21
HETATM   21  S1  UNL     1      49.692   1.024  75.129  1.00  0.00     0.266 S 
HETATM   22  O3  UNL     1      49.272   1.335  73.694  1.00  0.00    -0.200 OA
HETATM   23  O4  UNL     1      50.546  -0.244  75.118  1.00  0.00    -0.200 OA
BRANCH  21  24
HETATM   24  N5  UNL     1      50.490   2.331  75.809  1.00  0.00    -0.276 N 
ATOM     25  H5  UNL     1      49.973   2.779  76.565  1.00  0.00     0.179 HD
BRANCH  24  26
HETATM   26  C13 UNL     1      51.717   2.924  75.546  1.00  0.00     0.103 A 
HETATM   27  C14 UNL     1      51.872   3.714  74.422  1.00  0.00     0.146 A 
HETATM   28  F1  UNL     1      50.789   3.883  73.641  1.00  0.00    -0.204 F 
HETATM   29  C15 UNL     1      53.071   4.322  74.077  1.00  0.00     0.064 A 
HETATM   30  C16 UNL     1      54.173   4.141  74.885  1.00  0.00     0.015 A 
HETATM   31 BR1  UNL     1      55.818   4.991  74.388  1.00  0.00    -0.051 Br
HETATM   32  C17 UNL     1      54.065   3.361  76.017  1.00  0.00     0.045 A 
HETATM   33  C18 UNL     1      52.842   2.762  76.336  1.00  0.00     0.065 A 
HETATM   34 CL2  UNL     1      52.755   1.805  77.806  1.00  0.00    -0.082 Cl
ENDBRANCH  24  26
ENDBRANCH  21  24
ENDBRANCH  17  21
ENDBRANCH  11  12
ENDBRANCH   1  11
BRANCH   4  35
HETATM   35  N2  UNL     1      45.211  -5.030  74.936  1.00  0.00    -0.234 N 
ATOM     36  H22 UNL     1      45.345  -5.215  75.930  1.00  0.00     0.174 HD
ATOM     37  H21 UNL     1      45.549  -5.714  74.259  1.00  0.00     0.174 HD
ENDBRANCH   4  35
TORSDOF 7
ENDMDL
MODEL 4
REMARK VINA RESULT: -9.788299437      2.531      3.631
REMARK  7 active torsions:
REMARK  status: ('A' for Active; 'I' for Inactive)
REMARK    1  A    between atoms: O1_2  and  C2_3 
REMARK    2  A    between atoms: C5_7  and  O2_8 
REMARK    3  A    between atoms: O2_8  and  C6_9 
REMARK    4  A    between atoms: C7_12  and  N2_13 
REMARK    5  A    between atoms: C12_23  and  S1_24 
REMARK    6  A    between atoms: S1_24  and  N5_27 
REMARK    7  A    between atoms: N5_27  and  C13_29 
ROOT
HETATM    1  C6  UNL     1      45.108   1.825  72.218  1.00  0.00     0.185 A 
HETATM    2  N1  UNL     1      45.829   0.905  71.556  1.00  0.00    -0.169 N 
ATOM      3  H1  UNL     1      45.934  -0.023  71.964  1.00  0.00     0.186 HD
HETATM    4  C7  UNL     1      46.419   1.167  70.370  1.00  0.00     0.677 A 
HETATM    5  N3  UNL     1      46.280   2.392  69.834  1.00  0.00    -0.201 N 
ATOM      6  H3  UNL     1      46.727   2.584  68.937  1.00  0.00     0.183 HD
HETATM    7  C8  UNL     1      45.577   3.377  70.425  1.00  0.00     0.133 A 
HETATM    8  C9  UNL     1      44.990   3.066  71.639  1.00  0.00     0.112 A 
HETATM    9  C10 UNL     1      44.229   4.071  72.317  1.00  0.00     0.105 C 
HETATM   10  N4  UNL     1      43.615   4.896  72.849  1.00  0.00    -0.191 NA
ENDROOT
BRANCH   1  11
HETATM   11  O2  UNL     1      44.485   1.612  73.432  1.00  0.00    -0.290 OA
BRANCH  11  12
HETATM   12  C5  UNL     1      44.999   0.772  74.410  1.00  0.00     0.101 A 
HETATM   13  C4  UNL     1      44.577  -0.520  74.585  1.00  0.00     0.070 A 
HETATM   14  C3  UNL     1      45.143  -1.283  75.581  1.00  0.00     0.065 A 
HETATM   15 CL1  UNL     1      43.328  -1.141  73.522  1.00  0.00    -0.081 Cl
HETATM   16  C2  UNL     1      46.128  -0.757  76.401  1.00  0.00     0.093 A 
HETATM   17  C12 UNL     1      46.585   0.551  76.259  1.00  0.00     0.115 A 
HETATM   18  C11 UNL     1      45.977   1.273  75.235  1.00  0.00     0.067 A 
BRANCH  16  19
HETATM   19  O1  UNL     1      46.684  -1.562  77.401  1.00  0.00    -0.354 OA
HETATM   20  C1  UNL     1      45.844  -2.299  78.267  1.00  0.00     0.210 C 
ENDBRANCH  16  19
BRANCH  17  21
HETATM   21  S1  UNL     1      47.796   1.257  77.294  1.00  0.00     0.266 S 
HETATM   22  O3  UNL     1      47.272   1.086  78.719  1.00  0.00    -0.200 OA
HETATM   23  O4  UNL     1      47.758   2.743  76.940  1.00  0.00    -0.200 OA
BRANCH  21  24
HETATM   24  N5  UNL     1      49.329   0.597  77.144  1.00  0.00    -0.276 N 
ATOM     25  H5  UNL     1      49.362  -0.407  77.316  1.00  0.00     0.179 HD
BRANCH  24  26
HETATM   26  C13 UNL     1      50.563   1.150  76.831  1.00  0.00     0.103 A 
HETATM   27  C14 UNL     1      51.476   1.408  77.837  1.00  0.00     0.146 A 
HETATM   28  F1  UNL     1      51.112   1.078  79.090  1.00  0.00    -0.204 F 
HETATM   29  C15 UNL     1      52.720   1.980  77.609  1.00  0.00     0.064 A 
HETATM   30  C16 UNL     1      53.080   2.313  76.321  1.00  0.00     0.015 A 
HETATM   31 BR1  UNL     1      54.803   3.102  76.032  1.00  0.00    -0.051 Br
HETATM   32  C17 UNL     1      52.201   2.074  75.286  1.00  0.00     0.045 A 
HETATM   33  C18 UNL     1      50.955   1.497  75.549  1.00  0.00     0.065 A 
HETATM   34 CL2  UNL     1      49.889   1.187  74.188  1.00  0.00    -0.082 Cl
ENDBRANCH  24  26
ENDBRANCH  21  24
ENDBRANCH  17  21
ENDBRANCH  11  12
ENDBRANCH   1  11
BRANCH   4  35
HETATM   35  N2  UNL     1      47.117   0.253  69.742  1.00  0.00    -0.234 N 
ATOM     36  H22 UNL     1      48.115   0.154  69.931  1.00  0.00     0.174 HD
ATOM     37  H21 UNL     1      46.683  -0.370  69.061  1.00  0.00     0.174 HD
ENDBRANCH   4  35
TORSDOF 7
ENDMDL
MODEL 5
REMARK VINA RESULT: -9.730482838      2.012      2.493
REMARK  7 active torsions:
REMARK  status: ('A' for Active; 'I' for Inactive)
REMARK    1  A    between atoms: O1_2  and  C2_3 
REMARK    2  A    between atoms: C5_7  and  O2_8 
REMARK    3  A    between atoms: O2_8  and  C6_9 
REMARK    4  A    between atoms: C7_12  and  N2_13 
REMARK    5  A    between atoms: C12_23  and  S1_24 
REMARK    6  A    between atoms: S1_24  and  N5_27 
REMARK    7  A    between atoms: N5_27  and  C13_29 
ROOT
HETATM    1  C6  UNL     1      45.233   1.893  72.076  1.00  0.00     0.185 A 
HETATM    2  N1  UNL     1      44.488   2.877  72.607  1.00  0.00    -0.169 N 
ATOM      3  H1  UNL     1      44.048   2.725  73.514  1.00  0.00     0.186 HD
HETATM    4  C7  UNL     1      44.301   4.059  71.981  1.00  0.00     0.677 A 
HETATM    5  N3  UNL     1      44.882   4.257  70.785  1.00  0.00    -0.201 N 
ATOM      6  H3  UNL     1      44.739   5.152  70.317  1.00  0.00     0.183 HD
HETATM    7  C8  UNL     1      45.645   3.329  70.176  1.00  0.00     0.133 A 
HETATM    8  C9  UNL     1      45.809   2.133  70.852  1.00  0.00     0.112 A 
HETATM    9  C10 UNL     1      46.610   1.107  70.257  1.00  0.00     0.105 C 
HETATM   10  N4  UNL     1      47.264   0.289  69.761  1.00  0.00    -0.191 NA
ENDROOT
BRANCH   1  11
HETATM   11  O2  UNL     1      45.457   0.667  72.671  1.00  0.00    -0.290 OA
BRANCH  11  12
HETATM   12  C5  UNL     1      45.393   0.469  74.044  1.00  0.00     0.101 A 
HETATM   13  C4  UNL     1      44.261   0.047  74.689  1.00  0.00     0.070 A 
HETATM   14  C3  UNL     1      44.288  -0.124  76.055  1.00  0.00     0.065 A 
HETATM   15 CL1  UNL     1      42.822  -0.257  73.734  1.00  0.00    -0.081 Cl
HETATM   16  C2  UNL     1      45.445   0.126  76.775  1.00  0.00     0.093 A 
HETATM   17  C12 UNL     1      46.617   0.558  76.160  1.00  0.00     0.115 A 
HETATM   18  C11 UNL     1      46.529   0.712  74.779  1.00  0.00     0.067 A 
BRANCH  16  19
HETATM   19  O1  UNL     1      45.438  -0.062  78.161  1.00  0.00    -0.354 OA
HETATM   20  C1  UNL     1      44.512   0.639  78.968  1.00  0.00     0.210 C 
ENDBRANCH  16  19
BRANCH  17  21
HETATM   21  S1  UNL     1      48.079   0.917  77.038  1.00  0.00     0.266 S 
HETATM   22  O3  UNL     1      48.010   0.080  78.314  1.00  0.00    -0.200 OA
HETATM   23  O4  UNL     1      47.925   2.389  77.417  1.00  0.00    -0.200 OA
BRANCH  21  24
HETATM   24  N5  UNL     1      49.500   0.611  76.205  1.00  0.00    -0.276 N 
ATOM     25  H5  UNL     1      49.577  -0.347  75.863  1.00  0.00     0.179 HD
BRANCH  24  26
HETATM   26  C13 UNL     1      50.594   1.405  75.889  1.00  0.00     0.103 A 
HETATM   27  C14 UNL     1      50.671   2.006  74.647  1.00  0.00     0.146 A 
HETATM   28  F1  UNL     1      49.642   1.800  73.804  1.00  0.00    -0.204 F 
HETATM   29  C15 UNL     1      51.741   2.795  74.247  1.00  0.00     0.064 A 
HETATM   30  C16 UNL     1      52.788   2.999  75.119  1.00  0.00     0.015 A 
HETATM   31 BR1  UNL     1      54.254   4.092  74.544  1.00  0.00    -0.051 Br
HETATM   32  C17 UNL     1      52.754   2.418  76.370  1.00  0.00     0.045 A 
HETATM   33  C18 UNL     1      51.661   1.629  76.742  1.00  0.00     0.065 A 
HETATM   34 CL2  UNL     1      51.658   0.940  78.357  1.00  0.00    -0.082 Cl
ENDBRANCH  24  26
ENDBRANCH  21  24
ENDBRANCH  17  21
ENDBRANCH  11  12
ENDBRANCH   1  11
BRANCH   4  35
HETATM   35  N2  UNL     1      43.569   5.004  72.518  1.00  0.00    -0.234 N 
ATOM     36  H22 UNL     1      43.956   5.590  73.258  1.00  0.00     0.174 HD
ATOM     37  H21 UNL     1      42.611   5.169  72.212  1.00  0.00     0.174 HD
ENDBRANCH   4  35
TORSDOF 7
ENDMDL
