MODEL 1
REMARK VINA RESULT: -7.076603565      0.000      0.000
REMARK  2 active torsions:
REMARK  status: ('A' for Active; 'I' for Inactive)
REMARK    1  A    between atoms: C4_6  and  C5_7 
REMARK    2  A    between atoms: N3_16  and  C12_17 
ROOT
HETATM    1  C5  UNL     1     122.839   7.345  26.716  1.00  0.00     0.124 A 
HETATM    2  N2  UNL     1     123.557   8.529  26.949  1.00  0.00    -0.339 N 
ATOM      3  H2  UNL     1     124.449   8.588  27.443  1.00  0.00     0.167 HD
HETATM    4  C6  UNL     1     122.903   9.557  26.432  1.00  0.00     0.061 A 
HETATM    5  C7  UNL     1     123.201  10.929  26.392  1.00  0.00     0.032 A 
HETATM    6  C8  UNL     1     122.291  11.740  25.757  1.00  0.00     0.002 A 
HETATM    7  C9  UNL     1     121.143  11.248  25.184  1.00  0.00     0.002 A 
HETATM    8  C10 UNL     1     120.873   9.885  25.237  1.00  0.00     0.032 A 
HETATM    9  C11 UNL     1     121.764   9.043  25.867  1.00  0.00     0.067 A 
HETATM   10  N3  UNL     1     121.732   7.654  26.053  1.00  0.00    -0.302 N 
ENDROOT
BRANCH   1  11
HETATM   11  C4  UNL     1     123.348   6.095  27.232  1.00  0.00     0.024 A 
HETATM   12  C3  UNL     1     123.366   5.619  28.488  1.00  0.00     0.102 A 
HETATM   13  N1  UNL     1     123.953   4.439  28.855  1.00  0.00    -0.374 N 
HETATM   14  C2  UNL     1     124.571   3.642  27.978  1.00  0.00     0.087 A 
ATOM     15  H1  UNL     1     123.918   4.158  29.835  1.00  0.00     0.164 HD
HETATM   16  C1  UNL     1     124.588   4.068  26.673  1.00  0.00     0.018 A 
HETATM   17  C18 UNL     1     124.003   5.245  26.302  1.00  0.00     0.018 A 
ENDBRANCH   1  11
BRANCH  10  18
HETATM   18  C12 UNL     1     120.621   6.891  25.618  1.00  0.00    -0.004 C 
HETATM   19  C13 UNL     1     119.868   6.060  26.604  1.00  0.00     0.053 C 
HETATM   20  C14 UNL     1     118.377   6.111  26.153  1.00  0.00     0.006 C 
HETATM   21  C15 UNL     1     118.311   5.707  24.698  1.00  0.00     0.001 C 
HETATM   22  C16 UNL     1     119.613   5.169  24.156  1.00  0.00     0.006 C 
HETATM   23  C17 UNL     1     120.776   6.116  24.336  1.00  0.00     0.053 C 
ENDBRANCH  10  18
TORSDOF 2
ENDMDL
MODEL 2
REMARK VINA RESULT: -7.042992826      0.594      1.035
REMARK  2 active torsions:
REMARK  status: ('A' for Active; 'I' for Inactive)
REMARK    1  A    between atoms: C4_6  and  C5_7 
REMARK    2  A    between atoms: N3_16  and  C12_17 
ROOT
HETATM    1  C5  UNL     1     122.853   7.413  26.586  1.00  0.00     0.124 A 
HETATM    2  N2  UNL     1     123.591   8.598  26.737  1.00  0.00    -0.339 N 
ATOM      3  H2  UNL     1     124.536   8.657  27.118  1.00  0.00     0.167 HD
HETATM    4  C6  UNL     1     122.875   9.627  26.311  1.00  0.00     0.061 A 
HETATM    5  C7  UNL     1     123.162  11.000  26.244  1.00  0.00     0.032 A 
HETATM    6  C8  UNL     1     122.179  11.812  25.731  1.00  0.00     0.002 A 
HETATM    7  C9  UNL     1     120.971  11.319  25.300  1.00  0.00     0.002 A 
HETATM    8  C10 UNL     1     120.713   9.955  25.377  1.00  0.00     0.032 A 
HETATM    9  C11 UNL     1     121.677   9.113  25.887  1.00  0.00     0.067 A 
HETATM   10  N3  UNL     1     121.672   7.722  26.067  1.00  0.00    -0.302 N 
ENDROOT
BRANCH   1  11
HETATM   11  C4  UNL     1     123.425   6.161  27.027  1.00  0.00     0.024 A 
HETATM   12  C3  UNL     1     124.027   5.188  26.324  1.00  0.00     0.102 A 
HETATM   13  N1  UNL     1     124.461   4.007  26.860  1.00  0.00    -0.374 N 
HETATM   14  C2  UNL     1     124.322   3.714  28.158  1.00  0.00     0.087 A 
ATOM     15  H1  UNL     1     124.907   3.324  26.247  1.00  0.00     0.164 HD
HETATM   16  C1  UNL     1     123.715   4.668  28.936  1.00  0.00     0.018 A 
HETATM   17  C18 UNL     1     123.281   5.849  28.405  1.00  0.00     0.018 A 
ENDBRANCH   1  11
BRANCH  10  18
HETATM   18  C12 UNL     1     120.518   6.958  25.767  1.00  0.00    -0.004 C 
HETATM   19  C13 UNL     1     119.941   6.056  26.808  1.00  0.00     0.053 C 
HETATM   20  C14 UNL     1     118.397   6.096  26.597  1.00  0.00     0.006 C 
HETATM   21  C15 UNL     1     118.110   5.771  25.150  1.00  0.00     0.001 C 
HETATM   22  C16 UNL     1     119.319   5.295  24.382  1.00  0.00     0.006 C 
HETATM   23  C17 UNL     1     120.482   6.258  24.433  1.00  0.00     0.053 C 
ENDBRANCH  10  18
TORSDOF 2
ENDMDL
MODEL 3
REMARK VINA RESULT: -6.985298900      1.465      4.609
REMARK  2 active torsions:
REMARK  status: ('A' for Active; 'I' for Inactive)
REMARK    1  A    between atoms: C4_6  and  C5_7 
REMARK    2  A    between atoms: N3_16  and  C12_17 
ROOT
HETATM    1  C5  UNL     1     120.965   7.346  25.313  1.00  0.00     0.124 A 
HETATM    2  N2  UNL     1     120.729   8.722  25.155  1.00  0.00    -0.339 N 
ATOM      3  H2  UNL     1     119.916   9.128  24.690  1.00  0.00     0.167 HD
HETATM    4  C6  UNL     1     121.719   9.410  25.701  1.00  0.00     0.061 A 
HETATM    5  C7  UNL     1     121.945  10.792  25.812  1.00  0.00     0.032 A 
HETATM    6  C8  UNL     1     123.093  11.180  26.457  1.00  0.00     0.002 A 
HETATM    7  C9  UNL     1     123.986  10.273  26.975  1.00  0.00     0.002 A 
HETATM    8  C10 UNL     1     123.738   8.910  26.852  1.00  0.00     0.032 A 
HETATM    9  C11 UNL     1     122.595   8.487  26.209  1.00  0.00     0.067 A 
HETATM   10  N3  UNL     1     122.114   7.194  25.959  1.00  0.00    -0.302 N 
ENDROOT
BRANCH   1  11
HETATM   11  C4  UNL     1     120.029   6.397  24.755  1.00  0.00     0.024 A 
HETATM   12  C3  UNL     1     119.958   5.875  23.520  1.00  0.00     0.102 A 
HETATM   13  N1  UNL     1     118.965   5.035  23.095  1.00  0.00    -0.374 N 
HETATM   14  C2  UNL     1     117.959   4.654  23.891  1.00  0.00     0.087 A 
ATOM     15  H1  UNL     1     118.992   4.687  22.137  1.00  0.00     0.164 HD
HETATM   16  C1  UNL     1     117.971   5.152  25.170  1.00  0.00     0.018 A 
HETATM   17  C18 UNL     1     118.961   5.990  25.597  1.00  0.00     0.018 A 
ENDBRANCH   1  11
BRANCH  10  18
HETATM   18  C12 UNL     1     122.873   6.055  26.327  1.00  0.00    -0.004 C 
HETATM   19  C13 UNL     1     123.373   5.131  25.267  1.00  0.00     0.053 C 
HETATM   20  C14 UNL     1     124.759   4.621  25.766  1.00  0.00     0.006 C 
HETATM   21  C15 UNL     1     124.583   4.063  27.159  1.00  0.00     0.001 C 
HETATM   22  C16 UNL     1     123.140   3.945  27.589  1.00  0.00     0.006 C 
HETATM   23  C17 UNL     1     122.377   5.245  27.496  1.00  0.00     0.053 C 
ENDBRANCH  10  18
TORSDOF 2
ENDMDL
MODEL 4
REMARK VINA RESULT: -6.972220237      1.757      4.517
REMARK  2 active torsions:
REMARK  status: ('A' for Active; 'I' for Inactive)
REMARK    1  A    between atoms: C4_6  and  C5_7 
REMARK    2  A    between atoms: N3_16  and  C12_17 
ROOT
HETATM    1  C5  UNL     1     120.091   7.144  26.482  1.00  0.00     0.124 A 
HETATM    2  N2  UNL     1     119.686   8.447  26.150  1.00  0.00    -0.339 N 
ATOM      3  H2  UNL     1     118.717   8.754  26.051  1.00  0.00     0.167 HD
HETATM    4  C6  UNL     1     120.750   9.217  25.985  1.00  0.00     0.061 A 
HETATM    5  C7  UNL     1     120.877  10.577  25.660  1.00  0.00     0.032 A 
HETATM    6  C8  UNL     1     122.155  11.074  25.572  1.00  0.00     0.002 A 
HETATM    7  C9  UNL     1     123.263  10.292  25.791  1.00  0.00     0.002 A 
HETATM    8  C10 UNL     1     123.109   8.948  26.112  1.00  0.00     0.032 A 
HETATM    9  C11 UNL     1     121.841   8.417  26.207  1.00  0.00     0.067 A 
HETATM   10  N3  UNL     1     121.417   7.117  26.516  1.00  0.00    -0.302 N 
ENDROOT
BRANCH   1  11
HETATM   11  C4  UNL     1     119.091   6.117  26.669  1.00  0.00     0.024 A 
HETATM   12  C3  UNL     1     118.390   5.416  25.763  1.00  0.00     0.102 A 
HETATM   13  N1  UNL     1     117.408   4.516  26.078  1.00  0.00    -0.374 N 
HETATM   14  C2  UNL     1     117.056   4.253  27.341  1.00  0.00     0.087 A 
ATOM     15  H1  UNL     1     116.928   4.029  25.322  1.00  0.00     0.164 HD
HETATM   16  C1  UNL     1     117.735   4.937  28.319  1.00  0.00     0.018 A 
HETATM   17  C18 UNL     1     118.715   5.835  28.008  1.00  0.00     0.018 A 
ENDBRANCH   1  11
BRANCH  10  18
HETATM   18  C12 UNL     1     122.358   6.078  26.723  1.00  0.00    -0.004 C 
HETATM   19  C13 UNL     1     122.455   4.966  25.733  1.00  0.00     0.053 C 
HETATM   20  C14 UNL     1     123.963   4.574  25.680  1.00  0.00     0.006 C 
HETATM   21  C15 UNL     1     124.428   4.300  27.091  1.00  0.00     0.001 C 
HETATM   22  C16 UNL     1     123.310   4.261  28.105  1.00  0.00     0.006 C 
HETATM   23  C17 UNL     1     122.463   5.512  28.115  1.00  0.00     0.053 C 
ENDBRANCH  10  18
TORSDOF 2
ENDMDL
MODEL 5
REMARK VINA RESULT: -6.857508794      1.666      4.332
REMARK  2 active torsions:
REMARK  status: ('A' for Active; 'I' for Inactive)
REMARK    1  A    between atoms: C4_6  and  C5_7 
REMARK    2  A    between atoms: N3_16  and  C12_17 
ROOT
HETATM    1  C5  UNL     1     120.200   7.361  26.545  1.00  0.00     0.124 A 
HETATM    2  N2  UNL     1     119.774   8.660  26.223  1.00  0.00    -0.339 N 
ATOM      3  H2  UNL     1     118.802   8.965  26.177  1.00  0.00     0.167 HD
HETATM    4  C6  UNL     1     120.827   9.429  25.987  1.00  0.00     0.061 A 
HETATM    5  C7  UNL     1     120.933  10.785  25.640  1.00  0.00     0.032 A 
HETATM    6  C8  UNL     1     122.203  11.282  25.472  1.00  0.00     0.002 A 
HETATM    7  C9  UNL     1     123.323  10.503  25.634  1.00  0.00     0.002 A 
HETATM    8  C10 UNL     1     123.189   9.162  25.980  1.00  0.00     0.032 A 
HETATM    9  C11 UNL     1     121.930   8.632  26.154  1.00  0.00     0.067 A 
HETATM   10  N3  UNL     1     121.525   7.335  26.502  1.00  0.00    -0.302 N 
ENDROOT
BRANCH   1  11
HETATM   11  C4  UNL     1     119.213   6.336  26.802  1.00  0.00     0.024 A 
HETATM   12  C3  UNL     1     118.193   5.907  26.042  1.00  0.00     0.102 A 
HETATM   13  N1  UNL     1     117.278   4.971  26.440  1.00  0.00    -0.374 N 
HETATM   14  C2  UNL     1     117.322   4.391  27.644  1.00  0.00     0.087 A 
ATOM     15  H1  UNL     1     116.534   4.706  25.794  1.00  0.00     0.164 HD
HETATM   16  C1  UNL     1     118.343   4.785  28.473  1.00  0.00     0.018 A 
HETATM   17  C18 UNL     1     119.259   5.718  28.079  1.00  0.00     0.018 A 
ENDBRANCH   1  11
BRANCH  10  18
HETATM   18  C12 UNL     1     122.478   6.299  26.666  1.00  0.00    -0.004 C 
HETATM   19  C13 UNL     1     123.323   6.266  27.896  1.00  0.00     0.053 C 
HETATM   20  C14 UNL     1     123.531   4.757  28.228  1.00  0.00     0.006 C 
HETATM   21  C15 UNL     1     124.062   4.070  26.991  1.00  0.00     0.001 C 
HETATM   22  C16 UNL     1     124.447   5.022  25.885  1.00  0.00     0.006 C 
HETATM   23  C17 UNL     1     123.328   5.949  25.473  1.00  0.00     0.053 C 
ENDBRANCH  10  18
TORSDOF 2
ENDMDL
