MODEL 1
REMARK VINA RESULT: -8.761637003      0.000      0.000
REMARK  2 active torsions:
REMARK  status: ('A' for Active; 'I' for Inactive)
REMARK    1  A    between atoms: C2_3  and  C3_4 
REMARK    2  A    between atoms: C8_11  and  N3_12 
ROOT
HETATM    1  N1  UNL     1      25.225  17.055  18.207  1.00  0.00    -0.197 NA
HETATM    2  C1  UNL     1      25.452  18.080  18.702  1.00  0.00     0.063 C 
HETATM    3  C2  UNL     1      25.721  19.408  19.320  1.00  0.00     0.164 C 
ENDROOT
BRANCH   3   4
HETATM    4  C3  UNL     1      24.618  19.993  20.035  1.00  0.00    -0.016 A 
HETATM    5  C4  UNL     1      23.960  19.222  21.001  1.00  0.00     0.096 A 
HETATM    6  N2  UNL     1      22.897  19.611  21.705  1.00  0.00    -0.373 N 
HETATM    7  C5  UNL     1      22.368  20.803  21.532  1.00  0.00     0.112 A 
ATOM      8  H2  UNL     1      22.487  18.975  22.389  1.00  0.00     0.164 HD
HETATM    9  C6  UNL     1      22.937  21.658  20.600  1.00  0.00     0.092 A 
HETATM   10  C7  UNL     1      24.045  21.260  19.863  1.00  0.00     0.023 A 
HETATM   11  S1  UNL     1      22.218  23.234  20.392  1.00  0.00     0.209 S 
HETATM   12  C8  UNL     1      24.669  22.137  18.906  1.00  0.00     0.050 A 
HETATM   13  C9  UNL     1      24.223  23.505  18.603  1.00  0.00     0.013 A 
HETATM   14  C10 UNL     1      24.919  24.249  17.662  1.00  0.00     0.015 A 
HETATM   15  C14 UNL     1      23.156  24.099  19.203  1.00  0.00     0.076 A 
HETATM   16  C11 UNL     1      24.584  25.546  17.310  1.00  0.00     0.001 A 
HETATM   17  C12 UNL     1      23.501  26.120  17.933  1.00  0.00     0.002 A 
HETATM   18  C13 UNL     1      22.805  25.396  18.864  1.00  0.00     0.025 A 
HETATM   19  O1  UNL     1      20.825  22.991  19.828  1.00  0.00    -0.217 OA
HETATM   20  O2  UNL     1      22.129  23.990  21.690  1.00  0.00    -0.217 OA
BRANCH  12  21
HETATM   21  N3  UNL     1      25.690  21.751  18.275  1.00  0.00    -0.398 N 
ATOM     22  H32 UNL     1      26.432  21.350  18.849  1.00  0.00     0.156 HD
ATOM     23  H31 UNL     1      25.721  21.837  17.259  1.00  0.00     0.156 HD
ENDBRANCH  12  21
ENDBRANCH   3   4
TORSDOF 2
ENDMDL
MODEL 2
REMARK VINA RESULT: -7.797083715      2.813      5.132
REMARK  2 active torsions:
REMARK  status: ('A' for Active; 'I' for Inactive)
REMARK    1  A    between atoms: C2_3  and  C3_4 
REMARK    2  A    between atoms: C8_11  and  N3_12 
ROOT
HETATM    1  N1  UNL     1      24.560  26.729  17.751  1.00  0.00    -0.197 NA
HETATM    2  C1  UNL     1      23.969  25.763  17.497  1.00  0.00     0.063 C 
HETATM    3  C2  UNL     1      23.235  24.511  17.160  1.00  0.00     0.164 C 
ENDROOT
BRANCH   3   4
HETATM    4  C3  UNL     1      23.686  23.328  17.843  1.00  0.00    -0.016 A 
HETATM    5  C4  UNL     1      24.416  22.374  17.123  1.00  0.00     0.096 A 
HETATM    6  N2  UNL     1      24.856  21.213  17.608  1.00  0.00    -0.373 N 
HETATM    7  C5  UNL     1      24.623  20.866  18.855  1.00  0.00     0.112 A 
ATOM      8  H2  UNL     1      25.382  20.582  17.002  1.00  0.00     0.164 HD
HETATM    9  C6  UNL     1      23.908  21.733  19.667  1.00  0.00     0.092 A 
HETATM   10  C7  UNL     1      23.447  22.946  19.170  1.00  0.00     0.023 A 
HETATM   11  S1  UNL     1      23.615  21.251  21.318  1.00  0.00     0.209 S 
HETATM   12  C8  UNL     1      22.723  23.875  19.999  1.00  0.00     0.050 A 
HETATM   13  C9  UNL     1      22.394  23.658  21.416  1.00  0.00     0.013 A 
HETATM   14  C10 UNL     1      21.695  24.640  22.104  1.00  0.00     0.015 A 
HETATM   15  C14 UNL     1      22.743  22.539  22.106  1.00  0.00     0.076 A 
HETATM   16  C11 UNL     1      21.343  24.535  23.439  1.00  0.00     0.001 A 
HETATM   17  C12 UNL     1      21.709  23.393  24.112  1.00  0.00     0.002 A 
HETATM   18  C13 UNL     1      22.398  22.417  23.443  1.00  0.00     0.025 A 
HETATM   19  O1  UNL     1      22.711  20.027  21.246  1.00  0.00    -0.217 OA
HETATM   20  O2  UNL     1      24.889  20.915  22.043  1.00  0.00    -0.217 OA
BRANCH  12  21
HETATM   21  N3  UNL     1      22.344  24.978  19.520  1.00  0.00    -0.398 N 
ATOM     22  H32 UNL     1      21.464  25.336  19.893  1.00  0.00     0.156 HD
ATOM     23  H31 UNL     1      22.918  25.452  18.823  1.00  0.00     0.156 HD
ENDBRANCH  12  21
ENDBRANCH   3   4
TORSDOF 2
ENDMDL
MODEL 3
REMARK VINA RESULT: -7.370167405      3.111      5.856
REMARK  2 active torsions:
REMARK  status: ('A' for Active; 'I' for Inactive)
REMARK    1  A    between atoms: C2_3  and  C3_4 
REMARK    2  A    between atoms: C8_11  and  N3_12 
ROOT
HETATM    1  N1  UNL     1      20.564  24.979  25.685  1.00  0.00    -0.197 NA
HETATM    2  C1  UNL     1      21.041  24.196  24.973  1.00  0.00     0.063 C 
HETATM    3  C2  UNL     1      21.628  23.193  24.042  1.00  0.00     0.164 C 
ENDROOT
BRANCH   3   4
HETATM    4  C3  UNL     1      21.854  23.654  22.699  1.00  0.00    -0.016 A 
HETATM    5  C4  UNL     1      21.281  24.869  22.300  1.00  0.00     0.096 A 
HETATM    6  N2  UNL     1      21.365  25.397  21.079  1.00  0.00    -0.373 N 
HETATM    7  C5  UNL     1      22.022  24.784  20.118  1.00  0.00     0.112 A 
ATOM      8  H2  UNL     1      20.911  26.290  20.887  1.00  0.00     0.164 HD
HETATM    9  C6  UNL     1      22.633  23.571  20.395  1.00  0.00     0.092 A 
HETATM   10  C7  UNL     1      22.552  23.014  21.665  1.00  0.00     0.023 A 
HETATM   11  S1  UNL     1      23.500  22.780  19.104  1.00  0.00     0.209 S 
HETATM   12  C8  UNL     1      23.198  21.767  21.985  1.00  0.00     0.050 A 
HETATM   13  C9  UNL     1      23.988  20.963  21.041  1.00  0.00     0.013 A 
HETATM   14  C10 UNL     1      24.566  19.781  21.481  1.00  0.00     0.015 A 
HETATM   15  C14 UNL     1      24.196  21.315  19.744  1.00  0.00     0.076 A 
HETATM   16  C11 UNL     1      25.331  18.956  20.674  1.00  0.00     0.001 A 
HETATM   17  C12 UNL     1      25.525  19.337  19.367  1.00  0.00     0.002 A 
HETATM   18  C13 UNL     1      24.959  20.502  18.921  1.00  0.00     0.025 A 
HETATM   19  O1  UNL     1      22.456  22.406  18.061  1.00  0.00    -0.217 OA
HETATM   20  O2  UNL     1      24.545  23.675  18.495  1.00  0.00    -0.217 OA
BRANCH  12  21
HETATM   21  N3  UNL     1      23.125  21.306  23.157  1.00  0.00    -0.398 N 
ATOM     22  H32 UNL     1      22.195  21.323  23.575  1.00  0.00     0.156 HD
ATOM     23  H31 UNL     1      23.962  20.937  23.609  1.00  0.00     0.156 HD
ENDBRANCH  12  21
ENDBRANCH   3   4
TORSDOF 2
ENDMDL
MODEL 4
REMARK VINA RESULT: -7.153541931      2.977      5.850
REMARK  2 active torsions:
REMARK  status: ('A' for Active; 'I' for Inactive)
REMARK    1  A    between atoms: C2_3  and  C3_4 
REMARK    2  A    between atoms: C8_11  and  N3_12 
ROOT
HETATM    1  N1  UNL     1      23.480  27.077  17.718  1.00  0.00    -0.197 NA
HETATM    2  C1  UNL     1      23.267  25.966  17.459  1.00  0.00     0.063 C 
HETATM    3  C2  UNL     1      23.021  24.538  17.112  1.00  0.00     0.164 C 
ENDROOT
BRANCH   3   4
HETATM    4  C3  UNL     1      23.976  23.600  17.638  1.00  0.00    -0.016 A 
HETATM    5  C4  UNL     1      25.337  23.817  17.390  1.00  0.00     0.096 A 
HETATM    6  N2  UNL     1      26.328  23.011  17.772  1.00  0.00    -0.373 N 
HETATM    7  C5  UNL     1      26.084  21.904  18.439  1.00  0.00     0.112 A 
ATOM      8  H2  UNL     1      27.291  23.257  17.543  1.00  0.00     0.164 HD
HETATM    9  C6  UNL     1      24.770  21.584  18.744  1.00  0.00     0.092 A 
HETATM   10  C7  UNL     1      23.731  22.418  18.351  1.00  0.00     0.023 A 
HETATM   11  S1  UNL     1      24.474  20.112  19.632  1.00  0.00     0.209 S 
HETATM   12  C8  UNL     1      22.360  22.121  18.676  1.00  0.00     0.050 A 
HETATM   13  C9  UNL     1      21.912  20.941  19.431  1.00  0.00     0.013 A 
HETATM   14  C10 UNL     1      20.557  20.776  19.683  1.00  0.00     0.015 A 
HETATM   15  C14 UNL     1      22.757  19.989  19.910  1.00  0.00     0.076 A 
HETATM   16  C11 UNL     1      20.035  19.705  20.389  1.00  0.00     0.001 A 
HETATM   17  C12 UNL     1      20.912  18.759  20.861  1.00  0.00     0.002 A 
HETATM   18  C13 UNL     1      22.252  18.910  20.618  1.00  0.00     0.025 A 
HETATM   19  O1  UNL     1      24.899  18.973  18.716  1.00  0.00    -0.217 OA
HETATM   20  O2  UNL     1      25.253  20.062  20.919  1.00  0.00    -0.217 OA
BRANCH  12  21
HETATM   21  N3  UNL     1      21.446  22.916  18.326  1.00  0.00    -0.398 N 
ATOM     22  H32 UNL     1      20.928  22.644  17.490  1.00  0.00     0.156 HD
ATOM     23  H31 UNL     1      21.262  23.752  18.880  1.00  0.00     0.156 HD
ENDBRANCH  12  21
ENDBRANCH   3   4
TORSDOF 2
ENDMDL
MODEL 5
REMARK VINA RESULT: -7.131389480      2.927      4.949
REMARK  2 active torsions:
REMARK  status: ('A' for Active; 'I' for Inactive)
REMARK    1  A    between atoms: C2_3  and  C3_4 
REMARK    2  A    between atoms: C8_11  and  N3_12 
ROOT
HETATM    1  N1  UNL     1      21.286  24.238  15.532  1.00  0.00    -0.197 NA
HETATM    2  C1  UNL     1      22.213  24.363  16.220  1.00  0.00     0.063 C 
HETATM    3  C2  UNL     1      23.385  24.516  17.127  1.00  0.00     0.164 C 
ENDROOT
BRANCH   3   4
HETATM    4  C3  UNL     1      23.771  23.330  17.843  1.00  0.00    -0.016 A 
HETATM    5  C4  UNL     1      24.481  22.334  17.160  1.00  0.00     0.096 A 
HETATM    6  N2  UNL     1      24.862  21.167  17.678  1.00  0.00    -0.373 N 
HETATM    7  C5  UNL     1      24.585  20.855  18.926  1.00  0.00     0.112 A 
ATOM      8  H2  UNL     1      25.377  20.504  17.098  1.00  0.00     0.164 HD
HETATM    9  C6  UNL     1      23.885  21.765  19.703  1.00  0.00     0.092 A 
HETATM   10  C7  UNL     1      23.485  22.984  19.171  1.00  0.00     0.023 A 
HETATM   11  S1  UNL     1      23.533  21.327  21.354  1.00  0.00     0.209 S 
HETATM   12  C8  UNL     1      22.778  23.957  19.964  1.00  0.00     0.050 A 
HETATM   13  C9  UNL     1      22.406  23.782  21.376  1.00  0.00     0.013 A 
HETATM   14  C10 UNL     1      21.730  24.803  22.027  1.00  0.00     0.015 A 
HETATM   15  C14 UNL     1      22.694  22.664  22.096  1.00  0.00     0.076 A 
HETATM   16  C11 UNL     1      21.341  24.739  23.355  1.00  0.00     0.001 A 
HETATM   17  C12 UNL     1      21.646  23.598  24.058  1.00  0.00     0.002 A 
HETATM   18  C13 UNL     1      22.312  22.582  23.426  1.00  0.00     0.025 A 
HETATM   19  O1  UNL     1      22.584  20.139  21.283  1.00  0.00    -0.217 OA
HETATM   20  O2  UNL     1      24.775  20.956  22.117  1.00  0.00    -0.217 OA
BRANCH  12  21
HETATM   21  N3  UNL     1      22.455  25.065  19.455  1.00  0.00    -0.398 N 
ATOM     22  H32 UNL     1      22.044  25.013  18.522  1.00  0.00     0.156 HD
ATOM     23  H31 UNL     1      22.596  25.926  19.983  1.00  0.00     0.156 HD
ENDBRANCH  12  21
ENDBRANCH   3   4
TORSDOF 2
ENDMDL
