MODEL 1
REMARK VINA RESULT: -5.836689979      0.000      0.000
REMARK  3 active torsions:
REMARK  status: ('A' for Active; 'I' for Inactive)
REMARK    1  A    between atoms: O1_1  and  C1_3 
REMARK    2  A    between atoms: C1_3  and  C2_4 
REMARK    3  A    between atoms: C2_4  and  C3_5 
ROOT
HETATM    1  C1  UNL     1      16.145 -18.033 -19.913  1.00  0.00     0.092 C 
HETATM    2  C7  UNL     1      17.286 -17.500 -20.760  1.00  0.00     0.070 C 
HETATM    3  C8  UNL     1      17.793 -16.333 -19.982  1.00  0.00     0.276 C 
HETATM    4  N2  UNL     1      17.041 -16.299 -18.726  1.00  0.00     0.096 N 
HETATM    5  C9  UNL     1      16.861 -14.912 -18.387  1.00  0.00     0.273 C 
HETATM    6  C10 UNL     1      15.808 -14.445 -19.337  1.00  0.00     0.032 C 
HETATM    7  C11 UNL     1      15.237 -15.692 -20.012  1.00  0.00     0.041 C 
HETATM    8  C12 UNL     1      15.744 -16.802 -19.140  1.00  0.00     0.257 C 
ENDROOT
BRANCH   1   9
HETATM    9  O1  UNL     1      16.554 -18.986 -19.018  1.00  0.00    -0.388 OA
ATOM     10  H1  UNL     1      17.470 -19.214 -19.122  1.00  0.00     0.210 HD
ENDBRANCH   1   9
BRANCH   1  11
HETATM   11  C2  UNL     1      15.087 -18.531 -20.835  1.00  0.00     0.073 C 
BRANCH  11  12
HETATM   12  C3  UNL     1      13.919 -18.989 -20.026  1.00  0.00     0.189 C 
HETATM   13  C4  UNL     1      12.581 -18.788 -20.649  1.00  0.00     0.034 C 
HETATM   14  C5  UNL     1      11.702 -19.880 -20.031  1.00  0.00     0.029 C 
HETATM   15  C6  UNL     1      12.638 -20.488 -19.014  1.00  0.00     0.233 C 
HETATM   16  N1  UNL     1      13.924 -20.409 -19.724  1.00  0.00    -0.071 N 
ATOM     17  H12 UNL     1      14.044 -21.041 -20.516  1.00  0.00     0.277 HD
ATOM     18  H11 UNL     1      14.740 -20.764 -19.226  1.00  0.00     0.277 HD
ENDBRANCH  11  12
ENDBRANCH   1  11
TORSDOF 3
ENDMDL
MODEL 2
REMARK VINA RESULT: -5.688924005      3.585      6.539
REMARK  3 active torsions:
REMARK  status: ('A' for Active; 'I' for Inactive)
REMARK    1  A    between atoms: O1_1  and  C1_3 
REMARK    2  A    between atoms: C1_3  and  C2_4 
REMARK    3  A    between atoms: C2_4  and  C3_5 
ROOT
HETATM    1  C1  UNL     1      17.068 -13.337 -19.761  1.00  0.00     0.092 C 
HETATM    2  C7  UNL     1      15.621 -13.205 -19.323  1.00  0.00     0.070 C 
HETATM    3  C8  UNL     1      15.464 -14.270 -18.290  1.00  0.00     0.276 C 
HETATM    4  N2  UNL     1      16.783 -14.875 -18.097  1.00  0.00     0.096 N 
HETATM    5  C9  UNL     1      16.564 -16.273 -17.837  1.00  0.00     0.273 C 
HETATM    6  C10 UNL     1      16.211 -16.835 -19.175  1.00  0.00     0.032 C 
HETATM    7  C11 UNL     1      16.512 -15.746 -20.205  1.00  0.00     0.041 C 
HETATM    8  C12 UNL     1      17.354 -14.779 -19.428  1.00  0.00     0.257 C 
ENDROOT
BRANCH   1   9
HETATM    9  O1  UNL     1      17.915 -12.551 -19.024  1.00  0.00    -0.388 OA
ATOM     10  H1  UNL     1      18.393 -13.045 -18.369  1.00  0.00     0.210 HD
ENDBRANCH   1   9
BRANCH   1  11
HETATM   11  C2  UNL     1      17.133 -13.035 -21.218  1.00  0.00     0.073 C 
BRANCH  11  12
HETATM   12  C3  UNL     1      18.524 -13.281 -21.700  1.00  0.00     0.189 C 
HETATM   13  C4  UNL     1      18.645 -13.819 -23.083  1.00  0.00     0.034 C 
HETATM   14  C5  UNL     1      20.019 -13.341 -23.563  1.00  0.00     0.029 C 
HETATM   15  C6  UNL     1      20.572 -12.694 -22.315  1.00  0.00     0.233 C 
HETATM   16  N1  UNL     1      19.357 -12.092 -21.743  1.00  0.00    -0.071 N 
ATOM     17  H12 UNL     1      18.973 -11.287 -22.239  1.00  0.00     0.277 HD
ATOM     18  H11 UNL     1      19.471 -11.586 -20.865  1.00  0.00     0.277 HD
ENDBRANCH  11  12
ENDBRANCH   1  11
TORSDOF 3
ENDMDL
MODEL 3
REMARK VINA RESULT: -5.572525229      2.838      5.937
REMARK  3 active torsions:
REMARK  status: ('A' for Active; 'I' for Inactive)
REMARK    1  A    between atoms: O1_1  and  C1_3 
REMARK    2  A    between atoms: C1_3  and  C2_4 
REMARK    3  A    between atoms: C2_4  and  C3_5 
ROOT
HETATM    1  C1  UNL     1      17.641 -16.007 -20.200  1.00  0.00     0.092 C 
HETATM    2  C7  UNL     1      17.258 -15.920 -18.734  1.00  0.00     0.070 C 
HETATM    3  C8  UNL     1      16.689 -17.265 -18.434  1.00  0.00     0.276 C 
HETATM    4  N2  UNL     1      16.854 -18.077 -19.641  1.00  0.00     0.096 N 
HETATM    5  C9  UNL     1      15.707 -18.941 -19.721  1.00  0.00     0.273 C 
HETATM    6  C10 UNL     1      14.606 -18.034 -20.164  1.00  0.00     0.032 C 
HETATM    7  C11 UNL     1      15.260 -16.716 -20.579  1.00  0.00     0.041 C 
HETATM    8  C12 UNL     1      16.709 -17.086 -20.690  1.00  0.00     0.257 C 
ENDROOT
BRANCH   1   9
HETATM    9  O1  UNL     1      18.929 -16.437 -20.383  1.00  0.00    -0.388 OA
ATOM     10  H1  UNL     1      19.557 -15.925 -19.888  1.00  0.00     0.210 HD
ENDBRANCH   1   9
BRANCH   1  11
HETATM   11  C2  UNL     1      17.391 -14.675 -20.816  1.00  0.00     0.073 C 
BRANCH  11  12
HETATM   12  C3  UNL     1      18.598 -14.269 -21.594  1.00  0.00     0.189 C 
HETATM   13  C4  UNL     1      18.468 -14.339 -23.076  1.00  0.00     0.034 C 
HETATM   14  C5  UNL     1      19.458 -13.294 -23.599  1.00  0.00     0.029 C 
HETATM   15  C6  UNL     1      20.136 -12.849 -22.325  1.00  0.00     0.233 C 
HETATM   16  N1  UNL     1      19.015 -12.896 -21.373  1.00  0.00    -0.071 N 
ATOM     17  H12 UNL     1      18.297 -12.180 -21.483  1.00  0.00     0.277 HD
ATOM     18  H11 UNL     1      19.227 -12.636 -20.410  1.00  0.00     0.277 HD
ENDBRANCH  11  12
ENDBRANCH   1  11
TORSDOF 3
ENDMDL
MODEL 4
REMARK VINA RESULT: -5.564950545      2.755      3.181
REMARK  3 active torsions:
REMARK  status: ('A' for Active; 'I' for Inactive)
REMARK    1  A    between atoms: O1_1  and  C1_3 
REMARK    2  A    between atoms: C1_3  and  C2_4 
REMARK    3  A    between atoms: C2_4  and  C3_5 
ROOT
HETATM    1  C1  UNL     1      13.704 -15.805 -20.493  1.00  0.00     0.092 C 
HETATM    2  C7  UNL     1      14.194 -14.919 -21.624  1.00  0.00     0.070 C 
HETATM    3  C8  UNL     1      14.379 -13.587 -20.979  1.00  0.00     0.276 C 
HETATM    4  N2  UNL     1      14.110 -13.764 -19.551  1.00  0.00     0.096 N 
HETATM    5  C9  UNL     1      13.481 -12.554 -19.093  1.00  0.00     0.273 C 
HETATM    6  C10 UNL     1      12.092 -12.645 -19.635  1.00  0.00     0.032 C 
HETATM    7  C11 UNL     1      11.918 -14.068 -20.166  1.00  0.00     0.041 C 
HETATM    8  C12 UNL     1      13.086 -14.791 -19.563  1.00  0.00     0.257 C 
ENDROOT
BRANCH   1   9
HETATM    9  O1  UNL     1      14.729 -16.425 -19.829  1.00  0.00    -0.388 OA
ATOM     10  H1  UNL     1      14.427 -16.934 -19.086  1.00  0.00     0.210 HD
ENDBRANCH   1   9
BRANCH   1  11
HETATM   11  C2  UNL     1      12.725 -16.771 -21.062  1.00  0.00     0.073 C 
BRANCH  11  12
HETATM   12  C3  UNL     1      12.636 -17.956 -20.158  1.00  0.00     0.189 C 
HETATM   13  C4  UNL     1      11.265 -18.479 -19.907  1.00  0.00     0.034 C 
HETATM   14  C5  UNL     1      11.470 -19.964 -19.592  1.00  0.00     0.029 C 
HETATM   15  C6  UNL     1      12.977 -20.067 -19.570  1.00  0.00     0.233 C 
HETATM   16  N1  UNL     1      13.344 -19.128 -20.643  1.00  0.00    -0.071 N 
ATOM     17  H12 UNL     1      13.132 -19.424 -21.596  1.00  0.00     0.277 HD
ATOM     18  H11 UNL     1      14.341 -19.013 -20.824  1.00  0.00     0.277 HD
ENDBRANCH  11  12
ENDBRANCH   1  11
TORSDOF 3
ENDMDL
MODEL 5
REMARK VINA RESULT: -5.450978967      1.061      1.145
REMARK  3 active torsions:
REMARK  status: ('A' for Active; 'I' for Inactive)
REMARK    1  A    between atoms: O1_1  and  C1_3 
REMARK    2  A    between atoms: C1_3  and  C2_4 
REMARK    3  A    between atoms: C2_4  and  C3_5 
ROOT
HETATM    1  C1  UNL     1      15.781 -16.765 -19.860  1.00  0.00     0.092 C 
HETATM    2  C7  UNL     1      16.920 -16.318 -20.758  1.00  0.00     0.070 C 
HETATM    3  C8  UNL     1      17.583 -15.233 -19.979  1.00  0.00     0.276 C 
HETATM    4  N2  UNL     1      16.911 -15.168 -18.680  1.00  0.00     0.096 N 
HETATM    5  C9  UNL     1      16.889 -13.783 -18.292  1.00  0.00     0.273 C 
HETATM    6  C10 UNL     1      15.836 -13.183 -19.164  1.00  0.00     0.032 C 
HETATM    7  C11 UNL     1      15.106 -14.345 -19.838  1.00  0.00     0.041 C 
HETATM    8  C12 UNL     1      15.549 -15.528 -19.030  1.00  0.00     0.257 C 
ENDROOT
BRANCH   1   9
HETATM    9  O1  UNL     1      16.143 -17.784 -19.019  1.00  0.00    -0.388 OA
ATOM     10  H1  UNL     1      16.572 -18.498 -19.475  1.00  0.00     0.210 HD
ENDBRANCH   1   9
BRANCH   1  11
HETATM   11  C2  UNL     1      14.629 -17.127 -20.731  1.00  0.00     0.073 C 
BRANCH  11  12
HETATM   12  C3  UNL     1      13.773 -18.115 -20.012  1.00  0.00     0.189 C 
HETATM   13  C4  UNL     1      12.308 -18.004 -20.258  1.00  0.00     0.034 C 
HETATM   14  C5  UNL     1      11.770 -19.420 -20.027  1.00  0.00     0.029 C 
HETATM   15  C6  UNL     1      13.004 -20.140 -19.536  1.00  0.00     0.233 C 
HETATM   16  N1  UNL     1      14.051 -19.500 -20.348  1.00  0.00    -0.071 N 
ATOM     17  H12 UNL     1      14.060 -19.732 -21.342  1.00  0.00     0.277 HD
ATOM     18  H11 UNL     1      15.006 -19.821 -20.193  1.00  0.00     0.277 HD
ENDBRANCH  11  12
ENDBRANCH   1  11
TORSDOF 3
ENDMDL
