MODEL 1
REMARK VINA RESULT: -7.274083085      0.000      0.000
REMARK  3 active torsions:
REMARK  status: ('A' for Active; 'I' for Inactive)
REMARK    1  A    between atoms: N1_1  and  C1_4 
REMARK    2  A    between atoms: C2_7  and  C3_8 
REMARK    3  A    between atoms: C9_16  and  N4_17 
ROOT
HETATM    1  C1  UNL     1     -41.331  -2.399  70.308  1.00  0.00     0.691 A 
HETATM    2  N2  UNL     1     -41.409  -1.888  71.545  1.00  0.00    -0.179 N 
ATOM      3  H2  UNL     1     -40.934  -2.364  72.312  1.00  0.00     0.185 HD
HETATM    4  C2  UNL     1     -42.106  -0.750  71.800  1.00  0.00     0.117 A 
HETATM    5  N3  UNL     1     -42.738  -0.104  70.806  1.00  0.00    -0.179 N 
ATOM      6  H3  UNL     1     -43.259   0.750  71.002  1.00  0.00     0.185 HD
HETATM    7  C9  UNL     1     -42.680  -0.588  69.547  1.00  0.00     0.696 A 
HETATM    8  N5  UNL     1     -41.968  -1.738  69.334  1.00  0.00    -0.022 N 
ATOM      9  H5  UNL     1     -41.920  -2.109  68.385  1.00  0.00     0.203 HD
ENDROOT
BRANCH   4  10
HETATM   10  C3  UNL     1     -42.106  -0.326  73.217  1.00  0.00     0.054 C 
HETATM   11  C4  UNL     1     -41.684   1.067  73.481  1.00  0.00     0.012 C 
HETATM   12  C5  UNL     1     -42.074   1.419  74.907  1.00  0.00     0.001 C 
HETATM   13  C6  UNL     1     -42.386   0.189  75.732  1.00  0.00     0.000 C 
HETATM   14  C7  UNL     1     -43.523  -0.624  75.161  1.00  0.00     0.001 C 
HETATM   15  C8  UNL     1     -43.596  -0.416  73.649  1.00  0.00     0.012 C 
ENDBRANCH   4  10
BRANCH   1  16
HETATM   16  N1  UNL     1     -40.664  -3.499  70.059  1.00  0.00    -0.234 N 
ATOM     17  H12 UNL     1     -40.170  -3.629  69.176  1.00  0.00     0.174 HD
ATOM     18  H11 UNL     1     -40.617  -4.262  70.734  1.00  0.00     0.174 HD
ENDBRANCH   1  16
BRANCH   7  19
HETATM   19  N4  UNL     1     -43.321   0.061  68.464  1.00  0.00    -0.217 N 
HETATM   20  C10 UNL     1     -43.930   1.366  68.502  1.00  0.00     0.141 C 
HETATM   21  C11 UNL     1     -45.040   1.287  67.452  1.00  0.00     0.022 C 
HETATM   22  C12 UNL     1     -44.948  -0.101  66.876  1.00  0.00     0.022 C 
HETATM   23  C13 UNL     1     -43.491  -0.463  67.140  1.00  0.00     0.141 C 
ENDBRANCH   7  19
TORSDOF 3
ENDMDL
MODEL 2
REMARK VINA RESULT: -7.253747894      1.907      3.588
REMARK  3 active torsions:
REMARK  status: ('A' for Active; 'I' for Inactive)
REMARK    1  A    between atoms: N1_1  and  C1_4 
REMARK    2  A    between atoms: C2_7  and  C3_8 
REMARK    3  A    between atoms: C9_16  and  N4_17 
ROOT
HETATM    1  C1  UNL     1     -44.219   2.398  70.309  1.00  0.00     0.691 A 
HETATM    2  N2  UNL     1     -44.138   1.888  71.546  1.00  0.00    -0.179 N 
ATOM      3  H2  UNL     1     -44.609   2.366  72.314  1.00  0.00     0.185 HD
HETATM    4  C2  UNL     1     -43.442   0.749  71.800  1.00  0.00     0.117 A 
HETATM    5  N3  UNL     1     -42.815   0.101  70.805  1.00  0.00    -0.179 N 
ATOM      6  H3  UNL     1     -42.295  -0.754  71.000  1.00  0.00     0.185 HD
HETATM    7  C9  UNL     1     -42.876   0.583  69.545  1.00  0.00     0.696 A 
HETATM    8  N5  UNL     1     -43.586   1.734  69.333  1.00  0.00    -0.022 N 
ATOM      9  H5  UNL     1     -43.637   2.103  68.384  1.00  0.00     0.203 HD
ENDROOT
BRANCH   4  10
HETATM   10  C3  UNL     1     -43.438   0.327  73.218  1.00  0.00     0.054 C 
HETATM   11  C4  UNL     1     -43.860  -1.065  73.485  1.00  0.00     0.012 C 
HETATM   12  C5  UNL     1     -43.466  -1.415  74.911  1.00  0.00     0.001 C 
HETATM   13  C6  UNL     1     -43.151  -0.185  75.733  1.00  0.00     0.000 C 
HETATM   14  C7  UNL     1     -42.016   0.627  75.157  1.00  0.00     0.001 C 
HETATM   15  C8  UNL     1     -41.947   0.417  73.645  1.00  0.00     0.012 C 
ENDBRANCH   4  10
BRANCH   1  16
HETATM   16  N1  UNL     1     -44.885   3.498  70.060  1.00  0.00    -0.234 N 
ATOM     17  H12 UNL     1     -45.896   3.543  70.181  1.00  0.00     0.174 HD
ATOM     18  H11 UNL     1     -44.417   4.345  69.737  1.00  0.00     0.174 HD
ENDBRANCH   1  16
BRANCH   7  19
HETATM   19  N4  UNL     1     -42.241  -0.070  68.462  1.00  0.00    -0.217 N 
HETATM   20  C10 UNL     1     -41.596  -1.357  68.510  1.00  0.00     0.141 C 
HETATM   21  C11 UNL     1     -40.510  -1.268  67.436  1.00  0.00     0.022 C 
HETATM   22  C12 UNL     1     -40.651   0.106  66.837  1.00  0.00     0.022 C 
HETATM   23  C13 UNL     1     -42.111   0.434  67.125  1.00  0.00     0.141 C 
ENDBRANCH   7  19
TORSDOF 3
ENDMDL
MODEL 3
REMARK VINA RESULT: -7.235807108      0.958      5.911
REMARK  3 active torsions:
REMARK  status: ('A' for Active; 'I' for Inactive)
REMARK    1  A    between atoms: N1_1  and  C1_4 
REMARK    2  A    between atoms: C2_7  and  C3_8 
REMARK    3  A    between atoms: C9_16  and  N4_17 
ROOT
HETATM    1  C1  UNL     1     -41.453  -2.353  70.382  1.00  0.00     0.691 A 
HETATM    2  N2  UNL     1     -42.055  -1.799  69.321  1.00  0.00    -0.179 N 
ATOM      3  H2  UNL     1     -41.875  -2.178  68.391  1.00  0.00     0.185 HD
HETATM    4  C2  UNL     1     -42.901  -0.744  69.455  1.00  0.00     0.117 A 
HETATM    5  N3  UNL     1     -43.156  -0.229  70.670  1.00  0.00    -0.179 N 
ATOM      6  H3  UNL     1     -43.792   0.562  70.765  1.00  0.00     0.185 HD
HETATM    7  C9  UNL     1     -42.569  -0.762  71.762  1.00  0.00     0.696 A 
HETATM    8  N5  UNL     1     -41.723  -1.823  71.582  1.00  0.00    -0.022 N 
ATOM      9  H5  UNL     1     -41.277  -2.231  72.404  1.00  0.00     0.203 HD
ENDROOT
BRANCH   4  10
HETATM   10  C3  UNL     1     -43.472  -0.241  68.187  1.00  0.00     0.054 C 
HETATM   11  C4  UNL     1     -42.544  -0.168  67.037  1.00  0.00     0.012 C 
HETATM   12  C5  UNL     1     -43.367   0.028  65.774  1.00  0.00     0.001 C 
HETATM   13  C6  UNL     1     -44.778   0.482  66.079  1.00  0.00     0.000 C 
HETATM   14  C7  UNL     1     -45.534  -0.502  66.940  1.00  0.00     0.001 C 
HETATM   15  C8  UNL     1     -44.552  -1.291  67.805  1.00  0.00     0.012 C 
ENDBRANCH   4  10
BRANCH   1  16
HETATM   16  N1  UNL     1     -40.633  -3.367  70.257  1.00  0.00    -0.234 N 
ATOM     17  H12 UNL     1     -40.704  -4.009  69.468  1.00  0.00     0.174 HD
ATOM     18  H11 UNL     1     -39.900  -3.550  70.942  1.00  0.00     0.174 HD
ENDBRANCH   1  16
BRANCH   7  19
HETATM   19  N4  UNL     1     -42.814  -0.261  73.063  1.00  0.00    -0.217 N 
HETATM   20  C10 UNL     1     -41.897   0.515  73.858  1.00  0.00     0.141 C 
HETATM   21  C11 UNL     1     -42.272   0.170  75.300  1.00  0.00     0.022 C 
HETATM   22  C12 UNL     1     -43.424  -0.794  75.195  1.00  0.00     0.022 C 
HETATM   23  C13 UNL     1     -44.011  -0.445  73.832  1.00  0.00     0.141 C 
ENDBRANCH   7  19
TORSDOF 3
ENDMDL
MODEL 4
REMARK VINA RESULT: -7.232028672      2.108      6.578
REMARK  3 active torsions:
REMARK  status: ('A' for Active; 'I' for Inactive)
REMARK    1  A    between atoms: N1_1  and  C1_4 
REMARK    2  A    between atoms: C2_7  and  C3_8 
REMARK    3  A    between atoms: C9_16  and  N4_17 
ROOT
HETATM    1  C1  UNL     1     -44.099   2.352  70.396  1.00  0.00     0.691 A 
HETATM    2  N2  UNL     1     -43.499   1.796  69.335  1.00  0.00    -0.179 N 
ATOM      3  H2  UNL     1     -43.680   2.173  68.404  1.00  0.00     0.185 HD
HETATM    4  C2  UNL     1     -42.653   0.740  69.470  1.00  0.00     0.117 A 
HETATM    5  N3  UNL     1     -42.397   0.228  70.685  1.00  0.00    -0.179 N 
ATOM      6  H3  UNL     1     -41.762  -0.564  70.782  1.00  0.00     0.185 HD
HETATM    7  C9  UNL     1     -42.983   0.763  71.777  1.00  0.00     0.696 A 
HETATM    8  N5  UNL     1     -43.829   1.824  71.596  1.00  0.00    -0.022 N 
ATOM      9  H5  UNL     1     -44.274   2.234  72.417  1.00  0.00     0.203 HD
ENDROOT
BRANCH   4  10
HETATM   10  C3  UNL     1     -42.083   0.235  68.202  1.00  0.00     0.054 C 
HETATM   11  C4  UNL     1     -43.012   0.164  67.052  1.00  0.00     0.012 C 
HETATM   12  C5  UNL     1     -42.189  -0.035  65.790  1.00  0.00     0.001 C 
HETATM   13  C6  UNL     1     -40.780  -0.493  66.095  1.00  0.00     0.000 C 
HETATM   14  C7  UNL     1     -40.021   0.489  66.955  1.00  0.00     0.001 C 
HETATM   15  C8  UNL     1     -41.001   1.282  67.819  1.00  0.00     0.012 C 
ENDBRANCH   4  10
BRANCH   1  16
HETATM   16  N1  UNL     1     -44.919   3.366  70.269  1.00  0.00    -0.234 N 
ATOM     17  H12 UNL     1     -45.623   3.569  70.978  1.00  0.00     0.174 HD
ATOM     18  H11 UNL     1     -44.884   3.985  69.459  1.00  0.00     0.174 HD
ENDBRANCH   1  16
BRANCH   7  19
HETATM   19  N4  UNL     1     -42.738   0.264  73.079  1.00  0.00    -0.217 N 
HETATM   20  C10 UNL     1     -43.646  -0.530  73.866  1.00  0.00     0.141 C 
HETATM   21  C11 UNL     1     -43.287  -0.181  75.312  1.00  0.00     0.022 C 
HETATM   22  C12 UNL     1     -42.152   0.804  75.215  1.00  0.00     0.022 C 
HETATM   23  C13 UNL     1     -41.549   0.468  73.856  1.00  0.00     0.141 C 
ENDBRANCH   7  19
TORSDOF 3
ENDMDL
MODEL 5
REMARK VINA RESULT: -7.158340709      2.441      6.337
REMARK  3 active torsions:
REMARK  status: ('A' for Active; 'I' for Inactive)
REMARK    1  A    between atoms: N1_1  and  C1_4 
REMARK    2  A    between atoms: C2_7  and  C3_8 
REMARK    3  A    between atoms: C9_16  and  N4_17 
ROOT
HETATM    1  C1  UNL     1     -44.130   2.455  70.140  1.00  0.00     0.691 A 
HETATM    2  N2  UNL     1     -43.288   2.162  69.139  1.00  0.00    -0.179 N 
ATOM      3  H2  UNL     1     -43.335   2.701  68.274  1.00  0.00     0.185 HD
HETATM    4  C2  UNL     1     -42.372   1.164  69.251  1.00  0.00     0.117 A 
HETATM    5  N3  UNL     1     -42.290   0.443  70.381  1.00  0.00    -0.179 N 
ATOM      6  H3  UNL     1     -41.601  -0.304  70.461  1.00  0.00     0.185 HD
HETATM    7  C9  UNL     1     -43.121   0.709  71.411  1.00  0.00     0.696 A 
HETATM    8  N5  UNL     1     -44.029   1.722  71.256  1.00  0.00    -0.022 N 
ATOM      9  H5  UNL     1     -44.660   1.929  72.031  1.00  0.00     0.203 HD
ENDROOT
BRANCH   4  10
HETATM   10  C3  UNL     1     -41.527   0.960  68.054  1.00  0.00     0.054 C 
HETATM   11  C4  UNL     1     -40.301   1.783  67.973  1.00  0.00     0.012 C 
HETATM   12  C5  UNL     1     -39.409   1.201  66.889  1.00  0.00     0.001 C 
HETATM   13  C6  UNL     1     -40.164   0.259  65.976  1.00  0.00     0.000 C 
HETATM   14  C7  UNL     1     -40.767  -0.912  66.715  1.00  0.00     0.001 C 
HETATM   15  C8  UNL     1     -41.051  -0.515  68.163  1.00  0.00     0.012 C 
ENDBRANCH   4  10
BRANCH   1  16
HETATM   16  N1  UNL     1     -45.018   3.412  70.034  1.00  0.00    -0.234 N 
ATOM     17  H12 UNL     1     -46.017   3.209  70.030  1.00  0.00     0.174 HD
ATOM     18  H11 UNL     1     -44.743   4.391  69.950  1.00  0.00     0.174 HD
ENDBRANCH   1  16
BRANCH   7  19
HETATM   19  N4  UNL     1     -43.066  -0.016  72.625  1.00  0.00    -0.217 N 
HETATM   20  C10 UNL     1     -44.191  -0.359  73.457  1.00  0.00     0.141 C 
HETATM   21  C11 UNL     1     -43.601  -0.430  74.867  1.00  0.00     0.022 C 
HETATM   22  C12 UNL     1     -42.135  -0.128  74.703  1.00  0.00     0.022 C 
HETATM   23  C13 UNL     1     -41.884  -0.529  73.255  1.00  0.00     0.141 C 
ENDBRANCH   7  19
TORSDOF 3
ENDMDL
