MODEL 1
REMARK VINA RESULT: -8.530850397      0.000      0.000
REMARK  11 active torsions:
REMARK  status: ('A' for Active; 'I' for Inactive)
REMARK    1  A    between atoms: O1_2  and  C2_3 
REMARK    2  A    between atoms: C5_6  and  C6_7 
REMARK    3  A    between atoms: C6_7  and  C7_8 
REMARK    4  A    between atoms: C7_8  and  N1_9 
REMARK    5  A    between atoms: N1_9  and  C8_11 
REMARK    6  A    between atoms: C8_11  and  C9_12 
REMARK    7  A    between atoms: C9_12  and  O2_13 
REMARK    8  A    between atoms: C9_12  and  C10_15 
REMARK    9  A    between atoms: C10_15  and  O3_16 
REMARK   10  A    between atoms: O3_16  and  C11_17 
REMARK   11  A    between atoms: C14_22  and  C15_23 
ROOT
HETATM    1  C9  UNL     1      42.680  11.040  21.990  1.00  0.00     0.180 C 
ENDROOT
BRANCH   1   2
HETATM    2  C8  UNL     1      41.694  10.823  20.876  1.00  0.00     0.089 C 
BRANCH   2   3
HETATM    3  N1  UNL     1      40.414  11.349  21.135  1.00  0.00    -0.399 N 
ATOM      4  H1  UNL     1      39.678  11.242  20.438  1.00  0.00     0.158 HD
BRANCH   3   5
HETATM    5  C7  UNL     1      40.135  12.019  22.335  1.00  0.00     0.123 C 
BRANCH   5   6
HETATM    6  C6  UNL     1      39.817  13.499  21.990  1.00  0.00     0.058 C 
BRANCH   6   7
HETATM    7  C5  UNL     1      38.756  13.964  22.918  1.00  0.00    -0.057 A 
HETATM    8  C4  UNL     1      38.186  13.097  23.833  1.00  0.00     0.010 A 
HETATM    9  C3  UNL     1      37.199  13.491  24.710  1.00  0.00     0.037 A 
HETATM   10  C2  UNL     1      36.750  14.794  24.690  1.00  0.00     0.068 A 
HETATM   11  C18 UNL     1      37.297  15.678  23.791  1.00  0.00     0.037 A 
HETATM   12  C17 UNL     1      38.296  15.256  22.912  1.00  0.00     0.010 A 
BRANCH  10  13
HETATM   13  O1  UNL     1      35.761  15.186  25.570  1.00  0.00    -0.356 OA
HETATM   14  C1  UNL     1      35.777  16.495  26.089  1.00  0.00     0.210 C 
ENDBRANCH  10  13
ENDBRANCH   6   7
ENDBRANCH   5   6
ENDBRANCH   3   5
ENDBRANCH   2   3
ENDBRANCH   1   2
BRANCH   1  15
HETATM   15  O2  UNL     1      43.211   9.806  22.327  1.00  0.00    -0.388 OA
ATOM     16  H2  UNL     1      44.125   9.806  22.069  1.00  0.00     0.210 HD
ENDBRANCH   1  15
BRANCH   1  17
HETATM   17  C10 UNL     1      43.785  11.965  21.560  1.00  0.00     0.212 C 
BRANCH  17  18
HETATM   18  O3  UNL     1      43.576  13.281  21.586  1.00  0.00    -0.348 OA
BRANCH  18  19
HETATM   19  C11 UNL     1      43.268  14.286  20.769  1.00  0.00     0.072 A 
HETATM   20  C12 UNL     1      43.641  15.603  20.924  1.00  0.00     0.053 A 
HETATM   21  C13 UNL     1      43.245  16.532  19.991  1.00  0.00     0.091 A 
HETATM   22  N2  UNL     1      42.502  16.204  18.927  1.00  0.00    -0.363 N 
HETATM   23  C14 UNL     1      42.103  14.927  18.718  1.00  0.00     0.075 A 
ATOM     24  H2  UNL     1      42.231  16.928  18.263  1.00  0.00     0.165 HD
HETATM   25  C16 UNL     1      42.496  13.996  19.646  1.00  0.00     0.069 A 
BRANCH  23  26
HETATM   26  C15 UNL     1      41.291  14.588  17.548  1.00  0.00     0.137 C 
HETATM   27  N3  UNL     1      40.520  13.569  17.593  1.00  0.00    -0.386 N 
ATOM     28  H32 UNL     1      40.488  13.014  18.448  1.00  0.00     0.157 HD
ATOM     29  H31 UNL     1      39.955  13.333  16.777  1.00  0.00     0.157 HD
HETATM   30  N4  UNL     1      41.336  15.357  16.364  1.00  0.00    -0.081 NA
ENDBRANCH  23  26
ENDBRANCH  18  19
ENDBRANCH  17  18
ENDBRANCH   1  17
TORSDOF 11
ENDMDL
MODEL 2
REMARK VINA RESULT: -8.420386782      3.257      5.731
REMARK  11 active torsions:
REMARK  status: ('A' for Active; 'I' for Inactive)
REMARK    1  A    between atoms: O1_2  and  C2_3 
REMARK    2  A    between atoms: C5_6  and  C6_7 
REMARK    3  A    between atoms: C6_7  and  C7_8 
REMARK    4  A    between atoms: C7_8  and  N1_9 
REMARK    5  A    between atoms: N1_9  and  C8_11 
REMARK    6  A    between atoms: C8_11  and  C9_12 
REMARK    7  A    between atoms: C9_12  and  O2_13 
REMARK    8  A    between atoms: C9_12  and  C10_15 
REMARK    9  A    between atoms: C10_15  and  O3_16 
REMARK   10  A    between atoms: O3_16  and  C11_17 
REMARK   11  A    between atoms: C14_22  and  C15_23 
ROOT
HETATM    1  C9  UNL     1      36.566  12.802  24.950  1.00  0.00     0.180 C 
ENDROOT
BRANCH   1   2
HETATM    2  C8  UNL     1      35.813  13.885  25.672  1.00  0.00     0.089 C 
BRANCH   2   3
HETATM    3  N1  UNL     1      36.623  14.952  26.107  1.00  0.00    -0.399 N 
ATOM      4  H1  UNL     1      37.433  14.759  26.694  1.00  0.00     0.158 HD
BRANCH   3   5
HETATM    5  C7  UNL     1      36.333  16.276  25.745  1.00  0.00     0.123 C 
BRANCH   5   6
HETATM    6  C6  UNL     1      34.927  16.291  25.087  1.00  0.00     0.058 C 
BRANCH   6   7
HETATM    7  C5  UNL     1      35.018  17.087  23.837  1.00  0.00    -0.057 A 
HETATM    8  C4  UNL     1      35.859  16.696  22.810  1.00  0.00     0.010 A 
HETATM    9  C3  UNL     1      35.971  17.407  21.635  1.00  0.00     0.037 A 
HETATM   10  C2  UNL     1      35.226  18.554  21.459  1.00  0.00     0.068 A 
HETATM   11  C18 UNL     1      34.383  18.966  22.463  1.00  0.00     0.037 A 
HETATM   12  C17 UNL     1      34.285  18.229  23.644  1.00  0.00     0.010 A 
BRANCH  10  13
HETATM   13  O1  UNL     1      35.341  19.264  20.281  1.00  0.00    -0.356 OA
HETATM   14  C1  UNL     1      34.393  20.261  19.980  1.00  0.00     0.210 C 
ENDBRANCH  10  13
ENDBRANCH   6   7
ENDBRANCH   5   6
ENDBRANCH   3   5
ENDBRANCH   2   3
ENDBRANCH   1   2
BRANCH   1  15
HETATM   15  O2  UNL     1      35.743  11.691  24.887  1.00  0.00    -0.388 OA
ATOM     16  H2  UNL     1      35.036  11.890  24.284  1.00  0.00     0.210 HD
ENDBRANCH   1  15
BRANCH   1  17
HETATM   17  C10 UNL     1      36.935  13.237  23.559  1.00  0.00     0.212 C 
BRANCH  17  18
HETATM   18  O3  UNL     1      38.079  13.896  23.368  1.00  0.00    -0.348 OA
BRANCH  18  19
HETATM   19  C11 UNL     1      39.103  13.942  22.519  1.00  0.00     0.072 A 
HETATM   20  C12 UNL     1      39.686  15.083  22.012  1.00  0.00     0.053 A 
HETATM   21  C13 UNL     1      40.744  14.972  21.141  1.00  0.00     0.091 A 
HETATM   22  N2  UNL     1      41.234  13.786  20.760  1.00  0.00    -0.363 N 
HETATM   23  C14 UNL     1      40.705  12.628  21.223  1.00  0.00     0.075 A 
ATOM     24  H2  UNL     1      42.019  13.754  20.110  1.00  0.00     0.165 HD
HETATM   25  C16 UNL     1      39.650  12.734  22.093  1.00  0.00     0.069 A 
BRANCH  23  26
HETATM   26  C15 UNL     1      41.256  11.341  20.796  1.00  0.00     0.137 C 
HETATM   27  N3  UNL     1      41.345  11.080  19.547  1.00  0.00    -0.386 N 
ATOM     28  H32 UNL     1      41.028  11.778  18.875  1.00  0.00     0.157 HD
ATOM     29  H31 UNL     1      41.729  10.183  19.250  1.00  0.00     0.157 HD
HETATM   30  N4  UNL     1      41.694  10.374  21.728  1.00  0.00    -0.081 NA
ENDBRANCH  23  26
ENDBRANCH  18  19
ENDBRANCH  17  18
ENDBRANCH   1  17
TORSDOF 11
ENDMDL
MODEL 3
REMARK VINA RESULT: -8.410855592      1.444      1.948
REMARK  11 active torsions:
REMARK  status: ('A' for Active; 'I' for Inactive)
REMARK    1  A    between atoms: O1_2  and  C2_3 
REMARK    2  A    between atoms: C5_6  and  C6_7 
REMARK    3  A    between atoms: C6_7  and  C7_8 
REMARK    4  A    between atoms: C7_8  and  N1_9 
REMARK    5  A    between atoms: N1_9  and  C8_11 
REMARK    6  A    between atoms: C8_11  and  C9_12 
REMARK    7  A    between atoms: C9_12  and  O2_13 
REMARK    8  A    between atoms: C9_12  and  C10_15 
REMARK    9  A    between atoms: C10_15  and  O3_16 
REMARK   10  A    between atoms: O3_16  and  C11_17 
REMARK   11  A    between atoms: C14_22  and  C15_23 
ROOT
HETATM    1  C9  UNL     1      42.545  10.738  21.859  1.00  0.00     0.180 C 
ENDROOT
BRANCH   1   2
HETATM    2  C8  UNL     1      41.463  10.743  20.815  1.00  0.00     0.089 C 
BRANCH   2   3
HETATM    3  N1  UNL     1      40.242  11.283  21.260  1.00  0.00    -0.399 N 
ATOM      4  H1  UNL     1      39.395  11.127  20.713  1.00  0.00     0.158 HD
BRANCH   3   5
HETATM    5  C7  UNL     1      40.169  12.034  22.443  1.00  0.00     0.123 C 
BRANCH   5   6
HETATM    6  C6  UNL     1      38.697  12.491  22.626  1.00  0.00     0.058 C 
BRANCH   6   7
HETATM    7  C5  UNL     1      38.676  13.975  22.608  1.00  0.00    -0.057 A 
HETATM    8  C4  UNL     1      39.622  14.687  21.891  1.00  0.00     0.010 A 
HETATM    9  C3  UNL     1      39.635  16.064  21.849  1.00  0.00     0.037 A 
HETATM   10  C2  UNL     1      38.679  16.776  22.541  1.00  0.00     0.068 A 
HETATM   11  C18 UNL     1      37.728  16.096  23.262  1.00  0.00     0.037 A 
HETATM   12  C17 UNL     1      37.733  14.701  23.289  1.00  0.00     0.010 A 
BRANCH  10  13
HETATM   13  O1  UNL     1      38.696  18.156  22.497  1.00  0.00    -0.356 OA
HETATM   14  C1  UNL     1      37.480  18.865  22.567  1.00  0.00     0.210 C 
ENDBRANCH  10  13
ENDBRANCH   6   7
ENDBRANCH   5   6
ENDBRANCH   3   5
ENDBRANCH   2   3
ENDBRANCH   1   2
BRANCH   1  15
HETATM   15  O2  UNL     1      43.005   9.437  21.980  1.00  0.00    -0.388 OA
ATOM     16  H2  UNL     1      42.852   9.000  21.151  1.00  0.00     0.210 HD
ENDBRANCH   1  15
BRANCH   1  17
HETATM   17  C10 UNL     1      43.681  11.640  21.462  1.00  0.00     0.212 C 
BRANCH  17  18
HETATM   18  O3  UNL     1      43.524  12.961  21.558  1.00  0.00    -0.348 OA
BRANCH  18  19
HETATM   19  C11 UNL     1      43.214  14.013  20.803  1.00  0.00     0.072 A 
HETATM   20  C12 UNL     1      43.637  15.308  21.002  1.00  0.00     0.053 A 
HETATM   21  C13 UNL     1      43.233  16.293  20.132  1.00  0.00     0.091 A 
HETATM   22  N2  UNL     1      42.434  16.040  19.089  1.00  0.00    -0.363 N 
HETATM   23  C14 UNL     1      41.984  14.787  18.838  1.00  0.00     0.075 A 
ATOM     24  H2  UNL     1      42.159  16.804  18.471  1.00  0.00     0.165 HD
HETATM   25  C16 UNL     1      42.385  13.802  19.703  1.00  0.00     0.069 A 
BRANCH  23  26
HETATM   26  C15 UNL     1      41.112  14.531  17.690  1.00  0.00     0.137 C 
HETATM   27  N3  UNL     1      40.471  13.427  17.625  1.00  0.00    -0.386 N 
ATOM     28  H32 UNL     1      40.581  12.748  18.377  1.00  0.00     0.157 HD
ATOM     29  H31 UNL     1      39.863  13.248  16.825  1.00  0.00     0.157 HD
HETATM   30  N4  UNL     1      40.960  15.471  16.647  1.00  0.00    -0.081 NA
ENDBRANCH  23  26
ENDBRANCH  18  19
ENDBRANCH  17  18
ENDBRANCH   1  17
TORSDOF 11
ENDMDL
MODEL 4
REMARK VINA RESULT: -8.321527856      1.124      1.505
REMARK  11 active torsions:
REMARK  status: ('A' for Active; 'I' for Inactive)
REMARK    1  A    between atoms: O1_2  and  C2_3 
REMARK    2  A    between atoms: C5_6  and  C6_7 
REMARK    3  A    between atoms: C6_7  and  C7_8 
REMARK    4  A    between atoms: C7_8  and  N1_9 
REMARK    5  A    between atoms: N1_9  and  C8_11 
REMARK    6  A    between atoms: C8_11  and  C9_12 
REMARK    7  A    between atoms: C9_12  and  O2_13 
REMARK    8  A    between atoms: C9_12  and  C10_15 
REMARK    9  A    between atoms: C10_15  and  O3_16 
REMARK   10  A    between atoms: O3_16  and  C11_17 
REMARK   11  A    between atoms: C14_22  and  C15_23 
ROOT
HETATM    1  C9  UNL     1      43.925  11.520  22.280  1.00  0.00     0.180 C 
ENDROOT
BRANCH   1   2
HETATM    2  C8  UNL     1      42.800  10.560  22.002  1.00  0.00     0.089 C 
BRANCH   2   3
HETATM    3  N1  UNL     1      41.723  11.131  21.298  1.00  0.00    -0.399 N 
ATOM      4  H1  UNL     1      41.771  11.204  20.282  1.00  0.00     0.158 HD
BRANCH   3   5
HETATM    5  C7  UNL     1      40.585  11.599  21.970  1.00  0.00     0.123 C 
BRANCH   5   6
HETATM    6  C6  UNL     1      40.324  13.057  21.504  1.00  0.00     0.058 C 
BRANCH   6   7
HETATM    7  C5  UNL     1      39.310  13.650  22.411  1.00  0.00    -0.057 A 
HETATM    8  C4  UNL     1      38.998  14.996  22.338  1.00  0.00     0.010 A 
HETATM    9  C3  UNL     1      38.063  15.584  23.163  1.00  0.00     0.037 A 
HETATM   10  C2  UNL     1      37.405  14.818  24.101  1.00  0.00     0.068 A 
HETATM   11  C18 UNL     1      37.696  13.479  24.197  1.00  0.00     0.037 A 
HETATM   12  C17 UNL     1      38.646  12.905  23.351  1.00  0.00     0.010 A 
BRANCH  10  13
HETATM   13  O1  UNL     1      36.470  15.410  24.926  1.00  0.00    -0.356 OA
HETATM   14  C1  UNL     1      35.901  14.662  25.976  1.00  0.00     0.210 C 
ENDBRANCH  10  13
ENDBRANCH   6   7
ENDBRANCH   5   6
ENDBRANCH   3   5
ENDBRANCH   2   3
ENDBRANCH   1   2
BRANCH   1  15
HETATM   15  O2  UNL     1      45.082  10.776  22.431  1.00  0.00    -0.388 OA
ATOM     16  H2  UNL     1      45.081  10.417  23.311  1.00  0.00     0.210 HD
ENDBRANCH   1  15
BRANCH   1  17
HETATM   17  C10 UNL     1      44.094  12.494  21.148  1.00  0.00     0.212 C 
BRANCH  17  18
HETATM   18  O3  UNL     1      43.666  13.748  21.301  1.00  0.00    -0.348 OA
BRANCH  18  19
HETATM   19  C11 UNL     1      43.453  14.851  20.588  1.00  0.00     0.072 A 
HETATM   20  C12 UNL     1      43.802  16.133  20.952  1.00  0.00     0.053 A 
HETATM   21  C13 UNL     1      43.516  17.178  20.105  1.00  0.00     0.091 A 
HETATM   22  N2  UNL     1      42.903  16.996  18.929  1.00  0.00    -0.363 N 
HETATM   23  C14 UNL     1      42.535  15.761  18.514  1.00  0.00     0.075 A 
ATOM     24  H2  UNL     1      42.710  17.803  18.335  1.00  0.00     0.165 HD
HETATM   25  C16 UNL     1      42.819  14.716  19.355  1.00  0.00     0.069 A 
BRANCH  23  26
HETATM   26  C15 UNL     1      41.867  15.583  17.223  1.00  0.00     0.137 C 
HETATM   27  N3  UNL     1      40.685  16.041  17.060  1.00  0.00    -0.386 N 
ATOM     28  H32 UNL     1      40.232  16.522  17.837  1.00  0.00     0.157 HD
ATOM     29  H31 UNL     1      40.220  15.917  16.161  1.00  0.00     0.157 HD
HETATM   30  N4  UNL     1      42.495  14.917  16.147  1.00  0.00    -0.081 NA
ENDBRANCH  23  26
ENDBRANCH  18  19
ENDBRANCH  17  18
ENDBRANCH   1  17
TORSDOF 11
ENDMDL
MODEL 5
REMARK VINA RESULT: -8.307590613      0.719      1.350
REMARK  11 active torsions:
REMARK  status: ('A' for Active; 'I' for Inactive)
REMARK    1  A    between atoms: O1_2  and  C2_3 
REMARK    2  A    between atoms: C5_6  and  C6_7 
REMARK    3  A    between atoms: C6_7  and  C7_8 
REMARK    4  A    between atoms: C7_8  and  N1_9 
REMARK    5  A    between atoms: N1_9  and  C8_11 
REMARK    6  A    between atoms: C8_11  and  C9_12 
REMARK    7  A    between atoms: C9_12  and  O2_13 
REMARK    8  A    between atoms: C9_12  and  C10_15 
REMARK    9  A    between atoms: C10_15  and  O3_16 
REMARK   10  A    between atoms: O3_16  and  C11_17 
REMARK   11  A    between atoms: C14_22  and  C15_23 
ROOT
HETATM    1  C9  UNL     1      42.474  11.125  21.918  1.00  0.00     0.180 C 
ENDROOT
BRANCH   1   2
HETATM    2  C8  UNL     1      41.375  11.042  20.893  1.00  0.00     0.089 C 
BRANCH   2   3
HETATM    3  N1  UNL     1      40.445  12.096  20.967  1.00  0.00    -0.399 N 
ATOM      4  H1  UNL     1      40.205  12.613  20.122  1.00  0.00     0.158 HD
BRANCH   3   5
HETATM    5  C7  UNL     1      39.841  12.446  22.184  1.00  0.00     0.123 C 
BRANCH   5   6
HETATM    6  C6  UNL     1      39.404  13.933  22.087  1.00  0.00     0.058 C 
BRANCH   6   7
HETATM    7  C5  UNL     1      38.407  14.184  23.157  1.00  0.00    -0.057 A 
HETATM    8  C4  UNL     1      37.847  15.439  23.320  1.00  0.00     0.010 A 
HETATM    9  C3  UNL     1      36.918  15.712  24.301  1.00  0.00     0.037 A 
HETATM   10  C2  UNL     1      36.520  14.710  25.161  1.00  0.00     0.068 A 
HETATM   11  C18 UNL     1      37.060  13.455  25.022  1.00  0.00     0.037 A 
HETATM   12  C17 UNL     1      37.999  13.201  24.021  1.00  0.00     0.010 A 
BRANCH  10  13
HETATM   13  O1  UNL     1      35.590  14.987  26.142  1.00  0.00    -0.356 OA
HETATM   14  C1  UNL     1      35.116  16.304  26.294  1.00  0.00     0.210 C 
ENDBRANCH  10  13
ENDBRANCH   6   7
ENDBRANCH   5   6
ENDBRANCH   3   5
ENDBRANCH   2   3
ENDBRANCH   1   2
BRANCH   1  15
HETATM   15  O2  UNL     1      43.030   9.863  22.037  1.00  0.00    -0.388 OA
ATOM     16  H2  UNL     1      42.319   9.233  22.029  1.00  0.00     0.210 HD
ENDBRANCH   1  15
BRANCH   1  17
HETATM   17  C10 UNL     1      43.532  12.106  21.496  1.00  0.00     0.212 C 
BRANCH  17  18
HETATM   18  O3  UNL     1      43.300  13.411  21.638  1.00  0.00    -0.348 OA
BRANCH  18  19
HETATM   19  C11 UNL     1      43.285  14.533  20.920  1.00  0.00     0.072 A 
HETATM   20  C12 UNL     1      43.650  15.785  21.363  1.00  0.00     0.053 A 
HETATM   21  C13 UNL     1      43.583  16.853  20.500  1.00  0.00     0.091 A 
HETATM   22  N2  UNL     1      43.171  16.723  19.234  1.00  0.00    -0.363 N 
HETATM   23  C14 UNL     1      42.799  15.519  18.738  1.00  0.00     0.075 A 
ATOM     24  H2  UNL     1      43.136  17.546  18.631  1.00  0.00     0.165 HD
HETATM   25  C16 UNL     1      42.865  14.451  19.594  1.00  0.00     0.069 A 
BRANCH  23  26
HETATM   26  C15 UNL     1      42.352  15.398  17.349  1.00  0.00     0.137 C 
HETATM   27  N3  UNL     1      42.859  16.162  16.458  1.00  0.00    -0.386 N 
ATOM     28  H32 UNL     1      43.567  16.841  16.737  1.00  0.00     0.157 HD
ATOM     29  H31 UNL     1      42.549  16.077  15.490  1.00  0.00     0.157 HD
HETATM   30  N4  UNL     1      41.372  14.456  16.962  1.00  0.00    -0.081 NA
ENDBRANCH  23  26
ENDBRANCH  18  19
ENDBRANCH  17  18
ENDBRANCH   1  17
TORSDOF 11
ENDMDL
