MODEL 1
REMARK VINA RESULT: -7.616473988      0.000      0.000
REMARK  8 active torsions:
REMARK  status: ('A' for Active; 'I' for Inactive)
REMARK    1  A    between atoms: C3_3  and  C4_4 
REMARK    2  A    between atoms: C4_4  and  C5_5 
REMARK    3  A    between atoms: C5_5  and  C6_6 
REMARK    4  A    between atoms: C6_6  and  C7_8 
REMARK    5  A    between atoms: C9_10  and  O2_11 
REMARK    6  A    between atoms: C18_21  and  O3_22 
REMARK    7  A    between atoms: O3_22  and  C19_23 
REMARK    8  A    between atoms: C19_23  and  C20_25 
ROOT
HETATM    1  C7  UNL     1       8.243  16.744  16.885  1.00  0.00     0.062 A 
HETATM    2  C8  UNL     1       7.235  17.833  16.849  1.00  0.00     0.029 C 
HETATM    3  C9  UNL     1       7.276  18.985  17.736  1.00  0.00     0.059 C 
HETATM    4  C10 UNL     1       8.477  19.687  18.165  1.00  0.00     0.017 C 
HETATM    5  C11 UNL     1       9.526  19.168  19.002  1.00  0.00     0.041 C 
HETATM    6  C12 UNL     1      10.810  18.791  18.221  1.00  0.00     0.017 C 
HETATM    7  C13 UNL     1      10.717  17.420  17.626  1.00  0.00     0.007 A 
HETATM    8  C14 UNL     1       9.691  17.133  16.627  1.00  0.00    -0.011 A 
HETATM    9  C15 UNL     1       9.867  17.884  15.397  1.00  0.00     0.018 C 
HETATM   10  C16 UNL     1       9.233  17.025  17.860  1.00  0.00    -0.005 A 
HETATM   11  C17 UNL     1       9.202  16.696  19.226  1.00  0.00     0.045 C 
HETATM   12  C18 UNL     1       9.262  18.030  19.953  1.00  0.00     0.140 C 
ENDROOT
BRANCH   1  13
HETATM   13  C6  UNL     1       7.852  15.358  16.558  1.00  0.00     0.170 C 
HETATM   14  O1  UNL     1       7.960  14.512  17.538  1.00  0.00    -0.291 OA
BRANCH  13  15
HETATM   15  C5  UNL     1       7.365  14.812  15.301  1.00  0.00     0.106 C 
BRANCH  15  16
HETATM   16  C4  UNL     1       7.601  15.278  14.130  1.00  0.00    -0.125 C 
BRANCH  16  17
HETATM   17  C3  UNL     1       7.942  15.942  12.979  1.00  0.00     0.051 C 
HETATM   18  C2  UNL     1       7.752  17.278  12.827  1.00  0.00    -0.023 C 
HETATM   19  C1  UNL     1       8.151  17.899  11.558  1.00  0.00     0.036 C 
ENDBRANCH  16  17
ENDBRANCH  15  16
ENDBRANCH  13  15
ENDBRANCH   1  13
BRANCH   3  20
HETATM   20  O2  UNL     1       6.269  18.946  18.752  1.00  0.00    -0.361 OA
ATOM     21  H2  UNL     1       5.416  19.222  18.440  1.00  0.00     0.217 HD
ENDBRANCH   3  20
BRANCH  12  22
HETATM   22  O3  UNL     1       8.199  18.239  20.825  1.00  0.00    -0.315 OA
BRANCH  22  23
HETATM   23  C19 UNL     1       8.072  19.358  21.602  1.00  0.00     0.258 C 
HETATM   24  O4  UNL     1       7.073  20.095  21.449  1.00  0.00    -0.265 OA
BRANCH  23  25
HETATM   25  C20 UNL     1       9.096  19.739  22.634  1.00  0.00     0.106 C 
HETATM   26  C21 UNL     1       9.983  20.831  22.145  1.00  0.00     0.015 C 
ENDBRANCH  23  25
ENDBRANCH  22  23
ENDBRANCH  12  22
TORSDOF 8
ENDMDL
MODEL 2
REMARK VINA RESULT: -7.462001927      1.950      6.633
REMARK  8 active torsions:
REMARK  status: ('A' for Active; 'I' for Inactive)
REMARK    1  A    between atoms: C3_3  and  C4_4 
REMARK    2  A    between atoms: C4_4  and  C5_5 
REMARK    3  A    between atoms: C5_5  and  C6_6 
REMARK    4  A    between atoms: C6_6  and  C7_8 
REMARK    5  A    between atoms: C9_10  and  O2_11 
REMARK    6  A    between atoms: C18_21  and  O3_22 
REMARK    7  A    between atoms: O3_22  and  C19_23 
REMARK    8  A    between atoms: C19_23  and  C20_25 
ROOT
HETATM    1  C7  UNL     1       8.178  17.625  18.795  1.00  0.00     0.062 A 
HETATM    2  C8  UNL     1       9.263  18.429  18.179  1.00  0.00     0.029 C 
HETATM    3  C9  UNL     1       9.283  18.792  16.770  1.00  0.00     0.059 C 
HETATM    4  C10 UNL     1       8.124  19.169  15.973  1.00  0.00     0.017 C 
HETATM    5  C11 UNL     1       7.019  18.324  15.607  1.00  0.00     0.041 C 
HETATM    6  C12 UNL     1       5.732  18.601  16.424  1.00  0.00     0.017 C 
HETATM    7  C13 UNL     1       5.741  17.882  17.737  1.00  0.00     0.007 A 
HETATM    8  C14 UNL     1       6.770  18.195  18.726  1.00  0.00    -0.011 A 
HETATM    9  C15 UNL     1       6.682  19.554  19.230  1.00  0.00     0.018 C 
HETATM   10  C16 UNL     1       7.185  17.319  17.831  1.00  0.00    -0.005 A 
HETATM   11  C17 UNL     1       7.157  16.220  16.956  1.00  0.00     0.045 C 
HETATM   12  C18 UNL     1       7.174  16.826  15.561  1.00  0.00     0.140 C 
ENDROOT
BRANCH   1  13
HETATM   13  C6  UNL     1       8.477  16.707  19.914  1.00  0.00     0.170 C 
HETATM   14  O1  UNL     1       8.611  15.460  19.579  1.00  0.00    -0.291 OA
BRANCH  13  15
HETATM   15  C5  UNL     1       8.640  17.005  21.328  1.00  0.00     0.106 C 
BRANCH  15  16
HETATM   16  C4  UNL     1       8.751  18.171  21.850  1.00  0.00    -0.125 C 
BRANCH  16  17
HETATM   17  C3  UNL     1       9.012  19.455  22.254  1.00  0.00     0.051 C 
HETATM   18  C2  UNL     1      10.089  20.152  21.810  1.00  0.00    -0.023 C 
HETATM   19  C1  UNL     1      10.284  21.522  22.298  1.00  0.00     0.036 C 
ENDBRANCH  16  17
ENDBRANCH  15  16
ENDBRANCH  13  15
ENDBRANCH   1  13
BRANCH   3  20
HETATM   20  O2  UNL     1      10.256  18.064  16.017  1.00  0.00    -0.361 OA
ATOM     21  H2  UNL     1      10.137  17.123  16.068  1.00  0.00     0.217 HD
ENDBRANCH   3  20
BRANCH  12  22
HETATM   22  O3  UNL     1       8.226  16.376  14.770  1.00  0.00    -0.315 OA
BRANCH  22  23
HETATM   23  C19 UNL     1       8.060  15.521  13.715  1.00  0.00     0.258 C 
HETATM   24  O4  UNL     1       7.978  14.292  13.934  1.00  0.00    -0.265 OA
BRANCH  23  25
HETATM   25  C20 UNL     1       7.977  16.006  12.295  1.00  0.00     0.106 C 
HETATM   26  C21 UNL     1       7.957  17.494  12.227  1.00  0.00     0.015 C 
ENDBRANCH  23  25
ENDBRANCH  22  23
ENDBRANCH  12  22
TORSDOF 8
ENDMDL
MODEL 3
REMARK VINA RESULT: -7.301195339      1.802      6.514
REMARK  8 active torsions:
REMARK  status: ('A' for Active; 'I' for Inactive)
REMARK    1  A    between atoms: C3_3  and  C4_4 
REMARK    2  A    between atoms: C4_4  and  C5_5 
REMARK    3  A    between atoms: C5_5  and  C6_6 
REMARK    4  A    between atoms: C6_6  and  C7_8 
REMARK    5  A    between atoms: C9_10  and  O2_11 
REMARK    6  A    between atoms: C18_21  and  O3_22 
REMARK    7  A    between atoms: O3_22  and  C19_23 
REMARK    8  A    between atoms: C19_23  and  C20_25 
ROOT
HETATM    1  C7  UNL     1       8.957  17.310  18.845  1.00  0.00     0.062 A 
HETATM    2  C8  UNL     1       9.948  16.526  18.065  1.00  0.00     0.029 C 
HETATM    3  C9  UNL     1       9.940  16.455  16.612  1.00  0.00     0.059 C 
HETATM    4  C10 UNL     1       9.632  17.554  15.709  1.00  0.00     0.017 C 
HETATM    5  C11 UNL     1       8.362  18.212  15.554  1.00  0.00     0.041 C 
HETATM    6  C12 UNL     1       8.303  19.606  16.226  1.00  0.00     0.017 C 
HETATM    7  C13 UNL     1       7.982  19.508  17.685  1.00  0.00     0.007 A 
HETATM    8  C14 UNL     1       8.898  18.807  18.582  1.00  0.00    -0.011 A 
HETATM    9  C15 UNL     1      10.192  19.455  18.694  1.00  0.00     0.018 C 
HETATM   10  C16 UNL     1       8.067  17.984  17.971  1.00  0.00    -0.005 A 
HETATM   11  C17 UNL     1       6.869  17.489  17.428  1.00  0.00     0.045 C 
HETATM   12  C18 UNL     1       7.080  17.511  15.923  1.00  0.00     0.140 C 
ENDROOT
BRANCH   1  13
HETATM   13  C6  UNL     1       8.526  16.846  20.179  1.00  0.00     0.170 C 
HETATM   14  O1  UNL     1       8.738  15.587  20.417  1.00  0.00    -0.291 OA
BRANCH  13  15
HETATM   15  C5  UNL     1       7.901  17.598  21.256  1.00  0.00     0.106 C 
BRANCH  15  16
HETATM   16  C4  UNL     1       8.325  18.700  21.757  1.00  0.00    -0.125 C 
BRANCH  16  17
HETATM   17  C3  UNL     1       8.782  19.949  22.091  1.00  0.00     0.051 C 
HETATM   18  C2  UNL     1      10.106  20.253  22.128  1.00  0.00    -0.023 C 
HETATM   19  C1  UNL     1      10.498  21.618  22.496  1.00  0.00     0.036 C 
ENDBRANCH  16  17
ENDBRANCH  15  16
ENDBRANCH  13  15
ENDBRANCH   1  13
BRANCH   3  20
HETATM   20  O2  UNL     1       9.492  15.191  16.115  1.00  0.00    -0.361 OA
ATOM     21  H2  UNL     1       9.746  15.036  15.213  1.00  0.00     0.217 HD
ENDBRANCH   3  20
BRANCH  12  22
HETATM   22  O3  UNL     1       6.901  16.273  15.315  1.00  0.00    -0.315 OA
BRANCH  22  23
HETATM   23  C19 UNL     1       7.224  16.023  14.009  1.00  0.00     0.258 C 
HETATM   24  O4  UNL     1       7.921  15.020  13.736  1.00  0.00    -0.265 OA
BRANCH  23  25
HETATM   25  C20 UNL     1       6.771  16.913  12.886  1.00  0.00     0.106 C 
HETATM   26  C21 UNL     1       7.923  17.382  12.066  1.00  0.00     0.015 C 
ENDBRANCH  23  25
ENDBRANCH  22  23
ENDBRANCH  12  22
TORSDOF 8
ENDMDL
MODEL 4
REMARK VINA RESULT: -7.186997390      2.018      6.571
REMARK  8 active torsions:
REMARK  status: ('A' for Active; 'I' for Inactive)
REMARK    1  A    between atoms: C3_3  and  C4_4 
REMARK    2  A    between atoms: C4_4  and  C5_5 
REMARK    3  A    between atoms: C5_5  and  C6_6 
REMARK    4  A    between atoms: C6_6  and  C7_8 
REMARK    5  A    between atoms: C9_10  and  O2_11 
REMARK    6  A    between atoms: C18_21  and  O3_22 
REMARK    7  A    between atoms: O3_22  and  C19_23 
REMARK    8  A    between atoms: C19_23  and  C20_25 
ROOT
HETATM    1  C7  UNL     1       7.472  18.197  18.579  1.00  0.00     0.062 A 
HETATM    2  C8  UNL     1       6.902  16.938  18.038  1.00  0.00     0.029 C 
HETATM    3  C9  UNL     1       7.389  16.300  16.825  1.00  0.00     0.059 C 
HETATM    4  C10 UNL     1       8.782  16.215  16.409  1.00  0.00     0.017 C 
HETATM    5  C11 UNL     1       9.634  17.308  16.022  1.00  0.00     0.041 C 
HETATM    6  C12 UNL     1      10.661  17.706  17.112  1.00  0.00     0.017 C 
HETATM    7  C13 UNL     1      10.066  18.635  18.125  1.00  0.00     0.007 A 
HETATM    8  C14 UNL     1       8.947  18.185  18.950  1.00  0.00    -0.011 A 
HETATM    9  C15 UNL     1       9.300  17.096  19.843  1.00  0.00     0.018 C 
HETATM   10  C16 UNL     1       8.554  18.632  17.772  1.00  0.00    -0.005 A 
HETATM   11  C17 UNL     1       8.491  19.450  16.631  1.00  0.00     0.045 C 
HETATM   12  C18 UNL     1       9.049  18.596  15.504  1.00  0.00     0.140 C 
ENDROOT
BRANCH   1  13
HETATM   13  C6  UNL     1       6.608  19.157  19.296  1.00  0.00     0.170 C 
HETATM   14  O1  UNL     1       5.859  19.895  18.534  1.00  0.00    -0.291 OA
BRANCH  13  15
HETATM   15  C5  UNL     1       6.481  19.389  20.726  1.00  0.00     0.106 C 
BRANCH  15  16
HETATM   16  C4  UNL     1       7.385  19.867  21.501  1.00  0.00    -0.125 C 
BRANCH  16  17
HETATM   17  C3  UNL     1       8.372  20.531  22.181  1.00  0.00     0.051 C 
HETATM   18  C2  UNL     1       9.677  20.477  21.807  1.00  0.00    -0.023 C 
HETATM   19  C1  UNL     1      10.662  21.223  22.597  1.00  0.00     0.036 C 
ENDBRANCH  16  17
ENDBRANCH  15  16
ENDBRANCH  13  15
ENDBRANCH   1  13
BRANCH   3  20
HETATM   20  O2  UNL     1       6.492  16.439  15.720  1.00  0.00    -0.361 OA
ATOM     21  H2  UNL     1       6.640  17.233  15.219  1.00  0.00     0.217 HD
ENDBRANCH   3  20
BRANCH  12  22
HETATM   22  O3  UNL     1       8.177  18.446  14.432  1.00  0.00    -0.315 OA
BRANCH  22  23
HETATM   23  C19 UNL     1       8.476  18.845  13.157  1.00  0.00     0.258 C 
HETATM   24  O4  UNL     1       9.102  19.915  12.985  1.00  0.00    -0.265 OA
BRANCH  23  25
HETATM   25  C20 UNL     1       8.077  18.043  11.950  1.00  0.00     0.106 C 
HETATM   26  C21 UNL     1       7.767  16.631  12.313  1.00  0.00     0.015 C 
ENDBRANCH  23  25
ENDBRANCH  22  23
ENDBRANCH  12  22
TORSDOF 8
ENDMDL
MODEL 5
REMARK VINA RESULT: -7.129235567      1.323      6.681
REMARK  8 active torsions:
REMARK  status: ('A' for Active; 'I' for Inactive)
REMARK    1  A    between atoms: C3_3  and  C4_4 
REMARK    2  A    between atoms: C4_4  and  C5_5 
REMARK    3  A    between atoms: C5_5  and  C6_6 
REMARK    4  A    between atoms: C6_6  and  C7_8 
REMARK    5  A    between atoms: C9_10  and  O2_11 
REMARK    6  A    between atoms: C18_21  and  O3_22 
REMARK    7  A    between atoms: O3_22  and  C19_23 
REMARK    8  A    between atoms: C19_23  and  C20_25 
ROOT
HETATM    1  C7  UNL     1       8.118  17.903  18.831  1.00  0.00     0.062 A 
HETATM    2  C8  UNL     1       8.696  16.540  18.931  1.00  0.00     0.029 C 
HETATM    3  C9  UNL     1       9.128  15.771  17.773  1.00  0.00     0.059 C 
HETATM    4  C10 UNL     1       9.798  16.308  16.598  1.00  0.00     0.017 C 
HETATM    5  C11 UNL     1       9.242  17.213  15.628  1.00  0.00     0.041 C 
HETATM    6  C12 UNL     1       9.750  18.669  15.779  1.00  0.00     0.017 C 
HETATM    7  C13 UNL     1       8.971  19.426  16.810  1.00  0.00     0.007 A 
HETATM    8  C14 UNL     1       8.990  18.979  18.202  1.00  0.00    -0.011 A 
HETATM    9  C15 UNL     1      10.302  19.078  18.814  1.00  0.00     0.018 C 
HETATM   10  C16 UNL     1       8.098  18.329  17.479  1.00  0.00    -0.005 A 
HETATM   11  C17 UNL     1       7.085  18.106  16.530  1.00  0.00     0.045 C 
HETATM   12  C18 UNL     1       7.752  17.306  15.423  1.00  0.00     0.140 C 
ENDROOT
BRANCH   1  13
HETATM   13  C6  UNL     1       7.093  18.349  19.797  1.00  0.00     0.170 C 
HETATM   14  O1  UNL     1       5.897  18.474  19.308  1.00  0.00    -0.291 OA
BRANCH  13  15
HETATM   15  C5  UNL     1       7.238  18.666  21.209  1.00  0.00     0.106 C 
BRANCH  15  16
HETATM   16  C4  UNL     1       7.887  19.655  21.703  1.00  0.00    -0.125 C 
BRANCH  16  17
HETATM   17  C3  UNL     1       8.701  20.565  22.327  1.00  0.00     0.051 C 
HETATM   18  C2  UNL     1      10.016  20.697  22.018  1.00  0.00    -0.023 C 
HETATM   19  C1  UNL     1      10.806  21.701  22.741  1.00  0.00     0.036 C 
ENDBRANCH  16  17
ENDBRANCH  15  16
ENDBRANCH  13  15
ENDBRANCH   1  13
BRANCH   3  20
HETATM   20  O2  UNL     1       8.247  14.690  17.459  1.00  0.00    -0.361 OA
ATOM     21  H2  UNL     1       8.145  14.073  18.175  1.00  0.00     0.217 HD
ENDBRANCH   3  20
BRANCH  12  22
HETATM   22  O3  UNL     1       7.128  16.093  15.156  1.00  0.00    -0.315 OA
BRANCH  22  23
HETATM   23  C19 UNL     1       7.580  15.204  14.219  1.00  0.00     0.258 C 
HETATM   24  O4  UNL     1       7.652  13.990  14.516  1.00  0.00    -0.265 OA
BRANCH  23  25
HETATM   25  C20 UNL     1       7.999  15.633  12.841  1.00  0.00     0.106 C 
HETATM   26  C21 UNL     1       7.063  16.648  12.280  1.00  0.00     0.015 C 
ENDBRANCH  23  25
ENDBRANCH  22  23
ENDBRANCH  12  22
TORSDOF 8
ENDMDL
