MODEL 1
REMARK VINA RESULT: -7.408113828      0.000      0.000
REMARK  9 active torsions:
REMARK  status: ('A' for Active; 'I' for Inactive)
REMARK    1  A    between atoms: N1_4  and  C4_5 
REMARK    2  A    between atoms: C4_5  and  C5_6 
REMARK    3  A    between atoms: C5_6  and  C6_7 
REMARK    4  A    between atoms: C6_7  and  C7_8 
REMARK    5  A    between atoms: C7_8  and  C8_9 
REMARK    6  A    between atoms: C8_9  and  C9_10 
REMARK    7  A    between atoms: C9_10  and  N2_11 
REMARK    8  A    between atoms: N3_14  and  C12_15 
REMARK    9  A    between atoms: C16_20  and  O1_21 
ROOT
HETATM    1  N2  UNL     1      -7.354  18.380 -15.623  1.00  0.00     0.091 N 
HETATM    2  C10 UNL     1      -6.584  17.715 -16.625  1.00  0.00     0.292 C 
HETATM    3  C11 UNL     1      -7.306  17.653 -17.947  1.00  0.00     0.153 C 
HETATM    4  N3  UNL     1      -8.540  18.371 -17.947  1.00  0.00    -0.376 N 
HETATM    5  C18 UNL     1      -9.451  18.360 -16.818  1.00  0.00     0.153 C 
HETATM    6  C19 UNL     1      -8.694  17.838 -15.619  1.00  0.00     0.292 C 
ENDROOT
BRANCH   1   7
HETATM    7  C9  UNL     1      -6.751  18.351 -14.320  1.00  0.00     0.272 C 
BRANCH   7   8
HETATM    8  C8  UNL     1      -7.718  18.051 -13.221  1.00  0.00     0.030 C 
BRANCH   8   9
HETATM    9  C7  UNL     1      -7.498  16.717 -12.554  1.00  0.00     0.002 C 
BRANCH   9  10
HETATM   10  C6  UNL     1      -7.100  15.717 -13.584  1.00  0.00     0.002 C 
BRANCH  10  11
HETATM   11  C5  UNL     1      -8.194  14.720 -13.899  1.00  0.00     0.030 C 
BRANCH  11  12
HETATM   12  C4  UNL     1      -8.206  14.301 -15.327  1.00  0.00     0.272 C 
BRANCH  12  13
HETATM   13  N1  UNL     1      -9.508  14.297 -15.933  1.00  0.00     0.093 N 
HETATM   14  C3  UNL     1      -9.529  14.763 -17.296  1.00  0.00     0.303 C 
HETATM   15  C2  UNL     1     -11.011  14.779 -17.705  1.00  0.00     0.146 C 
HETATM   16  C1  UNL     1     -11.703  15.720 -16.744  1.00  0.00     0.041 C 
HETATM   17  O2  UNL     1     -11.537  13.518 -17.722  1.00  0.00    -0.378 OA
HETATM   18  C21 UNL     1     -11.303  12.741 -16.624  1.00  0.00     0.146 C 
HETATM   19  C20 UNL     1      -9.983  12.925 -15.954  1.00  0.00     0.303 C 
HETATM   20  C22 UNL     1     -12.423  12.829 -15.592  1.00  0.00     0.041 C 
ENDBRANCH  12  13
ENDBRANCH  11  12
ENDBRANCH  10  11
ENDBRANCH   9  10
ENDBRANCH   8   9
ENDBRANCH   7   8
ENDBRANCH   1   7
BRANCH   4  21
HETATM   21  C12 UNL     1      -8.913  19.134 -19.084  1.00  0.00     0.055 A 
HETATM   22  C13 UNL     1     -10.156  19.764 -19.160  1.00  0.00     0.033 A 
HETATM   23  C14 UNL     1     -10.538  20.504 -20.259  1.00  0.00     0.029 A 
HETATM   24  C15 UNL     1      -9.694  20.649 -21.333  1.00  0.00     0.069 A 
HETATM   25 CL1  UNL     1     -10.210  21.600 -22.724  1.00  0.00    -0.081 Cl
HETATM   26  C16 UNL     1      -8.469  20.040 -21.281  1.00  0.00     0.111 A 
HETATM   27  C17 UNL     1      -8.086  19.294 -20.172  1.00  0.00     0.095 A 
HETATM   28 CL2  UNL     1      -6.508  18.550 -20.163  1.00  0.00    -0.079 Cl
BRANCH  26  29
HETATM   29  O1  UNL     1      -7.631  20.200 -22.379  1.00  0.00    -0.357 OA
ATOM     30  H1  UNL     1      -6.755  19.836 -22.315  1.00  0.00     0.217 HD
ENDBRANCH  26  29
ENDBRANCH   4  21
TORSDOF 9
ENDMDL
MODEL 2
REMARK VINA RESULT: -7.289028363      1.351      1.714
REMARK  9 active torsions:
REMARK  status: ('A' for Active; 'I' for Inactive)
REMARK    1  A    between atoms: N1_4  and  C4_5 
REMARK    2  A    between atoms: C4_5  and  C5_6 
REMARK    3  A    between atoms: C5_6  and  C6_7 
REMARK    4  A    between atoms: C6_7  and  C7_8 
REMARK    5  A    between atoms: C7_8  and  C8_9 
REMARK    6  A    between atoms: C8_9  and  C9_10 
REMARK    7  A    between atoms: C9_10  and  N2_11 
REMARK    8  A    between atoms: N3_14  and  C12_15 
REMARK    9  A    between atoms: C16_20  and  O1_21 
ROOT
HETATM    1  N2  UNL     1      -7.262  18.656 -14.850  1.00  0.00     0.091 N 
HETATM    2  C10 UNL     1      -6.449  17.639 -15.440  1.00  0.00     0.292 C 
HETATM    3  C11 UNL     1      -6.800  17.403 -16.887  1.00  0.00     0.153 C 
HETATM    4  N3  UNL     1      -7.775  18.319 -17.386  1.00  0.00    -0.376 N 
HETATM    5  C18 UNL     1      -8.919  18.746 -16.602  1.00  0.00     0.153 C 
HETATM    6  C19 UNL     1      -8.648  18.391 -15.159  1.00  0.00     0.292 C 
ENDROOT
BRANCH   1   7
HETATM    7  C9  UNL     1      -7.039  18.823 -13.442  1.00  0.00     0.272 C 
BRANCH   7   8
HETATM    8  C8  UNL     1      -7.939  17.986 -12.592  1.00  0.00     0.030 C 
BRANCH   8   9
HETATM    9  C7  UNL     1      -7.388  16.620 -12.269  1.00  0.00     0.002 C 
BRANCH   9  10
HETATM   10  C6  UNL     1      -8.171  15.592 -13.010  1.00  0.00     0.002 C 
BRANCH  10  11
HETATM   11  C5  UNL     1      -7.483  15.111 -14.269  1.00  0.00     0.030 C 
BRANCH  11  12
HETATM   12  C4  UNL     1      -8.117  13.897 -14.853  1.00  0.00     0.272 C 
BRANCH  12  13
HETATM   13  N1  UNL     1      -9.299  14.159 -15.626  1.00  0.00     0.093 N 
HETATM   14  C3  UNL     1      -9.046  14.759 -16.911  1.00  0.00     0.303 C 
HETATM   15  C2  UNL     1     -10.431  15.048 -17.512  1.00  0.00     0.146 C 
HETATM   16  C1  UNL     1     -11.123  15.983 -16.546  1.00  0.00     0.041 C 
HETATM   17  O2  UNL     1     -11.120  13.894 -17.756  1.00  0.00    -0.378 OA
HETATM   18  C21 UNL     1     -11.167  12.982 -16.741  1.00  0.00     0.146 C 
HETATM   19  C20 UNL     1      -9.952  12.888 -15.881  1.00  0.00     0.303 C 
HETATM   20  C22 UNL     1     -12.408  13.139 -15.867  1.00  0.00     0.041 C 
ENDBRANCH  12  13
ENDBRANCH  11  12
ENDBRANCH  10  11
ENDBRANCH   9  10
ENDBRANCH   8   9
ENDBRANCH   7   8
ENDBRANCH   1   7
BRANCH   4  21
HETATM   21  C12 UNL     1      -7.643  18.847 -18.696  1.00  0.00     0.055 A 
HETATM   22  C13 UNL     1      -6.408  19.282 -19.182  1.00  0.00     0.033 A 
HETATM   23  C14 UNL     1      -6.262  19.804 -20.450  1.00  0.00     0.029 A 
HETATM   24  C15 UNL     1      -7.343  19.916 -21.290  1.00  0.00     0.069 A 
HETATM   25 CL1  UNL     1      -7.124  20.588 -22.905  1.00  0.00    -0.081 Cl
HETATM   26  C16 UNL     1      -8.564  19.496 -20.835  1.00  0.00     0.111 A 
HETATM   27  C17 UNL     1      -8.709  18.969 -19.556  1.00  0.00     0.095 A 
HETATM   28 CL2  UNL     1     -10.290  18.444 -19.039  1.00  0.00    -0.079 Cl
BRANCH  26  29
HETATM   29  O1  UNL     1      -9.643  19.618 -21.703  1.00  0.00    -0.357 OA
ATOM     30  H1  UNL     1      -9.534  20.186 -22.457  1.00  0.00     0.217 HD
ENDBRANCH  26  29
ENDBRANCH   4  21
TORSDOF 9
ENDMDL
MODEL 3
REMARK VINA RESULT: -7.097082736      2.949      5.660
REMARK  9 active torsions:
REMARK  status: ('A' for Active; 'I' for Inactive)
REMARK    1  A    between atoms: N1_4  and  C4_5 
REMARK    2  A    between atoms: C4_5  and  C5_6 
REMARK    3  A    between atoms: C5_6  and  C6_7 
REMARK    4  A    between atoms: C6_7  and  C7_8 
REMARK    5  A    between atoms: C7_8  and  C8_9 
REMARK    6  A    between atoms: C8_9  and  C9_10 
REMARK    7  A    between atoms: C9_10  and  N2_11 
REMARK    8  A    between atoms: N3_14  and  C12_15 
REMARK    9  A    between atoms: C16_20  and  O1_21 
ROOT
HETATM    1  N2  UNL     1      -7.295  19.020 -19.411  1.00  0.00     0.091 N 
HETATM    2  C10 UNL     1      -6.213  19.689 -18.762  1.00  0.00     0.292 C 
HETATM    3  C11 UNL     1      -6.475  19.897 -17.291  1.00  0.00     0.153 C 
HETATM    4  N3  UNL     1      -7.681  19.279 -16.843  1.00  0.00    -0.376 N 
HETATM    5  C18 UNL     1      -8.901  19.286 -17.628  1.00  0.00     0.153 C 
HETATM    6  C19 UNL     1      -8.536  19.664 -19.045  1.00  0.00     0.292 C 
ENDROOT
BRANCH   1   7
HETATM    7  C9  UNL     1      -7.135  18.914 -20.833  1.00  0.00     0.272 C 
BRANCH   7   8
HETATM    8  C8  UNL     1      -8.321  18.325 -21.525  1.00  0.00     0.030 C 
BRANCH   8   9
HETATM    9  C7  UNL     1      -8.306  16.819 -21.601  1.00  0.00     0.002 C 
BRANCH   9  10
HETATM   10  C6  UNL     1      -9.325  16.275 -20.661  1.00  0.00     0.002 C 
BRANCH  10  11
HETATM   11  C5  UNL     1      -8.750  15.892 -19.315  1.00  0.00     0.030 C 
BRANCH  11  12
HETATM   12  C4  UNL     1      -9.672  16.182 -18.182  1.00  0.00     0.272 C 
BRANCH  12  13
HETATM   13  N1  UNL     1     -10.027  15.034 -17.396  1.00  0.00     0.093 N 
HETATM   14  C3  UNL     1      -9.603  15.103 -16.022  1.00  0.00     0.303 C 
HETATM   15  C2  UNL     1      -9.983  13.748 -15.403  1.00  0.00     0.146 C 
HETATM   16  C1  UNL     1      -9.243  12.699 -16.201  1.00  0.00     0.041 C 
HETATM   17  O2  UNL     1     -11.338  13.573 -15.379  1.00  0.00    -0.378 OA
HETATM   18  C21 UNL     1     -12.010  13.828 -16.540  1.00  0.00     0.146 C 
HETATM   19  C20 UNL     1     -11.476  14.938 -17.382  1.00  0.00     0.303 C 
HETATM   20  C22 UNL     1     -12.204  12.579 -17.394  1.00  0.00     0.041 C 
ENDBRANCH  12  13
ENDBRANCH  11  12
ENDBRANCH  10  11
ENDBRANCH   9  10
ENDBRANCH   8   9
ENDBRANCH   7   8
ENDBRANCH   1   7
BRANCH   4  21
HETATM   21  C12 UNL     1      -7.714  18.626 -15.584  1.00  0.00     0.055 A 
HETATM   22  C13 UNL     1      -8.307  19.224 -14.471  1.00  0.00     0.033 A 
HETATM   23  C14 UNL     1      -8.343  18.608 -13.238  1.00  0.00     0.029 A 
HETATM   24  C15 UNL     1      -7.787  17.363 -13.061  1.00  0.00     0.069 A 
HETATM   25 CL1  UNL     1      -7.848  16.601 -11.473  1.00  0.00    -0.081 Cl
HETATM   26  C16 UNL     1      -7.200  16.757 -14.139  1.00  0.00     0.111 A 
HETATM   27  C17 UNL     1      -7.166  17.381 -15.382  1.00  0.00     0.095 A 
HETATM   28 CL2  UNL     1      -6.410  16.551 -16.717  1.00  0.00    -0.079 Cl
BRANCH  26  29
HETATM   29  O1  UNL     1      -6.645  15.498 -13.937  1.00  0.00    -0.357 OA
ATOM     30  H1  UNL     1      -6.009  15.410 -13.237  1.00  0.00     0.217 HD
ENDBRANCH  26  29
ENDBRANCH   4  21
TORSDOF 9
ENDMDL
MODEL 4
REMARK VINA RESULT: -6.693618856      1.930      4.193
REMARK  9 active torsions:
REMARK  status: ('A' for Active; 'I' for Inactive)
REMARK    1  A    between atoms: N1_4  and  C4_5 
REMARK    2  A    between atoms: C4_5  and  C5_6 
REMARK    3  A    between atoms: C5_6  and  C6_7 
REMARK    4  A    between atoms: C6_7  and  C7_8 
REMARK    5  A    between atoms: C7_8  and  C8_9 
REMARK    6  A    between atoms: C8_9  and  C9_10 
REMARK    7  A    between atoms: C9_10  and  N2_11 
REMARK    8  A    between atoms: N3_14  and  C12_15 
REMARK    9  A    between atoms: C16_20  and  O1_21 
ROOT
HETATM    1  N2  UNL     1     -10.819  16.130 -17.468  1.00  0.00     0.091 N 
HETATM    2  C10 UNL     1     -10.325  17.203 -16.664  1.00  0.00     0.292 C 
HETATM    3  C11 UNL     1      -9.467  18.156 -17.458  1.00  0.00     0.153 C 
HETATM    4  N3  UNL     1      -9.433  17.853 -18.853  1.00  0.00    -0.376 N 
HETATM    5  C18 UNL     1      -9.360  16.495 -19.355  1.00  0.00     0.153 C 
HETATM    6  C19 UNL     1      -9.726  15.563 -18.223  1.00  0.00     0.292 C 
ENDROOT
BRANCH   1   7
HETATM    7  C9  UNL     1     -11.539  15.138 -16.721  1.00  0.00     0.272 C 
BRANCH   7   8
HETATM    8  C8  UNL     1     -11.052  13.745 -16.957  1.00  0.00     0.030 C 
BRANCH   8   9
HETATM    9  C7  UNL     1     -10.456  13.085 -15.739  1.00  0.00     0.002 C 
BRANCH   9  10
HETATM   10  C6  UNL     1      -9.016  12.803 -15.994  1.00  0.00     0.002 C 
BRANCH  10  11
HETATM   11  C5  UNL     1      -8.117  13.987 -15.707  1.00  0.00     0.030 C 
BRANCH  11  12
HETATM   12  C4  UNL     1      -8.517  14.740 -14.486  1.00  0.00     0.272 C 
BRANCH  12  13
HETATM   13  N1  UNL     1      -8.046  16.095 -14.444  1.00  0.00     0.093 N 
HETATM   14  C3  UNL     1      -7.721  16.569 -13.124  1.00  0.00     0.303 C 
HETATM   15  C2  UNL     1      -7.349  18.051 -13.296  1.00  0.00     0.146 C 
HETATM   16  C1  UNL     1      -8.567  18.725 -13.886  1.00  0.00     0.041 C 
HETATM   17  O2  UNL     1      -6.216  18.197 -14.047  1.00  0.00    -0.378 OA
HETATM   18  C21 UNL     1      -6.165  17.502 -15.221  1.00  0.00     0.146 C 
HETATM   19  C20 UNL     1      -6.824  16.164 -15.225  1.00  0.00     0.303 C 
HETATM   20  C22 UNL     1      -6.653  18.322 -16.411  1.00  0.00     0.041 C 
ENDBRANCH  12  13
ENDBRANCH  11  12
ENDBRANCH  10  11
ENDBRANCH   9  10
ENDBRANCH   8   9
ENDBRANCH   7   8
ENDBRANCH   1   7
BRANCH   4  21
HETATM   21  C12 UNL     1      -9.471  18.904 -19.805  1.00  0.00     0.055 A 
HETATM   22  C13 UNL     1     -10.459  19.890 -19.759  1.00  0.00     0.033 A 
HETATM   23  C14 UNL     1     -10.517  20.914 -20.680  1.00  0.00     0.029 A 
HETATM   24  C15 UNL     1      -9.587  21.002 -21.688  1.00  0.00     0.069 A 
HETATM   25 CL1  UNL     1      -9.687  22.324 -22.851  1.00  0.00    -0.081 Cl
HETATM   26  C16 UNL     1      -8.609  20.047 -21.753  1.00  0.00     0.111 A 
HETATM   27  C17 UNL     1      -8.553  19.014 -20.824  1.00  0.00     0.095 A 
HETATM   28 CL2  UNL     1      -7.276  17.833 -20.956  1.00  0.00    -0.079 Cl
BRANCH  26  29
HETATM   29  O1  UNL     1      -7.680  20.156 -22.782  1.00  0.00    -0.357 OA
ATOM     30  H1  UNL     1      -7.986  20.507 -23.610  1.00  0.00     0.217 HD
ENDBRANCH  26  29
ENDBRANCH   4  21
TORSDOF 9
ENDMDL
MODEL 5
REMARK VINA RESULT: -6.675293912      2.049      4.443
REMARK  9 active torsions:
REMARK  status: ('A' for Active; 'I' for Inactive)
REMARK    1  A    between atoms: N1_4  and  C4_5 
REMARK    2  A    between atoms: C4_5  and  C5_6 
REMARK    3  A    between atoms: C5_6  and  C6_7 
REMARK    4  A    between atoms: C6_7  and  C7_8 
REMARK    5  A    between atoms: C7_8  and  C8_9 
REMARK    6  A    between atoms: C8_9  and  C9_10 
REMARK    7  A    between atoms: C9_10  and  N2_11 
REMARK    8  A    between atoms: N3_14  and  C12_15 
REMARK    9  A    between atoms: C16_20  and  O1_21 
ROOT
HETATM    1  N2  UNL     1      -9.078  15.066 -15.904  1.00  0.00     0.091 N 
HETATM    2  C10 UNL     1      -8.330  14.543 -17.003  1.00  0.00     0.292 C 
HETATM    3  C11 UNL     1      -8.803  15.097 -18.324  1.00  0.00     0.153 C 
HETATM    4  N3  UNL     1      -9.803  16.106 -18.185  1.00  0.00    -0.376 N 
HETATM    5  C18 UNL     1     -10.872  16.017 -17.208  1.00  0.00     0.153 C 
HETATM    6  C19 UNL     1     -10.489  14.961 -16.198  1.00  0.00     0.292 C 
ENDROOT
BRANCH   1   7
HETATM    7  C9  UNL     1      -8.737  14.470 -14.643  1.00  0.00     0.272 C 
BRANCH   7   8
HETATM    8  C8  UNL     1      -7.587  15.136 -13.960  1.00  0.00     0.030 C 
BRANCH   8   9
HETATM    9  C7  UNL     1      -7.975  16.318 -13.108  1.00  0.00     0.002 C 
BRANCH   9  10
HETATM   10  C6  UNL     1      -6.962  17.396 -13.281  1.00  0.00     0.002 C 
BRANCH  10  11
HETATM   11  C5  UNL     1      -7.575  18.756 -13.533  1.00  0.00     0.030 C 
BRANCH  11  12
HETATM   12  C4  UNL     1      -8.177  18.882 -14.889  1.00  0.00     0.272 C 
BRANCH  12  13
HETATM   13  N1  UNL     1      -7.241  18.741 -15.969  1.00  0.00     0.093 N 
HETATM   14  C3  UNL     1      -7.163  17.411 -16.515  1.00  0.00     0.303 C 
HETATM   15  C2  UNL     1      -6.042  17.460 -17.566  1.00  0.00     0.146 C 
HETATM   16  C1  UNL     1      -4.790  17.873 -16.827  1.00  0.00     0.041 C 
HETATM   17  O2  UNL     1      -6.369  18.284 -18.606  1.00  0.00    -0.378 OA
HETATM   18  C21 UNL     1      -6.841  19.524 -18.281  1.00  0.00     0.146 C 
HETATM   19  C20 UNL     1      -7.675  19.611 -17.048  1.00  0.00     0.303 C 
HETATM   20  C22 UNL     1      -5.739  20.578 -18.235  1.00  0.00     0.041 C 
ENDBRANCH  12  13
ENDBRANCH  11  12
ENDBRANCH  10  11
ENDBRANCH   9  10
ENDBRANCH   8   9
ENDBRANCH   7   8
ENDBRANCH   1   7
BRANCH   4  21
HETATM   21  C12 UNL     1      -9.772  17.252 -19.021  1.00  0.00     0.055 A 
HETATM   22  C13 UNL     1     -10.356  18.456 -18.625  1.00  0.00     0.033 A 
HETATM   23  C14 UNL     1     -10.341  19.577 -19.428  1.00  0.00     0.029 A 
HETATM   24  C15 UNL     1      -9.742  19.546 -20.664  1.00  0.00     0.069 A 
HETATM   25 CL1  UNL     1      -9.740  20.995 -21.667  1.00  0.00    -0.081 Cl
HETATM   26  C16 UNL     1      -9.163  18.375 -21.073  1.00  0.00     0.111 A 
HETATM   27  C17 UNL     1      -9.179  17.245 -20.262  1.00  0.00     0.095 A 
HETATM   28 CL2  UNL     1      -8.415  15.786 -20.839  1.00  0.00    -0.079 Cl
BRANCH  26  29
HETATM   29  O1  UNL     1      -8.561  18.366 -22.327  1.00  0.00    -0.357 OA
ATOM     30  H1  UNL     1      -7.612  18.361 -22.355  1.00  0.00     0.217 HD
ENDBRANCH  26  29
ENDBRANCH   4  21
TORSDOF 9
ENDMDL
