MODEL 1
REMARK VINA RESULT: -5.276849142      0.000      0.000
REMARK  8 active torsions:
REMARK  status: ('A' for Active; 'I' for Inactive)
REMARK    1  A    between atoms: C2_2  and  C4_4 
REMARK    2  A    between atoms: C4_4  and  C5_5 
REMARK    3  A    between atoms: C5_5  and  O1_6 
REMARK    4  A    between atoms: O1_6  and  C6_7 
REMARK    5  A    between atoms: C7_8  and  C8_9 
REMARK    6  A    between atoms: C8_9  and  N1_10 
REMARK    7  A    between atoms: C11_13  and  N2_14 
REMARK    8  A    between atoms: C15_18  and  C16_19 
ROOT
HETATM    1  N1  UNL     1      -6.786  17.070 -17.391  1.00  0.00    -0.406 N 
HETATM    2  C9  UNL     1      -6.210  18.465 -17.393  1.00  0.00     0.119 C 
HETATM    3  C10 UNL     1      -6.265  18.913 -18.832  1.00  0.00     0.044 C 
HETATM    4  C11 UNL     1      -7.676  18.796 -19.357  1.00  0.00     0.082 C 
HETATM    5  C18 UNL     1      -8.561  18.458 -18.199  1.00  0.00     0.044 C 
HETATM    6  C19 UNL     1      -8.124  17.075 -17.663  1.00  0.00     0.119 C 
ENDROOT
BRANCH   1   7
HETATM    7  C8  UNL     1      -6.089  16.388 -16.352  1.00  0.00     0.185 C 
BRANCH   7   8
HETATM    8  C7  UNL     1      -6.606  16.683 -14.986  1.00  0.00     0.107 A 
HETATM    9  C6  UNL     1      -7.233  15.886 -14.126  1.00  0.00     0.125 A 
HETATM   10  C21 UNL     1      -7.600  16.661 -13.006  1.00  0.00     0.115 A 
HETATM   11  C20 UNL     1      -7.120  17.903 -13.316  1.00  0.00     0.169 A 
HETATM   12 CL2  UNL     1      -8.539  16.079 -11.657  1.00  0.00    -0.077 Cl
HETATM   13  O4  UNL     1      -6.544  17.876 -14.473  1.00  0.00    -0.296 OA
HETATM   14 CL1  UNL     1      -7.260  19.344 -12.294  1.00  0.00    -0.054 Cl
BRANCH   9  15
HETATM   15  O1  UNL     1      -7.576  14.513 -14.137  1.00  0.00    -0.347 OA
BRANCH  15  16
HETATM   16  C5  UNL     1      -8.413  13.960 -15.060  1.00  0.00     0.176 C 
BRANCH  16  17
HETATM   17  C4  UNL     1      -9.505  14.777 -15.597  1.00  0.00     0.030 C 
BRANCH  17  18
HETATM   18  C2  UNL     1     -10.332  13.982 -16.625  1.00  0.00    -0.021 C 
HETATM   19  C1  UNL     1     -10.678  12.605 -16.241  1.00  0.00     0.009 C 
HETATM   20  C3  UNL     1     -11.638  14.771 -16.857  1.00  0.00     0.009 C 
ENDBRANCH  17  18
ENDBRANCH  16  17
ENDBRANCH  15  16
ENDBRANCH   9  15
ENDBRANCH   7   8
ENDBRANCH   1   7
BRANCH   4  21
HETATM   21  N2  UNL     1      -8.056  19.862 -20.202  1.00  0.00    -0.407 N 
HETATM   22  C12 UNL     1      -7.114  20.289 -21.177  1.00  0.00     0.117 C 
HETATM   23  C13 UNL     1      -7.450  19.944 -22.579  1.00  0.00     0.020 C 
HETATM   24  C14 UNL     1      -8.850  19.584 -22.872  1.00  0.00     0.019 C 
HETATM   25  C15 UNL     1      -9.868  20.081 -21.879  1.00  0.00     0.104 C 
HETATM   26  C17 UNL     1      -9.438  20.050 -20.468  1.00  0.00     0.132 C 
BRANCH  25  27
HETATM   27  C16 UNL     1     -10.446  21.393 -22.317  1.00  0.00     0.178 C 
HETATM   28  O2  UNL     1     -10.277  22.426 -21.639  1.00  0.00    -0.648 OA
HETATM   29  O3  UNL     1     -11.185  21.503 -23.481  1.00  0.00    -0.648 OA
ENDBRANCH  25  27
ENDBRANCH   4  21
TORSDOF 8
ENDMDL
MODEL 2
REMARK VINA RESULT: -5.271864448      0.936      1.607
REMARK  8 active torsions:
REMARK  status: ('A' for Active; 'I' for Inactive)
REMARK    1  A    between atoms: C2_2  and  C4_4 
REMARK    2  A    between atoms: C4_4  and  C5_5 
REMARK    3  A    between atoms: C5_5  and  O1_6 
REMARK    4  A    between atoms: O1_6  and  C6_7 
REMARK    5  A    between atoms: C7_8  and  C8_9 
REMARK    6  A    between atoms: C8_9  and  N1_10 
REMARK    7  A    between atoms: C11_13  and  N2_14 
REMARK    8  A    between atoms: C15_18  and  C16_19 
ROOT
HETATM    1  N1  UNL     1      -6.706  16.732 -17.532  1.00  0.00    -0.406 N 
HETATM    2  C9  UNL     1      -7.094  18.188 -17.444  1.00  0.00     0.119 C 
HETATM    3  C10 UNL     1      -7.278  18.635 -18.872  1.00  0.00     0.044 C 
HETATM    4  C11 UNL     1      -8.276  17.741 -19.571  1.00  0.00     0.082 C 
HETATM    5  C18 UNL     1      -8.877  16.843 -18.537  1.00  0.00     0.044 C 
HETATM    6  C19 UNL     1      -7.743  15.958 -17.969  1.00  0.00     0.119 C 
ENDROOT
BRANCH   1   7
HETATM    7  C8  UNL     1      -5.837  16.518 -16.424  1.00  0.00     0.185 C 
BRANCH   7   8
HETATM    8  C7  UNL     1      -6.461  16.814 -15.104  1.00  0.00     0.107 A 
HETATM    9  C6  UNL     1      -7.104  16.003 -14.269  1.00  0.00     0.125 A 
HETATM   10  C21 UNL     1      -7.587  16.780 -13.195  1.00  0.00     0.115 A 
HETATM   11  C20 UNL     1      -7.152  18.039 -13.503  1.00  0.00     0.169 A 
HETATM   12 CL2  UNL     1      -8.585  16.177 -11.898  1.00  0.00    -0.077 Cl
HETATM   13  O4  UNL     1      -6.498  18.019 -14.618  1.00  0.00    -0.296 OA
HETATM   14 CL1  UNL     1      -7.437  19.492 -12.529  1.00  0.00    -0.054 Cl
BRANCH   9  15
HETATM   15  O1  UNL     1      -7.373  14.613 -14.268  1.00  0.00    -0.347 OA
BRANCH  15  16
HETATM   16  C5  UNL     1      -8.249  14.022 -15.130  1.00  0.00     0.176 C 
BRANCH  16  17
HETATM   17  C4  UNL     1      -9.541  14.670 -15.373  1.00  0.00     0.030 C 
BRANCH  17  18
HETATM   18  C2  UNL     1     -10.297  13.976 -16.520  1.00  0.00    -0.021 C 
HETATM   19  C1  UNL     1     -10.723  12.592 -16.261  1.00  0.00     0.009 C 
HETATM   20  C3  UNL     1     -11.550  14.829 -16.813  1.00  0.00     0.009 C 
ENDBRANCH  17  18
ENDBRANCH  16  17
ENDBRANCH  15  16
ENDBRANCH   9  15
ENDBRANCH   7   8
ENDBRANCH   1   7
BRANCH   4  21
HETATM   21  N2  UNL     1      -9.144  18.435 -20.442  1.00  0.00    -0.407 N 
HETATM   22  C12 UNL     1     -10.527  18.445 -20.114  1.00  0.00     0.117 C 
HETATM   23  C13 UNL     1     -11.057  19.745 -19.636  1.00  0.00     0.020 C 
HETATM   24  C14 UNL     1     -10.259  20.951 -19.925  1.00  0.00     0.019 C 
HETATM   25  C15 UNL     1      -9.292  20.827 -21.074  1.00  0.00     0.104 C 
HETATM   26  C17 UNL     1      -8.618  19.520 -21.192  1.00  0.00     0.132 C 
BRANCH  25  27
HETATM   27  C16 UNL     1      -9.911  21.317 -22.348  1.00  0.00     0.178 C 
HETATM   28  O2  UNL     1     -10.763  20.635 -22.951  1.00  0.00    -0.648 OA
HETATM   29  O3  UNL     1      -9.558  22.537 -22.899  1.00  0.00    -0.648 OA
ENDBRANCH  25  27
ENDBRANCH   4  21
TORSDOF 8
ENDMDL
MODEL 3
REMARK VINA RESULT: -5.154085660      3.412      7.872
REMARK  8 active torsions:
REMARK  status: ('A' for Active; 'I' for Inactive)
REMARK    1  A    between atoms: C2_2  and  C4_4 
REMARK    2  A    between atoms: C4_4  and  C5_5 
REMARK    3  A    between atoms: C5_5  and  O1_6 
REMARK    4  A    between atoms: O1_6  and  C6_7 
REMARK    5  A    between atoms: C7_8  and  C8_9 
REMARK    6  A    between atoms: C8_9  and  N1_10 
REMARK    7  A    between atoms: C11_13  and  N2_14 
REMARK    8  A    between atoms: C15_18  and  C16_19 
ROOT
HETATM    1  N1  UNL     1      -9.425  16.332 -19.626  1.00  0.00    -0.406 N 
HETATM    2  C9  UNL     1      -9.673  17.583 -18.820  1.00  0.00     0.119 C 
HETATM    3  C10 UNL     1     -10.236  17.102 -17.506  1.00  0.00     0.044 C 
HETATM    4  C11 UNL     1      -9.297  16.102 -16.875  1.00  0.00     0.082 C 
HETATM    5  C18 UNL     1      -8.041  16.088 -17.688  1.00  0.00     0.044 C 
HETATM    6  C19 UNL     1      -8.406  15.588 -19.106  1.00  0.00     0.119 C 
ENDROOT
BRANCH   1   7
HETATM    7  C8  UNL     1      -9.647  16.720 -20.979  1.00  0.00     0.185 C 
BRANCH   7   8
HETATM    8  C7  UNL     1      -9.174  18.096 -21.296  1.00  0.00     0.107 A 
HETATM    9  C6  UNL     1      -7.946  18.604 -21.244  1.00  0.00     0.125 A 
HETATM   10  C21 UNL     1      -8.031  19.978 -21.551  1.00  0.00     0.115 A 
HETATM   11  C20 UNL     1      -9.366  20.162 -21.781  1.00  0.00     0.169 A 
HETATM   12 CL2  UNL     1      -6.692  21.094 -21.507  1.00  0.00    -0.077 Cl
HETATM   13  O4  UNL     1      -9.998  19.045 -21.628  1.00  0.00    -0.296 OA
HETATM   14 CL1  UNL     1     -10.131  21.699 -22.224  1.00  0.00    -0.054 Cl
BRANCH   9  15
HETATM   15  O1  UNL     1      -6.673  18.057 -20.953  1.00  0.00    -0.347 OA
BRANCH  15  16
HETATM   16  C5  UNL     1      -6.080  18.157 -19.729  1.00  0.00     0.176 C 
BRANCH  16  17
HETATM   17  C4  UNL     1      -5.797  19.491 -19.192  1.00  0.00     0.030 C 
BRANCH  17  18
HETATM   18  C2  UNL     1      -6.140  19.564 -17.692  1.00  0.00    -0.021 C 
HETATM   19  C1  UNL     1      -7.560  19.778 -17.370  1.00  0.00     0.009 C 
HETATM   20  C3  UNL     1      -5.690  18.228 -17.064  1.00  0.00     0.009 C 
ENDBRANCH  17  18
ENDBRANCH  16  17
ENDBRANCH  15  16
ENDBRANCH   9  15
ENDBRANCH   7   8
ENDBRANCH   1   7
BRANCH   4  21
HETATM   21  N2  UNL     1      -9.187  16.235 -15.474  1.00  0.00    -0.407 N 
HETATM   22  C12 UNL     1      -8.984  15.047 -14.720  1.00  0.00     0.117 C 
HETATM   23  C13 UNL     1      -7.629  14.889 -14.137  1.00  0.00     0.020 C 
HETATM   24  C14 UNL     1      -6.789  16.097 -14.035  1.00  0.00     0.019 C 
HETATM   25  C15 UNL     1      -7.533  17.407 -14.046  1.00  0.00     0.104 C 
HETATM   26  C17 UNL     1      -8.698  17.461 -14.951  1.00  0.00     0.132 C 
BRANCH  25  27
HETATM   27  C16 UNL     1      -7.817  17.872 -12.651  1.00  0.00     0.178 C 
HETATM   28  O2  UNL     1      -7.931  19.087 -12.389  1.00  0.00    -0.648 OA
HETATM   29  O3  UNL     1      -7.960  16.976 -11.606  1.00  0.00    -0.648 OA
ENDBRANCH  25  27
ENDBRANCH   4  21
TORSDOF 8
ENDMDL
MODEL 4
REMARK VINA RESULT: -4.395135970      1.665      3.876
REMARK  8 active torsions:
REMARK  status: ('A' for Active; 'I' for Inactive)
REMARK    1  A    between atoms: C2_2  and  C4_4 
REMARK    2  A    between atoms: C4_4  and  C5_5 
REMARK    3  A    between atoms: C5_5  and  O1_6 
REMARK    4  A    between atoms: O1_6  and  C6_7 
REMARK    5  A    between atoms: C7_8  and  C8_9 
REMARK    6  A    between atoms: C8_9  and  N1_10 
REMARK    7  A    between atoms: C11_13  and  N2_14 
REMARK    8  A    between atoms: C15_18  and  C16_19 
ROOT
HETATM    1  N1  UNL     1      -8.581  15.543 -16.559  1.00  0.00    -0.406 N 
HETATM    2  C9  UNL     1     -10.004  16.013 -16.735  1.00  0.00     0.119 C 
HETATM    3  C10 UNL     1      -9.901  17.304 -17.508  1.00  0.00     0.044 C 
HETATM    4  C11 UNL     1      -9.131  17.080 -18.789  1.00  0.00     0.082 C 
HETATM    5  C18 UNL     1      -8.909  15.607 -18.929  1.00  0.00     0.044 C 
HETATM    6  C19 UNL     1      -8.027  15.150 -17.744  1.00  0.00     0.119 C 
ENDROOT
BRANCH   1   7
HETATM    7  C8  UNL     1      -8.571  14.870 -15.303  1.00  0.00     0.185 C 
BRANCH   7   8
HETATM    8  C7  UNL     1      -8.150  15.731 -14.163  1.00  0.00     0.107 A 
HETATM    9  C6  UNL     1      -8.050  17.055 -14.091  1.00  0.00     0.125 A 
HETATM   10  C21 UNL     1      -7.519  17.383 -12.826  1.00  0.00     0.115 A 
HETATM   11  C20 UNL     1      -7.359  16.162 -12.231  1.00  0.00     0.169 A 
HETATM   12 CL2  UNL     1      -7.108  18.995 -12.305  1.00  0.00    -0.077 Cl
HETATM   13  O4  UNL     1      -7.739  15.226 -13.037  1.00  0.00    -0.296 OA
HETATM   14 CL1  UNL     1      -6.722  15.888 -10.600  1.00  0.00    -0.054 Cl
BRANCH   9  15
HETATM   15  O1  UNL     1      -8.351  18.108 -14.987  1.00  0.00    -0.347 OA
BRANCH  15  16
HETATM   16  C5  UNL     1      -7.397  18.890 -15.569  1.00  0.00     0.176 C 
BRANCH  16  17
HETATM   17  C4  UNL     1      -7.635  19.401 -16.921  1.00  0.00     0.030 C 
BRANCH  17  18
HETATM   18  C2  UNL     1      -6.599  18.837 -17.912  1.00  0.00    -0.021 C 
HETATM   19  C1  UNL     1      -5.848  19.835 -18.688  1.00  0.00     0.009 C 
HETATM   20  C3  UNL     1      -5.598  18.002 -17.087  1.00  0.00     0.009 C 
ENDBRANCH  17  18
ENDBRANCH  16  17
ENDBRANCH  15  16
ENDBRANCH   9  15
ENDBRANCH   7   8
ENDBRANCH   1   7
BRANCH   4  21
HETATM   21  N2  UNL     1      -9.652  17.788 -19.894  1.00  0.00    -0.407 N 
HETATM   22  C12 UNL     1     -10.936  18.379 -19.743  1.00  0.00     0.117 C 
HETATM   23  C13 UNL     1     -10.946  19.858 -19.645  1.00  0.00     0.020 C 
HETATM   24  C14 UNL     1      -9.745  20.578 -20.109  1.00  0.00     0.019 C 
HETATM   25  C15 UNL     1      -8.871  19.822 -21.076  1.00  0.00     0.104 C 
HETATM   26  C17 UNL     1      -8.739  18.376 -20.807  1.00  0.00     0.132 C 
BRANCH  25  27
HETATM   27  C16 UNL     1      -9.230  20.153 -22.492  1.00  0.00     0.178 C 
HETATM   28  O2  UNL     1      -8.855  19.428 -23.436  1.00  0.00    -0.648 OA
HETATM   29  O3  UNL     1      -9.984  21.271 -22.804  1.00  0.00    -0.648 OA
ENDBRANCH  25  27
ENDBRANCH   4  21
TORSDOF 8
ENDMDL
MODEL 5
REMARK VINA RESULT: -4.314931023      0.578      1.220
REMARK  8 active torsions:
REMARK  status: ('A' for Active; 'I' for Inactive)
REMARK    1  A    between atoms: C2_2  and  C4_4 
REMARK    2  A    between atoms: C4_4  and  C5_5 
REMARK    3  A    between atoms: C5_5  and  O1_6 
REMARK    4  A    between atoms: O1_6  and  C6_7 
REMARK    5  A    between atoms: C7_8  and  C8_9 
REMARK    6  A    between atoms: C8_9  and  N1_10 
REMARK    7  A    between atoms: C11_13  and  N2_14 
REMARK    8  A    between atoms: C15_18  and  C16_19 
ROOT
HETATM    1  N1  UNL     1      -6.559  17.579 -17.255  1.00  0.00    -0.406 N 
HETATM    2  C9  UNL     1      -7.623  17.170 -18.244  1.00  0.00     0.119 C 
HETATM    3  C10 UNL     1      -8.333  18.449 -18.613  1.00  0.00     0.044 C 
HETATM    4  C11 UNL     1      -7.337  19.467 -19.117  1.00  0.00     0.082 C 
HETATM    5  C18 UNL     1      -6.018  18.776 -19.256  1.00  0.00     0.044 C 
HETATM    6  C19 UNL     1      -5.576  18.320 -17.846  1.00  0.00     0.119 C 
ENDROOT
BRANCH   1   7
HETATM    7  C8  UNL     1      -6.431  16.466 -16.375  1.00  0.00     0.185 C 
BRANCH   7   8
HETATM    8  C7  UNL     1      -6.863  16.750 -14.978  1.00  0.00     0.107 A 
HETATM    9  C6  UNL     1      -7.342  15.923 -14.053  1.00  0.00     0.125 A 
HETATM   10  C21 UNL     1      -7.690  16.692 -12.923  1.00  0.00     0.115 A 
HETATM   11  C20 UNL     1      -7.355  17.963 -13.297  1.00  0.00     0.169 A 
HETATM   12 CL2  UNL     1      -8.460  16.064 -11.490  1.00  0.00    -0.077 Cl
HETATM   13  O4  UNL     1      -6.874  17.958 -14.496  1.00  0.00    -0.296 OA
HETATM   14 CL1  UNL     1      -7.549  19.414 -12.297  1.00  0.00    -0.054 Cl
BRANCH   9  15
HETATM   15  O1  UNL     1      -7.553  14.525 -14.007  1.00  0.00    -0.347 OA
BRANCH  15  16
HETATM   16  C5  UNL     1      -8.647  13.917 -14.551  1.00  0.00     0.176 C 
BRANCH  16  17
HETATM   17  C4  UNL     1      -8.608  13.536 -15.965  1.00  0.00     0.030 C 
BRANCH  17  18
HETATM   18  C2  UNL     1      -9.934  13.888 -16.665  1.00  0.00    -0.021 C 
HETATM   19  C1  UNL     1     -11.096  13.070 -16.285  1.00  0.00     0.009 C 
HETATM   20  C3  UNL     1     -10.241  15.363 -16.330  1.00  0.00     0.009 C 
ENDBRANCH  17  18
ENDBRANCH  16  17
ENDBRANCH  15  16
ENDBRANCH   9  15
ENDBRANCH   7   8
ENDBRANCH   1   7
BRANCH   4  21
HETATM   21  N2  UNL     1      -7.812  20.231 -20.206  1.00  0.00    -0.407 N 
HETATM   22  C12 UNL     1      -7.008  20.266 -21.378  1.00  0.00     0.117 C 
HETATM   23  C13 UNL     1      -7.544  19.515 -22.539  1.00  0.00     0.020 C 
HETATM   24  C14 UNL     1      -8.978  19.170 -22.520  1.00  0.00     0.019 C 
HETATM   25  C15 UNL     1      -9.837  20.019 -21.619  1.00  0.00     0.104 C 
HETATM   26  C17 UNL     1      -9.213  20.411 -20.340  1.00  0.00     0.132 C 
BRANCH  25  27
HETATM   27  C16 UNL     1     -10.446  21.157 -22.380  1.00  0.00     0.178 C 
HETATM   28  O2  UNL     1     -11.232  20.950 -23.326  1.00  0.00    -0.648 OA
HETATM   29  O3  UNL     1     -10.157  22.474 -22.064  1.00  0.00    -0.648 OA
ENDBRANCH  25  27
ENDBRANCH   4  21
TORSDOF 8
ENDMDL
