MODEL 1
REMARK VINA RESULT: -8.224344263      0.000      0.000
REMARK  11 active torsions:
REMARK  status: ('A' for Active; 'I' for Inactive)
REMARK    1  A    between atoms: C2_2  and  C3_3 
REMARK    2  A    between atoms: C4_4  and  O1_5 
REMARK    3  A    between atoms: C6_8  and  O2_9 
REMARK    4  A    between atoms: O2_9  and  C7_10 
REMARK    5  A    between atoms: C7_10  and  C8_11 
REMARK    6  A    between atoms: C8_11  and  N1_12 
REMARK    7  A    between atoms: N1_12  and  C10_14 
REMARK    8  A    between atoms: C10_14  and  C11_15 
REMARK    9  A    between atoms: C11_15  and  O4_17 
REMARK   10  A    between atoms: O4_17  and  C12_18 
REMARK   11  A    between atoms: C21_28  and  C22_29 
ROOT
HETATM    1  C7  UNL     1      -9.625  13.076 -16.352  1.00  0.00     0.220 C 
ENDROOT
BRANCH   1   2
HETATM    2  O2  UNL     1      -8.557  13.322 -15.518  1.00  0.00    -0.346 OA
BRANCH   2   3
HETATM    3  C6  UNL     1      -8.072  14.505 -15.027  1.00  0.00     0.072 A 
HETATM    4  C5  UNL     1      -8.025  14.761 -13.685  1.00  0.00     0.073 A 
HETATM    5  C4  UNL     1      -7.523  15.989 -13.267  1.00  0.00     0.075 A 
HETATM    6  C3  UNL     1      -7.066  16.958 -14.185  1.00  0.00    -0.016 A 
HETATM    7  C21 UNL     1      -7.108  16.711 -15.524  1.00  0.00    -0.008 A 
HETATM    8  C20 UNL     1      -7.617  15.473 -15.906  1.00  0.00     0.048 A 
BRANCH   5   9
HETATM    9  O1  UNL     1      -7.489  16.214 -11.899  1.00  0.00    -0.360 OA
ATOM     10  H1  UNL     1      -8.007  15.693 -11.298  1.00  0.00     0.217 HD
ENDBRANCH   5   9
BRANCH   6  11
HETATM   11  C2  UNL     1      -6.540  18.199 -13.650  1.00  0.00     0.037 C 
HETATM   12  C1  UNL     1      -7.611  19.144 -13.134  1.00  0.00     0.010 C 
ENDBRANCH   6  11
BRANCH   7  13
HETATM   13  C22 UNL     1      -6.679  17.679 -16.512  1.00  0.00     0.124 C 
HETATM   14  C23 UNL     1      -7.277  19.026 -16.555  1.00  0.00     0.057 C 
HETATM   15  C24 UNL     1      -5.137  17.756 -16.611  1.00  0.00     0.057 C 
HETATM   16  F1  UNL     1      -7.013  17.130 -17.776  1.00  0.00    -0.238 F 
ENDBRANCH   7  13
ENDBRANCH   2   3
ENDBRANCH   1   2
BRANCH   1  17
HETATM   17  C8  UNL     1     -10.892  13.766 -15.973  1.00  0.00     0.089 C 
BRANCH  17  18
HETATM   18  N1  UNL     1     -11.319  14.796 -16.804  1.00  0.00    -0.367 N 
HETATM   19  C9  UNL     1     -12.660  15.168 -16.898  1.00  0.00     0.154 C 
BRANCH  18  20
HETATM   20  C10 UNL     1     -10.473  15.406 -17.738  1.00  0.00     0.172 C 
BRANCH  20  21
HETATM   21  C11 UNL     1     -10.243  16.839 -17.529  1.00  0.00     0.299 C 
HETATM   22  O3  UNL     1     -10.345  17.349 -16.417  1.00  0.00    -0.259 OA
BRANCH  21  23
HETATM   23  O4  UNL     1      -9.903  17.778 -18.450  1.00  0.00    -0.310 OA
BRANCH  23  24
HETATM   24  C12 UNL     1     -10.083  17.918 -19.760  1.00  0.00     0.155 C 
HETATM   25  C13 UNL     1      -9.770  19.418 -19.990  1.00  0.00     0.017 C 
HETATM   26  C14 UNL     1      -9.749  19.771 -21.429  1.00  0.00     0.012 C 
HETATM   27  C18 UNL     1      -8.259  19.275 -19.703  1.00  0.00     0.014 C 
HETATM   28  C15 UNL     1      -8.374  19.345 -21.985  1.00  0.00    -0.013 C 
HETATM   29  C16 UNL     1      -7.400  20.462 -22.016  1.00  0.00     0.010 C 
HETATM   30  C17 UNL     1      -8.042  18.315 -20.890  1.00  0.00     0.011 C 
HETATM   31  C19 UNL     1      -9.195  17.371 -20.792  1.00  0.00     0.116 C 
HETATM   32 CL1  UNL     1      -8.752  15.681 -20.704  1.00  0.00    -0.122 Cl
ENDBRANCH  23  24
ENDBRANCH  21  23
ENDBRANCH  20  21
ENDBRANCH  18  20
ENDBRANCH  17  18
ENDBRANCH   1  17
TORSDOF 11
ENDMDL
MODEL 2
REMARK VINA RESULT: -6.847999610      2.088      5.789
REMARK  11 active torsions:
REMARK  status: ('A' for Active; 'I' for Inactive)
REMARK    1  A    between atoms: C2_2  and  C3_3 
REMARK    2  A    between atoms: C4_4  and  O1_5 
REMARK    3  A    between atoms: C6_8  and  O2_9 
REMARK    4  A    between atoms: O2_9  and  C7_10 
REMARK    5  A    between atoms: C7_10  and  C8_11 
REMARK    6  A    between atoms: C8_11  and  N1_12 
REMARK    7  A    between atoms: N1_12  and  C10_14 
REMARK    8  A    between atoms: C10_14  and  C11_15 
REMARK    9  A    between atoms: C11_15  and  O4_17 
REMARK   10  A    between atoms: O4_17  and  C12_18 
REMARK   11  A    between atoms: C21_28  and  C22_29 
ROOT
HETATM    1  C7  UNL     1      -7.754  19.165 -13.970  1.00  0.00     0.220 C 
ENDROOT
BRANCH   1   2
HETATM    2  O2  UNL     1      -8.525  19.018 -15.102  1.00  0.00    -0.346 OA
BRANCH   2   3
HETATM    3  C6  UNL     1      -8.162  18.982 -16.422  1.00  0.00     0.072 A 
HETATM    4  C5  UNL     1      -6.867  18.773 -16.806  1.00  0.00     0.073 A 
HETATM    5  C4  UNL     1      -6.579  18.756 -18.167  1.00  0.00     0.075 A 
HETATM    6  C3  UNL     1      -7.580  18.947 -19.143  1.00  0.00    -0.016 A 
HETATM    7  C21 UNL     1      -8.873  19.155 -18.769  1.00  0.00    -0.008 A 
HETATM    8  C20 UNL     1      -9.125  19.166 -17.400  1.00  0.00     0.048 A 
BRANCH   5   9
HETATM    9  O1  UNL     1      -5.255  18.540 -18.520  1.00  0.00    -0.360 OA
ATOM     10  H1  UNL     1      -4.604  19.227 -18.447  1.00  0.00     0.217 HD
ENDBRANCH   5   9
BRANCH   6  11
HETATM   11  C2  UNL     1      -7.184  18.891 -20.537  1.00  0.00     0.037 C 
HETATM   12  C1  UNL     1      -6.567  20.180 -21.047  1.00  0.00     0.010 C 
ENDBRANCH   6  11
BRANCH   7  13
HETATM   13  C22 UNL     1      -9.937  19.384 -19.724  1.00  0.00     0.124 C 
HETATM   14  C23 UNL     1     -10.157  20.724 -20.299  1.00  0.00     0.057 C 
HETATM   15  C24 UNL     1      -9.962  18.300 -20.829  1.00  0.00     0.057 C 
HETATM   16  F1  UNL     1     -11.150  19.115 -19.041  1.00  0.00    -0.238 F 
ENDBRANCH   7  13
ENDBRANCH   2   3
ENDBRANCH   1   2
BRANCH   1  17
HETATM   17  C8  UNL     1      -7.934  18.100 -12.942  1.00  0.00     0.089 C 
BRANCH  17  18
HETATM   18  N1  UNL     1      -7.517  16.818 -13.286  1.00  0.00    -0.367 N 
HETATM   19  C9  UNL     1      -8.005  15.681 -12.643  1.00  0.00     0.154 C 
BRANCH  18  20
HETATM   20  C10 UNL     1      -6.451  16.586 -14.163  1.00  0.00     0.172 C 
BRANCH  20  21
HETATM   21  C11 UNL     1      -6.722  15.622 -15.233  1.00  0.00     0.299 C 
HETATM   22  O3  UNL     1      -6.021  14.626 -15.391  1.00  0.00    -0.259 OA
BRANCH  21  23
HETATM   23  O4  UNL     1      -7.712  15.654 -16.163  1.00  0.00    -0.310 OA
BRANCH  23  24
HETATM   24  C12 UNL     1      -8.458  14.738 -16.773  1.00  0.00     0.155 C 
HETATM   25  C13 UNL     1      -9.662  14.580 -15.810  1.00  0.00     0.017 C 
HETATM   26  C14 UNL     1     -10.721  13.711 -16.375  1.00  0.00     0.012 C 
HETATM   27  C18 UNL     1     -10.243  15.980 -16.108  1.00  0.00     0.014 C 
HETATM   28  C15 UNL     1     -11.548  14.573 -17.351  1.00  0.00    -0.013 C 
HETATM   29  C16 UNL     1     -12.771  15.130 -16.726  1.00  0.00     0.010 C 
HETATM   30  C17 UNL     1     -10.479  15.654 -17.596  1.00  0.00     0.011 C 
HETATM   31  C19 UNL     1      -9.221  14.961 -18.006  1.00  0.00     0.116 C 
HETATM   32 CL1  UNL     1      -8.404  15.678 -19.377  1.00  0.00    -0.122 Cl
ENDBRANCH  23  24
ENDBRANCH  21  23
ENDBRANCH  20  21
ENDBRANCH  18  20
ENDBRANCH  17  18
ENDBRANCH   1  17
TORSDOF 11
ENDMDL
MODEL 3
REMARK VINA RESULT: -6.772358160      2.360      6.574
REMARK  11 active torsions:
REMARK  status: ('A' for Active; 'I' for Inactive)
REMARK    1  A    between atoms: C2_2  and  C3_3 
REMARK    2  A    between atoms: C4_4  and  O1_5 
REMARK    3  A    between atoms: C6_8  and  O2_9 
REMARK    4  A    between atoms: O2_9  and  C7_10 
REMARK    5  A    between atoms: C7_10  and  C8_11 
REMARK    6  A    between atoms: C8_11  and  N1_12 
REMARK    7  A    between atoms: N1_12  and  C10_14 
REMARK    8  A    between atoms: C10_14  and  C11_15 
REMARK    9  A    between atoms: C11_15  and  O4_17 
REMARK   10  A    between atoms: O4_17  and  C12_18 
REMARK   11  A    between atoms: C21_28  and  C22_29 
ROOT
HETATM    1  C7  UNL     1      -6.460  18.504 -15.334  1.00  0.00     0.220 C 
ENDROOT
BRANCH   1   2
HETATM    2  O2  UNL     1      -6.173  17.930 -16.552  1.00  0.00    -0.346 OA
BRANCH   2   3
HETATM    3  C6  UNL     1      -6.443  18.367 -17.822  1.00  0.00     0.072 A 
HETATM    4  C5  UNL     1      -5.810  19.453 -18.359  1.00  0.00     0.073 A 
HETATM    5  C4  UNL     1      -6.144  19.837 -19.653  1.00  0.00     0.075 A 
HETATM    6  C3  UNL     1      -7.108  19.138 -20.411  1.00  0.00    -0.016 A 
HETATM    7  C21 UNL     1      -7.744  18.055 -19.886  1.00  0.00    -0.008 A 
HETATM    8  C20 UNL     1      -7.384  17.699 -18.588  1.00  0.00     0.048 A 
BRANCH   5   9
HETATM    9  O1  UNL     1      -5.482  20.942 -20.166  1.00  0.00    -0.360 OA
ATOM     10  H1  UNL     1      -5.561  21.798 -19.763  1.00  0.00     0.217 HD
ENDBRANCH   5   9
BRANCH   6  11
HETATM   11  C2  UNL     1      -7.372  19.603 -21.760  1.00  0.00     0.037 C 
HETATM   12  C1  UNL     1      -8.424  20.695 -21.833  1.00  0.00     0.010 C 
ENDBRANCH   6  11
BRANCH   7  13
HETATM   13  C22 UNL     1      -8.760  17.316 -20.606  1.00  0.00     0.124 C 
HETATM   14  C23 UNL     1      -8.900  15.860 -20.427  1.00  0.00     0.057 C 
HETATM   15  C24 UNL     1     -10.139  18.016 -20.533  1.00  0.00     0.057 C 
HETATM   16  F1  UNL     1      -8.450  17.452 -21.982  1.00  0.00    -0.238 F 
ENDBRANCH   7  13
ENDBRANCH   2   3
ENDBRANCH   1   2
BRANCH   1  17
HETATM   17  C8  UNL     1      -7.752  18.076 -14.724  1.00  0.00     0.089 C 
BRANCH  17  18
HETATM   18  N1  UNL     1      -7.678  17.343 -13.545  1.00  0.00    -0.367 N 
HETATM   19  C9  UNL     1      -7.929  17.916 -12.298  1.00  0.00     0.154 C 
BRANCH  18  20
HETATM   20  C10 UNL     1      -7.170  16.040 -13.502  1.00  0.00     0.172 C 
BRANCH  20  21
HETATM   21  C11 UNL     1      -7.490  15.207 -14.665  1.00  0.00     0.299 C 
HETATM   22  O3  UNL     1      -6.609  14.663 -15.326  1.00  0.00    -0.259 OA
BRANCH  21  23
HETATM   23  O4  UNL     1      -8.713  14.911 -15.176  1.00  0.00    -0.310 OA
BRANCH  23  24
HETATM   24  C12 UNL     1      -9.157  14.433 -16.335  1.00  0.00     0.155 C 
HETATM   25  C13 UNL     1      -9.688  13.030 -15.945  1.00  0.00     0.017 C 
HETATM   26  C14 UNL     1     -10.389  12.365 -17.068  1.00  0.00     0.012 C 
HETATM   27  C18 UNL     1     -10.886  13.573 -15.135  1.00  0.00     0.014 C 
HETATM   28  C15 UNL     1     -11.816  12.947 -17.127  1.00  0.00    -0.013 C 
HETATM   29  C16 UNL     1     -12.807  12.103 -16.417  1.00  0.00     0.010 C 
HETATM   30  C17 UNL     1     -11.516  14.252 -16.367  1.00  0.00     0.011 C 
HETATM   31  C19 UNL     1     -10.354  14.909 -17.037  1.00  0.00     0.116 C 
HETATM   32 CL1  UNL     1     -10.538  16.627 -17.305  1.00  0.00    -0.122 Cl
ENDBRANCH  23  24
ENDBRANCH  21  23
ENDBRANCH  20  21
ENDBRANCH  18  20
ENDBRANCH  17  18
ENDBRANCH   1  17
TORSDOF 11
ENDMDL
MODEL 4
REMARK VINA RESULT: -6.728070514      1.982      2.887
REMARK  11 active torsions:
REMARK  status: ('A' for Active; 'I' for Inactive)
REMARK    1  A    between atoms: C2_2  and  C3_3 
REMARK    2  A    between atoms: C4_4  and  O1_5 
REMARK    3  A    between atoms: C6_8  and  O2_9 
REMARK    4  A    between atoms: O2_9  and  C7_10 
REMARK    5  A    between atoms: C7_10  and  C8_11 
REMARK    6  A    between atoms: C8_11  and  N1_12 
REMARK    7  A    between atoms: N1_12  and  C10_14 
REMARK    8  A    between atoms: C10_14  and  C11_15 
REMARK    9  A    between atoms: C11_15  and  O4_17 
REMARK   10  A    between atoms: O4_17  and  C12_18 
REMARK   11  A    between atoms: C21_28  and  C22_29 
ROOT
HETATM    1  C7  UNL     1      -9.353  12.958 -16.037  1.00  0.00     0.220 C 
ENDROOT
BRANCH   1   2
HETATM    2  O2  UNL     1      -8.082  13.444 -15.827  1.00  0.00    -0.346 OA
BRANCH   2   3
HETATM    3  C6  UNL     1      -7.666  14.664 -15.363  1.00  0.00     0.072 A 
HETATM    4  C5  UNL     1      -7.050  15.571 -16.178  1.00  0.00     0.073 A 
HETATM    5  C4  UNL     1      -6.653  16.785 -15.628  1.00  0.00     0.075 A 
HETATM    6  C3  UNL     1      -6.871  17.095 -14.269  1.00  0.00    -0.016 A 
HETATM    7  C21 UNL     1      -7.485  16.197 -13.449  1.00  0.00    -0.008 A 
HETATM    8  C20 UNL     1      -7.869  14.992 -14.033  1.00  0.00     0.048 A 
BRANCH   5   9
HETATM    9  O1  UNL     1      -6.031  17.683 -16.484  1.00  0.00    -0.360 OA
ATOM     10  H1  UNL     1      -6.513  18.126 -17.171  1.00  0.00     0.217 HD
ENDBRANCH   5   9
BRANCH   6  11
HETATM   11  C2  UNL     1      -6.439  18.396 -13.795  1.00  0.00     0.037 C 
HETATM   12  C1  UNL     1      -7.532  19.449 -13.828  1.00  0.00     0.010 C 
ENDBRANCH   6  11
BRANCH   7  13
HETATM   13  C22 UNL     1      -7.710  16.447 -12.041  1.00  0.00     0.124 C 
HETATM   14  C23 UNL     1      -6.654  16.173 -11.050  1.00  0.00     0.057 C 
HETATM   15  C24 UNL     1      -8.346  17.838 -11.799  1.00  0.00     0.057 C 
HETATM   16  F1  UNL     1      -8.765  15.585 -11.647  1.00  0.00    -0.238 F 
ENDBRANCH   7  13
ENDBRANCH   2   3
ENDBRANCH   1   2
BRANCH   1  17
HETATM   17  C8  UNL     1     -10.156  13.707 -17.047  1.00  0.00     0.089 C 
BRANCH  17  18
HETATM   18  N1  UNL     1     -11.375  14.224 -16.621  1.00  0.00    -0.367 N 
HETATM   19  C9  UNL     1     -12.351  13.428 -16.022  1.00  0.00     0.154 C 
BRANCH  18  20
HETATM   20  C10 UNL     1     -11.785  15.526 -16.927  1.00  0.00     0.172 C 
BRANCH  20  21
HETATM   21  C11 UNL     1     -10.701  16.497 -17.106  1.00  0.00     0.299 C 
HETATM   22  O3  UNL     1     -10.079  16.947 -16.148  1.00  0.00    -0.259 OA
BRANCH  21  23
HETATM   23  O4  UNL     1     -10.230  17.026 -18.265  1.00  0.00    -0.310 OA
BRANCH  23  24
HETATM   24  C12 UNL     1      -9.023  17.324 -18.740  1.00  0.00     0.155 C 
HETATM   25  C13 UNL     1      -9.214  17.180 -20.271  1.00  0.00     0.017 C 
HETATM   26  C14 UNL     1      -8.022  17.627 -21.029  1.00  0.00     0.012 C 
HETATM   27  C18 UNL     1     -10.124  18.421 -20.400  1.00  0.00     0.014 C 
HETATM   28  C15 UNL     1      -8.085  19.166 -21.113  1.00  0.00    -0.013 C 
HETATM   29  C16 UNL     1      -8.685  19.645 -22.382  1.00  0.00     0.010 C 
HETATM   30  C17 UNL     1      -9.022  19.380 -19.911  1.00  0.00     0.011 C 
HETATM   31  C19 UNL     1      -8.429  18.665 -18.741  1.00  0.00     0.116 C 
HETATM   32 CL1  UNL     1      -8.423  19.578 -17.250  1.00  0.00    -0.122 Cl
ENDBRANCH  23  24
ENDBRANCH  21  23
ENDBRANCH  20  21
ENDBRANCH  18  20
ENDBRANCH  17  18
ENDBRANCH   1  17
TORSDOF 11
ENDMDL
MODEL 5
REMARK VINA RESULT: -6.711999601      2.598      6.424
REMARK  11 active torsions:
REMARK  status: ('A' for Active; 'I' for Inactive)
REMARK    1  A    between atoms: C2_2  and  C3_3 
REMARK    2  A    between atoms: C4_4  and  O1_5 
REMARK    3  A    between atoms: C6_8  and  O2_9 
REMARK    4  A    between atoms: O2_9  and  C7_10 
REMARK    5  A    between atoms: C7_10  and  C8_11 
REMARK    6  A    between atoms: C8_11  and  N1_12 
REMARK    7  A    between atoms: N1_12  and  C10_14 
REMARK    8  A    between atoms: C10_14  and  C11_15 
REMARK    9  A    between atoms: C11_15  and  O4_17 
REMARK   10  A    between atoms: O4_17  and  C12_18 
REMARK   11  A    between atoms: C21_28  and  C22_29 
ROOT
HETATM    1  C7  UNL     1      -6.210  17.316 -16.062  1.00  0.00     0.220 C 
ENDROOT
BRANCH   1   2
HETATM    2  O2  UNL     1      -5.574  17.969 -17.094  1.00  0.00    -0.346 OA
BRANCH   2   3
HETATM    3  C6  UNL     1      -6.068  18.444 -18.280  1.00  0.00     0.072 A 
HETATM    4  C5  UNL     1      -5.610  19.605 -18.837  1.00  0.00     0.073 A 
HETATM    5  C4  UNL     1      -6.168  20.021 -20.041  1.00  0.00     0.075 A 
HETATM    6  C3  UNL     1      -7.180  19.282 -20.689  1.00  0.00    -0.016 A 
HETATM    7  C21 UNL     1      -7.642  18.123 -20.142  1.00  0.00    -0.008 A 
HETATM    8  C20 UNL     1      -7.062  17.736 -18.937  1.00  0.00     0.048 A 
BRANCH   5   9
HETATM    9  O1  UNL     1      -5.679  21.203 -20.578  1.00  0.00    -0.360 OA
ATOM     10  H1  UNL     1      -5.945  22.049 -20.239  1.00  0.00     0.217 HD
ENDBRANCH   5   9
BRANCH   6  11
HETATM   11  C2  UNL     1      -7.683  19.788 -21.952  1.00  0.00     0.037 C 
HETATM   12  C1  UNL     1      -8.833  20.768 -21.801  1.00  0.00     0.010 C 
ENDBRANCH   6  11
BRANCH   7  13
HETATM   13  C22 UNL     1      -8.697  17.337 -20.747  1.00  0.00     0.124 C 
HETATM   14  C23 UNL     1      -8.711  15.869 -20.617  1.00  0.00     0.057 C 
HETATM   15  C24 UNL     1     -10.097  17.929 -20.452  1.00  0.00     0.057 C 
HETATM   16  F1  UNL     1      -8.596  17.544 -22.145  1.00  0.00    -0.238 F 
ENDBRANCH   7  13
ENDBRANCH   2   3
ENDBRANCH   1   2
BRANCH   1  17
HETATM   17  C8  UNL     1      -6.423  18.135 -14.834  1.00  0.00     0.089 C 
BRANCH  17  18
HETATM   18  N1  UNL     1      -7.685  18.076 -14.252  1.00  0.00    -0.367 N 
HETATM   19  C9  UNL     1      -7.940  17.321 -13.107  1.00  0.00     0.154 C 
BRANCH  18  20
HETATM   20  C10 UNL     1      -8.821  18.613 -14.868  1.00  0.00     0.172 C 
BRANCH  20  21
HETATM   21  C11 UNL     1      -9.241  17.938 -16.100  1.00  0.00     0.299 C 
HETATM   22  O3  UNL     1      -9.451  18.564 -17.135  1.00  0.00    -0.259 OA
BRANCH  21  23
HETATM   23  O4  UNL     1      -9.455  16.611 -16.300  1.00  0.00    -0.310 OA
BRANCH  23  24
HETATM   24  C12 UNL     1      -9.984  15.626 -15.581  1.00  0.00     0.155 C 
HETATM   25  C13 UNL     1     -11.105  15.090 -16.508  1.00  0.00     0.017 C 
HETATM   26  C14 UNL     1     -11.736  13.862 -15.971  1.00  0.00     0.012 C 
HETATM   27  C18 UNL     1     -10.131  14.487 -17.545  1.00  0.00     0.014 C 
HETATM   28  C15 UNL     1     -10.809  12.680 -16.321  1.00  0.00    -0.013 C 
HETATM   29  C16 UNL     1     -11.223  11.977 -17.559  1.00  0.00     0.010 C 
HETATM   30  C17 UNL     1      -9.525  13.504 -16.523  1.00  0.00     0.011 C 
HETATM   31  C19 UNL     1      -9.328  14.343 -15.303  1.00  0.00     0.116 C 
HETATM   32 CL1  UNL     1      -7.695  14.357 -14.679  1.00  0.00    -0.122 Cl
ENDBRANCH  23  24
ENDBRANCH  21  23
ENDBRANCH  20  21
ENDBRANCH  18  20
ENDBRANCH  17  18
ENDBRANCH   1  17
TORSDOF 11
ENDMDL
