MODEL 1
REMARK VINA RESULT: -9.604173905      0.000      0.000
REMARK  7 active torsions:
REMARK  status: ('A' for Active; 'I' for Inactive)
REMARK    1  A    between atoms: C3_3  and  O1_4 
REMARK    2  A    between atoms: O1_4  and  C4_5 
REMARK    3  A    between atoms: C7_8  and  N1_9 
REMARK    4  A    between atoms: N2_11  and  C9_12 
REMARK    5  A    between atoms: C16_19  and  C17_20 
REMARK    6  A    between atoms: C16_19  and  N4_23 
REMARK    7  A    between atoms: C21_27  and  C22_28 
ROOT
HETATM    1  C1  UNL     1      27.929  13.080   1.021  1.00  0.00     0.014 C 
HETATM    2  C2  UNL     1      27.271  12.095   1.173  1.00  0.00    -0.091 C 
HETATM    3  C3  UNL     1      26.471  10.906   1.380  1.00  0.00     0.260 C 
ENDROOT
BRANCH   3   4
HETATM    4  O1  UNL     1      26.851   9.863   0.524  1.00  0.00    -0.374 OA
BRANCH   4   5
HETATM    5  C4  UNL     1      27.116  10.323  -0.755  1.00  0.00     0.122 C 
HETATM    6  C5  UNL     1      28.410   9.729  -1.222  1.00  0.00     0.034 C 
HETATM    7  C6  UNL     1      28.395   9.735  -2.756  1.00  0.00     0.028 C 
HETATM    8  C7  UNL     1      27.440   8.655  -3.242  1.00  0.00     0.089 C 
HETATM    9  C26 UNL     1      26.137   8.811  -2.526  1.00  0.00     0.028 C 
HETATM   10  C27 UNL     1      26.000  10.058  -1.717  1.00  0.00     0.034 C 
BRANCH   8  11
HETATM   11  N1  UNL     1      27.332   8.636  -4.671  1.00  0.00    -0.319 N 
HETATM   12  C8  UNL     1      27.112   9.884  -5.362  1.00  0.00     0.401 C 
HETATM   13  N2  UNL     1      26.451   9.691  -6.640  1.00  0.00     0.118 N 
HETATM   14  C15 UNL     1      25.821   8.424  -6.767  1.00  0.00     0.317 C 
HETATM   15  C16 UNL     1      26.910   7.310  -6.730  1.00  0.00     0.151 C 
HETATM   16  C25 UNL     1      27.444   7.390  -5.349  1.00  0.00     0.252 C 
HETATM   17  O2  UNL     1      27.985   6.460  -4.724  1.00  0.00    -0.270 OA
BRANCH  13  18
HETATM   18  C9  UNL     1      25.623  10.816  -6.965  1.00  0.00     0.158 C 
HETATM   19  C10 UNL     1      26.192  11.651  -8.109  1.00  0.00     0.049 C 
HETATM   20  C11 UNL     1      24.304  10.250  -7.510  1.00  0.00     0.041 C 
HETATM   21  C12 UNL     1      23.205  11.042  -6.850  1.00  0.00     0.003 C 
HETATM   22  C13 UNL     1      23.785  11.341  -5.486  1.00  0.00     0.003 C 
HETATM   23  C14 UNL     1      25.227  11.703  -5.851  1.00  0.00     0.041 C 
ENDBRANCH  13  18
BRANCH  15  24
HETATM   24  C17 UNL     1      27.962   7.733  -7.728  1.00  0.00     0.166 C 
HETATM   25  C18 UNL     1      28.880   6.631  -8.034  1.00  0.00     0.062 C 
HETATM   26  N3  UNL     1      29.614   5.763  -8.261  1.00  0.00    -0.197 NA
ENDBRANCH  15  24
BRANCH  15  27
HETATM   27  N4  UNL     1      26.322   6.079  -7.065  1.00  0.00    -0.355 N 
HETATM   28  C19 UNL     1      25.730   5.631  -8.074  1.00  0.00     0.118 A 
HETATM   29  C20 UNL     1      25.442   6.241  -9.271  1.00  0.00     0.076 A 
HETATM   30  N6  UNL     1      25.216   4.353  -8.189  1.00  0.00    -0.285 N 
HETATM   31  C21 UNL     1      24.774   5.344 -10.074  1.00  0.00     0.033 A 
HETATM   32  N5  UNL     1      24.658   4.198  -9.369  1.00  0.00    -0.303 N 
ATOM     33  H5  UNL     1      24.206   3.346  -9.700  1.00  0.00     0.186 HD
ATOM     34  H6  UNL     1      25.264   3.636  -7.466  1.00  0.00     0.188 HD
ATOM     35  H4  UNL     1      26.393   5.392  -6.314  1.00  0.00     0.162 HD
BRANCH  31  36
HETATM   36  C22 UNL     1      24.294   5.629 -11.447  1.00  0.00     0.037 A 
HETATM   37  C23 UNL     1      23.565   6.887 -11.745  1.00  0.00     0.011 A 
HETATM   38  C24 UNL     1      25.025   6.737 -12.136  1.00  0.00     0.011 A 
ENDBRANCH  31  36
ENDBRANCH  15  27
ENDBRANCH   8  11
ENDBRANCH   4   5
ENDBRANCH   3   4
TORSDOF 7
ENDMDL
MODEL 2
REMARK VINA RESULT: -9.354641873      0.436      1.074
REMARK  7 active torsions:
REMARK  status: ('A' for Active; 'I' for Inactive)
REMARK    1  A    between atoms: C3_3  and  O1_4 
REMARK    2  A    between atoms: O1_4  and  C4_5 
REMARK    3  A    between atoms: C7_8  and  N1_9 
REMARK    4  A    between atoms: N2_11  and  C9_12 
REMARK    5  A    between atoms: C16_19  and  C17_20 
REMARK    6  A    between atoms: C16_19  and  N4_23 
REMARK    7  A    between atoms: C21_27  and  C22_28 
ROOT
HETATM    1  C1  UNL     1      27.929  13.024   1.052  1.00  0.00     0.014 C 
HETATM    2  C2  UNL     1      27.271  12.032   1.141  1.00  0.00    -0.091 C 
HETATM    3  C3  UNL     1      26.469  10.834   1.273  1.00  0.00     0.260 C 
ENDROOT
BRANCH   3   4
HETATM    4  O1  UNL     1      26.916   9.807   0.428  1.00  0.00    -0.374 OA
BRANCH   4   5
HETATM    5  C4  UNL     1      27.188  10.277  -0.846  1.00  0.00     0.122 C 
HETATM    6  C5  UNL     1      28.459   9.649  -1.329  1.00  0.00     0.034 C 
HETATM    7  C6  UNL     1      28.436   9.677  -2.863  1.00  0.00     0.028 C 
HETATM    8  C7  UNL     1      27.444   8.636  -3.358  1.00  0.00     0.089 C 
HETATM    9  C26 UNL     1      26.151   8.823  -2.632  1.00  0.00     0.028 C 
HETATM   10  C27 UNL     1      26.059  10.062  -1.804  1.00  0.00     0.034 C 
BRANCH   8  11
HETATM   11  N1  UNL     1      27.328   8.642  -4.787  1.00  0.00    -0.319 N 
HETATM   12  C8  UNL     1      27.115   9.902  -5.456  1.00  0.00     0.401 C 
HETATM   13  N2  UNL     1      26.445   9.736  -6.732  1.00  0.00     0.118 N 
HETATM   14  C15 UNL     1      25.802   8.477  -6.876  1.00  0.00     0.317 C 
HETATM   15  C16 UNL     1      26.881   7.352  -6.864  1.00  0.00     0.151 C 
HETATM   16  C25 UNL     1      27.424   7.405  -5.485  1.00  0.00     0.252 C 
HETATM   17  O2  UNL     1      27.960   6.461  -4.879  1.00  0.00    -0.270 OA
BRANCH  13  18
HETATM   18  C9  UNL     1      25.625  10.873  -7.034  1.00  0.00     0.158 C 
HETATM   19  C10 UNL     1      25.602  11.896  -5.901  1.00  0.00     0.049 C 
HETATM   20  C11 UNL     1      26.295  11.602  -8.208  1.00  0.00     0.041 C 
HETATM   21  C12 UNL     1      25.189  11.944  -9.173  1.00  0.00     0.003 C 
HETATM   22  C13 UNL     1      24.235  10.783  -9.010  1.00  0.00     0.003 C 
HETATM   23  C14 UNL     1      24.244  10.606  -7.488  1.00  0.00     0.041 C 
ENDBRANCH  13  18
BRANCH  15  24
HETATM   24  C17 UNL     1      27.931   7.782  -7.861  1.00  0.00     0.166 C 
HETATM   25  C18 UNL     1      28.961   6.752  -8.029  1.00  0.00     0.062 C 
HETATM   26  N3  UNL     1      29.783   5.943  -8.145  1.00  0.00    -0.197 NA
ENDBRANCH  15  24
BRANCH  15  27
HETATM   27  N4  UNL     1      26.280   6.132  -7.215  1.00  0.00    -0.355 N 
HETATM   28  C19 UNL     1      25.679   5.707  -8.228  1.00  0.00     0.118 A 
HETATM   29  C20 UNL     1      25.389   6.338  -9.413  1.00  0.00     0.076 A 
HETATM   30  N6  UNL     1      25.152   4.435  -8.361  1.00  0.00    -0.285 N 
HETATM   31  C21 UNL     1      24.708   5.460 -10.227  1.00  0.00     0.033 A 
HETATM   32  N5  UNL     1      24.585   4.304  -9.539  1.00  0.00    -0.303 N 
ATOM     33  H5  UNL     1      24.124   3.461  -9.881  1.00  0.00     0.186 HD
ATOM     34  H6  UNL     1      25.197   3.706  -7.649  1.00  0.00     0.188 HD
ATOM     35  H4  UNL     1      26.350   5.433  -6.476  1.00  0.00     0.162 HD
BRANCH  31  36
HETATM   36  C22 UNL     1      24.222   5.772 -11.592  1.00  0.00     0.037 A 
HETATM   37  C23 UNL     1      23.757   7.138 -11.933  1.00  0.00     0.011 A 
HETATM   38  C24 UNL     1      25.129   6.664 -12.378  1.00  0.00     0.011 A 
ENDBRANCH  31  36
ENDBRANCH  15  27
ENDBRANCH   8  11
ENDBRANCH   4   5
ENDBRANCH   3   4
TORSDOF 7
ENDMDL
MODEL 3
REMARK VINA RESULT: -9.217223688      3.896      6.312
REMARK  7 active torsions:
REMARK  status: ('A' for Active; 'I' for Inactive)
REMARK    1  A    between atoms: C3_3  and  O1_4 
REMARK    2  A    between atoms: O1_4  and  C4_5 
REMARK    3  A    between atoms: C7_8  and  N1_9 
REMARK    4  A    between atoms: N2_11  and  C9_12 
REMARK    5  A    between atoms: C16_19  and  C17_20 
REMARK    6  A    between atoms: C16_19  and  N4_23 
REMARK    7  A    between atoms: C21_27  and  C22_28 
ROOT
HETATM    1  C1  UNL     1      31.816  16.572  -5.719  1.00  0.00     0.014 C 
HETATM    2  C2  UNL     1      30.782  17.040  -5.350  1.00  0.00    -0.091 C 
HETATM    3  C3  UNL     1      29.529  17.625  -4.920  1.00  0.00     0.260 C 
ENDROOT
BRANCH   3   4
HETATM    4  O1  UNL     1      29.401  17.623  -3.524  1.00  0.00    -0.374 OA
BRANCH   4   5
HETATM    5  C4  UNL     1      28.390  16.773  -3.105  1.00  0.00     0.122 C 
HETATM    6  C5  UNL     1      27.377  16.652  -4.202  1.00  0.00     0.034 C 
HETATM    7  C6  UNL     1      26.636  15.324  -4.003  1.00  0.00     0.028 C 
HETATM    8  C7  UNL     1      27.561  14.182  -4.396  1.00  0.00     0.089 C 
HETATM    9  C26 UNL     1      28.871  14.367  -3.700  1.00  0.00     0.028 C 
HETATM   10  C27 UNL     1      28.895  15.437  -2.659  1.00  0.00     0.034 C 
BRANCH   8  11
HETATM   11  N1  UNL     1      26.953  12.901  -4.184  1.00  0.00    -0.319 N 
HETATM   12  C8  UNL     1      26.903  12.376  -2.841  1.00  0.00     0.401 C 
HETATM   13  N2  UNL     1      26.836  10.926  -2.825  1.00  0.00     0.118 N 
HETATM   14  C15 UNL     1      27.222  10.326  -4.054  1.00  0.00     0.317 C 
HETATM   15  C16 UNL     1      26.207  10.742  -5.161  1.00  0.00     0.151 C 
HETATM   16  C25 UNL     1      26.426  12.201  -5.305  1.00  0.00     0.252 C 
HETATM   17  O2  UNL     1      26.190  12.874  -6.324  1.00  0.00    -0.270 OA
BRANCH  13  18
HETATM   18  C9  UNL     1      27.484  10.395  -1.661  1.00  0.00     0.158 C 
HETATM   19  C10 UNL     1      28.865   9.822  -1.969  1.00  0.00     0.049 C 
HETATM   20  C11 UNL     1      27.752  11.582  -0.724  1.00  0.00     0.041 C 
HETATM   21  C12 UNL     1      27.350  11.125   0.655  1.00  0.00     0.003 C 
HETATM   22  C13 UNL     1      26.190  10.196   0.371  1.00  0.00     0.003 C 
HETATM   23  C14 UNL     1      26.717   9.430  -0.845  1.00  0.00     0.041 C 
ENDBRANCH  13  18
BRANCH  15  24
HETATM   24  C17 UNL     1      24.838  10.468  -4.585  1.00  0.00     0.166 C 
HETATM   25  C18 UNL     1      23.778  10.935  -5.484  1.00  0.00     0.062 C 
HETATM   26  N3  UNL     1      22.943  11.322  -6.189  1.00  0.00    -0.197 NA
ENDBRANCH  15  24
BRANCH  15  27
HETATM   27  N4  UNL     1      26.457   9.990  -6.321  1.00  0.00    -0.355 N 
HETATM   28  C19 UNL     1      26.635   8.773  -6.561  1.00  0.00     0.118 A 
HETATM   29  C20 UNL     1      26.643   7.698  -5.706  1.00  0.00     0.076 A 
HETATM   30  N6  UNL     1      26.874   8.239  -7.813  1.00  0.00    -0.285 N 
HETATM   31  C21 UNL     1      26.881   6.555  -6.438  1.00  0.00     0.033 A 
HETATM   32  N5  UNL     1      27.017   6.936  -7.726  1.00  0.00    -0.303 N 
ATOM     33  H5  UNL     1      27.202   6.309  -8.509  1.00  0.00     0.186 HD
ATOM     34  H6  UNL     1      26.931   8.777  -8.678  1.00  0.00     0.188 HD
ATOM     35  H4  UNL     1      26.505  10.567  -7.161  1.00  0.00     0.162 HD
BRANCH  31  36
HETATM   36  C22 UNL     1      26.964   5.188  -5.871  1.00  0.00     0.037 A 
HETATM   37  C23 UNL     1      26.209   4.069  -6.486  1.00  0.00     0.011 A 
HETATM   38  C24 UNL     1      27.700   4.210  -6.731  1.00  0.00     0.011 A 
ENDBRANCH  31  36
ENDBRANCH  15  27
ENDBRANCH   8  11
ENDBRANCH   4   5
ENDBRANCH   3   4
TORSDOF 7
ENDMDL
MODEL 4
REMARK VINA RESULT: -9.123309431      4.019      6.361
REMARK  7 active torsions:
REMARK  status: ('A' for Active; 'I' for Inactive)
REMARK    1  A    between atoms: C3_3  and  O1_4 
REMARK    2  A    between atoms: O1_4  and  C4_5 
REMARK    3  A    between atoms: C7_8  and  N1_9 
REMARK    4  A    between atoms: N2_11  and  C9_12 
REMARK    5  A    between atoms: C16_19  and  C17_20 
REMARK    6  A    between atoms: C16_19  and  N4_23 
REMARK    7  A    between atoms: C21_27  and  C22_28 
ROOT
HETATM    1  C1  UNL     1      32.277  19.946  -3.469  1.00  0.00     0.014 C 
HETATM    2  C2  UNL     1      31.387  19.255  -3.077  1.00  0.00    -0.091 C 
HETATM    3  C3  UNL     1      30.316  18.416  -2.579  1.00  0.00     0.260 C 
ENDROOT
BRANCH   3   4
HETATM    4  O1  UNL     1      29.906  17.470  -3.528  1.00  0.00    -0.374 OA
BRANCH   4   5
HETATM    5  C4  UNL     1      28.896  16.659  -3.037  1.00  0.00     0.122 C 
HETATM    6  C5  UNL     1      27.748  16.685  -3.999  1.00  0.00     0.034 C 
HETATM    7  C6  UNL     1      26.940  15.397  -3.792  1.00  0.00     0.028 C 
HETATM    8  C7  UNL     1      27.722  14.229  -4.374  1.00  0.00     0.089 C 
HETATM    9  C26 UNL     1      29.119  14.277  -3.844  1.00  0.00     0.028 C 
HETATM   10  C27 UNL     1      29.352  15.263  -2.749  1.00  0.00     0.034 C 
BRANCH   8  11
HETATM   11  N1  UNL     1      27.052  12.978  -4.168  1.00  0.00    -0.319 N 
HETATM   12  C8  UNL     1      26.994  12.441  -2.830  1.00  0.00     0.401 C 
HETATM   13  N2  UNL     1      26.852  10.996  -2.830  1.00  0.00     0.118 N 
HETATM   14  C15 UNL     1      27.191  10.392  -4.070  1.00  0.00     0.317 C 
HETATM   15  C16 UNL     1      26.184  10.871  -5.159  1.00  0.00     0.151 C 
HETATM   16  C25 UNL     1      26.475  12.320  -5.290  1.00  0.00     0.252 C 
HETATM   17  O2  UNL     1      26.261  13.015  -6.298  1.00  0.00    -0.270 OA
BRANCH  13  18
HETATM   18  C9  UNL     1      27.488  10.419  -1.681  1.00  0.00     0.158 C 
HETATM   19  C10 UNL     1      28.855   9.821  -2.005  1.00  0.00     0.049 C 
HETATM   20  C11 UNL     1      27.784  11.574  -0.713  1.00  0.00     0.041 C 
HETATM   21  C12 UNL     1      27.371  11.090   0.654  1.00  0.00     0.003 C 
HETATM   22  C13 UNL     1      26.190  10.196   0.346  1.00  0.00     0.003 C 
HETATM   23  C14 UNL     1      26.699   9.451  -0.891  1.00  0.00     0.041 C 
ENDBRANCH  13  18
BRANCH  15  24
HETATM   24  C17 UNL     1      24.811  10.661  -4.567  1.00  0.00     0.166 C 
HETATM   25  C18 UNL     1      23.763  10.810  -5.582  1.00  0.00     0.062 C 
HETATM   26  N3  UNL     1      22.938  10.947  -6.384  1.00  0.00    -0.197 NA
ENDBRANCH  15  24
BRANCH  15  27
HETATM   27  N4  UNL     1      26.379  10.122  -6.331  1.00  0.00    -0.355 N 
HETATM   28  C19 UNL     1      26.625   8.918  -6.575  1.00  0.00     0.118 A 
HETATM   29  C20 UNL     1      26.794   7.860  -5.716  1.00  0.00     0.076 A 
HETATM   30  N6  UNL     1      26.785   8.383  -7.840  1.00  0.00    -0.285 N 
HETATM   31  C21 UNL     1      27.047   6.726  -6.456  1.00  0.00     0.033 A 
HETATM   32  N5  UNL     1      27.033   7.095  -7.755  1.00  0.00    -0.303 N 
ATOM     33  H5  UNL     1      27.190   6.471  -8.546  1.00  0.00     0.186 HD
ATOM     34  H6  UNL     1      26.720   8.910  -8.711  1.00  0.00     0.188 HD
ATOM     35  H4  UNL     1      26.305  10.687  -7.176  1.00  0.00     0.162 HD
BRANCH  31  36
HETATM   36  C22 UNL     1      27.286   5.378  -5.887  1.00  0.00     0.037 A 
HETATM   37  C23 UNL     1      26.566   4.197  -6.422  1.00  0.00     0.011 A 
HETATM   38  C24 UNL     1      28.014   4.446  -6.802  1.00  0.00     0.011 A 
ENDBRANCH  31  36
ENDBRANCH  15  27
ENDBRANCH   8  11
ENDBRANCH   4   5
ENDBRANCH   3   4
TORSDOF 7
ENDMDL
MODEL 5
REMARK VINA RESULT: -8.997065670      3.863      6.184
REMARK  7 active torsions:
REMARK  status: ('A' for Active; 'I' for Inactive)
REMARK    1  A    between atoms: C3_3  and  O1_4 
REMARK    2  A    between atoms: O1_4  and  C4_5 
REMARK    3  A    between atoms: C7_8  and  N1_9 
REMARK    4  A    between atoms: N2_11  and  C9_12 
REMARK    5  A    between atoms: C16_19  and  C17_20 
REMARK    6  A    between atoms: C16_19  and  N4_23 
REMARK    7  A    between atoms: C21_27  and  C22_28 
ROOT
HETATM    1  C1  UNL     1      31.822  16.571  -5.772  1.00  0.00     0.014 C 
HETATM    2  C2  UNL     1      30.701  16.924  -5.561  1.00  0.00    -0.091 C 
HETATM    3  C3  UNL     1      29.341  17.362  -5.328  1.00  0.00     0.260 C 
ENDROOT
BRANCH   3   4
HETATM    4  O1  UNL     1      29.126  17.715  -3.988  1.00  0.00    -0.374 OA
BRANCH   4   5
HETATM    5  C4  UNL     1      28.231  16.856  -3.371  1.00  0.00     0.122 C 
HETATM    6  C5  UNL     1      27.164  16.485  -4.355  1.00  0.00     0.034 C 
HETATM    7  C6  UNL     1      26.567  15.145  -3.908  1.00  0.00     0.028 C 
HETATM    8  C7  UNL     1      27.568  14.039  -4.204  1.00  0.00     0.089 C 
HETATM    9  C26 UNL     1      28.898  14.436  -3.650  1.00  0.00     0.028 C 
HETATM   10  C27 UNL     1      28.889  15.649  -2.779  1.00  0.00     0.034 C 
BRANCH   8  11
HETATM   11  N1  UNL     1      27.100  12.758  -3.762  1.00  0.00    -0.319 N 
HETATM   12  C8  UNL     1      27.006  12.511  -2.343  1.00  0.00     0.401 C 
HETATM   13  N2  UNL     1      27.109  11.098  -2.028  1.00  0.00     0.118 N 
HETATM   14  C15 UNL     1      27.659  10.320  -3.082  1.00  0.00     0.317 C 
HETATM   15  C16 UNL     1      26.694  10.367  -4.305  1.00  0.00     0.151 C 
HETATM   16  C25 UNL     1      26.750  11.784  -4.739  1.00  0.00     0.252 C 
HETATM   17  O2  UNL     1      26.518  12.201  -5.887  1.00  0.00    -0.270 OA
BRANCH  13  18
HETATM   18  C9  UNL     1      27.721  10.901  -0.746  1.00  0.00     0.158 C 
HETATM   19  C10 UNL     1      29.195  10.519  -0.852  1.00  0.00     0.049 C 
HETATM   20  C11 UNL     1      27.719  12.266  -0.042  1.00  0.00     0.041 C 
HETATM   21  C12 UNL     1      27.266  12.005   1.372  1.00  0.00     0.003 C 
HETATM   22  C13 UNL     1      26.292  10.862   1.203  1.00  0.00     0.003 C 
HETATM   23  C14 UNL     1      27.038   9.986   0.192  1.00  0.00     0.041 C 
ENDBRANCH  13  18
BRANCH  15  24
HETATM   24  C17 UNL     1      25.325  10.037  -3.758  1.00  0.00     0.166 C 
HETATM   25  C18 UNL     1      25.206   8.609  -3.445  1.00  0.00     0.062 C 
HETATM   26  N3  UNL     1      25.111   7.477  -3.216  1.00  0.00    -0.197 NA
ENDBRANCH  15  24
BRANCH  15  27
HETATM   27  N4  UNL     1      27.122   9.437  -5.267  1.00  0.00    -0.355 N 
HETATM   28  C19 UNL     1      26.686   9.055  -6.377  1.00  0.00     0.118 A 
HETATM   29  C20 UNL     1      25.566   9.448  -7.068  1.00  0.00     0.076 A 
HETATM   30  N6  UNL     1      27.285   8.099  -7.176  1.00  0.00    -0.285 N 
HETATM   31  C21 UNL     1      25.505   8.741  -8.248  1.00  0.00     0.033 A 
HETATM   32  N5  UNL     1      26.580   7.924  -8.272  1.00  0.00    -0.303 N 
ATOM     33  H5  UNL     1      26.809   7.273  -9.023  1.00  0.00     0.186 HD
ATOM     34  H6  UNL     1      28.146   7.602  -6.949  1.00  0.00     0.188 HD
ATOM     35  H4  UNL     1      27.986   8.965  -4.999  1.00  0.00     0.162 HD
BRANCH  31  36
HETATM   36  C22 UNL     1      24.439   8.885  -9.269  1.00  0.00     0.037 A 
HETATM   37  C23 UNL     1      24.770   9.314 -10.650  1.00  0.00     0.011 A 
HETATM   38  C24 UNL     1      24.482   7.853 -10.351  1.00  0.00     0.011 A 
ENDBRANCH  31  36
ENDBRANCH  15  27
ENDBRANCH   8  11
ENDBRANCH   4   5
ENDBRANCH   3   4
TORSDOF 7
ENDMDL
