MODEL 1
REMARK VINA RESULT: -5.172364278      0.000      0.000
REMARK  2 active torsions:
REMARK  status: ('A' for Active; 'I' for Inactive)
REMARK    1  A    between atoms: O1_1  and  C1_3 
REMARK    2  A    between atoms: C3_5  and  O2_6 
ROOT
HETATM    1  C1  UNL     1      57.557  -8.912  57.245  1.00  0.00     0.128 C 
HETATM    2  C2  UNL     1      56.725  -8.193  56.173  1.00  0.00     0.070 C 
HETATM    3  C3  UNL     1      58.064  -8.049  55.432  1.00  0.00     0.066 C 
HETATM    4  C4  UNL     1      58.210  -6.917  54.542  1.00  0.00     0.038 C 
HETATM    5  C5  UNL     1      58.893  -5.700  55.050  1.00  0.00     0.003 C 
HETATM    6  C6  UNL     1      60.170  -5.960  55.770  1.00  0.00     0.000 C 
HETATM    7  C7  UNL     1      59.885  -5.864  57.264  1.00  0.00     0.001 C 
HETATM    8  C8  UNL     1      58.651  -6.743  57.501  1.00  0.00     0.010 C 
HETATM    9  C9  UNL     1      58.714  -8.021  56.758  1.00  0.00     0.049 C 
ENDROOT
BRANCH   1  10
HETATM   10  O1  UNL     1      57.188  -8.656  58.533  1.00  0.00    -0.395 OA
ATOM     11  H1  UNL     1      56.688  -9.346  58.953  1.00  0.00     0.210 HD
ENDBRANCH   1  10
BRANCH   3  12
HETATM   12  O2  UNL     1      58.306  -9.290  54.801  1.00  0.00    -0.389 OA
ATOM     13  H2  UNL     1      58.256  -9.130  53.866  1.00  0.00     0.210 HD
ENDBRANCH   3  12
TORSDOF 2
ENDMDL
MODEL 2
REMARK VINA RESULT: -4.930588908      1.068      2.623
REMARK  2 active torsions:
REMARK  status: ('A' for Active; 'I' for Inactive)
REMARK    1  A    between atoms: O1_1  and  C1_3 
REMARK    2  A    between atoms: C3_5  and  O2_6 
ROOT
HETATM    1  C1  UNL     1      57.063  -8.755  57.040  1.00  0.00     0.128 C 
HETATM    2  C2  UNL     1      58.408  -8.698  57.780  1.00  0.00     0.070 C 
HETATM    3  C3  UNL     1      58.255  -7.175  57.648  1.00  0.00     0.066 C 
HETATM    4  C4  UNL     1      59.470  -6.388  57.605  1.00  0.00     0.038 C 
HETATM    5  C5  UNL     1      60.005  -5.982  56.282  1.00  0.00     0.003 C 
HETATM    6  C6  UNL     1      58.991  -5.417  55.349  1.00  0.00     0.000 C 
HETATM    7  C7  UNL     1      58.623  -6.509  54.351  1.00  0.00     0.001 C 
HETATM    8  C8  UNL     1      58.313  -7.748  55.199  1.00  0.00     0.010 C 
HETATM    9  C9  UNL     1      57.509  -7.428  56.398  1.00  0.00     0.049 C 
ENDROOT
BRANCH   1  10
HETATM   10  O1  UNL     1      56.941  -9.772  56.140  1.00  0.00    -0.395 OA
ATOM     11  H1  UNL     1      56.648  -9.511  55.275  1.00  0.00     0.210 HD
ENDBRANCH   1  10
BRANCH   3  12
HETATM   12  O2  UNL     1      57.366  -6.772  58.669  1.00  0.00    -0.389 OA
ATOM     13  H2  UNL     1      56.571  -6.486  58.235  1.00  0.00     0.210 HD
ENDBRANCH   3  12
TORSDOF 2
ENDMDL
MODEL 3
REMARK VINA RESULT: -4.894384210      1.863      3.703
REMARK  2 active torsions:
REMARK  status: ('A' for Active; 'I' for Inactive)
REMARK    1  A    between atoms: O1_1  and  C1_3 
REMARK    2  A    between atoms: C3_5  and  O2_6 
ROOT
HETATM    1  C1  UNL     1      59.468  -6.672  54.771  1.00  0.00     0.128 C 
HETATM    2  C2  UNL     1      59.209  -5.491  55.718  1.00  0.00     0.070 C 
HETATM    3  C3  UNL     1      59.673  -6.458  56.820  1.00  0.00     0.066 C 
HETATM    4  C4  UNL     1      59.144  -6.247  58.151  1.00  0.00     0.038 C 
HETATM    5  C5  UNL     1      57.975  -7.052  58.584  1.00  0.00     0.003 C 
HETATM    6  C6  UNL     1      58.082  -8.509  58.295  1.00  0.00     0.000 C 
HETATM    7  C7  UNL     1      57.241  -8.797  57.058  1.00  0.00     0.001 C 
HETATM    8  C8  UNL     1      57.669  -7.752  56.021  1.00  0.00     0.010 C 
HETATM    9  C9  UNL     1      59.135  -7.553  55.988  1.00  0.00     0.049 C 
ENDROOT
BRANCH   1  10
HETATM   10  O1  UNL     1      58.571  -6.803  53.752  1.00  0.00    -0.395 OA
ATOM     11  H1  UNL     1      57.766  -6.311  53.859  1.00  0.00     0.210 HD
ENDBRANCH   1  10
BRANCH   3  12
HETATM   12  O2  UNL     1      61.085  -6.466  56.776  1.00  0.00    -0.389 OA
ATOM     13  H2  UNL     1      61.351  -5.587  56.533  1.00  0.00     0.210 HD
ENDBRANCH   3  12
TORSDOF 2
ENDMDL
MODEL 4
REMARK VINA RESULT: -4.751973126      5.373      7.106
REMARK  2 active torsions:
REMARK  status: ('A' for Active; 'I' for Inactive)
REMARK    1  A    between atoms: O1_1  and  C1_3 
REMARK    2  A    between atoms: C3_5  and  O2_6 
ROOT
HETATM    1  C1  UNL     1      51.791 -10.890  58.634  1.00  0.00     0.128 C 
HETATM    2  C2  UNL     1      53.036 -10.361  59.361  1.00  0.00     0.070 C 
HETATM    3  C3  UNL     1      53.693 -10.410  57.972  1.00  0.00     0.066 C 
HETATM    4  C4  UNL     1      55.127 -10.605  57.924  1.00  0.00     0.038 C 
HETATM    5  C5  UNL     1      55.647 -11.978  57.705  1.00  0.00     0.003 C 
HETATM    6  C6  UNL     1      54.986 -12.724  56.598  1.00  0.00     0.000 C 
HETATM    7  C7  UNL     1      53.993 -13.696  57.225  1.00  0.00     0.001 C 
HETATM    8  C8  UNL     1      53.174 -12.859  58.214  1.00  0.00     0.010 C 
HETATM    9  C9  UNL     1      52.794 -11.540  57.664  1.00  0.00     0.049 C 
ENDROOT
BRANCH   1  10
HETATM   10  O1  UNL     1      51.056 -11.800  59.335  1.00  0.00    -0.395 OA
ATOM     11  H1  UNL     1      50.907 -12.626  58.890  1.00  0.00     0.210 HD
ENDBRANCH   1  10
BRANCH   3  12
HETATM   12  O2  UNL     1      53.265  -9.250  57.288  1.00  0.00    -0.389 OA
ATOM     13  H2  UNL     1      53.812  -9.178  56.514  1.00  0.00     0.210 HD
ENDBRANCH   3  12
TORSDOF 2
ENDMDL
MODEL 5
REMARK VINA RESULT: -4.727556664      5.053      6.794
REMARK  2 active torsions:
REMARK  status: ('A' for Active; 'I' for Inactive)
REMARK    1  A    between atoms: O1_1  and  C1_3 
REMARK    2  A    between atoms: C3_5  and  O2_6 
ROOT
HETATM    1  C1  UNL     1      52.271  -9.906  58.300  1.00  0.00     0.128 C 
HETATM    2  C2  UNL     1      51.818 -11.161  57.540  1.00  0.00     0.070 C 
HETATM    3  C3  UNL     1      52.945 -11.863  58.314  1.00  0.00     0.066 C 
HETATM    4  C4  UNL     1      53.557 -13.018  57.690  1.00  0.00     0.038 C 
HETATM    5  C5  UNL     1      54.823 -12.829  56.938  1.00  0.00     0.003 C 
HETATM    6  C6  UNL     1      55.852 -12.019  57.647  1.00  0.00     0.000 C 
HETATM    7  C7  UNL     1      55.826 -10.617  57.051  1.00  0.00     0.001 C 
HETATM    8  C8  UNL     1      54.351 -10.200  57.054  1.00  0.00     0.010 C 
HETATM    9  C9  UNL     1      53.659 -10.570  58.308  1.00  0.00     0.049 C 
ENDROOT
BRANCH   1  10
HETATM   10  O1  UNL     1      52.234  -8.748  57.580  1.00  0.00    -0.395 OA
ATOM     11  H1  UNL     1      51.481  -8.193  57.748  1.00  0.00     0.210 HD
ENDBRANCH   1  10
BRANCH   3  12
HETATM   12  O2  UNL     1      52.438 -12.130  59.605  1.00  0.00    -0.389 OA
ATOM     13  H2  UNL     1      52.797 -12.969  59.866  1.00  0.00     0.210 HD
ENDBRANCH   3  12
TORSDOF 2
ENDMDL
