MODEL 1
REMARK VINA RESULT: -9.057237426      0.000      0.000
REMARK  10 active torsions:
REMARK  status: ('A' for Active; 'I' for Inactive)
REMARK    1  A    between atoms: C2_2  and  O1_3 
REMARK    2  A    between atoms: O1_3  and  C3_4 
REMARK       I    between atoms: C3_4  and  N1_6 
REMARK    3  A    between atoms: N1_6  and  C4_8 
REMARK    4  A    between atoms: C4_8  and  C5_9 
REMARK    5  A    between atoms: C4_8  and  C8_12 
REMARK    6  A    between atoms: C11_16  and  N2_17 
REMARK       I    between atoms: N2_17  and  C12_19 
REMARK    7  A    between atoms: C12_19  and  C13_21 
REMARK    8  A    between atoms: C13_21  and  N3_22 
REMARK    9  A    between atoms: C13_21  and  C27_40 
REMARK       I    between atoms: N3_22  and  C14_24 
REMARK       I    between atoms: C14_24  and  N4_26 
REMARK   10  A    between atoms: N5_30  and  C18_31 
ROOT
HETATM    1  C13 UNL     1      33.272  32.113  27.808  1.00  0.00     0.181 C 
ENDROOT
BRANCH   1   2
HETATM    2  C12 UNL     1      34.337  31.150  27.589  1.00  0.00     0.241 C 
HETATM    3  N2  UNL     1      35.705  31.247  27.899  1.00  0.00    -0.353 N 
ATOM      4  H2  UNL     1      36.054  32.086  28.362  1.00  0.00     0.163 HD
HETATM    5  O3  UNL     1      33.988  30.038  27.023  1.00  0.00    -0.271 OA
BRANCH   3   6
HETATM    6  C11 UNL     1      36.646  30.163  27.566  1.00  0.00     0.100 C 
HETATM    7  C8  UNL     1      37.127  29.472  28.762  1.00  0.00     0.042 C 
HETATM    8  C9  UNL     1      38.509  28.897  28.545  1.00  0.00     0.082 C 
HETATM    9  S1  UNL     1      39.164  29.831  27.162  1.00  0.00    -0.167 SA
HETATM   10  C10 UNL     1      37.745  30.871  26.814  1.00  0.00     0.099 C 
BRANCH   7  11
HETATM   11  C4  UNL     1      36.217  28.285  29.091  1.00  0.00     0.097 C 
BRANCH  11  12
HETATM   12  N1  UNL     1      35.502  28.354  30.303  1.00  0.00    -0.331 N 
HETATM   13  C3  UNL     1      34.107  28.137  30.475  1.00  0.00     0.360 C 
HETATM   14  O2  UNL     1      33.435  27.863  29.443  1.00  0.00    -0.239 OA
ATOM     15  H1  UNL     1      36.039  28.581  31.140  1.00  0.00     0.165 HD
BRANCH  13  16
HETATM   16  O1  UNL     1      33.434  28.198  31.675  1.00  0.00    -0.304 OA
BRANCH  16  17
HETATM   17  C2  UNL     1      33.872  27.333  32.731  1.00  0.00     0.176 C 
HETATM   18  C1  UNL     1      33.893  25.882  32.268  1.00  0.00     0.034 C 
ENDBRANCH  16  17
ENDBRANCH  13  16
ENDBRANCH  11  12
BRANCH  11  19
HETATM   19  C5  UNL     1      36.989  26.984  28.921  1.00  0.00     0.009 A 
HETATM   20  C6  UNL     1      36.214  25.737  28.604  1.00  0.00     0.007 A 
HETATM   21  C7  UNL     1      36.960  25.903  29.898  1.00  0.00     0.007 A 
ENDBRANCH  11  19
ENDBRANCH   7  11
ENDBRANCH   3   6
ENDBRANCH   1   2
BRANCH   1  22
HETATM   22  N3  UNL     1      33.426  33.303  26.971  1.00  0.00    -0.329 N 
HETATM   23  C14 UNL     1      33.652  33.295  25.587  1.00  0.00     0.319 C 
HETATM   24  O4  UNL     1      33.714  32.207  24.962  1.00  0.00    -0.247 OA
HETATM   25  N4  UNL     1      33.810  34.480  24.852  1.00  0.00    -0.333 N 
HETATM   26  C15 UNL     1      33.941  35.731  25.577  1.00  0.00     0.129 C 
HETATM   27  C26 UNL     1      33.812  34.356  23.412  1.00  0.00     0.157 C 
HETATM   28  C16 UNL     1      35.412  35.728  26.029  1.00  0.00     0.050 C 
HETATM   29  C17 UNL     1      36.278  35.850  24.784  1.00  0.00     0.274 C 
HETATM   30  N5  UNL     1      36.117  34.753  23.871  1.00  0.00     0.094 N 
HETATM   31  C25 UNL     1      35.115  34.987  22.864  1.00  0.00     0.292 C 
ATOM     32  H3  UNL     1      33.364  34.212  27.430  1.00  0.00     0.165 HD
BRANCH  30  33
HETATM   33  C18 UNL     1      37.365  34.266  23.425  1.00  0.00     0.223 C 
HETATM   34  C19 UNL     1      38.172  35.298  22.661  1.00  0.00     0.036 C 
HETATM   35  C20 UNL     1      39.214  34.550  21.850  1.00  0.00     0.006 C 
HETATM   36  C21 UNL     1      40.125  33.744  22.752  1.00  0.00    -0.019 C 
HETATM   37  C22 UNL     1      41.109  34.647  23.473  1.00  0.00     0.010 C 
HETATM   38  C23 UNL     1      39.357  32.877  23.694  1.00  0.00     0.006 C 
HETATM   39  C24 UNL     1      38.258  33.643  24.445  1.00  0.00     0.036 C 
ENDBRANCH  30  33
ENDBRANCH   1  22
BRANCH   1  40
HETATM   40  C27 UNL     1      33.299  32.611  29.279  1.00  0.00     0.009 C 
HETATM   41  C28 UNL     1      33.589  31.473  30.210  1.00  0.00     0.012 C 
HETATM   42  C29 UNL     1      34.290  33.700  29.487  1.00  0.00     0.012 C 
ENDBRANCH   1  40
TORSDOF 10
ENDMDL
MODEL 2
REMARK VINA RESULT: -9.026469807      2.813      6.699
REMARK  10 active torsions:
REMARK  status: ('A' for Active; 'I' for Inactive)
REMARK    1  A    between atoms: C2_2  and  O1_3 
REMARK    2  A    between atoms: O1_3  and  C3_4 
REMARK       I    between atoms: C3_4  and  N1_6 
REMARK    3  A    between atoms: N1_6  and  C4_8 
REMARK    4  A    between atoms: C4_8  and  C5_9 
REMARK    5  A    between atoms: C4_8  and  C8_12 
REMARK    6  A    between atoms: C11_16  and  N2_17 
REMARK       I    between atoms: N2_17  and  C12_19 
REMARK    7  A    between atoms: C12_19  and  C13_21 
REMARK    8  A    between atoms: C13_21  and  N3_22 
REMARK    9  A    between atoms: C13_21  and  C27_40 
REMARK       I    between atoms: N3_22  and  C14_24 
REMARK       I    between atoms: C14_24  and  N4_26 
REMARK   10  A    between atoms: N5_30  and  C18_31 
ROOT
HETATM    1  C13 UNL     1      36.666  30.301  28.211  1.00  0.00     0.181 C 
ENDROOT
BRANCH   1   2
HETATM    2  C12 UNL     1      35.594  31.010  27.535  1.00  0.00     0.241 C 
HETATM    3  N2  UNL     1      35.278  32.380  27.556  1.00  0.00    -0.353 N 
ATOM      4  H2  UNL     1      35.865  33.019  28.093  1.00  0.00     0.163 HD
HETATM    5  O3  UNL     1      34.804  30.284  26.808  1.00  0.00    -0.271 OA
BRANCH   3   6
HETATM    6  C11 UNL     1      34.117  32.912  26.821  1.00  0.00     0.100 C 
HETATM    7  C8  UNL     1      34.452  34.125  26.076  1.00  0.00     0.042 C 
HETATM    8  C9  UNL     1      33.246  35.022  25.916  1.00  0.00     0.082 C 
HETATM    9  S1  UNL     1      32.126  34.492  27.212  1.00  0.00    -0.167 SA
HETATM   10  C10 UNL     1      33.095  33.150  27.904  1.00  0.00     0.099 C 
BRANCH   7  11
HETATM   11  C4  UNL     1      34.911  33.768  24.659  1.00  0.00     0.097 C 
BRANCH  11  12
HETATM   12  N1  UNL     1      34.877  32.404  24.309  1.00  0.00    -0.331 N 
HETATM   13  C3  UNL     1      34.187  31.832  23.205  1.00  0.00     0.360 C 
HETATM   14  O2  UNL     1      33.531  32.617  22.464  1.00  0.00    -0.239 OA
ATOM     15  H1  UNL     1      35.399  31.764  24.906  1.00  0.00     0.165 HD
BRANCH  13  16
HETATM   16  O1  UNL     1      34.179  30.494  22.876  1.00  0.00    -0.304 OA
BRANCH  16  17
HETATM   17  C2  UNL     1      33.473  30.102  21.691  1.00  0.00     0.176 C 
HETATM   18  C1  UNL     1      34.190  28.955  20.990  1.00  0.00     0.034 C 
ENDBRANCH  16  17
ENDBRANCH  13  16
ENDBRANCH  11  12
BRANCH  11  19
HETATM   19  C5  UNL     1      36.252  34.429  24.372  1.00  0.00     0.009 A 
HETATM   20  C6  UNL     1      36.351  35.921  24.512  1.00  0.00     0.007 A 
HETATM   21  C7  UNL     1      36.508  35.235  23.185  1.00  0.00     0.007 A 
ENDBRANCH  11  19
ENDBRANCH   7  11
ENDBRANCH   3   6
ENDBRANCH   1   2
BRANCH   1  22
HETATM   22  N3  UNL     1      37.801  30.044  27.325  1.00  0.00    -0.329 N 
HETATM   23  C14 UNL     1      38.917  30.880  27.178  1.00  0.00     0.319 C 
HETATM   24  O4  UNL     1      39.012  31.935  27.853  1.00  0.00    -0.247 OA
HETATM   25  N4  UNL     1      39.961  30.577  26.290  1.00  0.00    -0.333 N 
HETATM   26  C15 UNL     1      39.781  29.476  25.360  1.00  0.00     0.129 C 
HETATM   27  C26 UNL     1      41.153  31.389  26.388  1.00  0.00     0.157 C 
HETATM   28  C16 UNL     1      38.913  30.088  24.247  1.00  0.00     0.050 C 
HETATM   29  C17 UNL     1      39.752  31.135  23.529  1.00  0.00     0.274 C 
HETATM   30  N5  UNL     1      40.164  32.215  24.383  1.00  0.00     0.094 N 
HETATM   31  C25 UNL     1      41.448  32.002  24.998  1.00  0.00     0.292 C 
ATOM     32  H3  UNL     1      37.779  29.189  26.769  1.00  0.00     0.165 HD
BRANCH  30  33
HETATM   33  C18 UNL     1      39.953  33.468  23.767  1.00  0.00     0.223 C 
HETATM   34  C19 UNL     1      40.644  34.612  24.484  1.00  0.00     0.036 C 
HETATM   35  C20 UNL     1      39.973  35.898  24.042  1.00  0.00     0.006 C 
HETATM   36  C21 UNL     1      40.088  36.080  22.543  1.00  0.00    -0.019 C 
HETATM   37  C22 UNL     1      41.494  36.500  22.156  1.00  0.00     0.010 C 
HETATM   38  C23 UNL     1      39.631  34.872  21.795  1.00  0.00     0.006 C 
HETATM   39  C24 UNL     1      40.269  33.575  22.313  1.00  0.00     0.036 C 
ENDBRANCH  30  33
ENDBRANCH   1  22
BRANCH   1  40
HETATM   40  C27 UNL     1      36.165  28.911  28.689  1.00  0.00     0.009 C 
HETATM   41  C28 UNL     1      37.311  27.952  28.799  1.00  0.00     0.012 C 
HETATM   42  C29 UNL     1      35.443  28.988  29.988  1.00  0.00     0.012 C 
ENDBRANCH   1  40
TORSDOF 10
ENDMDL
MODEL 3
REMARK VINA RESULT: -8.623486190      3.029      6.729
REMARK  10 active torsions:
REMARK  status: ('A' for Active; 'I' for Inactive)
REMARK    1  A    between atoms: C2_2  and  O1_3 
REMARK    2  A    between atoms: O1_3  and  C3_4 
REMARK       I    between atoms: C3_4  and  N1_6 
REMARK    3  A    between atoms: N1_6  and  C4_8 
REMARK    4  A    between atoms: C4_8  and  C5_9 
REMARK    5  A    between atoms: C4_8  and  C8_12 
REMARK    6  A    between atoms: C11_16  and  N2_17 
REMARK       I    between atoms: N2_17  and  C12_19 
REMARK    7  A    between atoms: C12_19  and  C13_21 
REMARK    8  A    between atoms: C13_21  and  N3_22 
REMARK    9  A    between atoms: C13_21  and  C27_40 
REMARK       I    between atoms: N3_22  and  C14_24 
REMARK       I    between atoms: C14_24  and  N4_26 
REMARK   10  A    between atoms: N5_30  and  C18_31 
ROOT
HETATM    1  C13 UNL     1      37.098  30.708  28.526  1.00  0.00     0.181 C 
ENDROOT
BRANCH   1   2
HETATM    2  C12 UNL     1      36.008  31.287  27.760  1.00  0.00     0.241 C 
HETATM    3  N2  UNL     1      35.296  32.478  27.981  1.00  0.00    -0.353 N 
ATOM      4  H2  UNL     1      35.552  33.074  28.769  1.00  0.00     0.163 HD
HETATM    5  O3  UNL     1      35.624  30.612  26.722  1.00  0.00    -0.271 OA
BRANCH   3   6
HETATM    6  C11 UNL     1      34.187  32.886  27.100  1.00  0.00     0.100 C 
HETATM    7  C8  UNL     1      34.511  34.092  26.338  1.00  0.00     0.042 C 
HETATM    8  C9  UNL     1      33.265  34.882  26.005  1.00  0.00     0.082 C 
HETATM    9  S1  UNL     1      32.052  34.315  27.197  1.00  0.00    -0.167 SA
HETATM   10  C10 UNL     1      33.036  33.083  28.054  1.00  0.00     0.099 C 
BRANCH   7  11
HETATM   11  C4  UNL     1      35.150  33.717  24.998  1.00  0.00     0.097 C 
BRANCH  11  12
HETATM   12  N1  UNL     1      34.954  32.395  24.552  1.00  0.00    -0.331 N 
HETATM   13  C3  UNL     1      34.159  31.985  23.446  1.00  0.00     0.360 C 
HETATM   14  O2  UNL     1      33.561  32.890  22.799  1.00  0.00    -0.239 OA
ATOM     15  H1  UNL     1      35.429  31.659  25.074  1.00  0.00     0.165 HD
BRANCH  13  16
HETATM   16  O1  UNL     1      33.992  30.685  23.022  1.00  0.00    -0.304 OA
BRANCH  16  17
HETATM   17  C2  UNL     1      33.504  30.475  21.690  1.00  0.00     0.176 C 
HETATM   18  C1  UNL     1      33.996  29.142  21.138  1.00  0.00     0.034 C 
ENDBRANCH  16  17
ENDBRANCH  13  16
ENDBRANCH  11  12
BRANCH  11  19
HETATM   19  C5  UNL     1      36.612  34.143  24.989  1.00  0.00     0.009 A 
HETATM   20  C6  UNL     1      37.486  33.653  23.871  1.00  0.00     0.007 A 
HETATM   21  C7  UNL     1      37.711  33.237  25.297  1.00  0.00     0.007 A 
ENDBRANCH  11  19
ENDBRANCH   7  11
ENDBRANCH   3   6
ENDBRANCH   1   2
BRANCH   1  22
HETATM   22  N3  UNL     1      38.131  30.132  27.665  1.00  0.00    -0.329 N 
HETATM   23  C14 UNL     1      39.474  30.533  27.634  1.00  0.00     0.319 C 
HETATM   24  O4  UNL     1      39.882  31.440  28.402  1.00  0.00    -0.247 OA
HETATM   25  N4  UNL     1      40.406  29.945  26.764  1.00  0.00    -0.333 N 
HETATM   26  C15 UNL     1      39.919  29.043  25.736  1.00  0.00     0.129 C 
HETATM   27  C26 UNL     1      41.796  30.280  26.979  1.00  0.00     0.157 C 
HETATM   28  C16 UNL     1      39.391  29.994  24.648  1.00  0.00     0.050 C 
HETATM   29  C17 UNL     1      40.587  30.728  24.057  1.00  0.00     0.274 C 
HETATM   30  N5  UNL     1      41.289  31.535  25.017  1.00  0.00     0.094 N 
HETATM   31  C25 UNL     1      42.376  30.845  25.660  1.00  0.00     0.292 C 
ATOM     32  H3  UNL     1      37.852  29.378  27.037  1.00  0.00     0.165 HD
BRANCH  30  33
HETATM   33  C18 UNL     1      41.565  32.821  24.504  1.00  0.00     0.223 C 
HETATM   34  C19 UNL     1      40.894  33.091  23.171  1.00  0.00     0.036 C 
HETATM   35  C20 UNL     1      41.626  34.249  22.520  1.00  0.00     0.006 C 
HETATM   36  C21 UNL     1      41.564  35.487  23.392  1.00  0.00    -0.019 C 
HETATM   37  C22 UNL     1      40.187  36.121  23.332  1.00  0.00     0.010 C 
HETATM   38  C23 UNL     1      41.999  35.207  24.792  1.00  0.00     0.006 C 
HETATM   39  C24 UNL     1      41.299  33.984  25.400  1.00  0.00     0.036 C 
ENDBRANCH  30  33
ENDBRANCH   1  22
BRANCH   1  40
HETATM   40  C27 UNL     1      36.569  29.544  29.408  1.00  0.00     0.009 C 
HETATM   41  C28 UNL     1      35.132  29.773  29.766  1.00  0.00     0.012 C 
HETATM   42  C29 UNL     1      36.721  28.221  28.746  1.00  0.00     0.012 C 
ENDBRANCH   1  40
TORSDOF 10
ENDMDL
MODEL 4
REMARK VINA RESULT: -8.425390749      2.322      5.916
REMARK  10 active torsions:
REMARK  status: ('A' for Active; 'I' for Inactive)
REMARK    1  A    between atoms: C2_2  and  O1_3 
REMARK    2  A    between atoms: O1_3  and  C3_4 
REMARK       I    between atoms: C3_4  and  N1_6 
REMARK    3  A    between atoms: N1_6  and  C4_8 
REMARK    4  A    between atoms: C4_8  and  C5_9 
REMARK    5  A    between atoms: C4_8  and  C8_12 
REMARK    6  A    between atoms: C11_16  and  N2_17 
REMARK       I    between atoms: N2_17  and  C12_19 
REMARK    7  A    between atoms: C12_19  and  C13_21 
REMARK    8  A    between atoms: C13_21  and  N3_22 
REMARK    9  A    between atoms: C13_21  and  C27_40 
REMARK       I    between atoms: N3_22  and  C14_24 
REMARK       I    between atoms: C14_24  and  N4_26 
REMARK   10  A    between atoms: N5_30  and  C18_31 
ROOT
HETATM    1  C13 UNL     1      36.028  29.126  28.543  1.00  0.00     0.181 C 
ENDROOT
BRANCH   1   2
HETATM    2  C12 UNL     1      37.375  29.609  28.292  1.00  0.00     0.241 C 
HETATM    3  N2  UNL     1      38.439  28.976  27.627  1.00  0.00    -0.353 N 
ATOM      4  H2  UNL     1      38.297  28.050  27.225  1.00  0.00     0.163 HD
HETATM    5  O3  UNL     1      37.647  30.791  28.748  1.00  0.00    -0.271 OA
BRANCH   3   6
HETATM    6  C11 UNL     1      39.758  29.623  27.499  1.00  0.00     0.100 C 
HETATM    7  C8  UNL     1      40.382  29.338  26.208  1.00  0.00     0.042 C 
HETATM    8  C9  UNL     1      41.891  29.370  26.308  1.00  0.00     0.082 C 
HETATM    9  S1  UNL     1      42.222  29.140  28.055  1.00  0.00    -0.167 SA
HETATM   10  C10 UNL     1      40.536  29.065  28.665  1.00  0.00     0.099 C 
BRANCH   7  11
HETATM   11  C4  UNL     1      39.999  30.412  25.185  1.00  0.00     0.097 C 
BRANCH  11  12
HETATM   12  N1  UNL     1      38.826  30.185  24.440  1.00  0.00    -0.331 N 
HETATM   13  C3  UNL     1      37.721  31.072  24.312  1.00  0.00     0.360 C 
HETATM   14  O2  UNL     1      37.789  32.170  24.930  1.00  0.00    -0.239 OA
ATOM     15  H1  UNL     1      38.762  29.297  23.943  1.00  0.00     0.165 HD
BRANCH  13  16
HETATM   16  O1  UNL     1      36.588  30.831  23.566  1.00  0.00    -0.304 OA
BRANCH  16  17
HETATM   17  C2  UNL     1      35.324  31.192  24.137  1.00  0.00     0.176 C 
HETATM   18  C1  UNL     1      34.220  31.134  23.089  1.00  0.00     0.034 C 
ENDBRANCH  16  17
ENDBRANCH  13  16
ENDBRANCH  11  12
BRANCH  11  19
HETATM   19  C5  UNL     1      41.206  30.749  24.319  1.00  0.00     0.009 A 
HETATM   20  C6  UNL     1      41.141  31.982  23.463  1.00  0.00     0.007 A 
HETATM   21  C7  UNL     1      41.215  30.603  22.870  1.00  0.00     0.007 A 
ENDBRANCH  11  19
ENDBRANCH   7  11
ENDBRANCH   3   6
ENDBRANCH   1   2
BRANCH   1  22
HETATM   22  N3  UNL     1      35.140  30.191  29.011  1.00  0.00    -0.329 N 
HETATM   23  C14 UNL     1      34.058  30.715  28.290  1.00  0.00     0.319 C 
HETATM   24  O4  UNL     1      33.770  30.257  27.157  1.00  0.00    -0.247 OA
HETATM   25  N4  UNL     1      33.261  31.754  28.797  1.00  0.00    -0.333 N 
HETATM   26  C15 UNL     1      33.692  32.430  30.007  1.00  0.00     0.129 C 
HETATM   27  C26 UNL     1      32.048  32.056  28.069  1.00  0.00     0.157 C 
HETATM   28  C16 UNL     1      34.772  33.405  29.504  1.00  0.00     0.050 C 
HETATM   29  C17 UNL     1      34.083  34.451  28.639  1.00  0.00     0.274 C 
HETATM   30  N5  UNL     1      33.444  33.895  27.478  1.00  0.00     0.094 N 
HETATM   31  C25 UNL     1      32.061  33.556  27.691  1.00  0.00     0.292 C 
ATOM     32  H3  UNL     1      35.322  30.582  29.935  1.00  0.00     0.165 HD
BRANCH  30  33
HETATM   33  C18 UNL     1      33.745  34.642  26.317  1.00  0.00     0.223 C 
HETATM   34  C19 UNL     1      35.234  34.767  26.056  1.00  0.00     0.036 C 
HETATM   35  C20 UNL     1      35.433  35.942  25.118  1.00  0.00     0.006 C 
HETATM   36  C21 UNL     1      34.694  35.725  23.814  1.00  0.00    -0.019 C 
HETATM   37  C22 UNL     1      35.415  34.711  22.946  1.00  0.00     0.010 C 
HETATM   38  C23 UNL     1      33.262  35.365  24.035  1.00  0.00     0.006 C 
HETATM   39  C24 UNL     1      33.086  34.224  25.047  1.00  0.00     0.036 C 
ENDBRANCH  30  33
ENDBRANCH   1  22
BRANCH   1  40
HETATM   40  C27 UNL     1      36.049  28.053  29.666  1.00  0.00     0.009 C 
HETATM   41  C28 UNL     1      34.903  28.261  30.608  1.00  0.00     0.012 C 
HETATM   42  C29 UNL     1      36.012  26.669  29.123  1.00  0.00     0.012 C 
ENDBRANCH   1  40
TORSDOF 10
ENDMDL
MODEL 5
REMARK VINA RESULT: -8.379377607      2.598      5.384
REMARK  10 active torsions:
REMARK  status: ('A' for Active; 'I' for Inactive)
REMARK    1  A    between atoms: C2_2  and  O1_3 
REMARK    2  A    between atoms: O1_3  and  C3_4 
REMARK       I    between atoms: C3_4  and  N1_6 
REMARK    3  A    between atoms: N1_6  and  C4_8 
REMARK    4  A    between atoms: C4_8  and  C5_9 
REMARK    5  A    between atoms: C4_8  and  C8_12 
REMARK    6  A    between atoms: C11_16  and  N2_17 
REMARK       I    between atoms: N2_17  and  C12_19 
REMARK    7  A    between atoms: C12_19  and  C13_21 
REMARK    8  A    between atoms: C13_21  and  N3_22 
REMARK    9  A    between atoms: C13_21  and  C27_40 
REMARK       I    between atoms: N3_22  and  C14_24 
REMARK       I    between atoms: C14_24  and  N4_26 
REMARK   10  A    between atoms: N5_30  and  C18_31 
ROOT
HETATM    1  C13 UNL     1      35.096  33.568  24.362  1.00  0.00     0.181 C 
ENDROOT
BRANCH   1   2
HETATM    2  C12 UNL     1      34.792  33.283  25.753  1.00  0.00     0.241 C 
HETATM    3  N2  UNL     1      34.069  32.212  26.306  1.00  0.00    -0.353 N 
ATOM      4  H2  UNL     1      33.696  31.490  25.689  1.00  0.00     0.163 HD
HETATM    5  O3  UNL     1      35.244  34.135  26.618  1.00  0.00    -0.271 OA
BRANCH   3   6
HETATM    6  C11 UNL     1      33.836  32.111  27.758  1.00  0.00     0.100 C 
HETATM    7  C8  UNL     1      33.788  30.720  28.207  1.00  0.00     0.042 C 
HETATM    8  C9  UNL     1      32.914  30.568  29.432  1.00  0.00     0.082 C 
HETATM    9  S1  UNL     1      31.867  32.023  29.410  1.00  0.00    -0.167 SA
HETATM   10  C10 UNL     1      32.530  32.838  27.955  1.00  0.00     0.099 C 
BRANCH   7  11
HETATM   11  C4  UNL     1      35.186  30.247  28.618  1.00  0.00     0.097 C 
BRANCH  11  12
HETATM   12  N1  UNL     1      35.248  29.223  29.583  1.00  0.00    -0.331 N 
HETATM   13  C3  UNL     1      36.039  28.043  29.514  1.00  0.00     0.360 C 
HETATM   14  O2  UNL     1      36.754  27.888  28.485  1.00  0.00    -0.239 OA
ATOM     15  H1  UNL     1      34.669  29.339  30.414  1.00  0.00     0.165 HD
BRANCH  13  16
HETATM   16  O1  UNL     1      36.092  27.061  30.478  1.00  0.00    -0.304 OA
BRANCH  16  17
HETATM   17  C2  UNL     1      34.854  26.626  31.056  1.00  0.00     0.176 C 
HETATM   18  C1  UNL     1      35.104  25.758  32.283  1.00  0.00     0.034 C 
ENDBRANCH  16  17
ENDBRANCH  13  16
ENDBRANCH  11  12
BRANCH  11  19
HETATM   19  C5  UNL     1      36.054  31.450  28.962  1.00  0.00     0.009 A 
HETATM   20  C6  UNL     1      37.348  31.625  28.221  1.00  0.00     0.007 A 
HETATM   21  C7  UNL     1      37.307  31.348  29.697  1.00  0.00     0.007 A 
ENDBRANCH  11  19
ENDBRANCH   7  11
ENDBRANCH   3   6
ENDBRANCH   1   2
BRANCH   1  22
HETATM   22  N3  UNL     1      36.509  33.350  24.051  1.00  0.00    -0.329 N 
HETATM   23  C14 UNL     1      37.187  32.130  24.185  1.00  0.00     0.319 C 
HETATM   24  O4  UNL     1      36.577  31.106  24.578  1.00  0.00    -0.247 OA
HETATM   25  N4  UNL     1      38.553  32.002  23.886  1.00  0.00    -0.333 N 
HETATM   26  C15 UNL     1      39.320  33.207  23.624  1.00  0.00     0.129 C 
HETATM   27  C26 UNL     1      39.086  30.659  23.846  1.00  0.00     0.157 C 
HETATM   28  C16 UNL     1      39.604  33.761  25.032  1.00  0.00     0.050 C 
HETATM   29  C17 UNL     1      40.542  32.787  25.730  1.00  0.00     0.274 C 
HETATM   30  N5  UNL     1      39.977  31.477  25.900  1.00  0.00     0.094 N 
HETATM   31  C25 UNL     1      40.284  30.575  24.821  1.00  0.00     0.292 C 
ATOM     32  H3  UNL     1      37.044  34.149  23.709  1.00  0.00     0.165 HD
BRANCH  30  33
HETATM   33  C18 UNL     1      40.180  30.994  27.212  1.00  0.00     0.223 C 
HETATM   34  C19 UNL     1      40.311  29.485  27.280  1.00  0.00     0.036 C 
HETATM   35  C20 UNL     1      40.042  29.070  28.714  1.00  0.00     0.006 C 
HETATM   36  C21 UNL     1      41.029  29.720  29.660  1.00  0.00    -0.019 C 
HETATM   37  C22 UNL     1      42.390  29.056  29.561  1.00  0.00     0.010 C 
HETATM   38  C23 UNL     1      41.103  31.198  29.463  1.00  0.00     0.006 C 
HETATM   39  C24 UNL     1      41.300  31.592  27.993  1.00  0.00     0.036 C 
ENDBRANCH  30  33
ENDBRANCH   1  22
BRANCH   1  40
HETATM   40  C27 UNL     1      34.809  35.063  24.050  1.00  0.00     0.009 C 
HETATM   41  C28 UNL     1      35.559  35.495  22.828  1.00  0.00     0.012 C 
HETATM   42  C29 UNL     1      33.356  35.332  23.875  1.00  0.00     0.012 C 
ENDBRANCH   1  40
TORSDOF 10
ENDMDL
