MODEL 1
REMARK VINA RESULT: -9.360348931      0.000      0.000
REMARK  9 active torsions:
REMARK  status: ('A' for Active; 'I' for Inactive)
REMARK    1  A    between atoms: N1_1  and  C1_4 
REMARK    2  A    between atoms: C5_17  and  O1_18 
REMARK    3  A    between atoms: C6_20  and  C7_21 
REMARK    4  A    between atoms: C7_21  and  N6_22 
REMARK    5  A    between atoms: N6_22  and  C8_25 
REMARK    6  A    between atoms: C8_25  and  O2_26 
REMARK    7  A    between atoms: O2_26  and  C9_27 
REMARK    8  A    between atoms: C9_27  and  C10_28 
REMARK    9  A    between atoms: C10_28  and  N7_29 
ROOT
HETATM    1  C1  UNL     1      13.133  42.544  -2.594  1.00  0.00     0.679 A 
HETATM    2  N2  UNL     1      14.133  43.437  -2.590  1.00  0.00    -0.176 N 
ATOM      3  H2  UNL     1      15.071  43.127  -2.843  1.00  0.00     0.186 HD
HETATM    4  C2  UNL     1      13.940  44.730  -2.263  1.00  0.00     0.129 A 
HETATM    5  N3  UNL     1      14.958  45.505  -2.290  1.00  0.00    -0.384 N 
ATOM      6  H31 UNL     1      14.812  46.484  -2.042  1.00  0.00     0.157 HD
ATOM      7  H32 UNL     1      15.877  45.146  -2.548  1.00  0.00     0.157 HD
HETATM    8  C3  UNL     1      12.684  45.221  -1.910  1.00  0.00     0.061 A 
HETATM    9  C4  UNL     1      11.672  44.278  -1.922  1.00  0.00     0.133 A 
HETATM   10  N4  UNL     1      11.901  42.994  -2.254  1.00  0.00    -0.176 N 
ATOM     11  H4  UNL     1      11.121  42.338  -2.250  1.00  0.00     0.186 HD
HETATM   12  N5  UNL     1      10.537  44.782  -1.588  1.00  0.00    -0.345 N 
ATOM     13  H5  UNL     1       9.655  44.275  -1.528  1.00  0.00     0.164 HD
HETATM   14  C5  UNL     1      10.719  46.177  -1.312  1.00  0.00     0.252 A 
HETATM   15  C6  UNL     1      12.188  46.383  -1.542  1.00  0.00     0.011 A 
ENDROOT
BRANCH  15  16
HETATM   16  C7  UNL     1      12.931  47.641  -1.377  1.00  0.00     0.274 C 
BRANCH  16  17
HETATM   17  N6  UNL     1      12.074  48.814  -1.337  1.00  0.00    -0.051 N 
ATOM     18  H62 UNL     1      12.363  49.519  -2.015  1.00  0.00     0.280 HD
ATOM     19  H61 UNL     1      11.144  48.620  -1.708  1.00  0.00     0.280 HD
BRANCH  17  20
HETATM   20  C8  UNL     1      12.017  49.350   0.008  1.00  0.00     0.399 C 
BRANCH  20  21
HETATM   21  O2  UNL     1      13.148  50.026   0.372  1.00  0.00    -0.363 OA
BRANCH  21  22
HETATM   22  C9  UNL     1      12.985  51.119   1.174  1.00  0.00     0.189 C 
BRANCH  22  23
HETATM   23  C10 UNL     1      12.173  52.239   0.577  1.00  0.00     0.148 C 
BRANCH  23  24
HETATM   24  N7  UNL     1      12.819  52.729  -0.622  1.00  0.00    -0.365 N 
HETATM   25  C11 UNL     1      13.470  53.865  -0.624  1.00  0.00     0.197 C 
HETATM   26  N8  UNL     1      14.069  54.263  -1.840  1.00  0.00    -0.067 NA
HETATM   27  N9  UNL     1      13.552  54.637   0.559  1.00  0.00    -0.067 NA
ATOM     28  H7  UNL     1      12.767  52.180  -1.480  1.00  0.00     0.161 HD
ENDBRANCH  23  24
ENDBRANCH  22  23
ENDBRANCH  21  22
ENDBRANCH  20  21
ENDBRANCH  17  20
ENDBRANCH  16  17
ENDBRANCH  15  16
BRANCH  14  29
HETATM   29  O1  UNL     1       9.936  46.878  -2.220  1.00  0.00    -0.373 OA
ATOM     30  H1  UNL     1       9.530  47.593  -1.745  1.00  0.00     0.212 HD
ENDBRANCH  14  29
BRANCH   1  31
HETATM   31  N1  UNL     1      13.326  41.307  -2.906  1.00  0.00    -0.234 N 
ATOM     32  H12 UNL     1      14.220  40.993  -3.282  1.00  0.00     0.174 HD
ATOM     33  H11 UNL     1      12.597  40.602  -2.790  1.00  0.00     0.174 HD
ENDBRANCH   1  31
TORSDOF 9
ENDMDL
MODEL 2
REMARK VINA RESULT: -9.357406274      1.282      1.551
REMARK  9 active torsions:
REMARK  status: ('A' for Active; 'I' for Inactive)
REMARK    1  A    between atoms: N1_1  and  C1_4 
REMARK    2  A    between atoms: C5_17  and  O1_18 
REMARK    3  A    between atoms: C6_20  and  C7_21 
REMARK    4  A    between atoms: C7_21  and  N6_22 
REMARK    5  A    between atoms: N6_22  and  C8_25 
REMARK    6  A    between atoms: C8_25  and  O2_26 
REMARK    7  A    between atoms: O2_26  and  C9_27 
REMARK    8  A    between atoms: C9_27  and  C10_28 
REMARK    9  A    between atoms: C10_28  and  N7_29 
ROOT
HETATM    1  C1  UNL     1      14.780  43.782  -2.462  1.00  0.00     0.679 A 
HETATM    2  N2  UNL     1      14.914  45.082  -2.162  1.00  0.00    -0.176 N 
ATOM      3  H2  UNL     1      15.848  45.455  -1.994  1.00  0.00     0.186 HD
HETATM    4  C2  UNL     1      13.855  45.912  -2.074  1.00  0.00     0.129 A 
HETATM    5  N3  UNL     1      14.087  47.136  -1.781  1.00  0.00    -0.384 N 
ATOM      6  H31 UNL     1      13.286  47.764  -1.715  1.00  0.00     0.157 HD
ATOM      7  H32 UNL     1      15.041  47.460  -1.622  1.00  0.00     0.157 HD
HETATM    8  C3  UNL     1      12.553  45.469  -2.291  1.00  0.00     0.061 A 
HETATM    9  C4  UNL     1      12.444  44.124  -2.599  1.00  0.00     0.133 A 
HETATM   10  N4  UNL     1      13.523  43.324  -2.678  1.00  0.00    -0.176 N 
ATOM     11  H4  UNL     1      13.391  42.340  -2.910  1.00  0.00     0.186 HD
HETATM   12  N5  UNL     1      11.223  43.768  -2.788  1.00  0.00    -0.345 N 
ATOM     13  H5  UNL     1      10.907  42.828  -3.024  1.00  0.00     0.164 HD
HETATM   14  C5  UNL     1      10.380  44.913  -2.611  1.00  0.00     0.252 A 
HETATM   15  C6  UNL     1      11.351  46.005  -2.270  1.00  0.00     0.011 A 
ENDROOT
BRANCH  15  16
HETATM   16  C7  UNL     1      11.021  47.404  -1.961  1.00  0.00     0.274 C 
BRANCH  16  17
HETATM   17  N6  UNL     1      10.812  47.646  -0.543  1.00  0.00    -0.051 N 
ATOM     18  H62 UNL     1       9.839  47.501  -0.272  1.00  0.00     0.280 HD
ATOM     19  H61 UNL     1      11.239  46.922   0.034  1.00  0.00     0.280 HD
BRANCH  17  20
HETATM   20  C8  UNL     1      11.280  48.970  -0.184  1.00  0.00     0.399 C 
BRANCH  20  21
HETATM   21  O2  UNL     1      12.642  49.088  -0.204  1.00  0.00    -0.363 OA
BRANCH  21  22
HETATM   22  C9  UNL     1      13.178  50.175   0.424  1.00  0.00     0.189 C 
BRANCH  22  23
HETATM   23  C10 UNL     1      12.338  51.425   0.376  1.00  0.00     0.148 C 
BRANCH  23  24
HETATM   24  N7  UNL     1      12.821  52.302  -0.669  1.00  0.00    -0.365 N 
HETATM   25  C11 UNL     1      13.329  53.475  -0.388  1.00  0.00     0.197 C 
HETATM   26  N8  UNL     1      13.775  54.262  -1.474  1.00  0.00    -0.067 NA
HETATM   27  N9  UNL     1      13.415  53.907   0.957  1.00  0.00    -0.067 NA
ATOM     28  H7  UNL     1      12.764  52.000  -1.643  1.00  0.00     0.161 HD
ENDBRANCH  23  24
ENDBRANCH  22  23
ENDBRANCH  21  22
ENDBRANCH  20  21
ENDBRANCH  17  20
ENDBRANCH  16  17
ENDBRANCH  15  16
BRANCH  14  29
HETATM   29  O1  UNL     1       9.733  45.135  -3.821  1.00  0.00    -0.373 OA
ATOM     30  H1  UNL     1      10.320  45.651  -4.360  1.00  0.00     0.212 HD
ENDBRANCH  14  29
BRANCH   1  31
HETATM   31  N1  UNL     1      15.798  42.994  -2.543  1.00  0.00    -0.234 N 
ATOM     32  H12 UNL     1      16.638  43.160  -1.988  1.00  0.00     0.174 HD
ATOM     33  H11 UNL     1      15.802  42.181  -3.159  1.00  0.00     0.174 HD
ENDBRANCH   1  31
TORSDOF 9
ENDMDL
MODEL 3
REMARK VINA RESULT: -9.310574825      1.482      2.370
REMARK  9 active torsions:
REMARK  status: ('A' for Active; 'I' for Inactive)
REMARK    1  A    between atoms: N1_1  and  C1_4 
REMARK    2  A    between atoms: C5_17  and  O1_18 
REMARK    3  A    between atoms: C6_20  and  C7_21 
REMARK    4  A    between atoms: C7_21  and  N6_22 
REMARK    5  A    between atoms: N6_22  and  C8_25 
REMARK    6  A    between atoms: C8_25  and  O2_26 
REMARK    7  A    between atoms: O2_26  and  C9_27 
REMARK    8  A    between atoms: C9_27  and  C10_28 
REMARK    9  A    between atoms: C10_28  and  N7_29 
ROOT
HETATM    1  C1  UNL     1      12.285  41.812  -3.210  1.00  0.00     0.679 A 
HETATM    2  N2  UNL     1      11.154  42.510  -3.378  1.00  0.00    -0.176 N 
ATOM      3  H2  UNL     1      10.303  42.014  -3.644  1.00  0.00     0.186 HD
HETATM    4  C2  UNL     1      11.101  43.847  -3.206  1.00  0.00     0.129 A 
HETATM    5  N3  UNL     1       9.973  44.422  -3.390  1.00  0.00    -0.384 N 
ATOM      6  H31 UNL     1       9.933  45.433  -3.260  1.00  0.00     0.157 HD
ATOM      7  H32 UNL     1       9.151  43.880  -3.657  1.00  0.00     0.157 HD
HETATM    8  C3  UNL     1      12.224  44.586  -2.841  1.00  0.00     0.061 A 
HETATM    9  C4  UNL     1      13.377  43.841  -2.675  1.00  0.00     0.133 A 
HETATM   10  N4  UNL     1      13.393  42.507  -2.854  1.00  0.00    -0.176 N 
ATOM     11  H4  UNL     1      14.268  42.002  -2.718  1.00  0.00     0.186 HD
HETATM   12  N5  UNL     1      14.381  44.571  -2.340  1.00  0.00    -0.345 N 
ATOM     13  H5  UNL     1      15.329  44.237  -2.166  1.00  0.00     0.164 HD
HETATM   14  C5  UNL     1      13.947  45.934  -2.253  1.00  0.00     0.252 A 
HETATM   15  C6  UNL     1      12.493  45.855  -2.615  1.00  0.00     0.011 A 
ENDROOT
BRANCH  15  16
HETATM   16  C7  UNL     1      11.552  46.980  -2.708  1.00  0.00     0.274 C 
BRANCH  16  17
HETATM   17  N6  UNL     1      12.108  48.236  -2.230  1.00  0.00    -0.051 N 
ATOM     18  H62 UNL     1      13.127  48.215  -2.204  1.00  0.00     0.280 HD
ATOM     19  H61 UNL     1      11.990  48.988  -2.909  1.00  0.00     0.280 HD
BRANCH  17  20
HETATM   20  C8  UNL     1      11.541  48.578  -0.941  1.00  0.00     0.399 C 
BRANCH  20  21
HETATM   21  O2  UNL     1      12.469  48.651   0.059  1.00  0.00    -0.363 OA
BRANCH  21  22
HETATM   22  C9  UNL     1      13.215  49.792   0.131  1.00  0.00     0.189 C 
BRANCH  22  23
HETATM   23  C10 UNL     1      12.431  51.059   0.354  1.00  0.00     0.148 C 
BRANCH  23  24
HETATM   24  N7  UNL     1      12.803  52.047  -0.636  1.00  0.00    -0.365 N 
HETATM   25  C11 UNL     1      13.215  53.239  -0.282  1.00  0.00     0.197 C 
HETATM   26  N8  UNL     1      13.557  54.137  -1.318  1.00  0.00    -0.067 NA
HETATM   27  N9  UNL     1      13.304  53.580   1.089  1.00  0.00    -0.067 NA
ATOM     28  H7  UNL     1      12.744  51.811  -1.627  1.00  0.00     0.161 HD
ENDBRANCH  23  24
ENDBRANCH  22  23
ENDBRANCH  21  22
ENDBRANCH  20  21
ENDBRANCH  17  20
ENDBRANCH  16  17
ENDBRANCH  15  16
BRANCH  14  29
HETATM   29  O1  UNL     1      14.147  46.343  -0.941  1.00  0.00    -0.373 OA
ATOM     30  H1  UNL     1      13.494  47.005  -0.752  1.00  0.00     0.212 HD
ENDBRANCH  14  29
BRANCH   1  31
HETATM   31  N1  UNL     1      12.328  40.534  -3.378  1.00  0.00    -0.234 N 
ATOM     32  H12 UNL     1      11.754  40.077  -4.086  1.00  0.00     0.174 HD
ATOM     33  H11 UNL     1      12.932  39.936  -2.813  1.00  0.00     0.174 HD
ENDBRANCH   1  31
TORSDOF 9
ENDMDL
MODEL 4
REMARK VINA RESULT: -9.245618853      2.841      6.684
REMARK  9 active torsions:
REMARK  status: ('A' for Active; 'I' for Inactive)
REMARK    1  A    between atoms: N1_1  and  C1_4 
REMARK    2  A    between atoms: C5_17  and  O1_18 
REMARK    3  A    between atoms: C6_20  and  C7_21 
REMARK    4  A    between atoms: C7_21  and  N6_22 
REMARK    5  A    between atoms: N6_22  and  C8_25 
REMARK    6  A    between atoms: C8_25  and  O2_26 
REMARK    7  A    between atoms: O2_26  and  C9_27 
REMARK    8  A    between atoms: C9_27  and  C10_28 
REMARK    9  A    between atoms: C10_28  and  N7_29 
ROOT
HETATM    1  C1  UNL     1      12.951  48.870  -0.473  1.00  0.00     0.679 A 
HETATM    2  N2  UNL     1      13.743  48.175  -1.301  1.00  0.00    -0.176 N 
ATOM      3  H2  UNL     1      14.660  48.553  -1.538  1.00  0.00     0.186 HD
HETATM    4  C2  UNL     1      13.369  46.993  -1.830  1.00  0.00     0.129 A 
HETATM    5  N3  UNL     1      14.197  46.406  -2.610  1.00  0.00    -0.384 N 
ATOM      6  H31 UNL     1      13.913  45.512  -3.011  1.00  0.00     0.157 HD
ATOM      7  H32 UNL     1      15.102  46.827  -2.817  1.00  0.00     0.157 HD
HETATM    8  C3  UNL     1      12.131  46.419  -1.548  1.00  0.00     0.061 A 
HETATM    9  C4  UNL     1      11.334  47.158  -0.691  1.00  0.00     0.133 A 
HETATM   10  N4  UNL     1      11.741  48.335  -0.181  1.00  0.00    -0.176 N 
ATOM     11  H4  UNL     1      11.117  48.841   0.447  1.00  0.00     0.186 HD
HETATM   12  N5  UNL     1      10.205  46.585  -0.466  1.00  0.00    -0.345 N 
ATOM     13  H5  UNL     1       9.463  46.947   0.133  1.00  0.00     0.164 HD
HETATM   14  C5  UNL     1      10.164  45.352  -1.195  1.00  0.00     0.252 A 
HETATM   15  C6  UNL     1      11.488  45.326  -1.900  1.00  0.00     0.011 A 
ENDROOT
BRANCH  15  16
HETATM   16  C7  UNL     1      11.971  44.283  -2.817  1.00  0.00     0.274 C 
BRANCH  16  17
HETATM   17  N6  UNL     1      12.259  43.022  -2.154  1.00  0.00    -0.051 N 
ATOM     18  H62 UNL     1      12.125  43.083  -1.145  1.00  0.00     0.280 HD
ATOM     19  H61 UNL     1      11.553  42.314  -2.357  1.00  0.00     0.280 HD
BRANCH  17  20
HETATM   20  C8  UNL     1      13.592  42.568  -2.495  1.00  0.00     0.399 C 
BRANCH  20  21
HETATM   21  O2  UNL     1      14.528  43.564  -2.474  1.00  0.00    -0.363 OA
BRANCH  21  22
HETATM   22  C9  UNL     1      15.838  43.183  -2.441  1.00  0.00     0.189 C 
BRANCH  22  23
HETATM   23  C10 UNL     1      16.772  44.020  -3.276  1.00  0.00     0.148 C 
BRANCH  23  24
HETATM   24  N7  UNL     1      17.653  44.779  -2.414  1.00  0.00    -0.365 N 
HETATM   25  C11 UNL     1      18.612  45.520  -2.910  1.00  0.00     0.197 C 
HETATM   26  N8  UNL     1      19.422  46.226  -1.992  1.00  0.00    -0.067 NA
HETATM   27  N9  UNL     1      18.803  45.589  -4.310  1.00  0.00    -0.067 NA
ATOM     28  H7  UNL     1      17.524  44.737  -1.403  1.00  0.00     0.161 HD
ENDBRANCH  23  24
ENDBRANCH  22  23
ENDBRANCH  21  22
ENDBRANCH  20  21
ENDBRANCH  17  20
ENDBRANCH  16  17
ENDBRANCH  15  16
BRANCH  14  29
HETATM   29  O1  UNL     1      10.038  44.330  -0.262  1.00  0.00    -0.373 OA
ATOM     30  H1  UNL     1       9.780  44.731   0.559  1.00  0.00     0.212 HD
ENDBRANCH  14  29
BRANCH   1  31
HETATM   31  N1  UNL     1      13.315  50.002   0.028  1.00  0.00    -0.234 N 
ATOM     32  H12 UNL     1      12.695  50.811   0.005  1.00  0.00     0.174 HD
ATOM     33  H11 UNL     1      14.229  50.129   0.463  1.00  0.00     0.174 HD
ENDBRANCH   1  31
TORSDOF 9
ENDMDL
MODEL 5
REMARK VINA RESULT: -9.073384754      2.852      6.487
REMARK  9 active torsions:
REMARK  status: ('A' for Active; 'I' for Inactive)
REMARK    1  A    between atoms: N1_1  and  C1_4 
REMARK    2  A    between atoms: C5_17  and  O1_18 
REMARK    3  A    between atoms: C6_20  and  C7_21 
REMARK    4  A    between atoms: C7_21  and  N6_22 
REMARK    5  A    between atoms: N6_22  and  C8_25 
REMARK    6  A    between atoms: C8_25  and  O2_26 
REMARK    7  A    between atoms: O2_26  and  C9_27 
REMARK    8  A    between atoms: C9_27  and  C10_28 
REMARK    9  A    between atoms: C10_28  and  N7_29 
ROOT
HETATM    1  C1  UNL     1      12.915  48.857  -0.455  1.00  0.00     0.679 A 
HETATM    2  N2  UNL     1      13.713  48.174  -1.288  1.00  0.00    -0.176 N 
ATOM      3  H2  UNL     1      14.628  48.560  -1.520  1.00  0.00     0.186 HD
HETATM    4  C2  UNL     1      13.346  46.995  -1.829  1.00  0.00     0.129 A 
HETATM    5  N3  UNL     1      14.179  46.420  -2.613  1.00  0.00    -0.384 N 
ATOM      6  H31 UNL     1      13.902  45.528  -3.022  1.00  0.00     0.157 HD
ATOM      7  H32 UNL     1      15.082  46.848  -2.814  1.00  0.00     0.157 HD
HETATM    8  C3  UNL     1      12.112  46.411  -1.554  1.00  0.00     0.061 A 
HETATM    9  C4  UNL     1      11.309  47.136  -0.692  1.00  0.00     0.133 A 
HETATM   10  N4  UNL     1      11.707  48.311  -0.170  1.00  0.00    -0.176 N 
ATOM     11  H4  UNL     1      11.080  48.807   0.462  1.00  0.00     0.186 HD
HETATM   12  N5  UNL     1      10.183  46.554  -0.473  1.00  0.00    -0.345 N 
ATOM     13  H5  UNL     1       9.438  46.906   0.127  1.00  0.00     0.164 HD
HETATM   14  C5  UNL     1      10.151  45.328  -1.214  1.00  0.00     0.252 A 
HETATM   15  C6  UNL     1      11.476  45.317  -1.917  1.00  0.00     0.011 A 
ENDROOT
BRANCH  15  16
HETATM   16  C7  UNL     1      11.966  44.285  -2.843  1.00  0.00     0.274 C 
BRANCH  16  17
HETATM   17  N6  UNL     1      12.245  43.015  -2.194  1.00  0.00    -0.051 N 
ATOM     18  H62 UNL     1      12.099  43.063  -1.186  1.00  0.00     0.280 HD
ATOM     19  H61 UNL     1      11.539  42.312  -2.415  1.00  0.00     0.280 HD
BRANCH  17  20
HETATM   20  C8  UNL     1      13.581  42.563  -2.526  1.00  0.00     0.399 C 
BRANCH  20  21
HETATM   21  O2  UNL     1      14.518  43.556  -2.481  1.00  0.00    -0.363 OA
BRANCH  21  22
HETATM   22  C9  UNL     1      15.825  43.172  -2.393  1.00  0.00     0.189 C 
BRANCH  22  23
HETATM   23  C10 UNL     1      16.803  44.280  -2.098  1.00  0.00     0.148 C 
BRANCH  23  24
HETATM   24  N7  UNL     1      16.731  44.637  -0.697  1.00  0.00    -0.365 N 
HETATM   25  C11 UNL     1      17.658  45.376  -0.139  1.00  0.00     0.197 C 
HETATM   26  N8  UNL     1      17.504  45.674   1.234  1.00  0.00    -0.067 NA
HETATM   27  N9  UNL     1      18.752  45.840  -0.906  1.00  0.00    -0.067 NA
ATOM     28  H7  UNL     1      15.946  44.308  -0.134  1.00  0.00     0.161 HD
ENDBRANCH  23  24
ENDBRANCH  22  23
ENDBRANCH  21  22
ENDBRANCH  20  21
ENDBRANCH  17  20
ENDBRANCH  16  17
ENDBRANCH  15  16
BRANCH  14  29
HETATM   29  O1  UNL     1      10.029  44.297  -0.292  1.00  0.00    -0.373 OA
ATOM     30  H1  UNL     1       9.465  43.639  -0.680  1.00  0.00     0.212 HD
ENDBRANCH  14  29
BRANCH   1  31
HETATM   31  N1  UNL     1      13.271  49.985   0.057  1.00  0.00    -0.234 N 
ATOM     32  H12 UNL     1      14.200  50.370  -0.113  1.00  0.00     0.174 HD
ATOM     33  H11 UNL     1      12.644  50.531   0.648  1.00  0.00     0.174 HD
ENDBRANCH   1  31
TORSDOF 9
ENDMDL
