MODEL 1
REMARK VINA RESULT: -8.330880799      0.000      0.000
REMARK  12 active torsions:
REMARK  status: ('A' for Active; 'I' for Inactive)
REMARK    1  A    between atoms: N1_1  and  C1_5 
REMARK    2  A    between atoms: C1_5  and  C2_6 
REMARK    3  A    between atoms: C2_6  and  N2_7 
REMARK       I    between atoms: N2_7  and  C3_9 
REMARK    4  A    between atoms: C3_9  and  C4_11 
REMARK    5  A    between atoms: C7_17  and  C8_18 
REMARK       I    between atoms: C8_18  and  N4_20 
REMARK    6  A    between atoms: N4_20  and  C9_22 
REMARK    7  A    between atoms: C9_22  and  C10_23 
REMARK       I    between atoms: C10_23  and  N5_25 
REMARK    8  A    between atoms: N5_25  and  C11_27 
REMARK    9  A    between atoms: C11_27  and  C12_28 
REMARK   10  A    between atoms: C12_28  and  N6_29 
REMARK   11  A    between atoms: N6_29  and  C13_32 
REMARK   12  A    between atoms: C13_32  and  N7_33 
ROOT
HETATM    1  C8  UNL     1      41.070 -65.474  32.848  1.00  0.00     0.224 C 
HETATM    2  O2  UNL     1      40.376 -64.861  32.009  1.00  0.00    -0.273 OA
HETATM    3  N4  UNL     1      41.534 -66.769  32.476  1.00  0.00    -0.352 N 
ATOM      4  H4  UNL     1      42.097 -67.287  33.150  1.00  0.00     0.162 HD
ENDROOT
BRANCH   1   5
HETATM    5  C7  UNL     1      41.425 -64.958  34.152  1.00  0.00     0.119 C 
HETATM    6  C4  UNL     1      42.145 -63.676  34.252  1.00  0.00     0.289 C 
HETATM    7  N3  UNL     1      42.552 -63.699  35.677  1.00  0.00    -0.061 N 
HETATM    8  C5  UNL     1      42.922 -65.045  35.981  1.00  0.00     0.234 C 
ATOM      9  H32 UNL     1      43.283 -63.022  35.897  1.00  0.00     0.278 HD
ATOM     10  H31 UNL     1      41.839 -63.327  36.304  1.00  0.00     0.278 HD
HETATM   11  C6  UNL     1      42.219 -65.933  34.994  1.00  0.00     0.044 C 
BRANCH   6  12
HETATM   12  C3  UNL     1      43.401 -63.555  33.488  1.00  0.00     0.249 C 
HETATM   13  N2  UNL     1      44.435 -62.743  33.984  1.00  0.00    -0.358 N 
ATOM     14  H2  UNL     1      44.237 -62.289  34.876  1.00  0.00     0.162 HD
HETATM   15  O1  UNL     1      43.549 -64.167  32.413  1.00  0.00    -0.271 OA
BRANCH  13  16
HETATM   16  C2  UNL     1      45.713 -62.457  33.434  1.00  0.00     0.150 C 
BRANCH  16  17
HETATM   17  C1  UNL     1      46.473 -61.302  33.966  1.00  0.00     0.249 C 
BRANCH  17  18
HETATM   18  N1  UNL     1      46.511 -61.111  35.373  1.00  0.00    -0.078 N 
ATOM     19  H13 UNL     1      45.705 -61.574  35.793  1.00  0.00     0.274 HD
ATOM     20  H12 UNL     1      47.276 -61.660  35.762  1.00  0.00     0.274 HD
ATOM     21  H11 UNL     1      46.569 -60.157  35.730  1.00  0.00     0.274 HD
ENDBRANCH  17  18
ENDBRANCH  16  17
ENDBRANCH  13  16
ENDBRANCH   6  12
ENDBRANCH   1   5
BRANCH   3  22
HETATM   22  C9  UNL     1      41.261 -67.387  31.219  1.00  0.00     0.225 C 
BRANCH  22  23
HETATM   23  C10 UNL     1      41.296 -68.869  31.264  1.00  0.00     0.235 C 
HETATM   24  O3  UNL     1      40.272 -69.526  31.553  1.00  0.00    -0.272 OA
HETATM   25  N5  UNL     1      42.489 -69.576  30.979  1.00  0.00    -0.358 N 
ATOM     26  H5  UNL     1      43.341 -69.067  30.740  1.00  0.00     0.162 HD
BRANCH  25  27
HETATM   27  C11 UNL     1      42.497 -71.015  31.028  1.00  0.00     0.150 C 
BRANCH  27  28
HETATM   28  C12 UNL     1      43.817 -71.585  31.437  1.00  0.00     0.253 C 
BRANCH  28  29
HETATM   29  N6  UNL     1      44.139 -71.076  32.741  1.00  0.00    -0.050 N 
ATOM     30  H62 UNL     1      43.899 -70.088  32.826  1.00  0.00     0.279 HD
ATOM     31  H61 UNL     1      43.513 -71.452  33.453  1.00  0.00     0.279 HD
BRANCH  29  32
HETATM   32  C13 UNL     1      45.538 -71.317  33.080  1.00  0.00     0.460 C 
BRANCH  32  33
HETATM   33  N7  UNL     1      46.419 -70.558  32.227  1.00  0.00    -0.056 N 
ATOM     34  H73 UNL     1      47.325 -71.016  32.122  1.00  0.00     0.276 HD
ATOM     35  H72 UNL     1      46.116 -70.588  31.254  1.00  0.00     0.276 HD
ATOM     36  H71 UNL     1      46.520 -69.600  32.559  1.00  0.00     0.276 HD
ENDBRANCH  32  33
ENDBRANCH  29  32
ENDBRANCH  28  29
ENDBRANCH  27  28
ENDBRANCH  25  27
ENDBRANCH  22  23
ENDBRANCH   3  22
TORSDOF 12
ENDMDL
MODEL 2
REMARK VINA RESULT: -8.194120832      1.207      1.375
REMARK  12 active torsions:
REMARK  status: ('A' for Active; 'I' for Inactive)
REMARK    1  A    between atoms: N1_1  and  C1_5 
REMARK    2  A    between atoms: C1_5  and  C2_6 
REMARK    3  A    between atoms: C2_6  and  N2_7 
REMARK       I    between atoms: N2_7  and  C3_9 
REMARK    4  A    between atoms: C3_9  and  C4_11 
REMARK    5  A    between atoms: C7_17  and  C8_18 
REMARK       I    between atoms: C8_18  and  N4_20 
REMARK    6  A    between atoms: N4_20  and  C9_22 
REMARK    7  A    between atoms: C9_22  and  C10_23 
REMARK       I    between atoms: C10_23  and  N5_25 
REMARK    8  A    between atoms: N5_25  and  C11_27 
REMARK    9  A    between atoms: C11_27  and  C12_28 
REMARK   10  A    between atoms: C12_28  and  N6_29 
REMARK   11  A    between atoms: N6_29  and  C13_32 
REMARK   12  A    between atoms: C13_32  and  N7_33 
ROOT
HETATM    1  C8  UNL     1      40.823 -65.842  32.533  1.00  0.00     0.224 C 
HETATM    2  O2  UNL     1      40.080 -65.267  31.710  1.00  0.00    -0.273 OA
HETATM    3  N4  UNL     1      41.392 -67.085  32.130  1.00  0.00    -0.352 N 
ATOM      4  H4  UNL     1      41.997 -67.571  32.792  1.00  0.00     0.162 HD
ENDROOT
BRANCH   1   5
HETATM    5  C7  UNL     1      41.138 -65.330  33.849  1.00  0.00     0.119 C 
HETATM    6  C4  UNL     1      41.584 -63.932  33.995  1.00  0.00     0.289 C 
HETATM    7  N3  UNL     1      42.067 -63.943  35.397  1.00  0.00    -0.061 N 
HETATM    8  C5  UNL     1      42.722 -65.196  35.601  1.00  0.00     0.234 C 
ATOM      9  H32 UNL     1      42.655 -63.140  35.625  1.00  0.00     0.278 HD
ATOM     10  H31 UNL     1      41.330 -63.760  36.077  1.00  0.00     0.278 HD
HETATM   11  C6  UNL     1      42.162 -66.160  34.594  1.00  0.00     0.044 C 
BRANCH   6  12
HETATM   12  C3  UNL     1      42.743 -63.514  33.185  1.00  0.00     0.249 C 
HETATM   13  N2  UNL     1      43.945 -63.171  33.826  1.00  0.00    -0.358 N 
ATOM     14  H2  UNL     1      43.931 -63.252  34.843  1.00  0.00     0.162 HD
HETATM   15  O1  UNL     1      42.661 -63.465  31.943  1.00  0.00    -0.271 OA
BRANCH  13  16
HETATM   16  C2  UNL     1      45.178 -62.730  33.275  1.00  0.00     0.150 C 
BRANCH  16  17
HETATM   17  C1  UNL     1      46.008 -61.785  34.059  1.00  0.00     0.249 C 
BRANCH  17  18
HETATM   18  N1  UNL     1      46.307 -62.110  35.409  1.00  0.00    -0.078 N 
ATOM     19  H13 UNL     1      46.352 -61.251  35.956  1.00  0.00     0.274 HD
ATOM     20  H12 UNL     1      45.496 -62.566  35.828  1.00  0.00     0.274 HD
ATOM     21  H11 UNL     1      47.138 -62.670  35.599  1.00  0.00     0.274 HD
ENDBRANCH  17  18
ENDBRANCH  16  17
ENDBRANCH  13  16
ENDBRANCH   6  12
ENDBRANCH   1   5
BRANCH   3  22
HETATM   22  C9  UNL     1      41.167 -67.692  30.858  1.00  0.00     0.225 C 
BRANCH  22  23
HETATM   23  C10 UNL     1      41.596 -69.111  30.792  1.00  0.00     0.235 C 
HETATM   24  O3  UNL     1      41.099 -69.892  29.950  1.00  0.00    -0.272 OA
HETATM   25  N5  UNL     1      42.579 -69.614  31.678  1.00  0.00    -0.358 N 
ATOM     26  H5  UNL     1      43.002 -69.001  32.375  1.00  0.00     0.162 HD
BRANCH  25  27
HETATM   27  C11 UNL     1      42.979 -70.995  31.592  1.00  0.00     0.150 C 
BRANCH  27  28
HETATM   28  C12 UNL     1      44.313 -71.185  30.946  1.00  0.00     0.253 C 
BRANCH  28  29
HETATM   29  N6  UNL     1      44.462 -70.185  29.926  1.00  0.00    -0.050 N 
ATOM     30  H62 UNL     1      43.619 -70.104  29.357  1.00  0.00     0.279 HD
ATOM     31  H61 UNL     1      44.476 -69.246  30.323  1.00  0.00     0.279 HD
BRANCH  29  32
HETATM   32  C13 UNL     1      45.641 -70.432  29.101  1.00  0.00     0.460 C 
BRANCH  32  33
HETATM   33  N7  UNL     1      46.779 -70.787  29.912  1.00  0.00    -0.056 N 
ATOM     34  H73 UNL     1      47.389 -69.986  30.073  1.00  0.00     0.276 HD
ATOM     35  H72 UNL     1      46.509 -70.974  30.877  1.00  0.00     0.276 HD
ATOM     36  H71 UNL     1      47.290 -71.572  29.507  1.00  0.00     0.276 HD
ENDBRANCH  32  33
ENDBRANCH  29  32
ENDBRANCH  28  29
ENDBRANCH  27  28
ENDBRANCH  25  27
ENDBRANCH  22  23
ENDBRANCH   3  22
TORSDOF 12
ENDMDL
MODEL 3
REMARK VINA RESULT: -6.852836170      1.653      2.024
REMARK  12 active torsions:
REMARK  status: ('A' for Active; 'I' for Inactive)
REMARK    1  A    between atoms: N1_1  and  C1_5 
REMARK    2  A    between atoms: C1_5  and  C2_6 
REMARK    3  A    between atoms: C2_6  and  N2_7 
REMARK       I    between atoms: N2_7  and  C3_9 
REMARK    4  A    between atoms: C3_9  and  C4_11 
REMARK    5  A    between atoms: C7_17  and  C8_18 
REMARK       I    between atoms: C8_18  and  N4_20 
REMARK    6  A    between atoms: N4_20  and  C9_22 
REMARK    7  A    between atoms: C9_22  and  C10_23 
REMARK       I    between atoms: C10_23  and  N5_25 
REMARK    8  A    between atoms: N5_25  and  C11_27 
REMARK    9  A    between atoms: C11_27  and  C12_28 
REMARK   10  A    between atoms: C12_28  and  N6_29 
REMARK   11  A    between atoms: N6_29  and  C13_32 
REMARK   12  A    between atoms: C13_32  and  N7_33 
ROOT
HETATM    1  C8  UNL     1      41.009 -65.914  32.796  1.00  0.00     0.224 C 
HETATM    2  O2  UNL     1      40.463 -65.140  31.983  1.00  0.00    -0.273 OA
HETATM    3  N4  UNL     1      41.414 -67.188  32.300  1.00  0.00    -0.352 N 
ATOM      4  H4  UNL     1      41.857 -67.835  32.951  1.00  0.00     0.162 HD
ENDROOT
BRANCH   1   5
HETATM    5  C7  UNL     1      41.252 -65.603  34.187  1.00  0.00     0.119 C 
HETATM    6  C4  UNL     1      41.422 -64.197  34.596  1.00  0.00     0.289 C 
HETATM    7  N3  UNL     1      41.934 -64.371  35.977  1.00  0.00    -0.061 N 
HETATM    8  C5  UNL     1      42.825 -65.488  35.950  1.00  0.00     0.234 C 
ATOM      9  H32 UNL     1      42.361 -63.526  36.356  1.00  0.00     0.278 HD
ATOM     10  H31 UNL     1      41.193 -64.465  36.671  1.00  0.00     0.278 HD
HETATM   11  C6  UNL     1      42.436 -66.340  34.776  1.00  0.00     0.044 C 
BRANCH   6  12
HETATM   12  C3  UNL     1      42.457 -63.418  33.891  1.00  0.00     0.249 C 
HETATM   13  N2  UNL     1      43.668 -63.129  34.542  1.00  0.00    -0.358 N 
ATOM     14  H2  UNL     1      43.749 -63.505  35.487  1.00  0.00     0.162 HD
HETATM   15  O1  UNL     1      42.263 -63.018  32.726  1.00  0.00    -0.271 OA
BRANCH  13  16
HETATM   16  C2  UNL     1      44.795 -62.395  34.087  1.00  0.00     0.150 C 
BRANCH  16  17
HETATM   17  C1  UNL     1      45.559 -62.912  32.928  1.00  0.00     0.249 C 
BRANCH  17  18
HETATM   18  N1  UNL     1      45.076 -64.072  32.266  1.00  0.00    -0.078 N 
ATOM     19  H13 UNL     1      45.769 -64.816  32.351  1.00  0.00     0.274 HD
ATOM     20  H12 UNL     1      44.303 -64.464  32.804  1.00  0.00     0.274 HD
ATOM     21  H11 UNL     1      44.794 -63.990  31.290  1.00  0.00     0.274 HD
ENDBRANCH  17  18
ENDBRANCH  16  17
ENDBRANCH  13  16
ENDBRANCH   6  12
ENDBRANCH   1   5
BRANCH   3  22
HETATM   22  C9  UNL     1      41.239 -67.613  30.949  1.00  0.00     0.225 C 
BRANCH  22  23
HETATM   23  C10 UNL     1      41.602 -69.033  30.720  1.00  0.00     0.235 C 
HETATM   24  O3  UNL     1      40.938 -69.745  29.933  1.00  0.00    -0.272 OA
HETATM   25  N5  UNL     1      42.707 -69.616  31.384  1.00  0.00    -0.358 N 
ATOM     26  H5  UNL     1      43.267 -69.060  32.032  1.00  0.00     0.162 HD
BRANCH  25  27
HETATM   27  C11 UNL     1      43.039 -70.996  31.144  1.00  0.00     0.150 C 
BRANCH  27  28
HETATM   28  C12 UNL     1      44.447 -71.194  30.682  1.00  0.00     0.253 C 
BRANCH  28  29
HETATM   29  N6  UNL     1      44.670 -70.340  29.549  1.00  0.00    -0.050 N 
ATOM     30  H62 UNL     1      43.842 -70.284  28.956  1.00  0.00     0.279 HD
ATOM     31  H61 UNL     1      44.732 -69.361  29.827  1.00  0.00     0.279 HD
BRANCH  29  32
HETATM   32  C13 UNL     1      45.844 -70.754  28.788  1.00  0.00     0.460 C 
BRANCH  32  33
HETATM   33  N7  UNL     1      45.570 -70.767  27.372  1.00  0.00    -0.056 N 
ATOM     34  H73 UNL     1      46.403 -70.540  26.828  1.00  0.00     0.276 HD
ATOM     35  H72 UNL     1      45.414 -71.715  27.030  1.00  0.00     0.276 HD
ATOM     36  H71 UNL     1      44.791 -70.152  27.141  1.00  0.00     0.276 HD
ENDBRANCH  32  33
ENDBRANCH  29  32
ENDBRANCH  28  29
ENDBRANCH  27  28
ENDBRANCH  25  27
ENDBRANCH  22  23
ENDBRANCH   3  22
TORSDOF 12
ENDMDL
MODEL 4
REMARK VINA RESULT: -6.631568277      2.253      2.766
REMARK  12 active torsions:
REMARK  status: ('A' for Active; 'I' for Inactive)
REMARK    1  A    between atoms: N1_1  and  C1_5 
REMARK    2  A    between atoms: C1_5  and  C2_6 
REMARK    3  A    between atoms: C2_6  and  N2_7 
REMARK       I    between atoms: N2_7  and  C3_9 
REMARK    4  A    between atoms: C3_9  and  C4_11 
REMARK    5  A    between atoms: C7_17  and  C8_18 
REMARK       I    between atoms: C8_18  and  N4_20 
REMARK    6  A    between atoms: N4_20  and  C9_22 
REMARK    7  A    between atoms: C9_22  and  C10_23 
REMARK       I    between atoms: C10_23  and  N5_25 
REMARK    8  A    between atoms: N5_25  and  C11_27 
REMARK    9  A    between atoms: C11_27  and  C12_28 
REMARK   10  A    between atoms: C12_28  and  N6_29 
REMARK   11  A    between atoms: N6_29  and  C13_32 
REMARK   12  A    between atoms: C13_32  and  N7_33 
ROOT
HETATM    1  C8  UNL     1      41.276 -66.531  32.572  1.00  0.00     0.224 C 
HETATM    2  O2  UNL     1      40.851 -66.816  33.711  1.00  0.00    -0.273 OA
HETATM    3  N4  UNL     1      41.562 -67.621  31.700  1.00  0.00    -0.352 N 
ATOM      4  H4  UNL     1      41.914 -67.407  30.767  1.00  0.00     0.162 HD
ENDROOT
BRANCH   1   5
HETATM    5  C7  UNL     1      41.490 -65.184  32.090  1.00  0.00     0.119 C 
HETATM    6  C4  UNL     1      42.847 -64.610  32.124  1.00  0.00     0.289 C 
HETATM    7  N3  UNL     1      42.550 -63.184  31.845  1.00  0.00    -0.061 N 
HETATM    8  C5  UNL     1      41.346 -62.867  32.545  1.00  0.00     0.234 C 
ATOM      9  H32 UNL     1      43.324 -62.560  32.074  1.00  0.00     0.278 HD
ATOM     10  H31 UNL     1      42.503 -62.971  30.848  1.00  0.00     0.278 HD
HETATM   11  C6  UNL     1      40.600 -64.154  32.754  1.00  0.00     0.044 C 
BRANCH   6  12
HETATM   12  C3  UNL     1      43.543 -64.617  33.424  1.00  0.00     0.249 C 
HETATM   13  N2  UNL     1      44.052 -63.415  33.941  1.00  0.00    -0.358 N 
ATOM     14  H2  UNL     1      43.887 -62.592  33.362  1.00  0.00     0.162 HD
HETATM   15  O1  UNL     1      43.678 -65.679  34.062  1.00  0.00    -0.271 OA
BRANCH  13  16
HETATM   16  C2  UNL     1      44.763 -63.169  35.146  1.00  0.00     0.150 C 
BRANCH  16  17
HETATM   17  C1  UNL     1      45.610 -61.956  35.237  1.00  0.00     0.249 C 
BRANCH  17  18
HETATM   18  N1  UNL     1      46.553 -61.714  34.203  1.00  0.00    -0.078 N 
ATOM     19  H13 UNL     1      46.196 -62.102  33.330  1.00  0.00     0.274 HD
ATOM     20  H12 UNL     1      46.558 -60.717  33.985  1.00  0.00     0.274 HD
ATOM     21  H11 UNL     1      47.512 -62.030  34.340  1.00  0.00     0.274 HD
ENDBRANCH  17  18
ENDBRANCH  16  17
ENDBRANCH  13  16
ENDBRANCH   6  12
ENDBRANCH   1   5
BRANCH   3  22
HETATM   22  C9  UNL     1      41.386 -68.993  32.050  1.00  0.00     0.225 C 
BRANCH  22  23
HETATM   23  C10 UNL     1      42.128 -69.932  31.172  1.00  0.00     0.235 C 
HETATM   24  O3  UNL     1      41.609 -70.372  30.122  1.00  0.00    -0.272 OA
HETATM   25  N5  UNL     1      43.439 -70.351  31.501  1.00  0.00    -0.358 N 
ATOM     26  H5  UNL     1      43.888 -70.009  32.351  1.00  0.00     0.162 HD
BRANCH  25  27
HETATM   27  C11 UNL     1      44.138 -71.262  30.632  1.00  0.00     0.150 C 
BRANCH  27  28
HETATM   28  C12 UNL     1      45.495 -70.777  30.234  1.00  0.00     0.253 C 
BRANCH  28  29
HETATM   29  N6  UNL     1      45.412 -70.268  28.894  1.00  0.00    -0.050 N 
ATOM     30  H62 UNL     1      44.456 -70.007  28.652  1.00  0.00     0.279 HD
ATOM     31  H61 UNL     1      45.851 -69.351  28.815  1.00  0.00     0.279 HD
BRANCH  29  32
HETATM   32  C13 UNL     1      45.969 -71.210  27.928  1.00  0.00     0.460 C 
BRANCH  32  33
HETATM   33  N7  UNL     1      45.407 -71.005  26.616  1.00  0.00    -0.056 N 
ATOM     34  H73 UNL     1      44.387 -71.011  26.640  1.00  0.00     0.276 HD
ATOM     35  H72 UNL     1      45.549 -70.048  26.292  1.00  0.00     0.276 HD
ATOM     36  H71 UNL     1      45.771 -71.684  25.948  1.00  0.00     0.276 HD
ENDBRANCH  32  33
ENDBRANCH  29  32
ENDBRANCH  28  29
ENDBRANCH  27  28
ENDBRANCH  25  27
ENDBRANCH  22  23
ENDBRANCH   3  22
TORSDOF 12
ENDMDL
MODEL 5
REMARK VINA RESULT: -6.567183978      2.358      8.578
REMARK  12 active torsions:
REMARK  status: ('A' for Active; 'I' for Inactive)
REMARK    1  A    between atoms: N1_1  and  C1_5 
REMARK    2  A    between atoms: C1_5  and  C2_6 
REMARK    3  A    between atoms: C2_6  and  N2_7 
REMARK       I    between atoms: N2_7  and  C3_9 
REMARK    4  A    between atoms: C3_9  and  C4_11 
REMARK    5  A    between atoms: C7_17  and  C8_18 
REMARK       I    between atoms: C8_18  and  N4_20 
REMARK    6  A    between atoms: N4_20  and  C9_22 
REMARK    7  A    between atoms: C9_22  and  C10_23 
REMARK       I    between atoms: C10_23  and  N5_25 
REMARK    8  A    between atoms: N5_25  and  C11_27 
REMARK    9  A    between atoms: C11_27  and  C12_28 
REMARK   10  A    between atoms: C12_28  and  N6_29 
REMARK   11  A    between atoms: N6_29  and  C13_32 
REMARK   12  A    between atoms: C13_32  and  N7_33 
ROOT
HETATM    1  C8  UNL     1      43.374 -63.538  33.689  1.00  0.00     0.224 C 
HETATM    2  O2  UNL     1      43.013 -62.869  32.699  1.00  0.00    -0.273 OA
HETATM    3  N4  UNL     1      44.724 -63.376  34.118  1.00  0.00    -0.352 N 
ATOM      4  H4  UNL     1      45.038 -63.919  34.922  1.00  0.00     0.162 HD
ENDROOT
BRANCH   1   5
HETATM    5  C7  UNL     1      42.520 -64.452  34.416  1.00  0.00     0.119 C 
HETATM    6  C4  UNL     1      42.408 -65.852  33.966  1.00  0.00     0.289 C 
HETATM    7  N3  UNL     1      41.250 -66.308  34.772  1.00  0.00    -0.061 N 
HETATM    8  C5  UNL     1      40.320 -65.224  34.812  1.00  0.00     0.234 C 
ATOM      9  H32 UNL     1      40.840 -67.177  34.430  1.00  0.00     0.278 HD
ATOM     10  H31 UNL     1      41.514 -66.645  35.698  1.00  0.00     0.278 HD
HETATM   11  C6  UNL     1      41.097 -63.962  34.568  1.00  0.00     0.044 C 
BRANCH   6  12
HETATM   12  C3  UNL     1      42.017 -66.071  32.561  1.00  0.00     0.249 C 
HETATM   13  N2  UNL     1      41.648 -67.360  32.141  1.00  0.00    -0.358 N 
ATOM     14  H2  UNL     1      41.667 -68.073  32.869  1.00  0.00     0.162 HD
HETATM   15  O1  UNL     1      42.011 -65.124  31.752  1.00  0.00    -0.271 OA
BRANCH  13  16
HETATM   16  C2  UNL     1      41.253 -67.821  30.857  1.00  0.00     0.150 C 
BRANCH  16  17
HETATM   17  C1  UNL     1      41.484 -69.244  30.511  1.00  0.00     0.249 C 
BRANCH  17  18
HETATM   18  N1  UNL     1      42.821 -69.679  30.309  1.00  0.00    -0.078 N 
ATOM     19  H13 UNL     1      42.987 -70.513  30.872  1.00  0.00     0.274 HD
ATOM     20  H12 UNL     1      42.908 -70.059  29.367  1.00  0.00     0.274 HD
ATOM     21  H11 UNL     1      43.576 -69.013  30.471  1.00  0.00     0.274 HD
ENDBRANCH  17  18
ENDBRANCH  16  17
ENDBRANCH  13  16
ENDBRANCH   6  12
ENDBRANCH   1   5
BRANCH   3  22
HETATM   22  C9  UNL     1      45.662 -62.502  33.493  1.00  0.00     0.225 C 
BRANCH  22  23
HETATM   23  C10 UNL     1      46.169 -61.433  34.389  1.00  0.00     0.235 C 
HETATM   24  O3  UNL     1      46.791 -60.451  33.927  1.00  0.00    -0.272 OA
HETATM   25  N5  UNL     1      45.960 -61.499  35.788  1.00  0.00    -0.358 N 
ATOM     26  H5  UNL     1      45.457 -62.288  36.194  1.00  0.00     0.162 HD
BRANCH  25  27
HETATM   27  C11 UNL     1      46.461 -60.448  36.636  1.00  0.00     0.150 C 
BRANCH  27  28
HETATM   28  C12 UNL     1      45.420 -59.442  37.008  1.00  0.00     0.253 C 
BRANCH  28  29
HETATM   29  N6  UNL     1      45.253 -58.541  35.902  1.00  0.00    -0.050 N 
ATOM     30  H62 UNL     1      45.962 -58.697  35.184  1.00  0.00     0.279 HD
ATOM     31  H61 UNL     1      44.423 -58.771  35.357  1.00  0.00     0.279 HD
BRANCH  29  32
HETATM   32  C13 UNL     1      45.235 -57.150  36.341  1.00  0.00     0.460 C 
BRANCH  32  33
HETATM   33  N7  UNL     1      44.232 -56.937  37.355  1.00  0.00    -0.056 N 
ATOM     34  H73 UNL     1      43.665 -57.771  37.503  1.00  0.00     0.276 HD
ATOM     35  H72 UNL     1      44.648 -56.864  38.284  1.00  0.00     0.276 HD
ATOM     36  H71 UNL     1      43.655 -56.124  37.139  1.00  0.00     0.276 HD
ENDBRANCH  32  33
ENDBRANCH  29  32
ENDBRANCH  28  29
ENDBRANCH  27  28
ENDBRANCH  25  27
ENDBRANCH  22  23
ENDBRANCH   3  22
TORSDOF 12
ENDMDL
