MODEL 1
REMARK VINA RESULT: -8.175284855      0.000      0.000
REMARK  15 active torsions:
REMARK  status: ('A' for Active; 'I' for Inactive)
REMARK    1  A    between atoms: C3_3  and  C4_4 
REMARK    2  A    between atoms: C5_5  and  C6_6 
REMARK    3  A    between atoms: C14_14  and  C15_15 
REMARK    4  A    between atoms: C15_15  and  C17_17 
REMARK    5  A    between atoms: C17_17  and  C18_18 
REMARK    6  A    between atoms: C18_18  and  C19_19 
REMARK    7  A    between atoms: C19_19  and  O2_21 
REMARK    8  A    between atoms: C21_23  and  O3_24 
REMARK    9  A    between atoms: O3_24  and  C22_25 
REMARK   10  A    between atoms: C22_25  and  C23_27 
REMARK   11  A    between atoms: C23_27  and  C25_29 
REMARK   12  A    between atoms: C30_34  and  C32_36 
REMARK   13  A    between atoms: C32_36  and  O5_37 
REMARK   14  A    between atoms: O5_37  and  C33_38 
REMARK   15  A    between atoms: C35_41  and  O7_42 
ROOT
HETATM    1  C6  UNL     1      -1.590 -35.514   5.221  1.00  0.00     0.010 C 
HETATM    2  C7  UNL     1      -0.246 -34.834   5.554  1.00  0.00     0.023 C 
HETATM    3  C8  UNL     1      -2.641 -34.626   5.747  1.00  0.00    -0.004 C 
HETATM    4  C9  UNL     1      -3.427 -33.776   4.814  1.00  0.00     0.011 C 
HETATM    5  C10 UNL     1      -3.633 -35.275   6.689  1.00  0.00     0.006 C 
HETATM    6  C11 UNL     1      -2.698 -35.841   7.732  1.00  0.00     0.013 C 
HETATM    7  C12 UNL     1      -2.074 -37.099   7.196  1.00  0.00    -0.005 C 
HETATM    8  C13 UNL     1      -3.302 -38.067   7.223  1.00  0.00     0.019 C 
HETATM    9  C14 UNL     1      -1.155 -37.728   8.185  1.00  0.00     0.030 C 
HETATM   10  C21 UNL     1      -0.715 -38.997   7.484  1.00  0.00     0.138 C 
HETATM   11  C29 UNL     1       0.249 -38.543   6.441  1.00  0.00     0.047 C 
HETATM   12  C30 UNL     1      -0.520 -37.830   5.309  1.00  0.00     0.013 C 
HETATM   13  C31 UNL     1      -0.970 -39.066   4.483  1.00  0.00     0.020 C 
HETATM   14  C35 UNL     1      -1.601 -36.968   5.738  1.00  0.00     0.086 C 
ENDROOT
BRANCH  10  15
HETATM   15  O3  UNL     1      -0.150 -39.993   8.246  1.00  0.00    -0.315 OA
BRANCH  15  16
HETATM   16  C22 UNL     1       0.134 -41.256   7.770  1.00  0.00     0.266 C 
HETATM   17  O4  UNL     1      -0.773 -41.904   7.207  1.00  0.00    -0.265 OA
BRANCH  16  18
HETATM   18  C23 UNL     1       1.501 -41.868   7.914  1.00  0.00     0.104 C 
HETATM   19  C24 UNL     1       1.429 -43.176   8.621  1.00  0.00     0.025 C 
BRANCH  18  20
HETATM   20  C25 UNL     1       2.232 -41.799   6.657  1.00  0.00    -0.011 C 
HETATM   21  C26 UNL     1       3.481 -41.744   6.352  1.00  0.00    -0.091 C 
HETATM   22  C27 UNL     1       3.851 -41.679   4.873  1.00  0.00     0.042 C 
HETATM   23  C28 UNL     1       4.633 -41.738   7.273  1.00  0.00     0.042 C 
ENDBRANCH  18  20
ENDBRANCH  16  18
ENDBRANCH  15  16
ENDBRANCH  10  15
BRANCH   9  24
HETATM   24  C15 UNL     1      -0.091 -37.095   8.912  1.00  0.00    -0.011 C 
HETATM   25  C16 UNL     1       0.236 -35.645   8.623  1.00  0.00     0.010 C 
BRANCH  24  26
HETATM   26  C17 UNL     1      -0.216 -37.024  10.429  1.00  0.00     0.014 C 
BRANCH  26  27
HETATM   27  C18 UNL     1      -0.380 -35.640  10.959  1.00  0.00     0.111 C 
BRANCH  27  28
HETATM   28  C19 UNL     1      -1.674 -35.458  11.665  1.00  0.00     0.258 C 
HETATM   29  O1  UNL     1      -1.945 -34.496  12.409  1.00  0.00    -0.265 OA
BRANCH  28  30
HETATM   30  O2  UNL     1      -2.637 -36.436  11.470  1.00  0.00    -0.326 OA
HETATM   31  C20 UNL     1      -3.991 -36.133  11.191  1.00  0.00     0.213 C 
ENDBRANCH  28  30
ENDBRANCH  27  28
ENDBRANCH  26  27
ENDBRANCH  24  26
ENDBRANCH   9  24
BRANCH  12  32
HETATM   32  C32 UNL     1       0.657 -37.344   4.518  1.00  0.00     0.191 C 
BRANCH  32  33
HETATM   33  O5  UNL     1       0.877 -38.334   3.476  1.00  0.00    -0.321 OA
BRANCH  33  34
HETATM   34  C33 UNL     1       1.867 -38.201   2.548  1.00  0.00     0.254 C 
HETATM   35  C34 UNL     1       3.032 -39.121   2.434  1.00  0.00     0.126 C 
HETATM   36  O6  UNL     1       1.776 -37.229   1.733  1.00  0.00    -0.266 OA
ENDBRANCH  33  34
ENDBRANCH  32  33
ENDBRANCH  12  32
BRANCH  14  37
HETATM   37  O7  UNL     1      -2.790 -37.297   5.025  1.00  0.00    -0.387 OA
ATOM     38  H7  UNL     1      -2.921 -38.104   5.509  1.00  0.00     0.210 HD
ENDBRANCH  14  37
BRANCH   1  39
HETATM   39  C5  UNL     1      -1.740 -35.407   3.759  1.00  0.00    -0.014 C 
HETATM   40  C4  UNL     1      -0.882 -35.314   2.793  1.00  0.00    -0.003 C 
BRANCH  40  41
HETATM   41  C3  UNL     1      -1.352 -35.218   1.410  1.00  0.00    -0.005 C 
HETATM   42  C2  UNL     1      -1.722 -36.239   0.691  1.00  0.00    -0.031 C 
HETATM   43  C1  UNL     1      -1.699 -37.609   1.222  1.00  0.00     0.036 C 
ENDBRANCH  40  41
ENDBRANCH   1  39
TORSDOF 15
ENDMDL
MODEL 2
REMARK VINA RESULT: -7.932726474      2.368      7.872
REMARK  15 active torsions:
REMARK  status: ('A' for Active; 'I' for Inactive)
REMARK    1  A    between atoms: C3_3  and  C4_4 
REMARK    2  A    between atoms: C5_5  and  C6_6 
REMARK    3  A    between atoms: C14_14  and  C15_15 
REMARK    4  A    between atoms: C15_15  and  C17_17 
REMARK    5  A    between atoms: C17_17  and  C18_18 
REMARK    6  A    between atoms: C18_18  and  C19_19 
REMARK    7  A    between atoms: C19_19  and  O2_21 
REMARK    8  A    between atoms: C21_23  and  O3_24 
REMARK    9  A    between atoms: O3_24  and  C22_25 
REMARK   10  A    between atoms: C22_25  and  C23_27 
REMARK   11  A    between atoms: C23_27  and  C25_29 
REMARK   12  A    between atoms: C30_34  and  C32_36 
REMARK   13  A    between atoms: C32_36  and  O5_37 
REMARK   14  A    between atoms: O5_37  and  C33_38 
REMARK   15  A    between atoms: C35_41  and  O7_42 
ROOT
HETATM    1  C6  UNL     1      -1.136 -40.568   8.561  1.00  0.00     0.010 C 
HETATM    2  C7  UNL     1       0.199 -40.148   9.212  1.00  0.00     0.023 C 
HETATM    3  C8  UNL     1      -1.317 -41.994   8.881  1.00  0.00    -0.004 C 
HETATM    4  C9  UNL     1      -2.291 -42.400   9.928  1.00  0.00     0.011 C 
HETATM    5  C10 UNL     1      -1.546 -42.905   7.694  1.00  0.00     0.006 C 
HETATM    6  C11 UNL     1      -0.326 -42.591   6.861  1.00  0.00     0.013 C 
HETATM    7  C12 UNL     1      -0.542 -41.281   6.156  1.00  0.00    -0.005 C 
HETATM    8  C13 UNL     1      -1.623 -41.691   5.103  1.00  0.00     0.019 C 
HETATM    9  C14 UNL     1       0.616 -40.918   5.293  1.00  0.00     0.030 C 
HETATM   10  C21 UNL     1       0.158 -39.636   4.628  1.00  0.00     0.138 C 
HETATM   11  C29 UNL     1       0.254 -38.597   5.693  1.00  0.00     0.047 C 
HETATM   12  C30 UNL     1      -0.873 -38.816   6.724  1.00  0.00     0.013 C 
HETATM   13  C31 UNL     1      -2.036 -38.089   5.994  1.00  0.00     0.020 C 
HETATM   14  C35 UNL     1      -1.147 -40.196   7.063  1.00  0.00     0.086 C 
ENDROOT
BRANCH  10  15
HETATM   15  O3  UNL     1       0.827 -39.218   3.501  1.00  0.00    -0.315 OA
BRANCH  15  16
HETATM   16  C22 UNL     1       0.203 -38.874   2.321  1.00  0.00     0.266 C 
HETATM   17  O4  UNL     1      -0.613 -39.674   1.816  1.00  0.00    -0.265 OA
BRANCH  16  18
HETATM   18  C23 UNL     1       0.479 -37.565   1.631  1.00  0.00     0.104 C 
HETATM   19  C24 UNL     1       1.309 -37.769   0.411  1.00  0.00     0.025 C 
BRANCH  18  20
HETATM   20  C25 UNL     1      -0.738 -36.775   1.516  1.00  0.00    -0.011 C 
HETATM   21  C26 UNL     1      -1.319 -35.914   2.278  1.00  0.00    -0.091 C 
HETATM   22  C27 UNL     1      -2.621 -35.291   1.783  1.00  0.00     0.042 C 
HETATM   23  C28 UNL     1      -0.874 -35.438   3.601  1.00  0.00     0.042 C 
ENDBRANCH  18  20
ENDBRANCH  16  18
ENDBRANCH  15  16
ENDBRANCH  10  15
BRANCH   9  24
HETATM   24  C15 UNL     1       2.004 -40.890   5.661  1.00  0.00    -0.011 C 
HETATM   25  C16 UNL     1       2.558 -42.002   6.526  1.00  0.00     0.010 C 
BRANCH  24  26
HETATM   26  C17 UNL     1       3.034 -40.911   4.539  1.00  0.00     0.014 C 
BRANCH  26  27
HETATM   27  C18 UNL     1       4.183 -41.828   4.789  1.00  0.00     0.111 C 
BRANCH  27  28
HETATM   28  C19 UNL     1       5.175 -41.800   3.684  1.00  0.00     0.258 C 
HETATM   29  O1  UNL     1       5.218 -40.929   2.794  1.00  0.00    -0.265 OA
BRANCH  28  30
HETATM   30  O2  UNL     1       6.112 -42.822   3.657  1.00  0.00    -0.326 OA
HETATM   31  C20 UNL     1       7.199 -42.841   2.751  1.00  0.00     0.213 C 
ENDBRANCH  28  30
ENDBRANCH  27  28
ENDBRANCH  26  27
ENDBRANCH  24  26
ENDBRANCH   9  24
BRANCH  12  32
HETATM   32  C32 UNL     1      -0.451 -37.787   7.730  1.00  0.00     0.191 C 
BRANCH  32  33
HETATM   33  O5  UNL     1      -0.486 -36.510   7.037  1.00  0.00    -0.321 OA
BRANCH  33  34
HETATM   34  C33 UNL     1       0.024 -35.372   7.589  1.00  0.00     0.254 C 
HETATM   35  C34 UNL     1       0.454 -35.255   9.010  1.00  0.00     0.126 C 
HETATM   36  O6  UNL     1       0.136 -34.356   6.833  1.00  0.00    -0.266 OA
ENDBRANCH  33  34
ENDBRANCH  32  33
ENDBRANCH  12  32
BRANCH  14  37
HETATM   37  O7  UNL     1      -2.540 -40.458   6.926  1.00  0.00    -0.387 OA
ATOM     38  H7  UNL     1      -2.527 -41.158   7.567  1.00  0.00     0.210 HD
ENDBRANCH  14  37
BRANCH   1  39
HETATM   39  C5  UNL     1      -2.190 -39.897   9.343  1.00  0.00    -0.014 C 
HETATM   40  C4  UNL     1      -2.152 -39.030  10.304  1.00  0.00    -0.003 C 
BRANCH  40  41
HETATM   41  C3  UNL     1      -3.400 -38.541  10.893  1.00  0.00    -0.005 C 
HETATM   42  C2  UNL     1      -3.865 -37.337  10.727  1.00  0.00    -0.031 C 
HETATM   43  C1  UNL     1      -3.156 -36.338   9.914  1.00  0.00     0.036 C 
ENDBRANCH  40  41
ENDBRANCH   1  39
TORSDOF 15
ENDMDL
MODEL 3
REMARK VINA RESULT: -7.918204186      2.774      6.328
REMARK  15 active torsions:
REMARK  status: ('A' for Active; 'I' for Inactive)
REMARK    1  A    between atoms: C3_3  and  C4_4 
REMARK    2  A    between atoms: C5_5  and  C6_6 
REMARK    3  A    between atoms: C14_14  and  C15_15 
REMARK    4  A    between atoms: C15_15  and  C17_17 
REMARK    5  A    between atoms: C17_17  and  C18_18 
REMARK    6  A    between atoms: C18_18  and  C19_19 
REMARK    7  A    between atoms: C19_19  and  O2_21 
REMARK    8  A    between atoms: C21_23  and  O3_24 
REMARK    9  A    between atoms: O3_24  and  C22_25 
REMARK   10  A    between atoms: C22_25  and  C23_27 
REMARK   11  A    between atoms: C23_27  and  C25_29 
REMARK   12  A    between atoms: C30_34  and  C32_36 
REMARK   13  A    between atoms: C32_36  and  O5_37 
REMARK   14  A    between atoms: O5_37  and  C33_38 
REMARK   15  A    between atoms: C35_41  and  O7_42 
ROOT
HETATM    1  C6  UNL     1      -1.557 -38.559   6.456  1.00  0.00     0.010 C 
HETATM    2  C7  UNL     1      -0.660 -38.314   7.688  1.00  0.00     0.023 C 
HETATM    3  C8  UNL     1      -2.585 -39.523   6.882  1.00  0.00    -0.004 C 
HETATM    4  C9  UNL     1      -3.970 -39.057   7.156  1.00  0.00     0.011 C 
HETATM    5  C10 UNL     1      -2.704 -40.770   6.031  1.00  0.00     0.006 C 
HETATM    6  C11 UNL     1      -1.285 -41.285   6.090  1.00  0.00     0.013 C 
HETATM    7  C12 UNL     1      -0.433 -40.477   5.151  1.00  0.00    -0.005 C 
HETATM    8  C13 UNL     1      -0.962 -40.986   3.769  1.00  0.00     0.019 C 
HETATM    9  C14 UNL     1       0.979 -40.948   5.139  1.00  0.00     0.030 C 
HETATM   10  C21 UNL     1       1.624 -40.070   4.085  1.00  0.00     0.138 C 
HETATM   11  C29 UNL     1       1.768 -38.736   4.736  1.00  0.00     0.047 C 
HETATM   12  C30 UNL     1       0.379 -38.076   4.864  1.00  0.00     0.013 C 
HETATM   13  C31 UNL     1       0.249 -37.469   3.440  1.00  0.00     0.020 C 
HETATM   14  C35 UNL     1      -0.700 -38.966   5.238  1.00  0.00     0.086 C 
ENDROOT
BRANCH  10  15
HETATM   15  O3  UNL     1       2.830 -40.471   3.560  1.00  0.00    -0.315 OA
BRANCH  15  16
HETATM   16  C22 UNL     1       3.352 -39.986   2.380  1.00  0.00     0.266 C 
HETATM   17  O4  UNL     1       4.278 -39.149   2.432  1.00  0.00    -0.265 OA
BRANCH  16  18
HETATM   18  C23 UNL     1       2.837 -40.437   1.040  1.00  0.00     0.104 C 
HETATM   19  C24 UNL     1       3.287 -41.822   0.734  1.00  0.00     0.025 C 
BRANCH  18  20
HETATM   20  C25 UNL     1       1.423 -40.121   0.898  1.00  0.00    -0.011 C 
HETATM   21  C26 UNL     1       0.775 -39.066   0.544  1.00  0.00    -0.091 C 
HETATM   22  C27 UNL     1      -0.749 -39.140   0.524  1.00  0.00     0.042 C 
HETATM   23  C28 UNL     1       1.331 -37.761   0.142  1.00  0.00     0.042 C 
ENDBRANCH  18  20
ENDBRANCH  16  18
ENDBRANCH  15  16
ENDBRANCH  10  15
BRANCH   9  24
HETATM   24  C15 UNL     1       1.832 -41.176   6.272  1.00  0.00    -0.011 C 
HETATM   25  C16 UNL     1       1.208 -41.347   7.640  1.00  0.00     0.010 C 
BRANCH  24  26
HETATM   26  C17 UNL     1       2.722 -42.413   6.249  1.00  0.00     0.014 C 
BRANCH  26  27
HETATM   27  C18 UNL     1       3.836 -42.376   7.239  1.00  0.00     0.111 C 
BRANCH  27  28
HETATM   28  C19 UNL     1       3.956 -43.646   7.999  1.00  0.00     0.258 C 
HETATM   29  O1  UNL     1       4.756 -44.562   7.725  1.00  0.00    -0.265 OA
BRANCH  28  30
HETATM   30  O2  UNL     1       3.112 -43.808   9.087  1.00  0.00    -0.326 OA
HETATM   31  C20 UNL     1       2.030 -44.720   9.089  1.00  0.00     0.213 C 
ENDBRANCH  28  30
ENDBRANCH  27  28
ENDBRANCH  26  27
ENDBRANCH  24  26
ENDBRANCH   9  24
BRANCH  12  32
HETATM   32  C32 UNL     1       0.779 -36.879   5.673  1.00  0.00     0.191 C 
BRANCH  32  33
HETATM   33  O5  UNL     1       0.417 -35.718   4.877  1.00  0.00    -0.321 OA
BRANCH  33  34
HETATM   34  C33 UNL     1       0.271 -34.479   5.428  1.00  0.00     0.254 C 
HETATM   35  C34 UNL     1       0.621 -34.147   6.837  1.00  0.00     0.126 C 
HETATM   36  O6  UNL     1      -0.193 -33.560   4.682  1.00  0.00    -0.266 OA
ENDBRANCH  33  34
ENDBRANCH  32  33
ENDBRANCH  12  32
BRANCH  14  37
HETATM   37  O7  UNL     1      -1.784 -38.817   4.325  1.00  0.00    -0.387 OA
ATOM     38  H7  UNL     1      -1.452 -37.997   3.980  1.00  0.00     0.210 HD
ENDBRANCH  14  37
BRANCH   1  39
HETATM   39  C5  UNL     1      -2.311 -37.309   6.256  1.00  0.00    -0.014 C 
HETATM   40  C4  UNL     1      -2.459 -36.247   6.982  1.00  0.00    -0.003 C 
BRANCH  40  41
HETATM   41  C3  UNL     1      -3.294 -35.146   6.499  1.00  0.00    -0.005 C 
HETATM   42  C2  UNL     1      -4.434 -34.806   7.027  1.00  0.00    -0.031 C 
HETATM   43  C1  UNL     1      -4.994 -35.519   8.185  1.00  0.00     0.036 C 
ENDBRANCH  40  41
ENDBRANCH   1  39
TORSDOF 15
ENDMDL
MODEL 4
REMARK VINA RESULT: -7.810346011      2.479      6.905
REMARK  15 active torsions:
REMARK  status: ('A' for Active; 'I' for Inactive)
REMARK    1  A    between atoms: C3_3  and  C4_4 
REMARK    2  A    between atoms: C5_5  and  C6_6 
REMARK    3  A    between atoms: C14_14  and  C15_15 
REMARK    4  A    between atoms: C15_15  and  C17_17 
REMARK    5  A    between atoms: C17_17  and  C18_18 
REMARK    6  A    between atoms: C18_18  and  C19_19 
REMARK    7  A    between atoms: C19_19  and  O2_21 
REMARK    8  A    between atoms: C21_23  and  O3_24 
REMARK    9  A    between atoms: O3_24  and  C22_25 
REMARK   10  A    between atoms: C22_25  and  C23_27 
REMARK   11  A    between atoms: C23_27  and  C25_29 
REMARK   12  A    between atoms: C30_34  and  C32_36 
REMARK   13  A    between atoms: C32_36  and  O5_37 
REMARK   14  A    between atoms: O5_37  and  C33_38 
REMARK   15  A    between atoms: C35_41  and  O7_42 
ROOT
HETATM    1  C6  UNL     1      -1.940 -38.954   9.641  1.00  0.00     0.010 C 
HETATM    2  C7  UNL     1      -0.532 -38.812  10.256  1.00  0.00     0.023 C 
HETATM    3  C8  UNL     1      -2.537 -40.152  10.255  1.00  0.00    -0.004 C 
HETATM    4  C9  UNL     1      -3.574 -40.005  11.311  1.00  0.00     0.011 C 
HETATM    5  C10 UNL     1      -3.045 -41.199   9.286  1.00  0.00     0.006 C 
HETATM    6  C11 UNL     1      -1.799 -41.455   8.473  1.00  0.00     0.013 C 
HETATM    7  C12 UNL     1      -1.620 -40.334   7.487  1.00  0.00    -0.005 C 
HETATM    8  C13 UNL     1      -2.789 -40.633   6.492  1.00  0.00     0.019 C 
HETATM    9  C14 UNL     1      -0.419 -40.534   6.631  1.00  0.00     0.030 C 
HETATM   10  C21 UNL     1      -0.480 -39.359   5.676  1.00  0.00     0.138 C 
HETATM   11  C29 UNL     1      -0.062 -38.183   6.491  1.00  0.00     0.047 C 
HETATM   12  C30 UNL     1      -1.188 -37.820   7.482  1.00  0.00     0.013 C 
HETATM   13  C31 UNL     1      -2.089 -36.966   6.548  1.00  0.00     0.020 C 
HETATM   14  C35 UNL     1      -1.860 -38.944   8.100  1.00  0.00     0.086 C 
ENDROOT
BRANCH  10  15
HETATM   15  O3  UNL     1       0.269 -39.423   4.524  1.00  0.00    -0.315 OA
BRANCH  15  16
HETATM   16  C22 UNL     1      -0.023 -40.256   3.465  1.00  0.00     0.266 C 
HETATM   17  O4  UNL     1      -0.962 -41.071   3.582  1.00  0.00    -0.265 OA
BRANCH  16  18
HETATM   18  C23 UNL     1       0.758 -40.207   2.180  1.00  0.00     0.104 C 
HETATM   19  C24 UNL     1       0.217 -39.165   1.265  1.00  0.00     0.025 C 
BRANCH  18  20
HETATM   20  C25 UNL     1       2.190 -40.221   2.445  1.00  0.00    -0.011 C 
HETATM   21  C26 UNL     1       3.209 -40.701   1.822  1.00  0.00    -0.091 C 
HETATM   22  C27 UNL     1       4.586 -40.500   2.449  1.00  0.00     0.042 C 
HETATM   23  C28 UNL     1       3.218 -41.438   0.545  1.00  0.00     0.042 C 
ENDBRANCH  18  20
ENDBRANCH  16  18
ENDBRANCH  15  16
ENDBRANCH  10  15
BRANCH   9  24
HETATM   24  C15 UNL     1       0.918 -40.835   7.060  1.00  0.00    -0.011 C 
HETATM   25  C16 UNL     1       1.127 -41.501   8.403  1.00  0.00     0.010 C 
BRANCH  24  26
HETATM   26  C17 UNL     1       1.747 -41.769   6.187  1.00  0.00     0.014 C 
BRANCH  26  27
HETATM   27  C18 UNL     1       3.107 -41.248   5.865  1.00  0.00     0.111 C 
BRANCH  27  28
HETATM   28  C19 UNL     1       4.161 -42.279   6.046  1.00  0.00     0.258 C 
HETATM   29  O1  UNL     1       4.850 -42.756   5.123  1.00  0.00    -0.265 OA
BRANCH  28  30
HETATM   30  O2  UNL     1       4.381 -42.731   7.337  1.00  0.00    -0.326 OA
HETATM   31  C20 UNL     1       4.094 -44.056   7.745  1.00  0.00     0.213 C 
ENDBRANCH  28  30
ENDBRANCH  27  28
ENDBRANCH  26  27
ENDBRANCH  24  26
ENDBRANCH   9  24
BRANCH  12  32
HETATM   32  C32 UNL     1      -0.464 -36.763   8.260  1.00  0.00     0.191 C 
BRANCH  32  33
HETATM   33  O5  UNL     1      -0.342 -35.621   7.368  1.00  0.00    -0.321 OA
BRANCH  33  34
HETATM   34  C33 UNL     1       0.572 -34.631   7.580  1.00  0.00     0.254 C 
HETATM   35  C34 UNL     1       1.157 -33.791   6.498  1.00  0.00     0.126 C 
HETATM   36  O6  UNL     1       0.937 -34.421   8.780  1.00  0.00    -0.266 OA
ENDBRANCH  33  34
ENDBRANCH  32  33
ENDBRANCH  12  32
BRANCH  14  37
HETATM   37  O7  UNL     1      -3.269 -38.806   7.947  1.00  0.00    -0.387 OA
ATOM     38  H7  UNL     1      -3.274 -39.243   7.104  1.00  0.00     0.210 HD
ENDBRANCH  14  37
BRANCH   1  39
HETATM   39  C5  UNL     1      -2.733 -37.844  10.198  1.00  0.00    -0.014 C 
HETATM   40  C4  UNL     1      -2.425 -36.837  10.953  1.00  0.00    -0.003 C 
BRANCH  40  41
HETATM   41  C3  UNL     1      -3.461 -35.881  11.348  1.00  0.00    -0.005 C 
HETATM   42  C2  UNL     1      -4.028 -35.858  12.519  1.00  0.00    -0.031 C 
HETATM   43  C1  UNL     1      -3.665 -36.817  13.573  1.00  0.00     0.036 C 
ENDBRANCH  40  41
ENDBRANCH   1  39
TORSDOF 15
ENDMDL
MODEL 5
REMARK VINA RESULT: -7.809134873      2.586      6.190
REMARK  15 active torsions:
REMARK  status: ('A' for Active; 'I' for Inactive)
REMARK    1  A    between atoms: C3_3  and  C4_4 
REMARK    2  A    between atoms: C5_5  and  C6_6 
REMARK    3  A    between atoms: C14_14  and  C15_15 
REMARK    4  A    between atoms: C15_15  and  C17_17 
REMARK    5  A    between atoms: C17_17  and  C18_18 
REMARK    6  A    between atoms: C18_18  and  C19_19 
REMARK    7  A    between atoms: C19_19  and  O2_21 
REMARK    8  A    between atoms: C21_23  and  O3_24 
REMARK    9  A    between atoms: O3_24  and  C22_25 
REMARK   10  A    between atoms: C22_25  and  C23_27 
REMARK   11  A    between atoms: C23_27  and  C25_29 
REMARK   12  A    between atoms: C30_34  and  C32_36 
REMARK   13  A    between atoms: C32_36  and  O5_37 
REMARK   14  A    between atoms: O5_37  and  C33_38 
REMARK   15  A    between atoms: C35_41  and  O7_42 
ROOT
HETATM    1  C6  UNL     1      -1.682 -39.031   6.492  1.00  0.00     0.010 C 
HETATM    2  C7  UNL     1      -0.809 -38.838   7.749  1.00  0.00     0.023 C 
HETATM    3  C8  UNL     1      -2.489 -40.238   6.733  1.00  0.00    -0.004 C 
HETATM    4  C9  UNL     1      -3.928 -40.110   7.085  1.00  0.00     0.011 C 
HETATM    5  C10 UNL     1      -2.393 -41.311   5.669  1.00  0.00     0.006 C 
HETATM    6  C11 UNL     1      -0.900 -41.540   5.636  1.00  0.00     0.013 C 
HETATM    7  C12 UNL     1      -0.253 -40.426   4.861  1.00  0.00    -0.005 C 
HETATM    8  C13 UNL     1      -0.721 -40.773   3.409  1.00  0.00     0.019 C 
HETATM    9  C14 UNL     1       1.222 -40.600   4.767  1.00  0.00     0.030 C 
HETATM   10  C21 UNL     1       1.648 -39.439   3.892  1.00  0.00     0.138 C 
HETATM   11  C29 UNL     1       1.554 -38.241   4.774  1.00  0.00     0.047 C 
HETATM   12  C30 UNL     1       0.069 -37.900   5.017  1.00  0.00     0.013 C 
HETATM   13  C31 UNL     1      -0.225 -37.085   3.728  1.00  0.00     0.020 C 
HETATM   14  C35 UNL     1      -0.805 -39.037   5.221  1.00  0.00     0.086 C 
ENDROOT
BRANCH  10  15
HETATM   15  O3  UNL     1       2.891 -39.495   3.304  1.00  0.00    -0.315 OA
BRANCH  15  16
HETATM   16  C22 UNL     1       3.117 -39.973   2.031  1.00  0.00     0.266 C 
HETATM   17  O4  UNL     1       2.814 -39.254   1.056  1.00  0.00    -0.265 OA
BRANCH  16  18
HETATM   18  C23 UNL     1       3.717 -41.332   1.790  1.00  0.00     0.104 C 
HETATM   19  C24 UNL     1       3.552 -41.744   0.369  1.00  0.00     0.025 C 
BRANCH  18  20
HETATM   20  C25 UNL     1       5.040 -41.426   2.390  1.00  0.00    -0.011 C 
HETATM   21  C26 UNL     1       5.922 -42.361   2.466  1.00  0.00    -0.091 C 
HETATM   22  C27 UNL     1       7.222 -42.055   3.204  1.00  0.00     0.042 C 
HETATM   23  C28 UNL     1       5.835 -43.726   1.916  1.00  0.00     0.042 C 
ENDBRANCH  18  20
ENDBRANCH  16  18
ENDBRANCH  15  16
ENDBRANCH  10  15
BRANCH   9  24
HETATM   24  C15 UNL     1       2.141 -40.856   5.841  1.00  0.00    -0.011 C 
HETATM   25  C16 UNL     1       1.596 -41.120   7.228  1.00  0.00     0.010 C 
BRANCH  24  26
HETATM   26  C17 UNL     1       3.070 -42.055   5.706  1.00  0.00     0.014 C 
BRANCH  26  27
HETATM   27  C18 UNL     1       3.987 -42.244   6.866  1.00  0.00     0.111 C 
BRANCH  27  28
HETATM   28  C19 UNL     1       3.856 -43.594   7.473  1.00  0.00     0.258 C 
HETATM   29  O1  UNL     1       4.815 -44.315   7.809  1.00  0.00    -0.265 OA
BRANCH  28  30
HETATM   30  O2  UNL     1       2.569 -44.068   7.674  1.00  0.00    -0.326 OA
HETATM   31  C20 UNL     1       2.088 -44.468   8.943  1.00  0.00     0.213 C 
ENDBRANCH  28  30
ENDBRANCH  27  28
ENDBRANCH  26  27
ENDBRANCH  24  26
ENDBRANCH   9  24
BRANCH  12  32
HETATM   32  C32 UNL     1       0.257 -36.812   6.032  1.00  0.00     0.191 C 
BRANCH  32  33
HETATM   33  O5  UNL     1       0.119 -35.560   5.307  1.00  0.00    -0.321 OA
BRANCH  33  34
HETATM   34  C33 UNL     1      -0.033 -34.366   5.947  1.00  0.00     0.254 C 
HETATM   35  C34 UNL     1      -0.784 -33.209   5.386  1.00  0.00     0.126 C 
HETATM   36  O6  UNL     1       0.503 -34.246   7.094  1.00  0.00    -0.266 OA
ENDBRANCH  33  34
ENDBRANCH  32  33
ENDBRANCH  12  32
BRANCH  14  37
HETATM   37  O7  UNL     1      -1.927 -38.943   4.349  1.00  0.00    -0.387 OA
ATOM     38  H7  UNL     1      -1.510 -39.459   3.669  1.00  0.00     0.210 HD
ENDBRANCH  14  37
BRANCH   1  39
HETATM   39  C5  UNL     1      -2.670 -37.938   6.521  1.00  0.00    -0.014 C 
HETATM   40  C4  UNL     1      -2.652 -36.751   7.040  1.00  0.00    -0.003 C 
BRANCH  40  41
HETATM   41  C3  UNL     1      -3.817 -35.877   6.898  1.00  0.00    -0.005 C 
HETATM   42  C2  UNL     1      -4.180 -35.319   5.779  1.00  0.00    -0.031 C 
HETATM   43  C1  UNL     1      -3.431 -35.526   4.531  1.00  0.00     0.036 C 
ENDBRANCH  40  41
ENDBRANCH   1  39
TORSDOF 15
ENDMDL
