MODEL 1
REMARK VINA RESULT: -7.198615753      0.000      0.000
REMARK  7 active torsions:
REMARK  status: ('A' for Active; 'I' for Inactive)
REMARK    1  A    between atoms: C1_2  and  C2_3 
REMARK    2  A    between atoms: C1_2  and  O3_7 
REMARK    3  A    between atoms: C2_3  and  C3_4 
REMARK    4  A    between atoms: C3_4  and  O2_5 
REMARK    5  A    between atoms: O3_7  and  C4_8 
REMARK    6  A    between atoms: C4_8  and  C5_9 
REMARK    7  A    between atoms: C5_9  and  C6_11 
ROOT
HETATM    1  C6  UNL     1       8.937  24.429  -8.952  1.00  0.00     0.024 C 
HETATM    2  C7  UNL     1      10.186  24.755  -8.198  1.00  0.00     0.022 C 
HETATM    3  C8  UNL     1      11.127  23.559  -8.242  1.00  0.00    -0.013 C 
HETATM    4  C9  UNL     1      10.389  22.427  -7.538  1.00  0.00     0.009 C 
HETATM    5  C10 UNL     1       9.135  22.083  -8.298  1.00  0.00    -0.013 C 
HETATM    6  C11 UNL     1       9.490  21.687  -9.722  1.00  0.00     0.009 C 
HETATM    7  C12 UNL     1      10.159  22.860 -10.369  1.00  0.00    -0.013 C 
HETATM    8  C13 UNL     1      11.453  23.132  -9.634  1.00  0.00     0.009 C 
HETATM    9  C14 UNL     1       9.324  24.096 -10.375  1.00  0.00     0.022 C 
HETATM   10  C15 UNL     1       8.184  23.265  -8.397  1.00  0.00     0.022 C 
ENDROOT
BRANCH   1  11
HETATM   11  C5  UNL     1       8.041  25.627  -8.907  1.00  0.00     0.159 C 
HETATM   12  O4  UNL     1       7.274  25.824  -7.980  1.00  0.00    -0.295 OA
BRANCH  11  13
HETATM   13  C4  UNL     1       8.104  26.583 -10.021  1.00  0.00     0.257 C 
BRANCH  13  14
HETATM   14  O3  UNL     1       6.991  27.437 -10.082  1.00  0.00    -0.314 OA
BRANCH  14  15
HETATM   15  C1  UNL     1       7.127  28.782  -9.901  1.00  0.00     0.261 C 
HETATM   16  O1  UNL     1       7.718  29.197  -8.867  1.00  0.00    -0.265 OA
BRANCH  15  17
HETATM   17  C2  UNL     1       6.592  29.781 -10.900  1.00  0.00     0.137 C 
BRANCH  17  18
HETATM   18  C3  UNL     1       7.767  30.510 -11.477  1.00  0.00     0.173 C 
BRANCH  18  19
HETATM   19  O2  UNL     1       8.863  29.651 -11.433  1.00  0.00    -0.400 OA
ATOM     20  H2  UNL     1       9.576  30.112 -11.006  1.00  0.00     0.209 HD
ENDBRANCH  18  19
ENDBRANCH  17  18
ENDBRANCH  15  17
ENDBRANCH  14  15
ENDBRANCH  13  14
ENDBRANCH  11  13
ENDBRANCH   1  11
TORSDOF 7
ENDMDL
MODEL 2
REMARK VINA RESULT: -7.138765510      0.250      1.723
REMARK  7 active torsions:
REMARK  status: ('A' for Active; 'I' for Inactive)
REMARK    1  A    between atoms: C1_2  and  C2_3 
REMARK    2  A    between atoms: C1_2  and  O3_7 
REMARK    3  A    between atoms: C2_3  and  C3_4 
REMARK    4  A    between atoms: C3_4  and  O2_5 
REMARK    5  A    between atoms: O3_7  and  C4_8 
REMARK    6  A    between atoms: C4_8  and  C5_9 
REMARK    7  A    between atoms: C5_9  and  C6_11 
ROOT
HETATM    1  C6  UNL     1       8.756  24.501  -9.065  1.00  0.00     0.024 C 
HETATM    2  C7  UNL     1       7.981  23.379  -8.449  1.00  0.00     0.022 C 
HETATM    3  C8  UNL     1       8.856  22.134  -8.397  1.00  0.00    -0.013 C 
HETATM    4  C9  UNL     1       9.178  21.793  -9.846  1.00  0.00     0.009 C 
HETATM    5  C10 UNL     1       9.970  22.912 -10.470  1.00  0.00    -0.013 C 
HETATM    6  C11 UNL     1      11.246  23.144  -9.678  1.00  0.00     0.009 C 
HETATM    7  C12 UNL     1      10.855  23.526  -8.284  1.00  0.00    -0.013 C 
HETATM    8  C13 UNL     1      10.132  22.356  -7.656  1.00  0.00     0.009 C 
HETATM    9  C14 UNL     1       9.986  24.738  -8.219  1.00  0.00     0.022 C 
HETATM   10  C15 UNL     1       9.206  24.227 -10.463  1.00  0.00     0.022 C 
ENDROOT
BRANCH   1  11
HETATM   11  C5  UNL     1       7.879  25.713  -9.087  1.00  0.00     0.159 C 
HETATM   12  O4  UNL     1       7.010  25.897  -8.252  1.00  0.00    -0.295 OA
BRANCH  11  13
HETATM   13  C4  UNL     1       8.087  26.700 -10.156  1.00  0.00     0.257 C 
BRANCH  13  14
HETATM   14  O3  UNL     1       6.987  27.553 -10.345  1.00  0.00    -0.314 OA
BRANCH  14  15
HETATM   15  C1  UNL     1       7.081  28.888 -10.080  1.00  0.00     0.261 C 
HETATM   16  O1  UNL     1       7.604  29.255  -8.994  1.00  0.00    -0.265 OA
BRANCH  15  17
HETATM   17  C2  UNL     1       6.577  29.932 -11.050  1.00  0.00     0.137 C 
BRANCH  17  18
HETATM   18  C3  UNL     1       7.770  30.670 -11.573  1.00  0.00     0.173 C 
BRANCH  18  19
HETATM   19  O2  UNL     1       8.843  29.780 -11.600  1.00  0.00    -0.400 OA
ATOM     20  H2  UNL     1       9.619  30.252 -11.324  1.00  0.00     0.209 HD
ENDBRANCH  18  19
ENDBRANCH  17  18
ENDBRANCH  15  17
ENDBRANCH  14  15
ENDBRANCH  13  14
ENDBRANCH  11  13
ENDBRANCH   1  11
TORSDOF 7
ENDMDL
MODEL 3
REMARK VINA RESULT: -7.117874017      0.083      1.689
REMARK  7 active torsions:
REMARK  status: ('A' for Active; 'I' for Inactive)
REMARK    1  A    between atoms: C1_2  and  C2_3 
REMARK    2  A    between atoms: C1_2  and  O3_7 
REMARK    3  A    between atoms: C2_3  and  C3_4 
REMARK    4  A    between atoms: C3_4  and  O2_5 
REMARK    5  A    between atoms: O3_7  and  C4_8 
REMARK    6  A    between atoms: C4_8  and  C5_9 
REMARK    7  A    between atoms: C5_9  and  C6_11 
ROOT
HETATM    1  C6  UNL     1       8.886  24.444  -8.958  1.00  0.00     0.024 C 
HETATM    2  C7  UNL     1       9.209  24.117 -10.382  1.00  0.00     0.022 C 
HETATM    3  C8  UNL     1      10.085  22.872 -10.425  1.00  0.00    -0.013 C 
HETATM    4  C9  UNL     1      11.365  23.241  -9.685  1.00  0.00     0.009 C 
HETATM    5  C10 UNL     1      11.051  23.560  -8.247  1.00  0.00    -0.013 C 
HETATM    6  C11 UNL     1      10.378  22.365  -7.590  1.00  0.00     0.009 C 
HETATM    7  C12 UNL     1       9.105  22.094  -8.331  1.00  0.00    -0.013 C 
HETATM    8  C13 UNL     1       9.456  21.700  -9.748  1.00  0.00     0.009 C 
HETATM    9  C14 UNL     1       8.170  23.257  -8.357  1.00  0.00     0.022 C 
HETATM   10  C15 UNL     1      10.088  24.729  -8.118  1.00  0.00     0.022 C 
ENDROOT
BRANCH   1  11
HETATM   11  C5  UNL     1       8.012  25.659  -8.948  1.00  0.00     0.159 C 
HETATM   12  O4  UNL     1       7.221  25.877  -8.047  1.00  0.00    -0.295 OA
BRANCH  11  13
HETATM   13  C4  UNL     1       8.126  26.604 -10.067  1.00  0.00     0.257 C 
BRANCH  13  14
HETATM   14  O3  UNL     1       7.023  27.465 -10.180  1.00  0.00    -0.314 OA
BRANCH  14  15
HETATM   15  C1  UNL     1       7.153  28.806  -9.962  1.00  0.00     0.261 C 
HETATM   16  O1  UNL     1       7.733  29.196  -8.913  1.00  0.00    -0.265 OA
BRANCH  15  17
HETATM   17  C2  UNL     1       6.624  29.830 -10.940  1.00  0.00     0.137 C 
BRANCH  17  18
HETATM   18  C3  UNL     1       7.805  30.531 -11.536  1.00  0.00     0.173 C 
BRANCH  18  19
HETATM   19  O2  UNL     1       8.892  29.661 -11.474  1.00  0.00    -0.400 OA
ATOM     20  H2  UNL     1       9.288  29.629 -12.337  1.00  0.00     0.209 HD
ENDBRANCH  18  19
ENDBRANCH  17  18
ENDBRANCH  15  17
ENDBRANCH  14  15
ENDBRANCH  13  14
ENDBRANCH  11  13
ENDBRANCH   1  11
TORSDOF 7
ENDMDL
MODEL 4
REMARK VINA RESULT: -7.078319638      2.370      3.726
REMARK  7 active torsions:
REMARK  status: ('A' for Active; 'I' for Inactive)
REMARK    1  A    between atoms: C1_2  and  C2_3 
REMARK    2  A    between atoms: C1_2  and  O3_7 
REMARK    3  A    between atoms: C2_3  and  C3_4 
REMARK    4  A    between atoms: C3_4  and  O2_5 
REMARK    5  A    between atoms: O3_7  and  C4_8 
REMARK    6  A    between atoms: C4_8  and  C5_9 
REMARK    7  A    between atoms: C5_9  and  C6_11 
ROOT
HETATM    1  C6  UNL     1       6.346  24.071  -9.122  1.00  0.00     0.024 C 
HETATM    2  C7  UNL     1       5.085  24.103  -9.925  1.00  0.00     0.022 C 
HETATM    3  C8  UNL     1       4.277  22.844  -9.642  1.00  0.00    -0.013 C 
HETATM    4  C9  UNL     1       5.145  21.682 -10.105  1.00  0.00     0.009 C 
HETATM    5  C10 UNL     1       6.412  21.634  -9.293  1.00  0.00    -0.013 C 
HETATM    6  C11 UNL     1       6.072  21.494  -7.818  1.00  0.00     0.009 C 
HETATM    7  C12 UNL     1       5.268  22.693  -7.419  1.00  0.00    -0.013 C 
HETATM    8  C13 UNL     1       3.968  22.671  -8.191  1.00  0.00     0.009 C 
HETATM    9  C14 UNL     1       5.967  23.989  -7.661  1.00  0.00     0.022 C 
HETATM   10  C15 UNL     1       7.230  22.908  -9.434  1.00  0.00     0.022 C 
ENDROOT
BRANCH   1  11
HETATM   11  C5  UNL     1       7.110  25.326  -9.408  1.00  0.00     0.159 C 
HETATM   12  O4  UNL     1       8.327  25.368  -9.349  1.00  0.00    -0.295 OA
BRANCH  11  13
HETATM   13  C4  UNL     1       6.352  26.532  -9.768  1.00  0.00     0.257 C 
BRANCH  13  14
HETATM   14  O3  UNL     1       7.122  27.487 -10.452  1.00  0.00    -0.314 OA
BRANCH  14  15
HETATM   15  C1  UNL     1       7.113  28.798 -10.073  1.00  0.00     0.261 C 
HETATM   16  O1  UNL     1       7.555  29.102  -8.933  1.00  0.00    -0.265 OA
BRANCH  15  17
HETATM   17  C2  UNL     1       6.589  29.887 -10.980  1.00  0.00     0.137 C 
BRANCH  17  18
HETATM   18  C3  UNL     1       7.774  30.596 -11.559  1.00  0.00     0.173 C 
BRANCH  18  19
HETATM   19  O2  UNL     1       8.866  29.734 -11.478  1.00  0.00    -0.400 OA
ATOM     20  H2  UNL     1       9.591  30.218 -11.100  1.00  0.00     0.209 HD
ENDBRANCH  18  19
ENDBRANCH  17  18
ENDBRANCH  15  17
ENDBRANCH  14  15
ENDBRANCH  13  14
ENDBRANCH  11  13
ENDBRANCH   1  11
TORSDOF 7
ENDMDL
MODEL 5
REMARK VINA RESULT: -7.064170144      2.377      3.452
REMARK  7 active torsions:
REMARK  status: ('A' for Active; 'I' for Inactive)
REMARK    1  A    between atoms: C1_2  and  C2_3 
REMARK    2  A    between atoms: C1_2  and  O3_7 
REMARK    3  A    between atoms: C2_3  and  C3_4 
REMARK    4  A    between atoms: C3_4  and  O2_5 
REMARK    5  A    between atoms: O3_7  and  C4_8 
REMARK    6  A    between atoms: C4_8  and  C5_9 
REMARK    7  A    between atoms: C5_9  and  C6_11 
ROOT
HETATM    1  C6  UNL     1       6.318  24.023  -9.091  1.00  0.00     0.024 C 
HETATM    2  C7  UNL     1       7.193  22.869  -9.467  1.00  0.00     0.022 C 
HETATM    3  C8  UNL     1       6.431  21.569  -9.248  1.00  0.00    -0.013 C 
HETATM    4  C9  UNL     1       6.129  21.513  -7.756  1.00  0.00     0.009 C 
HETATM    5  C10 UNL     1       5.239  22.665  -7.370  1.00  0.00    -0.013 C 
HETATM    6  C11 UNL     1       3.953  22.613  -8.179  1.00  0.00     0.009 C 
HETATM    7  C12 UNL     1       4.319  22.728  -9.626  1.00  0.00    -0.013 C 
HETATM    8  C13 UNL     1       5.145  21.519 -10.004  1.00  0.00     0.009 C 
HETATM    9  C14 UNL     1       5.079  23.970  -9.954  1.00  0.00     0.022 C 
HETATM   10  C15 UNL     1       5.885  24.010  -7.662  1.00  0.00     0.022 C 
ENDROOT
BRANCH   1  11
HETATM   11  C5  UNL     1       7.086  25.285  -9.333  1.00  0.00     0.159 C 
HETATM   12  O4  UNL     1       8.286  25.359  -9.132  1.00  0.00    -0.295 OA
BRANCH  11  13
HETATM   13  C4  UNL     1       6.353  26.459  -9.827  1.00  0.00     0.257 C 
BRANCH  13  14
HETATM   14  O3  UNL     1       7.185  27.423 -10.418  1.00  0.00    -0.314 OA
BRANCH  14  15
HETATM   15  C1  UNL     1       7.126  28.731 -10.034  1.00  0.00     0.261 C 
HETATM   16  O1  UNL     1       7.523  29.043  -8.878  1.00  0.00    -0.265 OA
BRANCH  15  17
HETATM   17  C2  UNL     1       6.600  29.810 -10.952  1.00  0.00     0.137 C 
BRANCH  17  18
HETATM   18  C3  UNL     1       7.784  30.532 -11.519  1.00  0.00     0.173 C 
BRANCH  18  19
HETATM   19  O2  UNL     1       8.895  29.702 -11.377  1.00  0.00    -0.400 OA
ATOM     20  H2  UNL     1       8.796  29.221 -10.564  1.00  0.00     0.209 HD
ENDBRANCH  18  19
ENDBRANCH  17  18
ENDBRANCH  15  17
ENDBRANCH  14  15
ENDBRANCH  13  14
ENDBRANCH  11  13
ENDBRANCH   1  11
TORSDOF 7
ENDMDL
