MODEL 1
REMARK VINA RESULT: -7.468184755      0.000      0.000
REMARK  5 active torsions:
REMARK  status: ('A' for Active; 'I' for Inactive)
REMARK    1  A    between atoms: C2_3  and  C3_4 
REMARK    2  A    between atoms: C3_4  and  C4_5 
REMARK    3  A    between atoms: C4_5  and  N2_6 
REMARK    4  A    between atoms: C7_9  and  N3_10 
REMARK    5  A    between atoms: N3_10  and  C8_12 
ROOT
HETATM    1  N1  UNL     1       4.686  32.939 -10.585  1.00  0.00    -0.197 NA
HETATM    2  C1  UNL     1       5.419  32.479 -11.375  1.00  0.00     0.059 C 
HETATM    3  C2  UNL     1       6.349  31.924 -12.360  1.00  0.00     0.125 C 
ENDROOT
BRANCH   3   4
HETATM    4  C3  UNL     1       7.407  31.093 -11.667  1.00  0.00     0.033 C 
BRANCH   4   5
HETATM    5  C4  UNL     1       6.759  29.998 -10.820  1.00  0.00     0.117 C 
BRANCH   5   6
HETATM    6  N2  UNL     1       7.793  29.148 -10.317  1.00  0.00    -0.412 N 
HETATM    7  C5  UNL     1       7.784  29.093  -8.901  1.00  0.00     0.119 C 
HETATM    8  C6  UNL     1       7.932  27.772  -8.249  1.00  0.00     0.044 C 
HETATM    9  C7  UNL     1       7.490  26.567  -8.992  1.00  0.00     0.080 C 
HETATM   10  C13 UNL     1       7.225  26.785 -10.469  1.00  0.00     0.044 C 
HETATM   11  C14 UNL     1       8.013  27.934 -11.019  1.00  0.00     0.119 C 
BRANCH   9  12
HETATM   12  N3  UNL     1       6.335  25.912  -8.460  1.00  0.00    -0.413 N 
ATOM     13  H3  UNL     1       5.713  26.364  -7.790  1.00  0.00     0.154 HD
BRANCH  12  14
HETATM   14  C8  UNL     1       6.110  24.563  -8.937  1.00  0.00     0.078 C 
HETATM   15  C9  UNL     1       4.948  24.003  -8.207  1.00  0.00     0.035 C 
HETATM   16  C10 UNL     1       5.048  22.612  -7.703  1.00  0.00     0.076 C 
HETATM   17  S1  UNL     1       6.139  21.515  -8.603  1.00  0.00    -0.169 SA
HETATM   18  C11 UNL     1       7.396  22.549  -9.456  1.00  0.00     0.076 C 
HETATM   19  C12 UNL     1       7.429  23.830  -8.631  1.00  0.00     0.035 C 
ENDBRANCH  12  14
ENDBRANCH   9  12
ENDBRANCH   5   6
ENDBRANCH   4   5
ENDBRANCH   3   4
TORSDOF 5
ENDMDL
MODEL 2
REMARK VINA RESULT: -6.915786099      3.930      5.000
REMARK  5 active torsions:
REMARK  status: ('A' for Active; 'I' for Inactive)
REMARK    1  A    between atoms: C2_3  and  C3_4 
REMARK    2  A    between atoms: C3_4  and  C4_5 
REMARK    3  A    between atoms: C4_5  and  N2_6 
REMARK    4  A    between atoms: C7_9  and  N3_10 
REMARK    5  A    between atoms: N3_10  and  C8_12 
ROOT
HETATM    1  N1  UNL     1       6.265  32.554 -12.733  1.00  0.00    -0.197 NA
HETATM    2  C1  UNL     1       6.944  31.736 -12.241  1.00  0.00     0.059 C 
HETATM    3  C2  UNL     1       7.792  30.726 -11.606  1.00  0.00     0.125 C 
ENDROOT
BRANCH   3   4
HETATM    4  C3  UNL     1       6.937  29.619 -11.025  1.00  0.00     0.033 C 
BRANCH   4   5
HETATM    5  C4  UNL     1       7.786  28.381 -10.739  1.00  0.00     0.117 C 
BRANCH   5   6
HETATM    6  N2  UNL     1       7.477  27.920  -9.421  1.00  0.00    -0.412 N 
HETATM    7  C5  UNL     1       7.820  26.556  -9.249  1.00  0.00     0.119 C 
HETATM    8  C6  UNL     1       8.521  26.159  -8.007  1.00  0.00     0.044 C 
HETATM    9  C7  UNL     1       9.349  27.174  -7.311  1.00  0.00     0.080 C 
HETATM   10  C13 UNL     1       9.136  28.603  -7.773  1.00  0.00     0.044 C 
HETATM   11  C14 UNL     1       7.771  28.809  -8.353  1.00  0.00     0.119 C 
BRANCH   9  12
HETATM   12  N3  UNL     1      10.758  26.937  -7.344  1.00  0.00    -0.413 N 
ATOM     13  H3  UNL     1      11.336  27.200  -8.142  1.00  0.00     0.154 HD
BRANCH  12  14
HETATM   14  C8  UNL     1      11.309  26.298  -6.166  1.00  0.00     0.078 C 
HETATM   15  C9  UNL     1      11.928  27.346  -5.319  1.00  0.00     0.035 C 
HETATM   16  C10 UNL     1      13.256  27.065  -4.723  1.00  0.00     0.076 C 
HETATM   17  S1  UNL     1      13.647  25.344  -4.426  1.00  0.00    -0.169 SA
HETATM   18  C11 UNL     1      12.639  24.331  -5.583  1.00  0.00     0.076 C 
HETATM   19  C12 UNL     1      12.329  25.291  -6.725  1.00  0.00     0.035 C 
ENDBRANCH  12  14
ENDBRANCH   9  12
ENDBRANCH   5   6
ENDBRANCH   4   5
ENDBRANCH   3   4
TORSDOF 5
ENDMDL
MODEL 3
REMARK VINA RESULT: -6.886270408      3.829      7.236
REMARK  5 active torsions:
REMARK  status: ('A' for Active; 'I' for Inactive)
REMARK    1  A    between atoms: C2_3  and  C3_4 
REMARK    2  A    between atoms: C3_4  and  C4_5 
REMARK    3  A    between atoms: C4_5  and  N2_6 
REMARK    4  A    between atoms: C7_9  and  N3_10 
REMARK    5  A    between atoms: N3_10  and  C8_12 
ROOT
HETATM    1  N1  UNL     1       8.835  21.008  -9.630  1.00  0.00    -0.197 NA
HETATM    2  C1  UNL     1       7.717  21.077  -9.285  1.00  0.00     0.059 C 
HETATM    3  C2  UNL     1       6.328  21.173  -8.832  1.00  0.00     0.125 C 
ENDROOT
BRANCH   3   4
HETATM    4  C3  UNL     1       5.728  22.492  -9.270  1.00  0.00     0.033 C 
BRANCH   4   5
HETATM    5  C4  UNL     1       6.333  23.646  -8.470  1.00  0.00     0.117 C 
BRANCH   5   6
HETATM    6  N2  UNL     1       6.909  24.576  -9.390  1.00  0.00    -0.412 N 
HETATM    7  C5  UNL     1       6.066  25.695  -9.603  1.00  0.00     0.119 C 
HETATM    8  C6  UNL     1       6.675  27.044  -9.601  1.00  0.00     0.044 C 
HETATM    9  C7  UNL     1       7.919  27.253  -8.820  1.00  0.00     0.080 C 
HETATM   10  C13 UNL     1       8.612  25.983  -8.364  1.00  0.00     0.044 C 
HETATM   11  C14 UNL     1       8.302  24.821  -9.256  1.00  0.00     0.119 C 
BRANCH   9  12
HETATM   12  N3  UNL     1       7.782  28.084  -7.665  1.00  0.00    -0.413 N 
ATOM     13  H3  UNL     1       7.008  28.739  -7.554  1.00  0.00     0.154 HD
BRANCH  12  14
HETATM   14  C8  UNL     1       8.817  27.931  -6.662  1.00  0.00     0.078 C 
HETATM   15  C9  UNL     1       8.186  28.050  -5.326  1.00  0.00     0.035 C 
HETATM   16  C10 UNL     1       8.874  28.871  -4.302  1.00  0.00     0.076 C 
HETATM   17  S1  UNL     1      10.652  29.010  -4.455  1.00  0.00    -0.169 SA
HETATM   18  C11 UNL     1      11.088  28.719  -6.217  1.00  0.00     0.076 C 
HETATM   19  C12 UNL     1       9.808  29.068  -6.967  1.00  0.00     0.035 C 
ENDBRANCH  12  14
ENDBRANCH   9  12
ENDBRANCH   5   6
ENDBRANCH   4   5
ENDBRANCH   3   4
TORSDOF 5
ENDMDL
MODEL 4
REMARK VINA RESULT: -6.787940775      3.844      6.832
REMARK  5 active torsions:
REMARK  status: ('A' for Active; 'I' for Inactive)
REMARK    1  A    between atoms: C2_3  and  C3_4 
REMARK    2  A    between atoms: C3_4  and  C4_5 
REMARK    3  A    between atoms: C4_5  and  N2_6 
REMARK    4  A    between atoms: C7_9  and  N3_10 
REMARK    5  A    between atoms: N3_10  and  C8_12 
ROOT
HETATM    1  N1  UNL     1       3.222  22.132 -10.951  1.00  0.00    -0.197 NA
HETATM    2  C1  UNL     1       3.557  22.309  -9.843  1.00  0.00     0.059 C 
HETATM    3  C2  UNL     1       3.997  22.518  -8.462  1.00  0.00     0.125 C 
ENDROOT
BRANCH   3   4
HETATM    4  C3  UNL     1       4.746  23.829  -8.347  1.00  0.00     0.033 C 
BRANCH   4   5
HETATM    5  C4  UNL     1       6.255  23.588  -8.385  1.00  0.00     0.117 C 
BRANCH   5   6
HETATM    6  N2  UNL     1       6.832  24.497  -9.326  1.00  0.00    -0.412 N 
HETATM    7  C5  UNL     1       5.996  25.619  -9.551  1.00  0.00     0.119 C 
HETATM    8  C6  UNL     1       6.617  26.962  -9.578  1.00  0.00     0.044 C 
HETATM    9  C7  UNL     1       7.870  27.174  -8.811  1.00  0.00     0.080 C 
HETATM   10  C13 UNL     1       8.555  25.906  -8.339  1.00  0.00     0.044 C 
HETATM   11  C14 UNL     1       8.227  24.731  -9.208  1.00  0.00     0.119 C 
BRANCH   9  12
HETATM   12  N3  UNL     1       7.750  28.026  -7.670  1.00  0.00    -0.413 N 
ATOM     13  H3  UNL     1       6.979  28.686  -7.561  1.00  0.00     0.154 HD
BRANCH  12  14
HETATM   14  C8  UNL     1       8.798  27.890  -6.679  1.00  0.00     0.078 C 
HETATM   15  C9  UNL     1       8.181  28.012  -5.336  1.00  0.00     0.035 C 
HETATM   16  C10 UNL     1       8.875  28.847  -4.326  1.00  0.00     0.076 C 
HETATM   17  S1  UNL     1      10.650  29.000  -4.501  1.00  0.00    -0.169 SA
HETATM   18  C11 UNL     1      11.067  28.700  -6.266  1.00  0.00     0.076 C 
HETATM   19  C12 UNL     1       9.776  29.033  -7.003  1.00  0.00     0.035 C 
ENDBRANCH  12  14
ENDBRANCH   9  12
ENDBRANCH   5   6
ENDBRANCH   4   5
ENDBRANCH   3   4
TORSDOF 5
ENDMDL
MODEL 5
REMARK VINA RESULT: -6.715991522      3.721      7.021
REMARK  5 active torsions:
REMARK  status: ('A' for Active; 'I' for Inactive)
REMARK    1  A    between atoms: C2_3  and  C3_4 
REMARK    2  A    between atoms: C3_4  and  C4_5 
REMARK    3  A    between atoms: C4_5  and  N2_6 
REMARK    4  A    between atoms: C7_9  and  N3_10 
REMARK    5  A    between atoms: N3_10  and  C8_12 
ROOT
HETATM    1  N1  UNL     1       6.543  20.620  -8.625  1.00  0.00    -0.197 NA
HETATM    2  C1  UNL     1       5.817  21.420  -9.079  1.00  0.00     0.059 C 
HETATM    3  C2  UNL     1       4.891  22.407  -9.636  1.00  0.00     0.125 C 
ENDROOT
BRANCH   3   4
HETATM    4  C3  UNL     1       4.730  23.569  -8.678  1.00  0.00     0.033 C 
BRANCH   4   5
HETATM    5  C4  UNL     1       6.092  24.029  -8.161  1.00  0.00     0.117 C 
BRANCH   5   6
HETATM    6  N2  UNL     1       6.717  24.814  -9.180  1.00  0.00    -0.412 N 
HETATM    7  C5  UNL     1       5.978  25.989  -9.465  1.00  0.00     0.119 C 
HETATM    8  C6  UNL     1       6.714  27.265  -9.605  1.00  0.00     0.044 C 
HETATM    9  C7  UNL     1       8.004  27.415  -8.888  1.00  0.00     0.080 C 
HETATM   10  C13 UNL     1       8.589  26.127  -8.341  1.00  0.00     0.044 C 
HETATM   11  C14 UNL     1       8.131  24.929  -9.114  1.00  0.00     0.119 C 
BRANCH   9  12
HETATM   12  N3  UNL     1       7.995  28.353  -7.809  1.00  0.00    -0.413 N 
ATOM     13  H3  UNL     1       7.395  29.178  -7.808  1.00  0.00     0.154 HD
BRANCH  12  14
HETATM   14  C8  UNL     1       8.897  28.052  -6.715  1.00  0.00     0.078 C 
HETATM   15  C9  UNL     1       8.138  28.161  -5.447  1.00  0.00     0.035 C 
HETATM   16  C10 UNL     1       8.781  28.860  -4.308  1.00  0.00     0.076 C 
HETATM   17  S1  UNL     1      10.571  28.837  -4.268  1.00  0.00    -0.169 SA
HETATM   18  C11 UNL     1      11.168  28.596  -5.990  1.00  0.00     0.076 C 
HETATM   19  C12 UNL     1      10.013  29.103  -6.846  1.00  0.00     0.035 C 
ENDBRANCH  12  14
ENDBRANCH   9  12
ENDBRANCH   5   6
ENDBRANCH   4   5
ENDBRANCH   3   4
TORSDOF 5
ENDMDL
