MODEL 1
REMARK VINA RESULT: -8.699795142      0.000      0.000
REMARK  5 active torsions:
REMARK  status: ('A' for Active; 'I' for Inactive)
REMARK    1  A    between atoms: N1_1  and  C1_4 
REMARK    2  A    between atoms: N4_12  and  C4_13 
REMARK    3  A    between atoms: C4_13  and  C5_14 
REMARK    4  A    between atoms: C8_26  and  N9_27 
REMARK    5  A    between atoms: N10_29  and  C9_31 
ROOT
HETATM    1  C1  UNL     1      18.598 -27.029  25.251  1.00  0.00     0.679 A 
HETATM    2  N2  UNL     1      18.079 -26.924  24.001  1.00  0.00    -0.176 N 
ATOM      3  H2  UNL     1      17.677 -26.042  23.680  1.00  0.00     0.186 HD
HETATM    4  C2  UNL     1      18.100 -27.995  23.191  1.00  0.00     0.144 A 
HETATM    5  N3  UNL     1      17.603 -27.953  21.943  1.00  0.00    -0.293 N 
ATOM      6  H3  UNL     1      17.193 -27.091  21.584  1.00  0.00     0.172 HD
HETATM    7  C3  UNL     1      17.647 -29.051  21.171  1.00  0.00     0.331 A 
HETATM    8  O1  UNL     1      17.162 -28.949  20.005  1.00  0.00    -0.246 OA
HETATM    9  N4  UNL     1      18.175 -30.209  21.589  1.00  0.00    -0.258 N 
HETATM   10  C6  UNL     1      18.681 -30.305  22.814  1.00  0.00     0.269 A 
HETATM   11  O2  UNL     1      19.195 -31.381  23.263  1.00  0.00    -0.267 OA
HETATM   12  C7  UNL     1      18.687 -29.240  23.690  1.00  0.00     0.123 A 
HETATM   13  C8  UNL     1      19.187 -29.260  24.960  1.00  0.00     0.155 A 
HETATM   14  N15 UNL     1      19.141 -28.174  25.720  1.00  0.00    -0.174 N 
ATOM     15  H15 UNL     1      19.519 -28.204  26.667  1.00  0.00     0.186 HD
ENDROOT
BRANCH  13  16
HETATM   16  N9  UNL     1      19.756 -30.467  25.443  1.00  0.00    -0.270 N 
HETATM   17  N10 UNL     1      19.176 -31.307  26.157  1.00  0.00    -0.128 N 
ATOM     18  H10 UNL     1      19.705 -32.134  26.433  1.00  0.00     0.205 HD
ATOM     19  H9  UNL     1      20.722 -30.664  25.183  1.00  0.00     0.189 HD
BRANCH  17  20
HETATM   20  C9  UNL     1      17.831 -31.202  26.620  1.00  0.00     0.728 A 
HETATM   21  N11 UNL     1      16.848 -32.042  26.280  1.00  0.00    -0.114 N 
HETATM   22  N12 UNL     1      15.767 -31.617  26.906  1.00  0.00    -0.213 N 
ATOM     23  H11 UNL     1      16.920 -32.849  25.660  1.00  0.00     0.207 HD
HETATM   24  N13 UNL     1      16.048 -30.544  27.620  1.00  0.00    -0.213 N 
ATOM     25  H12 UNL     1      14.847 -32.054  26.846  1.00  0.00     0.210 HD
HETATM   26  N14 UNL     1      17.321 -30.291  27.443  1.00  0.00    -0.114 N 
ATOM     27  H13 UNL     1      15.397 -30.014  28.200  1.00  0.00     0.210 HD
ATOM     28  H14 UNL     1      17.836 -29.520  27.867  1.00  0.00     0.207 HD
ENDBRANCH  17  20
ENDBRANCH  13  16
BRANCH   1  29
HETATM   29  N1  UNL     1      18.590 -26.008  26.056  1.00  0.00    -0.234 N 
ATOM     30  H12 UNL     1      19.283 -25.279  25.885  1.00  0.00     0.174 HD
ATOM     31  H11 UNL     1      17.913 -25.956  26.817  1.00  0.00     0.174 HD
ENDBRANCH   1  29
BRANCH   9  32
HETATM   32  C4  UNL     1      18.178 -31.337  20.685  1.00  0.00     0.216 C 
BRANCH  32  33
HETATM   33  C5  UNL     1      16.937 -32.139  20.759  1.00  0.00     0.131 A 
HETATM   34  N5  UNL     1      16.130 -32.504  19.750  1.00  0.00    -0.271 N 
HETATM   35  N6  UNL     1      15.128 -33.221  20.274  1.00  0.00    -0.227 N 
ATOM     36  H5  UNL     1      16.257 -32.276  18.763  1.00  0.00     0.190 HD
HETATM   37  N7  UNL     1      15.283 -33.315  21.578  1.00  0.00    -0.227 N 
ATOM     38  H6  UNL     1      14.361 -33.632  19.742  1.00  0.00     0.210 HD
HETATM   39  N8  UNL     1      16.389 -32.653  21.870  1.00  0.00    -0.271 N 
ATOM     40  H7  UNL     1      14.671 -33.802  22.232  1.00  0.00     0.210 HD
ATOM     41  H8  UNL     1      16.772 -32.547  22.810  1.00  0.00     0.190 HD
ENDBRANCH  32  33
ENDBRANCH   9  32
TORSDOF 5
ENDMDL
MODEL 2
REMARK VINA RESULT: -7.984676265      1.957      2.753
REMARK  5 active torsions:
REMARK  status: ('A' for Active; 'I' for Inactive)
REMARK    1  A    between atoms: N1_1  and  C1_4 
REMARK    2  A    between atoms: N4_12  and  C4_13 
REMARK    3  A    between atoms: C4_13  and  C5_14 
REMARK    4  A    between atoms: C8_26  and  N9_27 
REMARK    5  A    between atoms: N10_29  and  C9_31 
ROOT
HETATM    1  C1  UNL     1      18.094 -27.315  27.917  1.00  0.00     0.679 A 
HETATM    2  N2  UNL     1      17.315 -27.054  26.835  1.00  0.00    -0.176 N 
ATOM      3  H2  UNL     1      16.438 -26.543  26.941  1.00  0.00     0.186 HD
HETATM    4  C2  UNL     1      17.713 -27.477  25.624  1.00  0.00     0.144 A 
HETATM    5  N3  UNL     1      16.987 -27.249  24.517  1.00  0.00    -0.293 N 
ATOM      6  H3  UNL     1      16.105 -26.741  24.579  1.00  0.00     0.172 HD
HETATM    7  C3  UNL     1      17.428 -27.693  23.328  1.00  0.00     0.331 A 
HETATM    8  O1  UNL     1      16.699 -27.447  22.321  1.00  0.00    -0.246 OA
HETATM    9  N4  UNL     1      18.579 -28.362  23.187  1.00  0.00    -0.258 N 
HETATM   10  C6  UNL     1      19.335 -28.615  24.250  1.00  0.00     0.269 A 
HETATM   11  O2  UNL     1      20.439 -29.247  24.174  1.00  0.00    -0.267 OA
HETATM   12  C7  UNL     1      18.979 -28.206  25.517  1.00  0.00     0.123 A 
HETATM   13  C8  UNL     1      19.700 -28.426  26.655  1.00  0.00     0.155 A 
HETATM   14  N15 UNL     1      19.262 -27.987  27.827  1.00  0.00    -0.174 N 
ATOM     15  H15 UNL     1      19.813 -28.159  28.669  1.00  0.00     0.186 HD
ENDROOT
BRANCH  13  16
HETATM   16  N9  UNL     1      20.927 -29.133  26.551  1.00  0.00    -0.270 N 
HETATM   17  N10 UNL     1      21.098 -30.334  26.833  1.00  0.00    -0.128 N 
ATOM     18  H10 UNL     1      22.035 -30.716  26.709  1.00  0.00     0.205 HD
ATOM     19  H9  UNL     1      21.737 -28.613  26.215  1.00  0.00     0.189 HD
BRANCH  17  20
HETATM   20  C9  UNL     1      20.087 -31.216  27.316  1.00  0.00     0.728 A 
HETATM   21  N11 UNL     1      19.998 -31.643  28.579  1.00  0.00    -0.114 N 
HETATM   22  N12 UNL     1      18.941 -32.432  28.628  1.00  0.00    -0.213 N 
ATOM     23  H11 UNL     1      20.621 -31.406  29.351  1.00  0.00     0.207 HD
HETATM   24  N13 UNL     1      18.375 -32.508  27.439  1.00  0.00    -0.213 N 
ATOM     25  H12 UNL     1      18.610 -32.915  29.464  1.00  0.00     0.210 HD
HETATM   26  N14 UNL     1      19.083 -31.757  26.631  1.00  0.00    -0.114 N 
ATOM     27  H13 UNL     1      17.546 -33.048  27.194  1.00  0.00     0.210 HD
ATOM     28  H14 UNL     1      18.895 -31.611  25.640  1.00  0.00     0.207 HD
ENDBRANCH  17  20
ENDBRANCH  13  16
BRANCH   1  29
HETATM   29  N1  UNL     1      17.731 -26.918  29.100  1.00  0.00    -0.234 N 
ATOM     30  H12 UNL     1      16.777 -27.133  29.388  1.00  0.00     0.174 HD
ATOM     31  H11 UNL     1      18.387 -26.416  29.700  1.00  0.00     0.174 HD
ENDBRANCH   1  29
BRANCH   9  32
HETATM   32  C4  UNL     1      18.971 -28.799  21.866  1.00  0.00     0.216 C 
BRANCH  32  33
HETATM   33  C5  UNL     1      18.271 -30.029  21.434  1.00  0.00     0.131 A 
HETATM   34  N5  UNL     1      18.563 -31.300  21.757  1.00  0.00    -0.271 N 
HETATM   35  N6  UNL     1      17.670 -32.087  21.143  1.00  0.00    -0.227 N 
ATOM     36  H5  UNL     1      19.326 -31.609  22.360  1.00  0.00     0.190 HD
HETATM   37  N7  UNL     1      16.831 -31.349  20.447  1.00  0.00    -0.227 N 
ATOM     38  H6  UNL     1      17.645 -33.105  21.206  1.00  0.00     0.210 HD
HETATM   39  N8  UNL     1      17.202 -30.093  20.628  1.00  0.00    -0.271 N 
ATOM     40  H7  UNL     1      16.050 -31.681  19.881  1.00  0.00     0.210 HD
ATOM     41  H8  UNL     1      16.739 -29.285  20.211  1.00  0.00     0.190 HD
ENDBRANCH  32  33
ENDBRANCH   9  32
TORSDOF 5
ENDMDL
MODEL 3
REMARK VINA RESULT: -7.917594211      4.040      6.773
REMARK  5 active torsions:
REMARK  status: ('A' for Active; 'I' for Inactive)
REMARK    1  A    between atoms: N1_1  and  C1_4 
REMARK    2  A    between atoms: N4_12  and  C4_13 
REMARK    3  A    between atoms: C4_13  and  C5_14 
REMARK    4  A    between atoms: C8_26  and  N9_27 
REMARK    5  A    between atoms: N10_29  and  C9_31 
ROOT
HETATM    1  C1  UNL     1      16.932 -28.323  27.142  1.00  0.00     0.679 A 
HETATM    2  N2  UNL     1      17.670 -27.240  27.500  1.00  0.00    -0.176 N 
ATOM      3  H2  UNL     1      17.253 -26.491  28.053  1.00  0.00     0.186 HD
HETATM    4  C2  UNL     1      18.955 -27.168  27.116  1.00  0.00     0.144 A 
HETATM    5  N3  UNL     1      19.736 -26.123  27.439  1.00  0.00    -0.293 N 
ATOM      6  H3  UNL     1      19.358 -25.354  27.992  1.00  0.00     0.172 HD
HETATM    7  C3  UNL     1      21.015 -26.097  27.032  1.00  0.00     0.331 A 
HETATM    8  O1  UNL     1      21.700 -25.085  27.368  1.00  0.00    -0.246 OA
HETATM    9  N4  UNL     1      21.564 -27.079  26.307  1.00  0.00    -0.258 N 
HETATM   10  C6  UNL     1      20.837 -28.135  25.959  1.00  0.00     0.269 A 
HETATM   11  O2  UNL     1      21.307 -29.098  25.270  1.00  0.00    -0.267 OA
HETATM   12  C7  UNL     1      19.513 -28.266  26.324  1.00  0.00     0.123 A 
HETATM   13  C8  UNL     1      18.702 -29.316  26.007  1.00  0.00     0.155 A 
HETATM   14  N15 UNL     1      17.439 -29.340  26.411  1.00  0.00    -0.174 N 
ATOM     15  H15 UNL     1      16.845 -30.132  26.167  1.00  0.00     0.186 HD
ENDROOT
BRANCH  13  16
HETATM   16  N9  UNL     1      19.244 -30.380  25.239  1.00  0.00    -0.270 N 
HETATM   17  N10 UNL     1      19.752 -31.420  25.697  1.00  0.00    -0.128 N 
ATOM     18  H10 UNL     1      20.103 -32.105  25.029  1.00  0.00     0.205 HD
ATOM     19  H9  UNL     1      19.213 -30.285  24.224  1.00  0.00     0.189 HD
BRANCH  17  20
HETATM   20  C9  UNL     1      19.883 -31.727  27.084  1.00  0.00     0.728 A 
HETATM   21  N11 UNL     1      20.857 -31.261  27.872  1.00  0.00    -0.114 N 
HETATM   22  N12 UNL     1      20.634 -31.765  29.071  1.00  0.00    -0.213 N 
ATOM     23  H11 UNL     1      21.619 -30.641  27.601  1.00  0.00     0.207 HD
HETATM   24  N13 UNL     1      19.557 -32.526  29.051  1.00  0.00    -0.213 N 
ATOM     25  H12 UNL     1      21.210 -31.591  29.895  1.00  0.00     0.210 HD
HETATM   26  N14 UNL     1      19.095 -32.501  27.825  1.00  0.00    -0.114 N 
ATOM     27  H13 UNL     1      19.159 -33.036  29.839  1.00  0.00     0.210 HD
ATOM     28  H14 UNL     1      18.267 -32.995  27.493  1.00  0.00     0.207 HD
ENDBRANCH  17  20
ENDBRANCH  13  16
BRANCH   1  29
HETATM   29  N1  UNL     1      15.686 -28.418  27.499  1.00  0.00    -0.234 N 
ATOM     30  H12 UNL     1      15.315 -27.670  28.085  1.00  0.00     0.174 HD
ATOM     31  H11 UNL     1      15.121 -29.212  27.197  1.00  0.00     0.174 HD
ENDBRANCH   1  29
BRANCH   9  32
HETATM   32  C4  UNL     1      22.951 -26.962  25.915  1.00  0.00     0.216 C 
BRANCH  32  33
HETATM   33  C5  UNL     1      23.874 -27.638  26.853  1.00  0.00     0.131 A 
HETATM   34  N5  UNL     1      24.922 -27.108  27.504  1.00  0.00    -0.271 N 
HETATM   35  N6  UNL     1      25.471 -28.080  28.243  1.00  0.00    -0.227 N 
ATOM     36  H5  UNL     1      25.241 -26.140  27.446  1.00  0.00     0.190 HD
HETATM   37  N7  UNL     1      24.801 -29.201  28.074  1.00  0.00    -0.227 N 
ATOM     38  H6  UNL     1      26.286 -27.969  28.846  1.00  0.00     0.210 HD
HETATM   39  N8  UNL     1      23.827 -28.926  27.223  1.00  0.00    -0.271 N 
ATOM     40  H7  UNL     1      24.995 -30.101  28.511  1.00  0.00     0.210 HD
ATOM     41  H8  UNL     1      23.135 -29.600  26.895  1.00  0.00     0.190 HD
ENDBRANCH  32  33
ENDBRANCH   9  32
TORSDOF 5
ENDMDL
MODEL 4
REMARK VINA RESULT: -7.892211122      2.049      6.045
REMARK  5 active torsions:
REMARK  status: ('A' for Active; 'I' for Inactive)
REMARK    1  A    between atoms: N1_1  and  C1_4 
REMARK    2  A    between atoms: N4_12  and  C4_13 
REMARK    3  A    between atoms: C4_13  and  C5_14 
REMARK    4  A    between atoms: C8_26  and  N9_27 
REMARK    5  A    between atoms: N10_29  and  C9_31 
ROOT
HETATM    1  C1  UNL     1      20.654 -32.684  21.697  1.00  0.00     0.679 A 
HETATM    2  N2  UNL     1      20.990 -32.429  22.988  1.00  0.00    -0.176 N 
ATOM      3  H2  UNL     1      21.653 -33.030  23.478  1.00  0.00     0.186 HD
HETATM    4  C2  UNL     1      20.437 -31.376  23.612  1.00  0.00     0.144 A 
HETATM    5  N3  UNL     1      20.728 -31.072  24.887  1.00  0.00    -0.293 N 
ATOM      6  H3  UNL     1      21.387 -31.647  25.413  1.00  0.00     0.172 HD
HETATM    7  C3  UNL     1      20.149 -30.008  25.468  1.00  0.00     0.331 A 
HETATM    8  O1  UNL     1      20.465 -29.773  26.673  1.00  0.00    -0.246 OA
HETATM    9  N4  UNL     1      19.280 -29.218  24.826  1.00  0.00    -0.258 N 
HETATM   10  C6  UNL     1      18.956 -29.473  23.563  1.00  0.00     0.269 A 
HETATM   11  O2  UNL     1      18.135 -28.755  22.905  1.00  0.00    -0.267 OA
HETATM   12  C7  UNL     1      19.491 -30.539  22.871  1.00  0.00     0.123 A 
HETATM   13  C8  UNL     1      19.209 -30.866  21.576  1.00  0.00     0.155 A 
HETATM   14  N15 UNL     1      19.783 -31.918  21.006  1.00  0.00    -0.174 N 
ATOM     15  H15 UNL     1      19.563 -32.149  20.037  1.00  0.00     0.186 HD
ENDROOT
BRANCH  13  16
HETATM   16  N9  UNL     1      18.292 -30.055  20.858  1.00  0.00    -0.270 N 
HETATM   17  N10 UNL     1      17.134 -30.380  20.537  1.00  0.00    -0.128 N 
ATOM     18  H10 UNL     1      16.580 -29.696  20.022  1.00  0.00     0.205 HD
ATOM     19  H9  UNL     1      18.609 -29.126  20.582  1.00  0.00     0.189 HD
BRANCH  17  20
HETATM   20  C9  UNL     1      16.520 -31.632  20.834  1.00  0.00     0.728 A 
HETATM   21  N11 UNL     1      15.916 -32.410  19.931  1.00  0.00    -0.114 N 
HETATM   22  N12 UNL     1      15.482 -33.470  20.587  1.00  0.00    -0.213 N 
ATOM     23  H11 UNL     1      15.811 -32.222  18.934  1.00  0.00     0.207 HD
HETATM   24  N13 UNL     1      15.797 -33.373  21.864  1.00  0.00    -0.213 N 
ATOM     25  H12 UNL     1      14.976 -34.250  20.168  1.00  0.00     0.210 HD
HETATM   26  N14 UNL     1      16.438 -32.240  22.014  1.00  0.00    -0.114 N 
ATOM     27  H13 UNL     1      15.583 -34.051  22.595  1.00  0.00     0.210 HD
ATOM     28  H14 UNL     1      16.811 -31.882  22.893  1.00  0.00     0.207 HD
ENDBRANCH  17  20
ENDBRANCH  13  16
BRANCH   1  29
HETATM   29  N1  UNL     1      21.174 -33.697  21.069  1.00  0.00    -0.234 N 
ATOM     30  H12 UNL     1      20.689 -34.020  20.232  1.00  0.00     0.174 HD
ATOM     31  H11 UNL     1      22.029 -34.135  21.414  1.00  0.00     0.174 HD
ENDBRANCH   1  29
BRANCH   9  32
HETATM   32  C4  UNL     1      18.709 -28.094  25.535  1.00  0.00     0.216 C 
BRANCH  32  33
HETATM   33  C5  UNL     1      17.511 -28.459  26.324  1.00  0.00     0.131 A 
HETATM   34  N5  UNL     1      17.262 -29.617  26.957  1.00  0.00    -0.271 N 
HETATM   35  N6  UNL     1      16.063 -29.506  27.542  1.00  0.00    -0.227 N 
ATOM     36  H5  UNL     1      17.875 -30.432  26.986  1.00  0.00     0.190 HD
HETATM   37  N7  UNL     1      15.554 -28.317  27.294  1.00  0.00    -0.227 N 
ATOM     38  H6  UNL     1      15.611 -30.234  28.095  1.00  0.00     0.210 HD
HETATM   39  N8  UNL     1      16.442 -27.681  26.549  1.00  0.00    -0.271 N 
ATOM     40  H7  UNL     1      14.654 -27.959  27.612  1.00  0.00     0.210 HD
ATOM     41  H8  UNL     1      16.330 -26.730  26.196  1.00  0.00     0.190 HD
ENDBRANCH  32  33
ENDBRANCH   9  32
TORSDOF 5
ENDMDL
MODEL 5
REMARK VINA RESULT: -7.887828378      1.617      2.166
REMARK  5 active torsions:
REMARK  status: ('A' for Active; 'I' for Inactive)
REMARK    1  A    between atoms: N1_1  and  C1_4 
REMARK    2  A    between atoms: N4_12  and  C4_13 
REMARK    3  A    between atoms: C4_13  and  C5_14 
REMARK    4  A    between atoms: C8_26  and  N9_27 
REMARK    5  A    between atoms: N10_29  and  C9_31 
ROOT
HETATM    1  C1  UNL     1      17.441 -24.978  24.441  1.00  0.00     0.679 A 
HETATM    2  N2  UNL     1      16.930 -25.358  23.242  1.00  0.00    -0.176 N 
ATOM      3  H2  UNL     1      16.284 -24.749  22.739  1.00  0.00     0.186 HD
HETATM    4  C2  UNL     1      17.284 -26.547  22.727  1.00  0.00     0.144 A 
HETATM    5  N3  UNL     1      16.813 -26.979  21.545  1.00  0.00    -0.293 N 
ATOM      6  H3  UNL     1      16.166 -26.400  21.010  1.00  0.00     0.172 HD
HETATM    7  C3  UNL     1      17.197 -28.175  21.071  1.00  0.00     0.331 A 
HETATM    8  O1  UNL     1      16.719 -28.527  19.952  1.00  0.00    -0.246 OA
HETATM    9  N4  UNL     1      18.045 -28.976  21.729  1.00  0.00    -0.258 N 
HETATM   10  C6  UNL     1      18.542 -28.597  22.902  1.00  0.00     0.269 A 
HETATM   11  O2  UNL     1      19.351 -29.318  23.571  1.00  0.00    -0.267 OA
HETATM   12  C7  UNL     1      18.215 -27.389  23.481  1.00  0.00     0.123 A 
HETATM   13  C8  UNL     1      18.681 -26.931  24.680  1.00  0.00     0.155 A 
HETATM   14  N15 UNL     1      18.299 -25.749  25.145  1.00  0.00    -0.174 N 
ATOM     15  H15 UNL     1      18.657 -25.419  26.041  1.00  0.00     0.186 HD
ENDROOT
BRANCH  13  16
HETATM   16  N9  UNL     1      19.582 -27.748  25.411  1.00  0.00    -0.270 N 
HETATM   17  N10 UNL     1      19.303 -28.399  26.435  1.00  0.00    -0.128 N 
ATOM     18  H10 UNL     1      20.049 -28.948  26.861  1.00  0.00     0.205 HD
ATOM     19  H9  UNL     1      20.541 -27.807  25.068  1.00  0.00     0.189 HD
BRANCH  17  20
HETATM   20  C9  UNL     1      18.021 -28.438  27.059  1.00  0.00     0.728 A 
HETATM   21  N11 UNL     1      17.081 -29.351  26.797  1.00  0.00    -0.114 N 
HETATM   22  N12 UNL     1      16.052 -29.052  27.568  1.00  0.00    -0.213 N 
ATOM     23  H11 UNL     1      17.146 -30.123  26.134  1.00  0.00     0.207 HD
HETATM   24  N13 UNL     1      16.324 -27.987  28.296  1.00  0.00    -0.213 N 
ATOM     25  H12 UNL     1      15.173 -29.570  27.596  1.00  0.00     0.210 HD
HETATM   26  N14 UNL     1      17.539 -27.610  27.981  1.00  0.00    -0.114 N 
ATOM     27  H13 UNL     1      15.706 -27.542  28.975  1.00  0.00     0.210 HD
ATOM     28  H14 UNL     1      18.033 -26.811  28.379  1.00  0.00     0.207 HD
ENDBRANCH  17  20
ENDBRANCH  13  16
BRANCH   1  29
HETATM   29  N1  UNL     1      17.114 -23.833  24.963  1.00  0.00    -0.234 N 
ATOM     30  H12 UNL     1      17.865 -23.285  25.384  1.00  0.00     0.174 HD
ATOM     31  H11 UNL     1      16.145 -23.514  24.943  1.00  0.00     0.174 HD
ENDBRANCH   1  29
BRANCH   9  32
HETATM   32  C4  UNL     1      18.401 -30.246  21.139  1.00  0.00     0.216 C 
BRANCH  32  33
HETATM   33  C5  UNL     1      17.321 -31.252  21.240  1.00  0.00     0.131 A 
HETATM   34  N5  UNL     1      17.029 -32.045  22.284  1.00  0.00    -0.271 N 
HETATM   35  N6  UNL     1      15.977 -32.797  21.937  1.00  0.00    -0.227 N 
ATOM     36  H5  UNL     1      17.520 -32.071  23.179  1.00  0.00     0.190 HD
HETATM   37  N7  UNL     1      15.603 -32.500  20.710  1.00  0.00    -0.227 N 
ATOM     38  H6  UNL     1      15.532 -33.495  22.533  1.00  0.00     0.210 HD
HETATM   39  N8  UNL     1      16.427 -31.556  20.288  1.00  0.00    -0.271 N 
ATOM     40  H7  UNL     1      14.831 -32.915  20.189  1.00  0.00     0.210 HD
ATOM     41  H8  UNL     1      16.388 -31.119  19.367  1.00  0.00     0.190 HD
ENDBRANCH  32  33
ENDBRANCH   9  32
TORSDOF 5
ENDMDL
