MODEL 1
REMARK VINA RESULT: -7.433913439      0.000      0.000
REMARK  7 active torsions:
REMARK  status: ('A' for Active; 'I' for Inactive)
REMARK    1  A    between atoms: O1_2  and  C2_3 
REMARK    2  A    between atoms: C2_3  and  C3_5 
REMARK    3  A    between atoms: C4_6  and  N1_7 
REMARK    4  A    between atoms: N1_7  and  C5_9 
REMARK    5  A    between atoms: C6_12  and  N3_14 
REMARK    6  A    between atoms: N3_14  and  N4_16 
REMARK    7  A    between atoms: C8_25  and  N8_26 
ROOT
HETATM    1  C3  UNL     1      18.102 -30.350  26.231  1.00  0.00     0.107 A 
HETATM    2  C4  UNL     1      19.076 -30.152  25.275  1.00  0.00     0.154 A 
HETATM    3  N7  UNL     1      19.465 -28.881  24.901  1.00  0.00    -0.175 N 
ATOM      4  H7  UNL     1      20.187 -28.744  24.193  1.00  0.00     0.186 HD
HETATM    5  C8  UNL     1      18.880 -27.840  25.484  1.00  0.00     0.677 A 
HETATM    6  N9  UNL     1      17.928 -28.007  26.419  1.00  0.00    -0.195 N 
ATOM      7  H9  UNL     1      17.505 -27.181  26.840  1.00  0.00     0.184 HD
HETATM    8  C9  UNL     1      17.511 -29.222  26.821  1.00  0.00     0.043 A 
HETATM    9  C10 UNL     1      16.465 -29.385  27.847  1.00  0.00     0.070 C 
ENDROOT
BRANCH   2  10
HETATM   10  N1  UNL     1      19.718 -31.238  24.637  1.00  0.00    -0.173 N 
ATOM     11  H1  UNL     1      20.296 -31.892  25.164  1.00  0.00     0.186 HD
BRANCH  10  12
HETATM   12  C5  UNL     1      19.527 -31.391  23.208  1.00  0.00     0.704 C 
HETATM   13  N2  UNL     1      18.450 -30.983  22.626  1.00  0.00    -0.179 N 
HETATM   14  C6  UNL     1      18.327 -31.172  21.172  1.00  0.00     0.236 C 
ATOM     15  H2  UNL     1      17.702 -30.540  23.161  1.00  0.00     0.182 HD
HETATM   16  C7  UNL     1      18.988 -30.056  20.420  1.00  0.00     0.088 C 
HETATM   17  N5  UNL     1      19.005 -32.420  20.875  1.00  0.00    -0.016 NA
HETATM   18  O5  UNL     1      20.324 -32.216  21.067  1.00  0.00    -0.146 OA
HETATM   19  N6  UNL     1      20.521 -31.997  22.389  1.00  0.00    -0.076 N 
ATOM     20  H6  UNL     1      21.408 -32.274  22.811  1.00  0.00     0.215 HD
BRANCH  14  21
HETATM   21  N3  UNL     1      16.919 -31.242  20.893  1.00  0.00    -0.231 N 
ATOM     22  H3  UNL     1      16.431 -30.439  20.497  1.00  0.00     0.191 HD
BRANCH  21  23
HETATM   23  N4  UNL     1      16.234 -32.414  21.168  1.00  0.00    -0.040 N 
HETATM   24  O3  UNL     1      15.859 -33.114  20.198  1.00  0.00    -0.517 OA
HETATM   25  O4  UNL     1      15.993 -32.763  22.471  1.00  0.00    -0.517 OA
ENDBRANCH  21  23
ENDBRANCH  14  21
ENDBRANCH  10  12
ENDBRANCH   2  10
BRANCH   1  26
HETATM   26  C2  UNL     1      17.668 -31.658  26.648  1.00  0.00     0.298 C 
HETATM   27  O2  UNL     1      16.520 -32.102  26.270  1.00  0.00    -0.259 OA
BRANCH  26  28
HETATM   28  O1  UNL     1      18.318 -32.578  27.441  1.00  0.00    -0.322 OA
HETATM   29  C1  UNL     1      19.278 -32.291  28.414  1.00  0.00     0.213 C 
ENDBRANCH  26  28
ENDBRANCH   1  26
BRANCH   5  30
HETATM   30  N8  UNL     1      19.220 -26.630  25.158  1.00  0.00    -0.234 N 
ATOM     31  H82 UNL     1      19.577 -26.463  24.217  1.00  0.00     0.174 HD
ATOM     32  H81 UNL     1      19.129 -25.871  25.832  1.00  0.00     0.174 HD
ENDBRANCH   5  30
TORSDOF 7
ENDMDL
MODEL 2
REMARK VINA RESULT: -7.325372661      3.697      6.245
REMARK  7 active torsions:
REMARK  status: ('A' for Active; 'I' for Inactive)
REMARK    1  A    between atoms: O1_2  and  C2_3 
REMARK    2  A    between atoms: C2_3  and  C3_5 
REMARK    3  A    between atoms: C4_6  and  N1_7 
REMARK    4  A    between atoms: N1_7  and  C5_9 
REMARK    5  A    between atoms: C6_12  and  N3_14 
REMARK    6  A    between atoms: N3_14  and  N4_16 
REMARK    7  A    between atoms: C8_25  and  N8_26 
ROOT
HETATM    1  C3  UNL     1      18.005 -25.647  26.600  1.00  0.00     0.107 A 
HETATM    2  C4  UNL     1      18.014 -26.608  27.589  1.00  0.00     0.154 A 
HETATM    3  N7  UNL     1      17.016 -26.663  28.543  1.00  0.00    -0.175 N 
ATOM      4  H7  UNL     1      17.030 -27.378  29.270  1.00  0.00     0.186 HD
HETATM    5  C8  UNL     1      16.037 -25.765  28.491  1.00  0.00     0.677 A 
HETATM    6  N9  UNL     1      16.008 -24.820  27.536  1.00  0.00    -0.195 N 
ATOM      7  H9  UNL     1      15.238 -24.151  27.534  1.00  0.00     0.184 HD
HETATM    8  C9  UNL     1      16.953 -24.719  26.583  1.00  0.00     0.043 A 
HETATM    9  C10 UNL     1      16.903 -23.674  25.545  1.00  0.00     0.070 C 
ENDROOT
BRANCH   2  10
HETATM   10  N1  UNL     1      19.040 -27.577  27.671  1.00  0.00    -0.173 N 
ATOM     11  H1  UNL     1      19.910 -27.381  28.166  1.00  0.00     0.186 HD
BRANCH  10  12
HETATM   12  C5  UNL     1      18.815 -28.857  27.030  1.00  0.00     0.704 C 
HETATM   13  N2  UNL     1      18.950 -29.966  27.676  1.00  0.00    -0.179 N 
HETATM   14  C6  UNL     1      18.704 -31.226  26.957  1.00  0.00     0.236 C 
ATOM     15  H2  UNL     1      19.219 -29.969  28.660  1.00  0.00     0.182 HD
HETATM   16  C7  UNL     1      17.246 -31.572  26.947  1.00  0.00     0.088 C 
HETATM   17  N5  UNL     1      19.154 -31.002  25.596  1.00  0.00    -0.016 NA
HETATM   18  O5  UNL     1      18.297 -30.131  25.027  1.00  0.00    -0.146 OA
HETATM   19  N6  UNL     1      18.435 -28.941  25.660  1.00  0.00    -0.076 N 
ATOM     20  H6  UNL     1      18.262 -28.081  25.141  1.00  0.00     0.215 HD
BRANCH  14  21
HETATM   21  N3  UNL     1      19.486 -32.229  27.626  1.00  0.00    -0.231 N 
ATOM     22  H3  UNL     1      19.275 -33.219  27.498  1.00  0.00     0.191 HD
BRANCH  21  23
HETATM   23  N4  UNL     1      20.529 -31.836  28.448  1.00  0.00    -0.040 N 
HETATM   24  O3  UNL     1      20.424 -32.061  29.677  1.00  0.00    -0.517 OA
HETATM   25  O4  UNL     1      21.625 -31.225  27.898  1.00  0.00    -0.517 OA
ENDBRANCH  21  23
ENDBRANCH  14  21
ENDBRANCH  10  12
ENDBRANCH   2  10
BRANCH   1  26
HETATM   26  C2  UNL     1      19.026 -25.555  25.588  1.00  0.00     0.298 C 
HETATM   27  O2  UNL     1      18.948 -26.286  24.532  1.00  0.00    -0.259 OA
BRANCH  26  28
HETATM   28  O1  UNL     1      20.152 -24.761  25.560  1.00  0.00    -0.322 OA
HETATM   29  C1  UNL     1      21.474 -25.210  25.583  1.00  0.00     0.213 C 
ENDBRANCH  26  28
ENDBRANCH   1  26
BRANCH   5  30
HETATM   30  N8  UNL     1      15.082 -25.786  29.370  1.00  0.00    -0.234 N 
ATOM     31  H82 UNL     1      14.264 -26.367  29.186  1.00  0.00     0.174 HD
ATOM     32  H81 UNL     1      15.157 -25.232  30.223  1.00  0.00     0.174 HD
ENDBRANCH   5  30
TORSDOF 7
ENDMDL
MODEL 3
REMARK VINA RESULT: -7.319603722      4.701      7.342
REMARK  7 active torsions:
REMARK  status: ('A' for Active; 'I' for Inactive)
REMARK    1  A    between atoms: O1_2  and  C2_3 
REMARK    2  A    between atoms: C2_3  and  C3_5 
REMARK    3  A    between atoms: C4_6  and  N1_7 
REMARK    4  A    between atoms: N1_7  and  C5_9 
REMARK    5  A    between atoms: C6_12  and  N3_14 
REMARK    6  A    between atoms: N3_14  and  N4_16 
REMARK    7  A    between atoms: C8_25  and  N8_26 
ROOT
HETATM    1  C3  UNL     1      23.066 -29.174  26.927  1.00  0.00     0.107 A 
HETATM    2  C4  UNL     1      22.145 -30.106  27.357  1.00  0.00     0.154 A 
HETATM    3  N7  UNL     1      22.420 -30.950  28.416  1.00  0.00    -0.175 N 
ATOM      4  H7  UNL     1      21.733 -31.635  28.728  1.00  0.00     0.186 HD
HETATM    5  C8  UNL     1      23.600 -30.847  29.020  1.00  0.00     0.677 A 
HETATM    6  N9  UNL     1      24.513 -29.946  28.618  1.00  0.00    -0.195 N 
ATOM      7  H9  UNL     1      25.406 -29.903  29.110  1.00  0.00     0.184 HD
HETATM    8  C9  UNL     1      24.299 -29.101  27.593  1.00  0.00     0.043 A 
HETATM    9  C10 UNL     1      25.314 -28.121  27.167  1.00  0.00     0.070 C 
ENDROOT
BRANCH   2  10
HETATM   10  N1  UNL     1      20.882 -30.240  26.736  1.00  0.00    -0.173 N 
ATOM     11  H1  UNL     1      20.793 -30.644  25.804  1.00  0.00     0.186 HD
BRANCH  10  12
HETATM   12  C5  UNL     1      19.717 -29.784  27.469  1.00  0.00     0.704 C 
HETATM   13  N2  UNL     1      19.250 -28.591  27.315  1.00  0.00    -0.179 N 
HETATM   14  C6  UNL     1      18.064 -28.200  28.094  1.00  0.00     0.236 C 
ATOM     15  H2  UNL     1      19.691 -27.936  26.670  1.00  0.00     0.182 HD
HETATM   16  C7  UNL     1      16.800 -28.631  27.414  1.00  0.00     0.088 C 
HETATM   17  N5  UNL     1      18.182 -28.884  29.368  1.00  0.00    -0.016 NA
HETATM   18  O5  UNL     1      18.001 -30.199  29.137  1.00  0.00    -0.146 OA
HETATM   19  N6  UNL     1      19.042 -30.636  28.388  1.00  0.00    -0.076 N 
ATOM     20  H6  UNL     1      19.351 -31.603  28.486  1.00  0.00     0.215 HD
BRANCH  14  21
HETATM   21  N3  UNL     1      18.132 -26.772  28.239  1.00  0.00    -0.231 N 
ATOM     22  H3  UNL     1      17.443 -26.278  28.807  1.00  0.00     0.191 HD
BRANCH  21  23
HETATM   23  N4  UNL     1      19.143 -26.075  27.599  1.00  0.00    -0.040 N 
HETATM   24  O3  UNL     1      20.192 -25.841  28.244  1.00  0.00    -0.517 OA
HETATM   25  O4  UNL     1      18.965 -25.669  26.303  1.00  0.00    -0.517 OA
ENDBRANCH  21  23
ENDBRANCH  14  21
ENDBRANCH  10  12
ENDBRANCH   2  10
BRANCH   1  26
HETATM   26  C2  UNL     1      22.819 -28.278  25.828  1.00  0.00     0.298 C 
HETATM   27  O2  UNL     1      22.040 -27.266  25.990  1.00  0.00    -0.259 OA
BRANCH  26  28
HETATM   28  O1  UNL     1      23.308 -28.325  24.541  1.00  0.00    -0.322 OA
HETATM   29  C1  UNL     1      22.769 -29.059  23.483  1.00  0.00     0.213 C 
ENDBRANCH  26  28
ENDBRANCH   1  26
BRANCH   5  30
HETATM   30  N8  UNL     1      23.894 -31.623  30.018  1.00  0.00    -0.234 N 
ATOM     31  H82 UNL     1      23.313 -32.445  30.182  1.00  0.00     0.174 HD
ATOM     32  H81 UNL     1      24.688 -31.408  30.620  1.00  0.00     0.174 HD
ENDBRANCH   5  30
TORSDOF 7
ENDMDL
MODEL 4
REMARK VINA RESULT: -7.308425761      2.185      3.134
REMARK  7 active torsions:
REMARK  status: ('A' for Active; 'I' for Inactive)
REMARK    1  A    between atoms: O1_2  and  C2_3 
REMARK    2  A    between atoms: C2_3  and  C3_5 
REMARK    3  A    between atoms: C4_6  and  N1_7 
REMARK    4  A    between atoms: N1_7  and  C5_9 
REMARK    5  A    between atoms: C6_12  and  N3_14 
REMARK    6  A    between atoms: N3_14  and  N4_16 
REMARK    7  A    between atoms: C8_25  and  N8_26 
ROOT
HETATM    1  C3  UNL     1      18.260 -29.686  26.548  1.00  0.00     0.107 A 
HETATM    2  C4  UNL     1      18.362 -30.863  25.836  1.00  0.00     0.154 A 
HETATM    3  N7  UNL     1      17.373 -31.826  25.898  1.00  0.00    -0.175 N 
ATOM      4  H7  UNL     1      17.457 -32.693  25.368  1.00  0.00     0.186 HD
HETATM    5  C8  UNL     1      16.310 -31.597  26.663  1.00  0.00     0.677 A 
HETATM    6  N9  UNL     1      16.189 -30.457  27.366  1.00  0.00    -0.195 N 
ATOM      7  H9  UNL     1      15.357 -30.323  27.940  1.00  0.00     0.184 HD
HETATM    8  C9  UNL     1      17.121 -29.486  27.342  1.00  0.00     0.043 A 
HETATM    9  C10 UNL     1      16.969 -28.244  28.121  1.00  0.00     0.070 C 
ENDROOT
BRANCH   2  10
HETATM   10  N1  UNL     1      19.479 -31.136  25.014  1.00  0.00    -0.173 N 
ATOM     11  H1  UNL     1      20.357 -31.468  25.412  1.00  0.00     0.186 HD
BRANCH  10  12
HETATM   12  C5  UNL     1      19.334 -30.930  23.586  1.00  0.00     0.704 C 
HETATM   13  N2  UNL     1      18.311 -31.382  22.942  1.00  0.00    -0.179 N 
HETATM   14  C6  UNL     1      18.233 -31.133  21.494  1.00  0.00     0.236 C 
ATOM     15  H2  UNL     1      17.575 -31.898  23.425  1.00  0.00     0.182 HD
HETATM   16  C7  UNL     1      17.644 -29.786  21.203  1.00  0.00     0.088 C 
HETATM   17  N5  UNL     1      19.600 -31.175  21.009  1.00  0.00    -0.016 NA
HETATM   18  O5  UNL     1      20.231 -30.087  21.493  1.00  0.00    -0.146 OA
HETATM   19  N6  UNL     1      20.315 -30.220  22.838  1.00  0.00    -0.076 N 
ATOM     20  H6  UNL     1      21.103 -29.799  23.329  1.00  0.00     0.215 HD
BRANCH  14  21
HETATM   21  N3  UNL     1      17.433 -32.194  20.947  1.00  0.00    -0.231 N 
ATOM     22  H3  UNL     1      17.807 -32.796  20.213  1.00  0.00     0.191 HD
BRANCH  21  23
HETATM   23  N4  UNL     1      16.149 -32.391  21.428  1.00  0.00    -0.040 N 
HETATM   24  O3  UNL     1      16.021 -32.774  22.614  1.00  0.00    -0.517 OA
HETATM   25  O4  UNL     1      15.079 -32.162  20.604  1.00  0.00    -0.517 OA
ENDBRANCH  21  23
ENDBRANCH  14  21
ENDBRANCH  10  12
ENDBRANCH   2  10
BRANCH   1  26
HETATM   26  C2  UNL     1      19.268 -28.658  26.511  1.00  0.00     0.298 C 
HETATM   27  O2  UNL     1      20.377 -28.828  27.141  1.00  0.00    -0.259 OA
BRANCH  26  28
HETATM   28  O1  UNL     1      19.242 -27.438  25.871  1.00  0.00    -0.322 OA
HETATM   29  C1  UNL     1      18.815 -27.206  24.562  1.00  0.00     0.213 C 
ENDBRANCH  26  28
ENDBRANCH   1  26
BRANCH   5  30
HETATM   30  N8  UNL     1      15.362 -32.479  26.746  1.00  0.00    -0.234 N 
ATOM     31  H82 UNL     1      14.585 -32.420  26.088  1.00  0.00     0.174 HD
ATOM     32  H81 UNL     1      15.400 -33.210  27.456  1.00  0.00     0.174 HD
ENDBRANCH   5  30
TORSDOF 7
ENDMDL
MODEL 5
REMARK VINA RESULT: -7.298049645      1.497      1.740
REMARK  7 active torsions:
REMARK  status: ('A' for Active; 'I' for Inactive)
REMARK    1  A    between atoms: O1_2  and  C2_3 
REMARK    2  A    between atoms: C2_3  and  C3_5 
REMARK    3  A    between atoms: C4_6  and  N1_7 
REMARK    4  A    between atoms: N1_7  and  C5_9 
REMARK    5  A    between atoms: C6_12  and  N3_14 
REMARK    6  A    between atoms: N3_14  and  N4_16 
REMARK    7  A    between atoms: C8_25  and  N8_26 
ROOT
HETATM    1  C3  UNL     1      18.323 -28.932  26.878  1.00  0.00     0.107 A 
HETATM    2  C4  UNL     1      18.557 -29.247  25.556  1.00  0.00     0.154 A 
HETATM    3  N7  UNL     1      18.932 -28.280  24.644  1.00  0.00    -0.175 N 
ATOM      4  H7  UNL     1      19.103 -28.522  23.668  1.00  0.00     0.186 HD
HETATM    5  C8  UNL     1      19.065 -27.026  25.066  1.00  0.00     0.677 A 
HETATM    6  N9  UNL     1      18.843 -26.695  26.350  1.00  0.00    -0.195 N 
ATOM      7  H9  UNL     1      18.956 -25.721  26.630  1.00  0.00     0.184 HD
HETATM    8  C9  UNL     1      18.475 -27.596  27.280  1.00  0.00     0.043 A 
HETATM    9  C10 UNL     1      18.235 -27.213  28.683  1.00  0.00     0.070 C 
ENDROOT
BRANCH   2  10
HETATM   10  N1  UNL     1      18.424 -30.570  25.076  1.00  0.00    -0.173 N 
ATOM     11  H1  UNL     1      17.802 -31.237  25.534  1.00  0.00     0.186 HD
BRANCH  10  12
HETATM   12  C5  UNL     1      19.200 -30.948  23.911  1.00  0.00     0.704 C 
HETATM   13  N2  UNL     1      18.653 -31.062  22.747  1.00  0.00    -0.179 N 
HETATM   14  C6  UNL     1      19.505 -31.448  21.612  1.00  0.00     0.236 C 
ATOM     15  H2  UNL     1      17.656 -30.887  22.618  1.00  0.00     0.182 HD
HETATM   16  C7  UNL     1      20.193 -30.258  21.016  1.00  0.00     0.088 C 
HETATM   17  N5  UNL     1      20.498 -32.358  22.151  1.00  0.00    -0.016 NA
HETATM   18  O5  UNL     1      21.318 -31.636  22.942  1.00  0.00    -0.146 OA
HETATM   19  N6  UNL     1      20.596 -31.207  24.005  1.00  0.00    -0.076 N 
ATOM     20  H6  UNL     1      21.067 -31.067  24.898  1.00  0.00     0.215 HD
BRANCH  14  21
HETATM   21  N3  UNL     1      18.640 -32.094  20.663  1.00  0.00    -0.231 N 
ATOM     22  H3  UNL     1      19.032 -32.667  19.915  1.00  0.00     0.191 HD
BRANCH  21  23
HETATM   23  N4  UNL     1      17.270 -31.930  20.776  1.00  0.00    -0.040 N 
HETATM   24  O3  UNL     1      16.596 -32.900  21.194  1.00  0.00    -0.517 OA
HETATM   25  O4  UNL     1      16.705 -30.730  20.432  1.00  0.00    -0.517 OA
ENDBRANCH  21  23
ENDBRANCH  14  21
ENDBRANCH  10  12
ENDBRANCH   2  10
BRANCH   1  26
HETATM   26  C2  UNL     1      17.930 -29.910  27.859  1.00  0.00     0.298 C 
HETATM   27  O2  UNL     1      16.707 -30.307  27.912  1.00  0.00    -0.259 OA
BRANCH  26  28
HETATM   28  O1  UNL     1      18.696 -30.534  28.819  1.00  0.00    -0.322 OA
HETATM   29  C1  UNL     1      19.381 -31.741  28.665  1.00  0.00     0.213 C 
ENDBRANCH  26  28
ENDBRANCH   1  26
BRANCH   5  30
HETATM   30  N8  UNL     1      19.416 -26.091  24.238  1.00  0.00    -0.234 N 
ATOM     31  H82 UNL     1      19.283 -26.251  23.239  1.00  0.00     0.174 HD
ATOM     32  H81 UNL     1      19.815 -25.219  24.586  1.00  0.00     0.174 HD
ENDBRANCH   5  30
TORSDOF 7
ENDMDL
