MODEL 1
REMARK VINA RESULT: -7.293463253      0.000      0.000
REMARK  5 active torsions:
REMARK  status: ('A' for Active; 'I' for Inactive)
REMARK    1  A    between atoms: C7_8  and  N1_9 
REMARK       I    between atoms: N1_9  and  C8_11 
REMARK    2  A    between atoms: C8_11  and  C9_13 
REMARK    3  A    between atoms: C10_14  and  C11_15 
REMARK    4  A    between atoms: C15_20  and  N2_21 
REMARK    5  A    between atoms: C18_25  and  N3_26 
ROOT
HETATM    1  C1  UNL     1       5.617  25.295  33.764  1.00  0.00     0.018 C 
HETATM    2  C2  UNL     1       5.257  26.430  33.580  1.00  0.00    -0.078 C 
HETATM    3  C3  UNL     1       4.856  27.784  33.368  1.00  0.00     0.020 A 
HETATM    4  C4  UNL     1       5.492  28.512  32.386  1.00  0.00     0.044 A 
HETATM    5  C5  UNL     1       5.139  29.824  32.164  1.00  0.00     0.037 A 
HETATM    6 CL1  UNL     1       5.944  30.744  30.921  1.00  0.00    -0.084 Cl
HETATM    7  C6  UNL     1       4.132  30.412  32.939  1.00  0.00     0.053 A 
HETATM    8  C7  UNL     1       3.492  29.694  33.918  1.00  0.00     0.038 A 
HETATM    9  C28 UNL     1       3.850  28.396  34.130  1.00  0.00     0.050 A 
ENDROOT
BRANCH   8  10
HETATM   10  N1  UNL     1       2.490  30.384  34.698  1.00  0.00    -0.323 N 
HETATM   11  C8  UNL     1       2.832  30.873  36.010  1.00  0.00     0.254 C 
HETATM   12  O1  UNL     1       4.003  30.617  36.338  1.00  0.00    -0.268 OA
ATOM     13  H1  UNL     1       1.552  30.523  34.324  1.00  0.00     0.169 HD
BRANCH  11  14
HETATM   14  C9  UNL     1       1.909  31.579  36.803  1.00  0.00     0.041 C 
HETATM   15  C10 UNL     1       1.632  31.176  38.010  1.00  0.00     0.051 C 
HETATM   16  N5  UNL     1       0.722  31.770  38.991  1.00  0.00    -0.384 N 
HETATM   17  C20 UNL     1      -0.177  32.880  38.931  1.00  0.00     0.162 C 
ATOM     18  H5  UNL     1       0.731  31.299  39.895  1.00  0.00     0.160 HD
HETATM   19  C21 UNL     1       0.588  33.999  38.280  1.00  0.00     0.008 A 
HETATM   20  C22 UNL     1       0.610  35.147  39.021  1.00  0.00     0.128 A 
HETATM   21  C26 UNL     1       1.226  33.943  37.074  1.00  0.00    -0.001 A 
HETATM   22  F1  UNL     1      -0.017  35.215  40.216  1.00  0.00    -0.205 F 
HETATM   23  C23 UNL     1       1.271  36.259  38.565  1.00  0.00     0.088 A 
HETATM   24  C24 UNL     1       1.922  36.207  37.337  1.00  0.00     0.158 A 
HETATM   25  F2  UNL     1       2.593  37.283  36.845  1.00  0.00    -0.203 F 
HETATM   26  C25 UNL     1       1.887  35.041  36.606  1.00  0.00     0.162 A 
HETATM   27  F3  UNL     1       2.529  34.991  35.396  1.00  0.00    -0.202 F 
HETATM   28  C27 UNL     1       1.333  32.810  36.098  1.00  0.00     0.089 C 
BRANCH  15  29
HETATM   29  C11 UNL     1       2.282  29.985  38.494  1.00  0.00    -0.007 A 
HETATM   30  C12 UNL     1       3.541  30.098  39.048  1.00  0.00     0.015 A 
HETATM   31  C13 UNL     1       4.202  29.080  39.653  1.00  0.00     0.027 A 
HETATM   32  C14 UNL     1       3.584  27.829  39.728  1.00  0.00     0.062 A 
HETATM   33 CL2  UNL     1       4.385  26.477  40.511  1.00  0.00    -0.082 Cl
HETATM   34  C15 UNL     1       2.343  27.656  39.198  1.00  0.00     0.078 A 
HETATM   35  C19 UNL     1       1.700  28.733  38.585  1.00  0.00     0.047 A 
BRANCH  34  36
HETATM   36  N2  UNL     1       1.675  26.388  39.221  1.00  0.00    -0.263 N 
HETATM   37  C16 UNL     1       0.360  26.173  39.123  1.00  0.00     0.144 A 
HETATM   38  C17 UNL     1       0.101  24.821  39.168  1.00  0.00     0.096 A 
HETATM   39 CL3  UNL     1      -1.469  24.042  39.064  1.00  0.00    -0.079 Cl
HETATM   40  C18 UNL     1       1.334  24.221  39.300  1.00  0.00     0.137 A 
HETATM   41  N4  UNL     1       2.239  25.200  39.327  1.00  0.00    -0.278 N 
ATOM     42  H4  UNL     1       3.244  25.049  39.418  1.00  0.00     0.189 HD
BRANCH  40  43
HETATM   43  N3  UNL     1       1.527  22.961  39.380  1.00  0.00    -0.383 N 
ATOM     44  H32 UNL     1       1.484  22.266  38.635  1.00  0.00     0.157 HD
ATOM     45  H31 UNL     1       1.762  22.461  40.237  1.00  0.00     0.157 HD
ENDBRANCH  40  43
ENDBRANCH  34  36
ENDBRANCH  15  29
ENDBRANCH  11  14
ENDBRANCH   8  10
TORSDOF 5
ENDMDL
MODEL 2
REMARK VINA RESULT: -7.073406317      1.036      1.711
REMARK  5 active torsions:
REMARK  status: ('A' for Active; 'I' for Inactive)
REMARK    1  A    between atoms: C7_8  and  N1_9 
REMARK       I    between atoms: N1_9  and  C8_11 
REMARK    2  A    between atoms: C8_11  and  C9_13 
REMARK    3  A    between atoms: C10_14  and  C11_15 
REMARK    4  A    between atoms: C15_20  and  N2_21 
REMARK    5  A    between atoms: C18_25  and  N3_26 
ROOT
HETATM    1  C1  UNL     1       6.278  30.435  30.083  1.00  0.00     0.018 C 
HETATM    2  C2  UNL     1       5.768  29.978  31.074  1.00  0.00    -0.078 C 
HETATM    3  C3  UNL     1       5.155  29.417  32.235  1.00  0.00     0.020 A 
HETATM    4  C4  UNL     1       5.530  28.152  32.631  1.00  0.00     0.044 A 
HETATM    5  C5  UNL     1       4.949  27.576  33.737  1.00  0.00     0.037 A 
HETATM    6 CL1  UNL     1       5.425  25.975  34.238  1.00  0.00    -0.084 Cl
HETATM    7  C6  UNL     1       3.976  28.282  34.457  1.00  0.00     0.053 A 
HETATM    8  C7  UNL     1       3.597  29.542  34.071  1.00  0.00     0.038 A 
HETATM    9  C28 UNL     1       4.179  30.103  32.973  1.00  0.00     0.050 A 
ENDROOT
BRANCH   8  10
HETATM   10  N1  UNL     1       2.562  30.189  34.845  1.00  0.00    -0.323 N 
HETATM   11  C8  UNL     1       2.917  30.882  36.057  1.00  0.00     0.254 C 
HETATM   12  O1  UNL     1       4.131  30.825  36.315  1.00  0.00    -0.268 OA
ATOM     13  H1  UNL     1       1.591  30.155  34.536  1.00  0.00     0.169 HD
BRANCH  11  14
HETATM   14  C9  UNL     1       1.959  31.557  36.836  1.00  0.00     0.041 C 
HETATM   15  C10 UNL     1       1.660  31.130  38.030  1.00  0.00     0.051 C 
HETATM   16  N5  UNL     1       0.712  31.691  38.994  1.00  0.00    -0.384 N 
HETATM   17  C20 UNL     1      -0.210  32.782  38.925  1.00  0.00     0.162 C 
ATOM     18  H5  UNL     1       0.709  31.207  39.892  1.00  0.00     0.160 HD
HETATM   19  C21 UNL     1       0.547  33.926  38.310  1.00  0.00     0.008 A 
HETATM   20  C22 UNL     1       0.524  35.064  39.066  1.00  0.00     0.128 A 
HETATM   21  C26 UNL     1       1.216  33.901  37.120  1.00  0.00    -0.001 A 
HETATM   22  F1  UNL     1      -0.135  35.101  40.245  1.00  0.00    -0.205 F 
HETATM   23  C23 UNL     1       1.172  36.196  38.643  1.00  0.00     0.088 A 
HETATM   24  C24 UNL     1       1.855  36.176  37.431  1.00  0.00     0.158 A 
HETATM   25  F2  UNL     1       2.515  37.273  36.971  1.00  0.00    -0.203 F 
HETATM   26  C25 UNL     1       1.865  35.019  36.684  1.00  0.00     0.162 A 
HETATM   27  F3  UNL     1       2.539  35.001  35.490  1.00  0.00    -0.202 F 
HETATM   28  C27 UNL     1       1.374  32.784  36.133  1.00  0.00     0.089 C 
BRANCH  15  29
HETATM   29  C11 UNL     1       2.324  29.947  38.514  1.00  0.00    -0.007 A 
HETATM   30  C12 UNL     1       3.585  30.074  39.061  1.00  0.00     0.015 A 
HETATM   31  C13 UNL     1       4.259  29.064  39.666  1.00  0.00     0.027 A 
HETATM   32  C14 UNL     1       3.652  27.809  39.750  1.00  0.00     0.062 A 
HETATM   33 CL2  UNL     1       4.470  26.466  40.533  1.00  0.00    -0.082 Cl
HETATM   34  C15 UNL     1       2.410  27.621  39.227  1.00  0.00     0.078 A 
HETATM   35  C19 UNL     1       1.754  28.690  38.613  1.00  0.00     0.047 A 
BRANCH  34  36
HETATM   36  N2  UNL     1       1.754  26.347  39.258  1.00  0.00    -0.263 N 
HETATM   37  C16 UNL     1       0.438  26.123  39.218  1.00  0.00     0.144 A 
HETATM   38  C17 UNL     1       0.192  24.768  39.251  1.00  0.00     0.096 A 
HETATM   39 CL3  UNL     1      -1.376  23.977  39.206  1.00  0.00    -0.079 Cl
HETATM   40  C18 UNL     1       1.435  24.176  39.314  1.00  0.00     0.137 A 
HETATM   41  N4  UNL     1       2.332  25.163  39.316  1.00  0.00    -0.278 N 
ATOM     42  H4  UNL     1       3.341  25.019  39.357  1.00  0.00     0.189 HD
BRANCH  40  43
HETATM   43  N3  UNL     1       1.641  22.918  39.362  1.00  0.00    -0.383 N 
ATOM     44  H32 UNL     1       1.556  22.233  38.611  1.00  0.00     0.157 HD
ATOM     45  H31 UNL     1       1.934  22.406  40.195  1.00  0.00     0.157 HD
ENDBRANCH  40  43
ENDBRANCH  34  36
ENDBRANCH  15  29
ENDBRANCH  11  14
ENDBRANCH   8  10
TORSDOF 5
ENDMDL
MODEL 3
REMARK VINA RESULT: -6.806065522      4.283      7.705
REMARK  5 active torsions:
REMARK  status: ('A' for Active; 'I' for Inactive)
REMARK    1  A    between atoms: C7_8  and  N1_9 
REMARK       I    between atoms: N1_9  and  C8_11 
REMARK    2  A    between atoms: C8_11  and  C9_13 
REMARK    3  A    between atoms: C10_14  and  C11_15 
REMARK    4  A    between atoms: C15_20  and  N2_21 
REMARK    5  A    between atoms: C18_25  and  N3_26 
ROOT
HETATM    1  C1  UNL     1       6.389  30.554  31.370  1.00  0.00     0.018 C 
HETATM    2  C2  UNL     1       5.344  30.188  31.845  1.00  0.00    -0.078 C 
HETATM    3  C3  UNL     1       4.095  29.778  32.402  1.00  0.00     0.020 A 
HETATM    4  C4  UNL     1       2.980  29.781  31.593  1.00  0.00     0.044 A 
HETATM    5  C5  UNL     1       1.758  29.404  32.102  1.00  0.00     0.037 A 
HETATM    6 CL1  UNL     1       0.348  29.410  31.076  1.00  0.00    -0.084 Cl
HETATM    7  C6  UNL     1       1.655  29.017  33.444  1.00  0.00     0.053 A 
HETATM    8  C7  UNL     1       2.760  29.009  34.258  1.00  0.00     0.038 A 
HETATM    9  C28 UNL     1       3.965  29.385  33.743  1.00  0.00     0.050 A 
ENDROOT
BRANCH   8  10
HETATM   10  N1  UNL     1       2.563  28.632  35.639  1.00  0.00    -0.323 N 
HETATM   11  C8  UNL     1       3.383  29.236  36.658  1.00  0.00     0.254 C 
HETATM   12  O1  UNL     1       4.216  30.040  36.203  1.00  0.00    -0.268 OA
ATOM     13  H1  UNL     1       1.852  27.946  35.889  1.00  0.00     0.169 HD
BRANCH  11  14
HETATM   14  C9  UNL     1       3.218  28.934  38.022  1.00  0.00     0.041 C 
HETATM   15  C10 UNL     1       2.385  29.618  38.753  1.00  0.00     0.051 C 
HETATM   16  N5  UNL     1       2.062  29.455  40.171  1.00  0.00    -0.384 N 
HETATM   17  C20 UNL     1       2.578  28.596  41.191  1.00  0.00     0.162 C 
ATOM     18  H5  UNL     1       1.321  30.077  40.496  1.00  0.00     0.160 HD
HETATM   19  C21 UNL     1       2.656  27.225  40.580  1.00  0.00     0.008 A 
HETATM   20  C22 UNL     1       1.993  26.269  41.298  1.00  0.00     0.128 A 
HETATM   21  C26 UNL     1       3.301  26.895  39.423  1.00  0.00    -0.001 A 
HETATM   22  F1  UNL     1       1.350  26.584  42.444  1.00  0.00    -0.205 F 
HETATM   23  C23 UNL     1       1.967  24.967  40.869  1.00  0.00     0.088 A 
HETATM   24  C24 UNL     1       2.624  24.626  39.692  1.00  0.00     0.158 A 
HETATM   25  F2  UNL     1       2.622  23.348  39.225  1.00  0.00    -0.203 F 
HETATM   26  C25 UNL     1       3.285  25.603  38.983  1.00  0.00     0.162 A 
HETATM   27  F3  UNL     1       3.932  25.265  37.822  1.00  0.00    -0.202 F 
HETATM   28  C27 UNL     1       4.085  27.760  38.482  1.00  0.00     0.089 C 
BRANCH  15  29
HETATM   29  C11 UNL     1       1.658  30.694  38.129  1.00  0.00    -0.007 A 
HETATM   30  C12 UNL     1       0.363  30.462  37.712  1.00  0.00     0.015 A 
HETATM   31  C13 UNL     1      -0.466  31.422  37.232  1.00  0.00     0.027 A 
HETATM   32  C14 UNL     1       0.005  32.734  37.145  1.00  0.00     0.062 A 
HETATM   33 CL2  UNL     1      -1.027  34.021  36.543  1.00  0.00    -0.082 Cl
HETATM   34  C15 UNL     1       1.275  33.023  37.539  1.00  0.00     0.078 A 
HETATM   35  C19 UNL     1       2.093  32.004  38.028  1.00  0.00     0.047 A 
BRANCH  34  36
HETATM   36  N2  UNL     1       1.819  34.346  37.444  1.00  0.00    -0.263 N 
HETATM   37  C16 UNL     1       1.594  35.366  38.277  1.00  0.00     0.144 A 
HETATM   38  C17 UNL     1       2.307  36.471  37.868  1.00  0.00     0.096 A 
HETATM   39 CL3  UNL     1       2.350  38.047  38.642  1.00  0.00    -0.079 Cl
HETATM   40  C18 UNL     1       2.980  36.069  36.735  1.00  0.00     0.137 A 
HETATM   41  N4  UNL     1       2.653  34.793  36.525  1.00  0.00    -0.278 N 
ATOM     42  H4  UNL     1       3.006  34.231  35.750  1.00  0.00     0.189 HD
BRANCH  40  43
HETATM   43  N3  UNL     1       3.757  36.811  36.046  1.00  0.00    -0.383 N 
ATOM     44  H32 UNL     1       4.660  37.201  36.313  1.00  0.00     0.157 HD
ATOM     45  H31 UNL     1       3.569  37.125  35.093  1.00  0.00     0.157 HD
ENDBRANCH  40  43
ENDBRANCH  34  36
ENDBRANCH  15  29
ENDBRANCH  11  14
ENDBRANCH   8  10
TORSDOF 5
ENDMDL
MODEL 4
REMARK VINA RESULT: -6.788524459      4.290      7.677
REMARK  5 active torsions:
REMARK  status: ('A' for Active; 'I' for Inactive)
REMARK    1  A    between atoms: C7_8  and  N1_9 
REMARK       I    between atoms: N1_9  and  C8_11 
REMARK    2  A    between atoms: C8_11  and  C9_13 
REMARK    3  A    between atoms: C10_14  and  C11_15 
REMARK    4  A    between atoms: C15_20  and  N2_21 
REMARK    5  A    between atoms: C18_25  and  N3_26 
ROOT
HETATM    1  C1  UNL     1       0.625  29.290  31.059  1.00  0.00     0.018 C 
HETATM    2  C2  UNL     1       1.636  29.445  31.697  1.00  0.00    -0.078 C 
HETATM    3  C3  UNL     1       2.844  29.610  32.439  1.00  0.00     0.020 A 
HETATM    4  C4  UNL     1       4.004  29.901  31.753  1.00  0.00     0.044 A 
HETATM    5  C5  UNL     1       5.188  30.052  32.437  1.00  0.00     0.037 A 
HETATM    6 CL1  UNL     1       6.654  30.421  31.567  1.00  0.00    -0.084 Cl
HETATM    7  C6  UNL     1       5.209  29.910  33.830  1.00  0.00     0.053 A 
HETATM    8  C7  UNL     1       4.060  29.622  34.522  1.00  0.00     0.038 A 
HETATM    9  C28 UNL     1       2.891  29.473  33.834  1.00  0.00     0.050 A 
ENDROOT
BRANCH   8  10
HETATM   10  N1  UNL     1       4.172  29.455  35.953  1.00  0.00    -0.323 N 
HETATM   11  C8  UNL     1       3.058  28.911  36.688  1.00  0.00     0.254 C 
HETATM   12  O1  UNL     1       2.078  28.651  35.970  1.00  0.00    -0.268 OA
ATOM     13  H1  UNL     1       5.029  29.720  36.437  1.00  0.00     0.169 HD
BRANCH  11  14
HETATM   14  C9  UNL     1       3.118  28.696  38.077  1.00  0.00     0.041 C 
HETATM   15  C10 UNL     1       2.453  29.463  38.893  1.00  0.00     0.051 C 
HETATM   16  N5  UNL     1       2.373  29.399  40.353  1.00  0.00    -0.384 N 
HETATM   17  C20 UNL     1       3.022  28.575  41.324  1.00  0.00     0.162 C 
ATOM     18  H5  UNL     1       1.726  30.076  40.757  1.00  0.00     0.160 HD
HETATM   19  C21 UNL     1       2.936  27.168  40.800  1.00  0.00     0.008 A 
HETATM   20  C22 UNL     1       2.368  26.291  41.681  1.00  0.00     0.128 A 
HETATM   21  C26 UNL     1       3.358  26.739  39.574  1.00  0.00    -0.001 A 
HETATM   22  F1  UNL     1       1.946  26.704  42.897  1.00  0.00    -0.205 F 
HETATM   23  C23 UNL     1       2.214  24.970  41.349  1.00  0.00     0.088 A 
HETATM   24  C24 UNL     1       2.644  24.528  40.102  1.00  0.00     0.158 A 
HETATM   25  F2  UNL     1       2.509  23.227  39.727  1.00  0.00    -0.203 F 
HETATM   26  C25 UNL     1       3.213  25.427  39.229  1.00  0.00     0.162 A 
HETATM   27  F3  UNL     1       3.635  24.990  38.000  1.00  0.00    -0.202 F 
HETATM   28  C27 UNL     1       4.003  27.507  38.460  1.00  0.00     0.089 C 
BRANCH  15  29
HETATM   29  C11 UNL     1       1.675  30.538  38.332  1.00  0.00    -0.007 A 
HETATM   30  C12 UNL     1       0.340  30.315  38.062  1.00  0.00     0.015 A 
HETATM   31  C13 UNL     1      -0.527  31.278  37.657  1.00  0.00     0.027 A 
HETATM   32  C14 UNL     1      -0.054  32.582  37.497  1.00  0.00     0.062 A 
HETATM   33 CL2  UNL     1      -1.131  33.872  36.987  1.00  0.00    -0.082 Cl
HETATM   34  C15 UNL     1       1.254  32.862  37.746  1.00  0.00     0.078 A 
HETATM   35  C19 UNL     1       2.109  31.840  38.162  1.00  0.00     0.047 A 
BRANCH  34  36
HETATM   36  N2  UNL     1       1.799  34.176  37.570  1.00  0.00    -0.263 N 
HETATM   37  C16 UNL     1       1.592  35.240  38.351  1.00  0.00     0.144 A 
HETATM   38  C17 UNL     1       2.299  36.320  37.870  1.00  0.00     0.096 A 
HETATM   39 CL3  UNL     1       2.360  37.935  38.557  1.00  0.00    -0.079 Cl
HETATM   40  C18 UNL     1       2.949  35.855  36.747  1.00  0.00     0.137 A 
HETATM   41  N4  UNL     1       2.617  34.570  36.613  1.00  0.00    -0.278 N 
ATOM     42  H4  UNL     1       2.954  33.967  35.863  1.00  0.00     0.189 HD
BRANCH  40  43
HETATM   43  N3  UNL     1       3.715  36.557  36.005  1.00  0.00    -0.383 N 
ATOM     44  H32 UNL     1       3.735  36.609  34.987  1.00  0.00     0.157 HD
ATOM     45  H31 UNL     1       4.439  37.189  36.347  1.00  0.00     0.157 HD
ENDBRANCH  40  43
ENDBRANCH  34  36
ENDBRANCH  15  29
ENDBRANCH  11  14
ENDBRANCH   8  10
TORSDOF 5
ENDMDL
MODEL 5
REMARK VINA RESULT: -6.733420653      3.627      8.350
REMARK  5 active torsions:
REMARK  status: ('A' for Active; 'I' for Inactive)
REMARK    1  A    between atoms: C7_8  and  N1_9 
REMARK       I    between atoms: N1_9  and  C8_11 
REMARK    2  A    between atoms: C8_11  and  C9_13 
REMARK    3  A    between atoms: C10_14  and  C11_15 
REMARK    4  A    between atoms: C15_20  and  N2_21 
REMARK    5  A    between atoms: C18_25  and  N3_26 
ROOT
HETATM    1  C1  UNL     1       3.669  26.998  43.197  1.00  0.00     0.018 C 
HETATM    2  C2  UNL     1       3.154  26.864  42.116  1.00  0.00    -0.078 C 
HETATM    3  C3  UNL     1       2.548  26.680  40.836  1.00  0.00     0.020 A 
HETATM    4  C4  UNL     1       1.494  25.800  40.727  1.00  0.00     0.044 A 
HETATM    5  C5  UNL     1       0.896  25.589  39.505  1.00  0.00     0.037 A 
HETATM    6 CL1  UNL     1      -0.438  24.475  39.369  1.00  0.00    -0.084 Cl
HETATM    7  C6  UNL     1       1.364  26.274  38.376  1.00  0.00     0.053 A 
HETATM    8  C7  UNL     1       2.413  27.153  38.475  1.00  0.00     0.038 A 
HETATM    9  C28 UNL     1       2.998  27.354  39.691  1.00  0.00     0.050 A 
ENDROOT
BRANCH   8  10
HETATM   10  N1  UNL     1       2.860  27.791  37.258  1.00  0.00    -0.323 N 
HETATM   11  C8  UNL     1       1.954  28.653  36.541  1.00  0.00     0.254 C 
HETATM   12  O1  UNL     1       0.834  28.736  37.073  1.00  0.00    -0.268 OA
ATOM     13  H1  UNL     1       3.805  27.634  36.911  1.00  0.00     0.169 HD
BRANCH  11  14
HETATM   14  C9  UNL     1       2.341  29.326  35.368  1.00  0.00     0.041 C 
HETATM   15  C10 UNL     1       2.617  30.599  35.398  1.00  0.00     0.051 C 
HETATM   16  N5  UNL     1       3.046  31.472  34.304  1.00  0.00    -0.384 N 
HETATM   17  C20 UNL     1       3.217  31.255  32.902  1.00  0.00     0.162 C 
ATOM     18  H5  UNL     1       3.265  32.422  34.602  1.00  0.00     0.160 HD
HETATM   19  C21 UNL     1       3.965  29.957  32.770  1.00  0.00     0.008 A 
HETATM   20  C22 UNL     1       5.110  30.059  32.032  1.00  0.00     0.128 A 
HETATM   21  C26 UNL     1       3.597  28.758  33.312  1.00  0.00    -0.001 A 
HETATM   22  F1  UNL     1       5.483  31.239  31.490  1.00  0.00    -0.205 F 
HETATM   23  C23 UNL     1       5.906  28.962  31.823  1.00  0.00     0.088 A 
HETATM   24  C24 UNL     1       5.535  27.739  32.372  1.00  0.00     0.158 A 
HETATM   25  F2  UNL     1       6.295  26.625  32.195  1.00  0.00    -0.203 F 
HETATM   26  C25 UNL     1       4.378  27.657  33.113  1.00  0.00     0.162 A 
HETATM   27  F3  UNL     1       4.015  26.451  33.654  1.00  0.00    -0.202 F 
HETATM   28  C27 UNL     1       2.400  28.409  34.144  1.00  0.00     0.089 C 
BRANCH  15  29
HETATM   29  C11 UNL     1       2.499  31.289  36.657  1.00  0.00    -0.007 A 
HETATM   30  C12 UNL     1       3.081  30.728  37.776  1.00  0.00     0.015 A 
HETATM   31  C13 UNL     1       3.152  31.339  38.985  1.00  0.00     0.027 A 
HETATM   32  C14 UNL     1       2.604  32.616  39.125  1.00  0.00     0.062 A 
HETATM   33 CL2  UNL     1       2.677  33.461  40.664  1.00  0.00    -0.082 Cl
HETATM   34  C15 UNL     1       2.015  33.220  38.058  1.00  0.00     0.078 A 
HETATM   35  C19 UNL     1       1.966  32.554  36.832  1.00  0.00     0.047 A 
BRANCH  34  36
HETATM   36  N2  UNL     1       1.412  34.516  38.154  1.00  0.00    -0.263 N 
HETATM   37  C16 UNL     1       2.040  35.695  38.136  1.00  0.00     0.144 A 
HETATM   38  C17 UNL     1       1.122  36.718  38.232  1.00  0.00     0.096 A 
HETATM   39 CL3  UNL     1       1.457  38.442  38.238  1.00  0.00    -0.079 Cl
HETATM   40  C18 UNL     1      -0.105  36.096  38.311  1.00  0.00     0.137 A 
HETATM   41  N4  UNL     1       0.124  34.783  38.260  1.00  0.00    -0.278 N 
ATOM     42  H4  UNL     1      -0.607  34.072  38.299  1.00  0.00     0.189 HD
BRANCH  40  43
HETATM   43  N3  UNL     1      -1.224  36.701  38.414  1.00  0.00    -0.383 N 
ATOM     44  H32 UNL     1      -1.815  36.801  39.239  1.00  0.00     0.157 HD
ATOM     45  H31 UNL     1      -1.695  37.189  37.652  1.00  0.00     0.157 HD
ENDBRANCH  40  43
ENDBRANCH  34  36
ENDBRANCH  15  29
ENDBRANCH  11  14
ENDBRANCH   8  10
TORSDOF 5
ENDMDL
