MODEL 1
REMARK VINA RESULT: -7.022423753      0.000      0.000
REMARK  5 active torsions:
REMARK  status: ('A' for Active; 'I' for Inactive)
REMARK       I    between atoms: C1_2  and  N1_3 
REMARK       I    between atoms: C1_2  and  N7_32 
REMARK    1  A    between atoms: C4_7  and  C5_8 
REMARK       I    between atoms: C5_8  and  N2_10 
REMARK    2  A    between atoms: N2_10  and  C6_12 
REMARK    3  A    between atoms: N6_25  and  C13_26 
REMARK    4  A    between atoms: N7_32  and  C19_34 
REMARK    5  A    between atoms: C23_40  and  C24_41 
ROOT
HETATM    1  O1  UNL     1       1.092  30.706  33.787  1.00  0.00    -0.247 OA
HETATM    2  C1  UNL     1       1.790  30.865  34.821  1.00  0.00     0.326 C 
HETATM    3  N1  UNL     1       1.207  31.672  35.885  1.00  0.00    -0.293 N 
ATOM      4  H1  UNL     1       0.995  32.658  35.737  1.00  0.00     0.172 HD
HETATM    5  C2  UNL     1       0.966  31.108  37.015  1.00  0.00     0.133 A 
HETATM    6  C3  UNL     1       1.200  29.790  37.347  1.00  0.00     0.087 A 
HETATM    7  C4  UNL     1       0.804  29.569  38.660  1.00  0.00     0.120 A 
HETATM    8  N5  UNL     1       0.344  30.759  39.079  1.00  0.00    -0.287 N 
ATOM      9  H5  UNL     1      -0.026  30.939  40.013  1.00  0.00     0.188 HD
HETATM   10  N6  UNL     1       0.435  31.673  38.112  1.00  0.00    -0.239 N 
HETATM   11  N7  UNL     1       3.058  30.328  35.005  1.00  0.00    -0.309 N 
ATOM     12  H7  UNL     1       3.495  30.547  35.900  1.00  0.00     0.170 HD
ENDROOT
BRANCH  10  13
HETATM   13  C13 UNL     1       0.023  33.042  38.257  1.00  0.00     0.058 A 
HETATM   14  C14 UNL     1      -1.299  33.353  37.966  1.00  0.00     0.031 A 
HETATM   15  C15 UNL     1      -1.775  34.639  38.079  1.00  0.00     0.002 A 
HETATM   16  C16 UNL     1      -0.912  35.616  38.488  1.00  0.00     0.000 A 
HETATM   17  C17 UNL     1       0.400  35.305  38.777  1.00  0.00     0.002 A 
HETATM   18  C18 UNL     1       0.873  34.020  38.663  1.00  0.00     0.031 A 
ENDBRANCH  10  13
BRANCH   7  19
HETATM   19  C5  UNL     1       0.890  28.298  39.389  1.00  0.00     0.274 C 
HETATM   20  O2  UNL     1      -0.129  27.620  39.573  1.00  0.00    -0.266 OA
HETATM   21  N2  UNL     1       2.149  27.890  39.861  1.00  0.00    -0.322 N 
ATOM     22  H2  UNL     1       2.922  28.524  39.658  1.00  0.00     0.169 HD
BRANCH  21  23
HETATM   23  C6  UNL     1       2.488  26.734  40.570  1.00  0.00     0.036 A 
HETATM   24  C7  UNL     1       2.718  25.558  39.873  1.00  0.00     0.032 A 
HETATM   25  C8  UNL     1       3.044  24.377  40.509  1.00  0.00     0.034 A 
HETATM   26  C9  UNL     1       3.149  24.352  41.871  1.00  0.00     0.059 A 
HETATM   27  N3  UNL     1       3.452  23.345  42.735  1.00  0.00    -0.300 N 
HETATM   28  C11 UNL     1       2.929  25.500  42.594  1.00  0.00     0.011 A 
HETATM   29  N4  UNL     1       3.421  23.847  43.952  1.00  0.00    -0.311 N 
ATOM     30  H3  UNL     1       3.663  22.378  42.486  1.00  0.00     0.187 HD
HETATM   31  C10 UNL     1       3.103  25.169  43.900  1.00  0.00     0.120 A 
ATOM     32  H4  UNL     1       3.608  23.323  44.807  1.00  0.00     0.186 HD
HETATM   33  C12 UNL     1       2.598  26.684  41.922  1.00  0.00     0.044 A 
ENDBRANCH  21  23
ENDBRANCH   7  19
BRANCH  11  34
HETATM   34  C19 UNL     1       3.834  29.527  34.142  1.00  0.00     0.038 A 
HETATM   35  C20 UNL     1       4.159  28.207  34.515  1.00  0.00     0.055 A 
HETATM   36  C21 UNL     1       4.914  27.397  33.709  1.00  0.00     0.058 A 
HETATM   37 CL1  UNL     1       5.318  25.746  34.181  1.00  0.00    -0.082 Cl
HETATM   38  C22 UNL     1       5.393  27.829  32.494  1.00  0.00     0.069 A 
HETATM   39 CL2  UNL     1       6.355  26.779  31.476  1.00  0.00    -0.082 Cl
HETATM   40  C23 UNL     1       5.088  29.098  32.117  1.00  0.00     0.055 A 
HETATM   41  C25 UNL     1       4.323  29.938  32.923  1.00  0.00     0.046 A 
BRANCH  40  42
HETATM   42  C24 UNL     1       5.572  29.624  30.824  1.00  0.00     0.350 C 
HETATM   43  F1  UNL     1       6.750  29.020  30.470  1.00  0.00    -0.183 F 
HETATM   44  F2  UNL     1       4.568  29.376  29.884  1.00  0.00    -0.183 F 
HETATM   45 CL3  UNL     1       5.880  31.386  30.964  1.00  0.00    -0.042 Cl
ENDBRANCH  40  42
ENDBRANCH  11  34
TORSDOF 5
ENDMDL
MODEL 2
REMARK VINA RESULT: -6.996082528      4.413      8.058
REMARK  5 active torsions:
REMARK  status: ('A' for Active; 'I' for Inactive)
REMARK       I    between atoms: C1_2  and  N1_3 
REMARK       I    between atoms: C1_2  and  N7_32 
REMARK    1  A    between atoms: C4_7  and  C5_8 
REMARK       I    between atoms: C5_8  and  N2_10 
REMARK    2  A    between atoms: N2_10  and  C6_12 
REMARK    3  A    between atoms: N6_25  and  C13_26 
REMARK    4  A    between atoms: N7_32  and  C19_34 
REMARK    5  A    between atoms: C23_40  and  C24_41 
ROOT
HETATM    1  O1  UNL     1       2.526  30.417  40.358  1.00  0.00    -0.247 OA
HETATM    2  C1  UNL     1       1.620  30.281  39.497  1.00  0.00     0.326 C 
HETATM    3  N1  UNL     1       1.118  31.500  38.876  1.00  0.00    -0.293 N 
ATOM      4  H1  UNL     1       0.643  32.212  39.430  1.00  0.00     0.172 HD
HETATM    5  C2  UNL     1       1.292  31.655  37.612  1.00  0.00     0.133 A 
HETATM    6  C3  UNL     1       1.915  30.779  36.749  1.00  0.00     0.087 A 
HETATM    7  C4  UNL     1       1.901  31.307  35.465  1.00  0.00     0.120 A 
HETATM    8  N5  UNL     1       1.270  32.485  35.592  1.00  0.00    -0.287 N 
ATOM      9  H5  UNL     1       1.091  33.131  34.822  1.00  0.00     0.188 HD
HETATM   10  N6  UNL     1       0.907  32.698  36.858  1.00  0.00    -0.239 N 
HETATM   11  N7  UNL     1       1.079  29.060  39.111  1.00  0.00    -0.309 N 
ATOM     12  H7  UNL     1       0.351  29.115  38.399  1.00  0.00     0.170 HD
ENDROOT
BRANCH  10  13
HETATM   13  C13 UNL     1       0.213  33.873  37.309  1.00  0.00     0.058 A 
HETATM   14  C14 UNL     1       0.973  34.987  37.637  1.00  0.00     0.031 A 
HETATM   15  C15 UNL     1       0.387  36.152  38.078  1.00  0.00     0.002 A 
HETATM   16  C16 UNL     1      -0.974  36.190  38.188  1.00  0.00     0.000 A 
HETATM   17  C17 UNL     1      -1.728  35.083  37.862  1.00  0.00     0.002 A 
HETATM   18  C18 UNL     1      -1.139  33.921  37.422  1.00  0.00     0.031 A 
ENDBRANCH  10  13
BRANCH   7  19
HETATM   19  C5  UNL     1       2.463  30.680  34.263  1.00  0.00     0.274 C 
HETATM   20  O2  UNL     1       1.984  30.935  33.150  1.00  0.00    -0.266 OA
HETATM   21  N2  UNL     1       3.545  29.797  34.422  1.00  0.00    -0.322 N 
ATOM     22  H2  UNL     1       3.861  29.655  35.381  1.00  0.00     0.169 HD
BRANCH  21  23
HETATM   23  C6  UNL     1       4.248  29.087  33.444  1.00  0.00     0.036 A 
HETATM   24  C7  UNL     1       5.568  29.421  33.186  1.00  0.00     0.032 A 
HETATM   25  C8  UNL     1       6.319  28.770  32.226  1.00  0.00     0.034 A 
HETATM   26  C9  UNL     1       5.754  27.760  31.501  1.00  0.00     0.059 A 
HETATM   27  N3  UNL     1       6.255  26.967  30.515  1.00  0.00    -0.300 N 
HETATM   28  C11 UNL     1       4.447  27.402  31.731  1.00  0.00     0.011 A 
HETATM   29  N4  UNL     1       5.296  26.144  30.145  1.00  0.00    -0.311 N 
ATOM     30  H3  UNL     1       7.200  27.004  30.132  1.00  0.00     0.187 HD
HETATM   31  C10 UNL     1       4.172  26.385  30.872  1.00  0.00     0.120 A 
ATOM     32  H4  UNL     1       5.383  25.432  29.419  1.00  0.00     0.186 HD
HETATM   33  C12 UNL     1       3.710  28.080  32.709  1.00  0.00     0.044 A 
ENDBRANCH  21  23
ENDBRANCH   7  19
BRANCH  11  34
HETATM   34  C19 UNL     1       1.383  27.757  39.554  1.00  0.00     0.038 A 
HETATM   35  C20 UNL     1       0.521  26.689  39.234  1.00  0.00     0.055 A 
HETATM   36  C21 UNL     1       0.777  25.408  39.647  1.00  0.00     0.058 A 
HETATM   37 CL1  UNL     1      -0.305  24.076  39.244  1.00  0.00    -0.082 Cl
HETATM   38  C22 UNL     1       1.888  25.099  40.397  1.00  0.00     0.069 A 
HETATM   39 CL2  UNL     1       2.199  23.456  40.917  1.00  0.00    -0.082 Cl
HETATM   40  C23 UNL     1       2.731  26.115  40.715  1.00  0.00     0.055 A 
HETATM   41  C25 UNL     1       2.489  27.424  40.304  1.00  0.00     0.046 A 
BRANCH  40  42
HETATM   42  C24 UNL     1       3.943  25.851  41.517  1.00  0.00     0.350 C 
HETATM   43  F1  UNL     1       4.364  24.559  41.341  1.00  0.00    -0.183 F 
HETATM   44  F2  UNL     1       4.914  26.765  41.101  1.00  0.00    -0.183 F 
HETATM   45 CL3  UNL     1       3.576  26.074  43.259  1.00  0.00    -0.042 Cl
ENDBRANCH  40  42
ENDBRANCH  11  34
TORSDOF 5
ENDMDL
MODEL 3
REMARK VINA RESULT: -6.761355995      1.063      1.396
REMARK  5 active torsions:
REMARK  status: ('A' for Active; 'I' for Inactive)
REMARK       I    between atoms: C1_2  and  N1_3 
REMARK       I    between atoms: C1_2  and  N7_32 
REMARK    1  A    between atoms: C4_7  and  C5_8 
REMARK       I    between atoms: C5_8  and  N2_10 
REMARK    2  A    between atoms: N2_10  and  C6_12 
REMARK    3  A    between atoms: N6_25  and  C13_26 
REMARK    4  A    between atoms: N7_32  and  C19_34 
REMARK    5  A    between atoms: C23_40  and  C24_41 
ROOT
HETATM    1  O1  UNL     1       0.665  30.777  33.685  1.00  0.00    -0.247 OA
HETATM    2  C1  UNL     1       1.433  30.938  34.669  1.00  0.00     0.326 C 
HETATM    3  N1  UNL     1       0.939  31.778  35.752  1.00  0.00    -0.293 N 
ATOM      4  H1  UNL     1       0.741  32.766  35.600  1.00  0.00     0.172 HD
HETATM    5  C2  UNL     1       0.760  31.240  36.906  1.00  0.00     0.133 A 
HETATM    6  C3  UNL     1       0.985  29.923  37.248  1.00  0.00     0.087 A 
HETATM    7  C4  UNL     1       0.672  29.735  38.588  1.00  0.00     0.120 A 
HETATM    8  N5  UNL     1       0.267  30.942  39.013  1.00  0.00    -0.287 N 
ATOM      9  H5  UNL     1      -0.036  31.149  39.965  1.00  0.00     0.188 HD
HETATM   10  N6  UNL     1       0.316  31.837  38.024  1.00  0.00    -0.239 N 
HETATM   11  N7  UNL     1       2.698  30.374  34.779  1.00  0.00    -0.309 N 
ATOM     12  H7  UNL     1       3.198  30.598  35.640  1.00  0.00     0.170 HD
ENDROOT
BRANCH  10  13
HETATM   13  C13 UNL     1      -0.055  33.217  38.170  1.00  0.00     0.058 A 
HETATM   14  C14 UNL     1       0.946  34.126  38.486  1.00  0.00     0.031 A 
HETATM   15  C15 UNL     1       0.675  35.466  38.643  1.00  0.00     0.002 A 
HETATM   16  C16 UNL     1      -0.613  35.890  38.481  1.00  0.00     0.000 A 
HETATM   17  C17 UNL     1      -1.607  34.986  38.167  1.00  0.00     0.002 A 
HETATM   18  C18 UNL     1      -1.333  33.648  38.011  1.00  0.00     0.031 A 
ENDBRANCH  10  13
BRANCH   7  19
HETATM   19  C5  UNL     1       0.776  28.475  39.335  1.00  0.00     0.274 C 
HETATM   20  O2  UNL     1      -0.248  27.860  39.658  1.00  0.00    -0.266 OA
HETATM   21  N2  UNL     1       2.060  28.005  39.661  1.00  0.00    -0.322 N 
ATOM     22  H2  UNL     1       2.836  28.589  39.350  1.00  0.00     0.169 HD
BRANCH  21  23
HETATM   23  C6  UNL     1       2.419  26.845  40.354  1.00  0.00     0.036 A 
HETATM   24  C7  UNL     1       2.547  25.655  39.657  1.00  0.00     0.032 A 
HETATM   25  C8  UNL     1       2.887  24.469  40.279  1.00  0.00     0.034 A 
HETATM   26  C9  UNL     1       3.108  24.456  41.626  1.00  0.00     0.059 A 
HETATM   27  N3  UNL     1       3.450  23.448  42.475  1.00  0.00    -0.300 N 
HETATM   28  C11 UNL     1       2.990  25.618  42.350  1.00  0.00     0.011 A 
HETATM   29  N4  UNL     1       3.541  23.964  43.683  1.00  0.00    -0.311 N 
ATOM     30  H3  UNL     1       3.605  22.472  42.222  1.00  0.00     0.187 HD
HETATM   31  C10 UNL     1       3.265  25.295  43.640  1.00  0.00     0.120 A 
ATOM     32  H4  UNL     1       3.784  23.442  44.526  1.00  0.00     0.186 HD
HETATM   33  C12 UNL     1       2.644  26.805  41.693  1.00  0.00     0.044 A 
ENDBRANCH  21  23
ENDBRANCH   7  19
BRANCH  11  34
HETATM   34  C19 UNL     1       3.397  29.539  33.884  1.00  0.00     0.038 A 
HETATM   35  C20 UNL     1       2.730  28.464  33.262  1.00  0.00     0.055 A 
HETATM   36  C21 UNL     1       3.372  27.627  32.389  1.00  0.00     0.058 A 
HETATM   37 CL1  UNL     1       2.532  26.283  31.615  1.00  0.00    -0.082 Cl
HETATM   38  C22 UNL     1       4.701  27.791  32.075  1.00  0.00     0.069 A 
HETATM   39 CL2  UNL     1       5.505  26.711  30.956  1.00  0.00    -0.082 Cl
HETATM   40  C23 UNL     1       5.360  28.822  32.663  1.00  0.00     0.055 A 
HETATM   41  C25 UNL     1       4.725  29.685  33.554  1.00  0.00     0.046 A 
BRANCH  40  42
HETATM   42  C24 UNL     1       6.789  29.054  32.369  1.00  0.00     0.350 C 
HETATM   43  F1  UNL     1       7.577  28.496  33.340  1.00  0.00    -0.183 F 
HETATM   44  F2  UNL     1       7.043  28.487  31.117  1.00  0.00    -0.183 F 
HETATM   45 CL3  UNL     1       7.123  30.817  32.339  1.00  0.00    -0.042 Cl
ENDBRANCH  40  42
ENDBRANCH  11  34
TORSDOF 5
ENDMDL
MODEL 4
REMARK VINA RESULT: -5.876079393      3.945      7.894
REMARK  5 active torsions:
REMARK  status: ('A' for Active; 'I' for Inactive)
REMARK       I    between atoms: C1_2  and  N1_3 
REMARK       I    between atoms: C1_2  and  N7_32 
REMARK    1  A    between atoms: C4_7  and  C5_8 
REMARK       I    between atoms: C5_8  and  N2_10 
REMARK    2  A    between atoms: N2_10  and  C6_12 
REMARK    3  A    between atoms: N6_25  and  C13_26 
REMARK    4  A    between atoms: N7_32  and  C19_34 
REMARK    5  A    between atoms: C23_40  and  C24_41 
ROOT
HETATM    1  O1  UNL     1       3.201  30.797  40.538  1.00  0.00    -0.247 OA
HETATM    2  C1  UNL     1       2.217  30.521  39.806  1.00  0.00     0.326 C 
HETATM    3  N1  UNL     1       1.563  31.639  39.139  1.00  0.00    -0.293 N 
ATOM      4  H1  UNL     1       1.102  32.372  39.678  1.00  0.00     0.172 HD
HETATM    5  C2  UNL     1       1.583  31.678  37.854  1.00  0.00     0.133 A 
HETATM    6  C3  UNL     1       2.168  30.760  37.008  1.00  0.00     0.087 A 
HETATM    7  C4  UNL     1       1.974  31.157  35.692  1.00  0.00     0.120 A 
HETATM    8  N5  UNL     1       1.277  32.301  35.783  1.00  0.00    -0.287 N 
ATOM      9  H5  UNL     1       0.968  32.855  34.984  1.00  0.00     0.188 HD
HETATM   10  N6  UNL     1       1.043  32.616  37.058  1.00  0.00    -0.239 N 
HETATM   11  N7  UNL     1       1.726  29.237  39.600  1.00  0.00    -0.309 N 
ATOM     12  H7  UNL     1       0.921  29.177  38.976  1.00  0.00     0.170 HD
ENDROOT
BRANCH  10  13
HETATM   13  C13 UNL     1       0.321  33.785  37.478  1.00  0.00     0.058 A 
HETATM   14  C14 UNL     1       1.048  34.944  37.715  1.00  0.00     0.031 A 
HETATM   15  C15 UNL     1       0.433  36.107  38.121  1.00  0.00     0.002 A 
HETATM   16  C16 UNL     1      -0.923  36.098  38.288  1.00  0.00     0.000 A 
HETATM   17  C17 UNL     1      -1.643  34.947  38.052  1.00  0.00     0.002 A 
HETATM   18  C18 UNL     1      -1.027  33.787  37.647  1.00  0.00     0.031 A 
ENDBRANCH  10  13
BRANCH   7  19
HETATM   19  C5  UNL     1       2.442  30.449  34.494  1.00  0.00     0.274 C 
HETATM   20  O2  UNL     1       1.750  30.444  33.468  1.00  0.00    -0.266 OA
HETATM   21  N2  UNL     1       3.682  29.790  34.558  1.00  0.00    -0.322 N 
ATOM     22  H2  UNL     1       4.169  29.854  35.452  1.00  0.00     0.169 HD
BRANCH  21  23
HETATM   23  C6  UNL     1       4.339  29.060  33.564  1.00  0.00     0.036 A 
HETATM   24  C7  UNL     1       5.673  29.325  33.301  1.00  0.00     0.032 A 
HETATM   25  C8  UNL     1       6.381  28.651  32.326  1.00  0.00     0.034 A 
HETATM   26  C9  UNL     1       5.757  27.686  31.587  1.00  0.00     0.059 A 
HETATM   27  N3  UNL     1       6.208  26.884  30.584  1.00  0.00    -0.300 N 
HETATM   28  C11 UNL     1       4.434  27.396  31.821  1.00  0.00     0.011 A 
HETATM   29  N4  UNL     1       5.203  26.121  30.207  1.00  0.00    -0.311 N 
ATOM     30  H3  UNL     1       7.151  26.875  30.196  1.00  0.00     0.187 HD
HETATM   31  C10 UNL     1       4.099  26.411  30.947  1.00  0.00     0.120 A 
ATOM     32  H4  UNL     1       5.246  25.418  29.470  1.00  0.00     0.186 HD
HETATM   33  C12 UNL     1       3.741  28.096  32.816  1.00  0.00     0.044 A 
ENDBRANCH  21  23
ENDBRANCH   7  19
BRANCH  11  34
HETATM   34  C19 UNL     1       2.170  28.005  40.121  1.00  0.00     0.038 A 
HETATM   35  C20 UNL     1       2.375  27.864  41.508  1.00  0.00     0.055 A 
HETATM   36  C21 UNL     1       2.811  26.687  42.056  1.00  0.00     0.058 A 
HETATM   37 CL1  UNL     1       3.066  26.517  43.792  1.00  0.00    -0.082 Cl
HETATM   38  C22 UNL     1       3.070  25.581  41.280  1.00  0.00     0.069 A 
HETATM   39 CL2  UNL     1       3.625  24.084  41.997  1.00  0.00    -0.082 Cl
HETATM   40  C23 UNL     1       2.877  25.697  39.941  1.00  0.00     0.055 A 
HETATM   41  C25 UNL     1       2.435  26.886  39.364  1.00  0.00     0.046 A 
BRANCH  40  42
HETATM   42  C24 UNL     1       3.137  24.547  39.051  1.00  0.00     0.350 C 
HETATM   43  F1  UNL     1       3.439  24.976  37.786  1.00  0.00    -0.183 F 
HETATM   44  F2  UNL     1       4.197  23.829  39.613  1.00  0.00    -0.183 F 
HETATM   45 CL3  UNL     1       1.670  23.519  38.944  1.00  0.00    -0.042 Cl
ENDBRANCH  40  42
ENDBRANCH  11  34
TORSDOF 5
ENDMDL
MODEL 5
REMARK VINA RESULT: -5.796663055      4.557      7.375
REMARK  5 active torsions:
REMARK  status: ('A' for Active; 'I' for Inactive)
REMARK       I    between atoms: C1_2  and  N1_3 
REMARK       I    between atoms: C1_2  and  N7_32 
REMARK    1  A    between atoms: C4_7  and  C5_8 
REMARK       I    between atoms: C5_8  and  N2_10 
REMARK    2  A    between atoms: N2_10  and  C6_12 
REMARK    3  A    between atoms: N6_25  and  C13_26 
REMARK    4  A    between atoms: N7_32  and  C19_34 
REMARK    5  A    between atoms: C23_40  and  C24_41 
ROOT
HETATM    1  O1  UNL     1       3.166  33.275  36.130  1.00  0.00    -0.247 OA
HETATM    2  C1  UNL     1       2.486  32.272  35.790  1.00  0.00     0.326 C 
HETATM    3  N1  UNL     1       3.198  31.204  35.101  1.00  0.00    -0.293 N 
ATOM      4  H1  UNL     1       3.628  31.364  34.191  1.00  0.00     0.172 HD
HETATM    5  C2  UNL     1       3.269  30.054  35.672  1.00  0.00     0.133 A 
HETATM    6  C3  UNL     1       2.737  29.703  36.894  1.00  0.00     0.087 A 
HETATM    7  C4  UNL     1       3.029  28.372  37.159  1.00  0.00     0.120 A 
HETATM    8  N5  UNL     1       3.727  27.959  36.089  1.00  0.00    -0.287 N 
ATOM      9  H5  UNL     1       4.097  27.016  35.967  1.00  0.00     0.188 HD
HETATM   10  N6  UNL     1       3.874  28.948  35.206  1.00  0.00    -0.239 N 
HETATM   11  N7  UNL     1       1.125  32.128  36.028  1.00  0.00    -0.309 N 
ATOM     12  H7  UNL     1       0.717  31.256  35.692  1.00  0.00     0.170 HD
ENDROOT
BRANCH  10  13
HETATM   13  C13 UNL     1       4.575  28.816  33.959  1.00  0.00     0.058 A 
HETATM   14  C14 UNL     1       5.846  29.367  33.870  1.00  0.00     0.031 A 
HETATM   15  C15 UNL     1       6.585  29.285  32.712  1.00  0.00     0.002 A 
HETATM   16  C16 UNL     1       6.037  28.642  31.638  1.00  0.00     0.000 A 
HETATM   17  C17 UNL     1       4.775  28.095  31.728  1.00  0.00     0.002 A 
HETATM   18  C18 UNL     1       4.039  28.179  32.886  1.00  0.00     0.031 A 
ENDBRANCH  10  13
BRANCH   7  19
HETATM   19  C5  UNL     1       2.639  27.619  38.358  1.00  0.00     0.274 C 
HETATM   20  O2  UNL     1       1.502  27.752  38.829  1.00  0.00    -0.266 OA
HETATM   21  N2  UNL     1       3.587  26.760  38.937  1.00  0.00    -0.322 N 
ATOM     22  H2  UNL     1       4.495  26.727  38.472  1.00  0.00     0.169 HD
BRANCH  21  23
HETATM   23  C6  UNL     1       3.458  25.943  40.064  1.00  0.00     0.036 A 
HETATM   24  C7  UNL     1       3.325  24.574  39.894  1.00  0.00     0.032 A 
HETATM   25  C8  UNL     1       3.181  23.709  40.961  1.00  0.00     0.034 A 
HETATM   26  C9  UNL     1       3.169  24.207  42.234  1.00  0.00     0.059 A 
HETATM   27  N3  UNL     1       3.045  23.592  43.442  1.00  0.00    -0.300 N 
HETATM   28  C11 UNL     1       3.299  25.559  42.440  1.00  0.00     0.011 A 
HETATM   29  N4  UNL     1       3.096  24.528  44.367  1.00  0.00    -0.311 N 
ATOM     30  H3  UNL     1       2.932  22.591  43.601  1.00  0.00     0.187 HD
HETATM   31  C10 UNL     1       3.252  25.747  43.784  1.00  0.00     0.120 A 
ATOM     32  H4  UNL     1       3.029  24.363  45.371  1.00  0.00     0.186 HD
HETATM   33  C12 UNL     1       3.443  26.412  41.338  1.00  0.00     0.044 A 
ENDBRANCH  21  23
ENDBRANCH   7  19
BRANCH  11  34
HETATM   34  C19 UNL     1       0.220  33.004  36.663  1.00  0.00     0.038 A 
HETATM   35  C20 UNL     1      -1.113  32.600  36.876  1.00  0.00     0.055 A 
HETATM   36  C21 UNL     1      -2.025  33.421  37.484  1.00  0.00     0.058 A 
HETATM   37 CL1  UNL     1      -3.692  32.911  37.748  1.00  0.00    -0.082 Cl
HETATM   38  C22 UNL     1      -1.686  34.682  37.919  1.00  0.00     0.069 A 
HETATM   39 CL2  UNL     1      -2.865  35.717  38.696  1.00  0.00    -0.082 Cl
HETATM   40  C23 UNL     1      -0.405  35.088  37.723  1.00  0.00     0.055 A 
HETATM   41  C25 UNL     1       0.537  34.268  37.106  1.00  0.00     0.046 A 
BRANCH  40  42
HETATM   42  C24 UNL     1       0.024  36.430  38.167  1.00  0.00     0.350 C 
HETATM   43  F1  UNL     1      -0.703  37.401  37.530  1.00  0.00    -0.183 F 
HETATM   44  F2  UNL     1      -0.160  36.479  39.551  1.00  0.00    -0.183 F 
HETATM   45 CL3  UNL     1       1.752  36.681  37.754  1.00  0.00    -0.042 Cl
ENDBRANCH  40  42
ENDBRANCH  11  34
TORSDOF 5
ENDMDL
