MODEL 1
REMARK VINA RESULT: -11.159832857      0.000      0.000
REMARK  10 active torsions:
REMARK  status: ('A' for Active; 'I' for Inactive)
REMARK    1  A    between atoms: C2_2  and  C3_3 
REMARK    2  A    between atoms: C2_2  and  N1_8 
REMARK    3  A    between atoms: C3_3  and  C4_4 
REMARK    4  A    between atoms: C9_15  and  C10_16 
REMARK    5  A    between atoms: C13_19  and  O1_20 
REMARK    6  A    between atoms: O1_20  and  C14_21 
REMARK    7  A    between atoms: C14_21  and  C15_22 
REMARK    8  A    between atoms: N4_25  and  C18_26 
REMARK    9  A    between atoms: C18_26  and  N5_28 
REMARK   10  A    between atoms: C21_33  and  C22_34 
ROOT
HETATM    1  C10 UNL     1     -38.600  20.393  -9.569  1.00  0.00     0.018 A 
HETATM    2  C11 UNL     1     -37.708  19.512  -9.007  1.00  0.00     0.018 A 
HETATM    3  C12 UNL     1     -36.826  18.831  -9.818  1.00  0.00     0.038 A 
HETATM    4  C13 UNL     1     -36.820  19.013 -11.172  1.00  0.00     0.077 A 
HETATM    5  C21 UNL     1     -37.723  19.905 -11.743  1.00  0.00     0.009 A 
HETATM    6  C24 UNL     1     -38.606  20.590 -10.946  1.00  0.00     0.028 A 
ENDROOT
BRANCH   1   7
HETATM    7  C9  UNL     1     -39.543  21.122  -8.715  1.00  0.00     0.176 A 
HETATM    8  N3  UNL     1     -39.248  22.175  -7.940  1.00  0.00    -0.276 N 
HETATM    9  N2  UNL     1     -40.338  22.591  -7.301  1.00  0.00    -0.263 N 
ATOM     10  H3  UNL     1     -38.323  22.596  -7.853  1.00  0.00     0.189 HD
HETATM   11  C8  UNL     1     -41.337  21.767  -7.697  1.00  0.00     0.241 A 
ATOM     12  H2  UNL     1     -40.407  23.370  -6.646  1.00  0.00     0.190 HD
HETATM   13  N1  UNL     1     -42.550  21.883  -7.269  1.00  0.00    -0.350 N 
HETATM   14  O2  UNL     1     -40.823  20.902  -8.544  1.00  0.00    -0.259 OA
ATOM     15  H1  UNL     1     -42.769  22.625  -6.604  1.00  0.00     0.163 HD
BRANCH  13  16
HETATM   16  C2  UNL     1     -43.601  21.001  -7.698  1.00  0.00     0.081 C 
HETATM   17  C1  UNL     1     -43.552  19.696  -6.928  1.00  0.00     0.032 C 
BRANCH  16  18
HETATM   18  C3  UNL     1     -43.581  20.812  -9.167  1.00  0.00     0.029 C 
BRANCH  18  19
HETATM   19  C4  UNL     1     -44.875  20.240  -9.665  1.00  0.00    -0.013 C 
HETATM   20  C5  UNL     1     -45.163  20.806 -11.068  1.00  0.00     0.005 C 
HETATM   21  C6  UNL     1     -44.453  19.605 -11.634  1.00  0.00     0.001 C 
HETATM   22  C7  UNL     1     -44.791  18.891 -10.332  1.00  0.00     0.005 C 
ENDBRANCH  18  19
ENDBRANCH  16  18
ENDBRANCH  13  16
ENDBRANCH   1   7
BRANCH   5  23
HETATM   23  C22 UNL     1     -37.718  20.108 -13.235  1.00  0.00     0.202 C 
HETATM   24  C23 UNL     1     -38.035  21.558 -13.517  1.00  0.00     0.050 C 
HETATM   25  F2  UNL     1     -38.571  19.251 -13.858  1.00  0.00    -0.245 F 
ENDBRANCH   5  23
BRANCH   4  26
HETATM   26  O1  UNL     1     -35.949  18.348 -12.029  1.00  0.00    -0.350 OA
BRANCH  26  27
HETATM   27  C14 UNL     1     -35.690  16.977 -11.962  1.00  0.00     0.180 C 
BRANCH  27  28
HETATM   28  C15 UNL     1     -34.174  16.791 -11.999  1.00  0.00     0.013 C 
HETATM   29  C16 UNL     1     -33.801  15.858 -13.111  1.00  0.00     0.027 C 
HETATM   30  C17 UNL     1     -32.298  15.865 -13.299  1.00  0.00     0.126 C 
HETATM   31  N4  UNL     1     -31.677  16.030 -11.995  1.00  0.00    -0.356 N 
HETATM   32  C19 UNL     1     -32.342  15.570 -10.810  1.00  0.00     0.126 C 
HETATM   33  C20 UNL     1     -33.710  16.244 -10.648  1.00  0.00     0.027 C 
BRANCH  31  34
HETATM   34  C18 UNL     1     -30.404  16.653 -11.901  1.00  0.00     0.201 C 
HETATM   35 CL1  UNL     1     -28.998  15.998 -12.758  1.00  0.00    -0.043 Cl
BRANCH  34  36
HETATM   36  N5  UNL     1     -30.191  17.714 -11.201  1.00  0.00    -0.198 N 
HETATM   37  F1  UNL     1     -31.170  18.558 -10.851  1.00  0.00    -0.099 F 
ATOM     38  H5  UNL     1     -29.238  17.919 -10.902  1.00  0.00     0.202 HD
ENDBRANCH  34  36
ENDBRANCH  31  34
ENDBRANCH  27  28
ENDBRANCH  26  27
ENDBRANCH   4  26
TORSDOF 10
ENDMDL
MODEL 2
REMARK VINA RESULT: -11.121467950      3.836     10.210
REMARK  10 active torsions:
REMARK  status: ('A' for Active; 'I' for Inactive)
REMARK    1  A    between atoms: C2_2  and  C3_3 
REMARK    2  A    between atoms: C2_2  and  N1_8 
REMARK    3  A    between atoms: C3_3  and  C4_4 
REMARK    4  A    between atoms: C9_15  and  C10_16 
REMARK    5  A    between atoms: C13_19  and  O1_20 
REMARK    6  A    between atoms: O1_20  and  C14_21 
REMARK    7  A    between atoms: C14_21  and  C15_22 
REMARK    8  A    between atoms: N4_25  and  C18_26 
REMARK    9  A    between atoms: C18_26  and  N5_28 
REMARK   10  A    between atoms: C21_33  and  C22_34 
ROOT
HETATM    1  C10 UNL     1     -37.425  18.984  -8.638  1.00  0.00     0.018 A 
HETATM    2  C11 UNL     1     -38.187  18.825  -7.505  1.00  0.00     0.018 A 
HETATM    3  C12 UNL     1     -39.233  19.690  -7.265  1.00  0.00     0.038 A 
HETATM    4  C13 UNL     1     -39.529  20.704  -8.130  1.00  0.00     0.077 A 
HETATM    5  C21 UNL     1     -38.758  20.867  -9.278  1.00  0.00     0.009 A 
HETATM    6  C24 UNL     1     -37.714  20.012  -9.529  1.00  0.00     0.028 A 
ENDROOT
BRANCH   1   7
HETATM    7  C9  UNL     1     -36.310  18.070  -8.903  1.00  0.00     0.176 A 
HETATM    8  N3  UNL     1     -35.788  17.194  -8.032  1.00  0.00    -0.276 N 
HETATM    9  N2  UNL     1     -34.789  16.526  -8.600  1.00  0.00    -0.263 N 
ATOM     10  H3  UNL     1     -36.110  17.062  -7.073  1.00  0.00     0.189 HD
HETATM   11  C8  UNL     1     -34.694  17.004  -9.864  1.00  0.00     0.241 A 
ATOM     12  H2  UNL     1     -34.213  15.801  -8.173  1.00  0.00     0.190 HD
HETATM   13  N1  UNL     1     -33.819  16.573 -10.710  1.00  0.00    -0.350 N 
HETATM   14  O2  UNL     1     -35.621  17.926 -10.008  1.00  0.00    -0.259 OA
ATOM     15  H1  UNL     1     -33.171  15.841 -10.420  1.00  0.00     0.163 HD
BRANCH  13  16
HETATM   16  C2  UNL     1     -33.729  17.090 -12.049  1.00  0.00     0.081 C 
HETATM   17  C1  UNL     1     -35.035  16.883 -12.791  1.00  0.00     0.032 C 
BRANCH  16  18
HETATM   18  C3  UNL     1     -32.557  16.533 -12.764  1.00  0.00     0.029 C 
BRANCH  18  19
HETATM   19  C4  UNL     1     -31.526  16.012 -11.807  1.00  0.00    -0.013 C 
HETATM   20  C5  UNL     1     -30.673  14.949 -12.524  1.00  0.00     0.005 C 
HETATM   21  C6  UNL     1     -29.719  16.053 -12.898  1.00  0.00     0.001 C 
HETATM   22  C7  UNL     1     -30.257  16.818 -11.696  1.00  0.00     0.005 C 
ENDBRANCH  18  19
ENDBRANCH  16  18
ENDBRANCH  13  16
ENDBRANCH   1   7
BRANCH   5  23
HETATM   23  C22 UNL     1     -39.083  21.985 -10.233  1.00  0.00     0.202 C 
HETATM   24  C23 UNL     1     -39.346  21.383 -11.594  1.00  0.00     0.050 C 
HETATM   25  F2  UNL     1     -38.101  22.925 -10.254  1.00  0.00    -0.245 F 
ENDBRANCH   5  23
BRANCH   4  26
HETATM   26  O1  UNL     1     -40.573  21.601  -7.928  1.00  0.00    -0.350 OA
BRANCH  26  27
HETATM   27  C14 UNL     1     -41.855  21.221  -7.523  1.00  0.00     0.180 C 
BRANCH  27  28
HETATM   28  C15 UNL     1     -42.600  20.720  -8.759  1.00  0.00     0.013 C 
HETATM   29  C16 UNL     1     -42.575  21.768  -9.830  1.00  0.00     0.027 C 
HETATM   30  C17 UNL     1     -43.099  21.184 -11.127  1.00  0.00     0.126 C 
HETATM   31  N4  UNL     1     -44.145  20.227 -10.806  1.00  0.00    -0.356 N 
HETATM   32  C19 UNL     1     -44.928  20.380  -9.613  1.00  0.00     0.126 C 
HETATM   33  C20 UNL     1     -44.038  20.376  -8.364  1.00  0.00     0.027 C 
BRANCH  31  34
HETATM   34  C18 UNL     1     -44.387  19.136 -11.682  1.00  0.00     0.201 C 
HETATM   35 CL1  UNL     1     -44.679  17.505 -11.057  1.00  0.00    -0.043 Cl
BRANCH  34  36
HETATM   36  N5  UNL     1     -44.410  19.258 -12.965  1.00  0.00    -0.198 N 
HETATM   37  F1  UNL     1     -43.453  18.756 -13.756  1.00  0.00    -0.099 F 
ATOM     38  H5  UNL     1     -45.188  19.757 -13.395  1.00  0.00     0.202 HD
ENDBRANCH  34  36
ENDBRANCH  31  34
ENDBRANCH  27  28
ENDBRANCH  26  27
ENDBRANCH   4  26
TORSDOF 10
ENDMDL
MODEL 3
REMARK VINA RESULT: -11.083722070      1.258      1.583
REMARK  10 active torsions:
REMARK  status: ('A' for Active; 'I' for Inactive)
REMARK    1  A    between atoms: C2_2  and  C3_3 
REMARK    2  A    between atoms: C2_2  and  N1_8 
REMARK    3  A    between atoms: C3_3  and  C4_4 
REMARK    4  A    between atoms: C9_15  and  C10_16 
REMARK    5  A    between atoms: C13_19  and  O1_20 
REMARK    6  A    between atoms: O1_20  and  C14_21 
REMARK    7  A    between atoms: C14_21  and  C15_22 
REMARK    8  A    between atoms: N4_25  and  C18_26 
REMARK    9  A    between atoms: C18_26  and  N5_28 
REMARK   10  A    between atoms: C21_33  and  C22_34 
ROOT
HETATM    1  C10 UNL     1     -38.702  20.336  -8.752  1.00  0.00     0.018 A 
HETATM    2  C11 UNL     1     -37.771  19.648  -8.010  1.00  0.00     0.018 A 
HETATM    3  C12 UNL     1     -36.764  18.962  -8.654  1.00  0.00     0.038 A 
HETATM    4  C13 UNL     1     -36.671  18.951 -10.017  1.00  0.00     0.077 A 
HETATM    5  C21 UNL     1     -37.612  19.647 -10.770  1.00  0.00     0.009 A 
HETATM    6  C24 UNL     1     -38.620  20.335 -10.140  1.00  0.00     0.028 A 
ENDROOT
BRANCH   1   7
HETATM    7  C9  UNL     1     -39.778  21.069  -8.077  1.00  0.00     0.176 A 
HETATM    8  N3  UNL     1     -39.622  22.139  -7.284  1.00  0.00    -0.276 N 
HETATM    9  N2  UNL     1     -40.804  22.553  -6.839  1.00  0.00    -0.263 N 
ATOM     10  H3  UNL     1     -38.727  22.573  -7.057  1.00  0.00     0.189 HD
HETATM   11  C8  UNL     1     -41.719  21.710  -7.376  1.00  0.00     0.241 A 
ATOM     12  H2  UNL     1     -40.986  23.343  -6.220  1.00  0.00     0.190 HD
HETATM   13  N1  UNL     1     -42.986  21.819  -7.153  1.00  0.00    -0.350 N 
HETATM   14  O2  UNL     1     -41.066  20.836  -8.111  1.00  0.00    -0.259 OA
ATOM     15  H1  UNL     1     -43.317  22.571  -6.547  1.00  0.00     0.163 HD
BRANCH  13  16
HETATM   16  C2  UNL     1     -43.945  20.917  -7.729  1.00  0.00     0.081 C 
HETATM   17  C1  UNL     1     -43.943  19.592  -6.993  1.00  0.00     0.032 C 
BRANCH  16  18
HETATM   18  C3  UNL     1     -43.741  20.773  -9.190  1.00  0.00     0.029 C 
BRANCH  18  19
HETATM   19  C4  UNL     1     -44.949  20.185  -9.858  1.00  0.00    -0.013 C 
HETATM   20  C5  UNL     1     -45.125  20.845 -11.238  1.00  0.00     0.005 C 
HETATM   21  C6  UNL     1     -44.301  19.723 -11.813  1.00  0.00     0.001 C 
HETATM   22  C7  UNL     1     -44.730  18.897 -10.607  1.00  0.00     0.005 C 
ENDBRANCH  18  19
ENDBRANCH  16  18
ENDBRANCH  13  16
ENDBRANCH   1   7
BRANCH   5  23
HETATM   23  C22 UNL     1     -37.512  19.636 -12.272  1.00  0.00     0.202 C 
HETATM   24  C23 UNL     1     -38.302  20.807 -12.808  1.00  0.00     0.050 C 
HETATM   25  F2  UNL     1     -37.915  18.446 -12.791  1.00  0.00    -0.245 F 
ENDBRANCH   5  23
BRANCH   4  26
HETATM   26  O1  UNL     1     -35.673  18.273 -10.709  1.00  0.00    -0.350 OA
BRANCH  26  27
HETATM   27  C14 UNL     1     -35.485  16.890 -10.643  1.00  0.00     0.180 C 
BRANCH  27  28
HETATM   28  C15 UNL     1     -34.090  16.588 -11.187  1.00  0.00     0.013 C 
HETATM   29  C16 UNL     1     -33.247  15.965 -10.115  1.00  0.00     0.027 C 
HETATM   30  C17 UNL     1     -31.956  15.449 -10.718  1.00  0.00     0.126 C 
HETATM   31  N4  UNL     1     -31.559  16.351 -11.786  1.00  0.00    -0.356 N 
HETATM   32  C19 UNL     1     -31.936  17.734 -11.746  1.00  0.00     0.126 C 
HETATM   33  C20 UNL     1     -33.461  17.890 -11.689  1.00  0.00     0.027 C 
BRANCH  31  34
HETATM   34  C18 UNL     1     -30.794  15.852 -12.873  1.00  0.00     0.201 C 
HETATM   35 CL1  UNL     1     -29.027  15.969 -12.880  1.00  0.00    -0.043 Cl
BRANCH  34  36
HETATM   36  N5  UNL     1     -31.324  15.293 -13.907  1.00  0.00    -0.198 N 
HETATM   37  F1  UNL     1     -32.585  14.845 -13.919  1.00  0.00    -0.099 F 
ATOM     38  H5  UNL     1     -30.759  15.188 -14.749  1.00  0.00     0.202 HD
ENDBRANCH  34  36
ENDBRANCH  31  34
ENDBRANCH  27  28
ENDBRANCH  26  27
ENDBRANCH   4  26
TORSDOF 10
ENDMDL
MODEL 4
REMARK VINA RESULT: -10.798470187      1.365      1.740
REMARK  10 active torsions:
REMARK  status: ('A' for Active; 'I' for Inactive)
REMARK    1  A    between atoms: C2_2  and  C3_3 
REMARK    2  A    between atoms: C2_2  and  N1_8 
REMARK    3  A    between atoms: C3_3  and  C4_4 
REMARK    4  A    between atoms: C9_15  and  C10_16 
REMARK    5  A    between atoms: C13_19  and  O1_20 
REMARK    6  A    between atoms: O1_20  and  C14_21 
REMARK    7  A    between atoms: C14_21  and  C15_22 
REMARK    8  A    between atoms: N4_25  and  C18_26 
REMARK    9  A    between atoms: C18_26  and  N5_28 
REMARK   10  A    between atoms: C21_33  and  C22_34 
ROOT
HETATM    1  C10 UNL     1     -38.139  19.467  -8.327  1.00  0.00     0.018 A 
HETATM    2  C11 UNL     1     -37.078  18.610  -8.154  1.00  0.00     0.018 A 
HETATM    3  C12 UNL     1     -36.290  18.281  -9.235  1.00  0.00     0.038 A 
HETATM    4  C13 UNL     1     -36.541  18.788 -10.478  1.00  0.00     0.077 A 
HETATM    5  C21 UNL     1     -37.615  19.655 -10.656  1.00  0.00     0.009 A 
HETATM    6  C24 UNL     1     -38.408  19.992  -9.586  1.00  0.00     0.028 A 
ENDROOT
BRANCH   1   7
HETATM    7  C9  UNL     1     -38.985  19.823  -7.184  1.00  0.00     0.176 A 
HETATM    8  N3  UNL     1     -38.742  19.517  -5.901  1.00  0.00    -0.276 N 
HETATM    9  N2  UNL     1     -39.712  19.993  -5.126  1.00  0.00    -0.263 N 
ATOM     10  H3  UNL     1     -37.931  18.994  -5.568  1.00  0.00     0.189 HD
HETATM   11  C8  UNL     1     -40.581  20.615  -5.959  1.00  0.00     0.241 A 
ATOM     12  H2  UNL     1     -39.787  19.908  -4.113  1.00  0.00     0.190 HD
HETATM   13  N1  UNL     1     -41.654  21.199  -5.541  1.00  0.00    -0.350 N 
HETATM   14  O2  UNL     1     -40.112  20.492  -7.182  1.00  0.00    -0.259 OA
ATOM     15  H1  UNL     1     -41.860  21.194  -4.542  1.00  0.00     0.163 HD
BRANCH  13  16
HETATM   16  C2  UNL     1     -42.568  21.854  -6.437  1.00  0.00     0.081 C 
HETATM   17  C1  UNL     1     -43.143  23.101  -5.796  1.00  0.00     0.032 C 
BRANCH  16  18
HETATM   18  C3  UNL     1     -43.607  20.918  -6.928  1.00  0.00     0.029 C 
BRANCH  18  19
HETATM   19  C4  UNL     1     -43.168  20.217  -8.179  1.00  0.00    -0.013 C 
HETATM   20  C5  UNL     1     -44.372  19.468  -8.779  1.00  0.00     0.005 C 
HETATM   21  C6  UNL     1     -44.649  20.697  -9.604  1.00  0.00     0.001 C 
HETATM   22  C7  UNL     1     -43.175  21.043  -9.439  1.00  0.00     0.005 C 
ENDBRANCH  18  19
ENDBRANCH  16  18
ENDBRANCH  13  16
ENDBRANCH   1   7
BRANCH   5  23
HETATM   23  C22 UNL     1     -37.894  20.216 -12.025  1.00  0.00     0.202 C 
HETATM   24  C23 UNL     1     -38.815  21.403 -11.872  1.00  0.00     0.050 C 
HETATM   25  F2  UNL     1     -38.392  19.266 -12.861  1.00  0.00    -0.245 F 
ENDBRANCH   5  23
BRANCH   4  26
HETATM   26  O1  UNL     1     -35.773  18.483 -11.597  1.00  0.00    -0.350 OA
BRANCH  26  27
HETATM   27  C14 UNL     1     -35.576  17.186 -12.074  1.00  0.00     0.180 C 
BRANCH  27  28
HETATM   28  C15 UNL     1     -34.072  16.919 -12.080  1.00  0.00     0.013 C 
HETATM   29  C16 UNL     1     -33.729  15.951 -13.172  1.00  0.00     0.027 C 
HETATM   30  C17 UNL     1     -32.224  15.876 -13.332  1.00  0.00     0.126 C 
HETATM   31  N4  UNL     1     -31.619  16.027 -12.019  1.00  0.00    -0.356 N 
HETATM   32  C19 UNL     1     -32.329  15.619 -10.841  1.00  0.00     0.126 C 
HETATM   33  C20 UNL     1     -33.662  16.367 -10.712  1.00  0.00     0.027 C 
BRANCH  31  34
HETATM   34  C18 UNL     1     -30.317  16.583 -11.910  1.00  0.00     0.201 C 
HETATM   35 CL1  UNL     1     -28.949  15.895 -12.801  1.00  0.00    -0.043 Cl
BRANCH  34  36
HETATM   36  N5  UNL     1     -30.048  17.603 -11.170  1.00  0.00    -0.198 N 
HETATM   37  F1  UNL     1     -30.966  18.522 -10.846  1.00  0.00    -0.099 F 
ATOM     38  H5  UNL     1     -29.098  17.715 -10.817  1.00  0.00     0.202 HD
ENDBRANCH  34  36
ENDBRANCH  31  34
ENDBRANCH  27  28
ENDBRANCH  26  27
ENDBRANCH   4  26
TORSDOF 10
ENDMDL
MODEL 5
REMARK VINA RESULT: -10.749650986      4.029     10.501
REMARK  10 active torsions:
REMARK  status: ('A' for Active; 'I' for Inactive)
REMARK    1  A    between atoms: C2_2  and  C3_3 
REMARK    2  A    between atoms: C2_2  and  N1_8 
REMARK    3  A    between atoms: C3_3  and  C4_4 
REMARK    4  A    between atoms: C9_15  and  C10_16 
REMARK    5  A    between atoms: C13_19  and  O1_20 
REMARK    6  A    between atoms: O1_20  and  C14_21 
REMARK    7  A    between atoms: C14_21  and  C15_22 
REMARK    8  A    between atoms: N4_25  and  C18_26 
REMARK    9  A    between atoms: C18_26  and  N5_28 
REMARK   10  A    between atoms: C21_33  and  C22_34 
ROOT
HETATM    1  C10 UNL     1     -37.197  18.885  -7.814  1.00  0.00     0.018 A 
HETATM    2  C11 UNL     1     -37.885  18.579  -6.664  1.00  0.00     0.018 A 
HETATM    3  C12 UNL     1     -38.850  19.447  -6.200  1.00  0.00     0.038 A 
HETATM    4  C13 UNL     1     -39.137  20.608  -6.859  1.00  0.00     0.077 A 
HETATM    5  C21 UNL     1     -38.441  20.920  -8.024  1.00  0.00     0.009 A 
HETATM    6  C24 UNL     1     -37.479  20.063  -8.497  1.00  0.00     0.028 A 
ENDROOT
BRANCH   1   7
HETATM    7  C9  UNL     1     -36.169  17.969  -8.316  1.00  0.00     0.176 A 
HETATM    8  N3  UNL     1     -35.654  16.924  -7.650  1.00  0.00    -0.276 N 
HETATM    9  N2  UNL     1     -34.744  16.309  -8.399  1.00  0.00    -0.263 N 
ATOM     10  H3  UNL     1     -35.922  16.643  -6.706  1.00  0.00     0.189 HD
HETATM   11  C8  UNL     1     -34.698  16.996  -9.565  1.00  0.00     0.241 A 
ATOM     12  H2  UNL     1     -34.194  15.488  -8.148  1.00  0.00     0.190 HD
HETATM   13  N1  UNL     1     -33.912  16.671 -10.537  1.00  0.00    -0.350 N 
HETATM   14  O2  UNL     1     -35.564  17.981  -9.478  1.00  0.00    -0.259 OA
ATOM     15  H1  UNL     1     -33.299  15.863 -10.427  1.00  0.00     0.163 HD
BRANCH  13  16
HETATM   16  C2  UNL     1     -33.872  17.410 -11.770  1.00  0.00     0.081 C 
HETATM   17  C1  UNL     1     -34.988  16.967 -12.695  1.00  0.00     0.032 C 
BRANCH  16  18
HETATM   18  C3  UNL     1     -32.532  17.341 -12.397  1.00  0.00     0.029 C 
BRANCH  18  19
HETATM   19  C4  UNL     1     -31.596  16.480 -11.601  1.00  0.00    -0.013 C 
HETATM   20  C5  UNL     1     -31.312  15.189 -12.391  1.00  0.00     0.005 C 
HETATM   21  C6  UNL     1     -30.114  15.886 -12.982  1.00  0.00     0.001 C 
HETATM   22  C7  UNL     1     -30.128  16.782 -11.750  1.00  0.00     0.005 C 
ENDBRANCH  18  19
ENDBRANCH  16  18
ENDBRANCH  13  16
ENDBRANCH   1   7
BRANCH   5  23
HETATM   23  C22 UNL     1     -38.757  22.199  -8.753  1.00  0.00     0.202 C 
HETATM   24  C23 UNL     1     -38.757  21.911 -10.237  1.00  0.00     0.050 C 
HETATM   25  F2  UNL     1     -37.896  23.195  -8.410  1.00  0.00    -0.245 F 
ENDBRANCH   5  23
BRANCH   4  26
HETATM   26  O1  UNL     1     -40.101  21.514  -6.429  1.00  0.00    -0.350 OA
BRANCH  26  27
HETATM   27  C14 UNL     1     -41.275  21.143  -5.770  1.00  0.00     0.180 C 
BRANCH  27  28
HETATM   28  C15 UNL     1     -42.298  20.751  -6.835  1.00  0.00     0.013 C 
HETATM   29  C16 UNL     1     -43.570  21.515  -6.627  1.00  0.00     0.027 C 
HETATM   30  C17 UNL     1     -44.488  21.308  -7.814  1.00  0.00     0.126 C 
HETATM   31  N4  UNL     1     -44.305  19.951  -8.301  1.00  0.00    -0.356 N 
HETATM   32  C19 UNL     1     -43.893  18.908  -7.406  1.00  0.00     0.126 C 
HETATM   33  C20 UNL     1     -42.547  19.243  -6.751  1.00  0.00     0.027 C 
BRANCH  31  34
HETATM   34  C18 UNL     1     -44.537  19.662  -9.672  1.00  0.00     0.201 C 
HETATM   35 CL1  UNL     1     -44.714  17.994 -10.241  1.00  0.00    -0.043 Cl
BRANCH  34  36
HETATM   36  N5  UNL     1     -44.631  20.577 -10.575  1.00  0.00    -0.198 N 
HETATM   37  F1  UNL     1     -45.799  21.126 -10.929  1.00  0.00    -0.099 F 
ATOM     38  H5  UNL     1     -43.780  20.895 -11.039  1.00  0.00     0.202 HD
ENDBRANCH  34  36
ENDBRANCH  31  34
ENDBRANCH  27  28
ENDBRANCH  26  27
ENDBRANCH   4  26
TORSDOF 10
ENDMDL
