MODEL 1
REMARK VINA RESULT: -8.274505773      0.000      0.000
REMARK  20 active torsions:
REMARK  status: ('A' for Active; 'I' for Inactive)
REMARK    1  A    between atoms: C2_2  and  C27_40 
REMARK    2  A    between atoms: C3_3  and  C4_4 
REMARK    3  A    between atoms: C4_4  and  C6_6 
REMARK    4  A    between atoms: C6_6  and  C7_7 
REMARK    5  A    between atoms: C7_7  and  C8_8 
REMARK    6  A    between atoms: C8_8  and  O1_9 
REMARK    7  A    between atoms: C8_8  and  C9_11 
REMARK    8  A    between atoms: C9_11  and  O2_12 
REMARK    9  A    between atoms: C9_11  and  C10_14 
REMARK   10  A    between atoms: C10_14  and  O3_15 
REMARK   11  A    between atoms: C10_14  and  C11_17 
REMARK   12  A    between atoms: C11_17  and  O4_18 
REMARK   13  A    between atoms: C11_17  and  C12_20 
REMARK   14  A    between atoms: C12_20  and  O5_21 
REMARK   15  A    between atoms: C12_20  and  C13_23 
REMARK   16  A    between atoms: C13_23  and  C15_25 
REMARK   17  A    between atoms: C15_25  and  C16_26 
REMARK   18  A    between atoms: C17_28  and  C18_29 
REMARK   19  A    between atoms: C18_29  and  C21_32 
REMARK   20  A    between atoms: C21_32  and  O7_35 
ROOT
HETATM    1  C11 UNL     1       9.661  38.671  -4.008  1.00  0.00     0.178 C 
ENDROOT
BRANCH   1   2
HETATM    2  C10 UNL     1      10.541  38.333  -5.132  1.00  0.00     0.181 C 
BRANCH   2   3
HETATM    3  C9  UNL     1      11.165  39.541  -5.812  1.00  0.00     0.181 C 
BRANCH   3   4
HETATM    4  C8  UNL     1      11.279  39.178  -7.292  1.00  0.00     0.172 C 
BRANCH   4   5
HETATM    5  C7  UNL     1      12.698  39.124  -7.732  1.00  0.00     0.004 C 
BRANCH   5   6
HETATM    6  C6  UNL     1      13.157  38.273  -8.609  1.00  0.00    -0.020 C 
BRANCH   6   7
HETATM    7  C4  UNL     1      13.384  38.646 -10.069  1.00  0.00     0.027 C 
HETATM    8  C5  UNL     1      14.401  39.692 -10.190  1.00  0.00     0.018 C 
BRANCH   7   9
HETATM    9  C3  UNL     1      13.379  37.436 -10.858  1.00  0.00    -0.012 C 
HETATM   10  C2  UNL     1      13.521  36.962 -12.018  1.00  0.00    -0.064 C 
HETATM   11  C1  UNL     1      13.350  35.385 -12.051  1.00  0.00     0.048 C 
BRANCH  10  12
HETATM   12  C27 UNL     1      13.779  37.451 -13.354  1.00  0.00    -0.082 C 
HETATM   13  C28 UNL     1      14.617  38.625 -13.647  1.00  0.00     0.043 C 
HETATM   14  C29 UNL     1      14.128  36.268 -14.301  1.00  0.00     0.043 C 
ENDBRANCH  10  12
ENDBRANCH   7   9
ENDBRANCH   6   7
ENDBRANCH   5   6
ENDBRANCH   4   5
BRANCH   4  15
HETATM   15  O1  UNL     1      10.651  37.931  -7.520  1.00  0.00    -0.389 OA
ATOM     16  H1  UNL     1       9.775  37.935  -7.154  1.00  0.00     0.210 HD
ENDBRANCH   4  15
ENDBRANCH   3   4
BRANCH   3  17
HETATM   17  O2  UNL     1      10.359  40.669  -5.767  1.00  0.00    -0.390 OA
ATOM     18  H2  UNL     1       9.645  40.498  -6.369  1.00  0.00     0.210 HD
ENDBRANCH   3  17
ENDBRANCH   2   3
BRANCH   2  19
HETATM   19  O3  UNL     1      11.502  37.382  -4.954  1.00  0.00    -0.390 OA
ATOM     20  H3  UNL     1      11.344  36.936  -4.130  1.00  0.00     0.210 HD
ENDBRANCH   2  19
ENDBRANCH   1   2
BRANCH   1  21
HETATM   21  O4  UNL     1       8.812  37.605  -3.711  1.00  0.00    -0.390 OA
ATOM     22  H4  UNL     1       8.033  37.913  -3.265  1.00  0.00     0.210 HD
ENDBRANCH   1  21
BRANCH   1  23
HETATM   23  C12 UNL     1      10.172  39.288  -2.783  1.00  0.00     0.153 C 
BRANCH  23  24
HETATM   24  O5  UNL     1      11.382  38.774  -2.327  1.00  0.00    -0.393 OA
ATOM     25  H5  UNL     1      11.489  38.777  -1.383  1.00  0.00     0.210 HD
ENDBRANCH  23  24
BRANCH  23  26
HETATM   26  C13 UNL     1       9.270  39.513  -1.626  1.00  0.00     0.015 C 
HETATM   27  C14 UNL     1       9.747  38.929  -0.315  1.00  0.00     0.012 C 
BRANCH  26  28
HETATM   28  C15 UNL     1       9.023  40.987  -1.380  1.00  0.00     0.039 C 
BRANCH  28  29
HETATM   29  C16 UNL     1       8.614  41.772  -2.579  1.00  0.00     0.126 C 
HETATM   30  O6  UNL     1       8.712  43.154  -2.353  1.00  0.00    -0.379 OA
HETATM   31  C17 UNL     1       7.500  43.508  -1.744  1.00  0.00     0.133 C 
HETATM   32  C24 UNL     1       6.493  42.800  -2.573  1.00  0.00     0.039 C 
HETATM   33  C25 UNL     1       7.210  41.529  -3.003  1.00  0.00     0.013 C 
HETATM   34  C26 UNL     1       7.089  41.346  -4.514  1.00  0.00     0.012 C 
BRANCH  31  35
HETATM   35  C18 UNL     1       7.391  45.018  -1.748  1.00  0.00     0.009 C 
HETATM   36  C19 UNL     1       8.779  45.498  -2.243  1.00  0.00     0.020 C 
HETATM   37  C20 UNL     1       6.389  45.527  -2.724  1.00  0.00     0.020 C 
BRANCH  35  38
HETATM   38  C21 UNL     1       7.262  45.549  -0.369  1.00  0.00     0.060 C 
HETATM   39  C22 UNL     1       6.383  44.829   0.580  1.00  0.00     0.046 C 
HETATM   40  C23 UNL     1       6.839  47.027  -0.420  1.00  0.00     0.046 C 
BRANCH  38  41
HETATM   41  O7  UNL     1       8.561  45.579   0.188  1.00  0.00    -0.390 OA
ATOM     42  H7  UNL     1       8.538  46.185   0.919  1.00  0.00     0.210 HD
ENDBRANCH  38  41
ENDBRANCH  35  38
ENDBRANCH  31  35
ENDBRANCH  28  29
ENDBRANCH  26  28
ENDBRANCH  23  26
ENDBRANCH   1  23
TORSDOF 20
ENDMDL
MODEL 2
REMARK VINA RESULT: -8.135089246      3.595      9.801
REMARK  20 active torsions:
REMARK  status: ('A' for Active; 'I' for Inactive)
REMARK    1  A    between atoms: C2_2  and  C27_40 
REMARK    2  A    between atoms: C3_3  and  C4_4 
REMARK    3  A    between atoms: C4_4  and  C6_6 
REMARK    4  A    between atoms: C6_6  and  C7_7 
REMARK    5  A    between atoms: C7_7  and  C8_8 
REMARK    6  A    between atoms: C8_8  and  O1_9 
REMARK    7  A    between atoms: C8_8  and  C9_11 
REMARK    8  A    between atoms: C9_11  and  O2_12 
REMARK    9  A    between atoms: C9_11  and  C10_14 
REMARK   10  A    between atoms: C10_14  and  O3_15 
REMARK   11  A    between atoms: C10_14  and  C11_17 
REMARK   12  A    between atoms: C11_17  and  O4_18 
REMARK   13  A    between atoms: C11_17  and  C12_20 
REMARK   14  A    between atoms: C12_20  and  O5_21 
REMARK   15  A    between atoms: C12_20  and  C13_23 
REMARK   16  A    between atoms: C13_23  and  C15_25 
REMARK   17  A    between atoms: C15_25  and  C16_26 
REMARK   18  A    between atoms: C17_28  and  C18_29 
REMARK   19  A    between atoms: C18_29  and  C21_32 
REMARK   20  A    between atoms: C21_32  and  O7_35 
ROOT
HETATM    1  C11 UNL     1      13.461  37.862  -9.078  1.00  0.00     0.178 C 
ENDROOT
BRANCH   1   2
HETATM    2  C10 UNL     1      12.325  38.381  -8.308  1.00  0.00     0.181 C 
BRANCH   2   3
HETATM    3  C9  UNL     1      12.450  38.174  -6.807  1.00  0.00     0.181 C 
BRANCH   3   4
HETATM    4  C8  UNL     1      11.313  38.976  -6.175  1.00  0.00     0.172 C 
BRANCH   4   5
HETATM    5  C7  UNL     1      10.739  38.274  -4.998  1.00  0.00     0.004 C 
BRANCH   5   6
HETATM    6  C6  UNL     1       9.497  38.391  -4.614  1.00  0.00    -0.020 C 
BRANCH   6   7
HETATM    7  C4  UNL     1       9.115  38.779  -3.190  1.00  0.00     0.027 C 
HETATM    8  C5  UNL     1       8.086  39.822  -3.191  1.00  0.00     0.018 C 
BRANCH   7   9
HETATM    9  C3  UNL     1       9.040  37.579  -2.390  1.00  0.00    -0.012 C 
HETATM   10  C2  UNL     1       9.110  37.115  -1.220  1.00  0.00    -0.064 C 
HETATM   11  C1  UNL     1       8.894  35.544  -1.180  1.00  0.00     0.048 C 
BRANCH  10  12
HETATM   12  C27 UNL     1       9.355  37.607   0.118  1.00  0.00    -0.082 C 
HETATM   13  C28 UNL     1       9.966  38.913   0.409  1.00  0.00     0.043 C 
HETATM   14  C29 UNL     1       8.108  37.363   1.016  1.00  0.00     0.043 C 
ENDBRANCH  10  12
ENDBRANCH   7   9
ENDBRANCH   6   7
ENDBRANCH   5   6
ENDBRANCH   4   5
BRANCH   4  15
HETATM   15  O1  UNL     1      11.792  40.252  -5.794  1.00  0.00    -0.389 OA
ATOM     16  H1  UNL     1      12.400  40.580  -6.446  1.00  0.00     0.210 HD
ENDBRANCH   4  15
ENDBRANCH   3   4
BRANCH   3  17
HETATM   17  O2  UNL     1      12.240  36.860  -6.418  1.00  0.00    -0.390 OA
ATOM     18  H2  UNL     1      12.757  36.742  -5.629  1.00  0.00     0.210 HD
ENDBRANCH   3  17
ENDBRANCH   2   3
BRANCH   2  19
HETATM   19  O3  UNL     1      11.895  39.653  -8.543  1.00  0.00    -0.390 OA
ATOM     20  H3  UNL     1      11.746  39.760  -9.476  1.00  0.00     0.210 HD
ENDBRANCH   2  19
ENDBRANCH   1   2
BRANCH   1  21
HETATM   21  O4  UNL     1      14.109  36.849  -8.373  1.00  0.00    -0.390 OA
ATOM     22  H4  UNL     1      14.123  36.046  -8.879  1.00  0.00     0.210 HD
ENDBRANCH   1  21
BRANCH   1  23
HETATM   23  C12 UNL     1      13.343  37.520 -10.495  1.00  0.00     0.153 C 
BRANCH  23  24
HETATM   24  O5  UNL     1      13.297  36.157 -10.769  1.00  0.00    -0.393 OA
ATOM     25  H5  UNL     1      14.142  35.720 -10.778  1.00  0.00     0.210 HD
ENDBRANCH  23  24
BRANCH  23  26
HETATM   26  C13 UNL     1      14.205  38.191 -11.501  1.00  0.00     0.015 C 
HETATM   27  C14 UNL     1      13.899  37.848 -12.942  1.00  0.00     0.012 C 
BRANCH  26  28
HETATM   28  C15 UNL     1      14.136  39.700 -11.389  1.00  0.00     0.039 C 
BRANCH  28  29
HETATM   29  C16 UNL     1      15.150  40.317 -10.488  1.00  0.00     0.126 C 
HETATM   30  O6  UNL     1      14.550  41.115  -9.501  1.00  0.00    -0.379 OA
HETATM   31  C17 UNL     1      14.368  42.365 -10.106  1.00  0.00     0.133 C 
HETATM   32  C24 UNL     1      15.668  42.598 -10.785  1.00  0.00     0.039 C 
HETATM   33  C25 UNL     1      16.116  41.202 -11.192  1.00  0.00     0.013 C 
HETATM   34  C26 UNL     1      17.554  40.961 -10.737  1.00  0.00     0.012 C 
BRANCH  31  35
HETATM   35  C18 UNL     1      14.017  43.368  -9.027  1.00  0.00     0.009 C 
HETATM   36  C19 UNL     1      14.753  42.844  -7.768  1.00  0.00     0.020 C 
HETATM   37  C20 UNL     1      14.552  44.729  -9.300  1.00  0.00     0.020 C 
BRANCH  35  38
HETATM   38  C21 UNL     1      12.574  43.307  -8.690  1.00  0.00     0.060 C 
HETATM   39  C22 UNL     1      11.613  42.999  -9.774  1.00  0.00     0.046 C 
HETATM   40  C23 UNL     1      12.148  44.615  -8.001  1.00  0.00     0.046 C 
BRANCH  38  41
HETATM   41  O7  UNL     1      12.421  42.322  -7.689  1.00  0.00    -0.390 OA
ATOM     42  H7  UNL     1      12.908  42.618  -6.929  1.00  0.00     0.210 HD
ENDBRANCH  38  41
ENDBRANCH  35  38
ENDBRANCH  31  35
ENDBRANCH  28  29
ENDBRANCH  26  28
ENDBRANCH  23  26
ENDBRANCH   1  23
TORSDOF 20
ENDMDL
MODEL 3
REMARK VINA RESULT: -8.103304075      2.596      9.255
REMARK  20 active torsions:
REMARK  status: ('A' for Active; 'I' for Inactive)
REMARK    1  A    between atoms: C2_2  and  C27_40 
REMARK    2  A    between atoms: C3_3  and  C4_4 
REMARK    3  A    between atoms: C4_4  and  C6_6 
REMARK    4  A    between atoms: C6_6  and  C7_7 
REMARK    5  A    between atoms: C7_7  and  C8_8 
REMARK    6  A    between atoms: C8_8  and  O1_9 
REMARK    7  A    between atoms: C8_8  and  C9_11 
REMARK    8  A    between atoms: C9_11  and  O2_12 
REMARK    9  A    between atoms: C9_11  and  C10_14 
REMARK   10  A    between atoms: C10_14  and  O3_15 
REMARK   11  A    between atoms: C10_14  and  C11_17 
REMARK   12  A    between atoms: C11_17  and  O4_18 
REMARK   13  A    between atoms: C11_17  and  C12_20 
REMARK   14  A    between atoms: C12_20  and  O5_21 
REMARK   15  A    between atoms: C12_20  and  C13_23 
REMARK   16  A    between atoms: C13_23  and  C15_25 
REMARK   17  A    between atoms: C15_25  and  C16_26 
REMARK   18  A    between atoms: C17_28  and  C18_29 
REMARK   19  A    between atoms: C18_29  and  C21_32 
REMARK   20  A    between atoms: C21_32  and  O7_35 
ROOT
HETATM    1  C11 UNL     1      13.153  37.930  -8.554  1.00  0.00     0.178 C 
ENDROOT
BRANCH   1   2
HETATM    2  C10 UNL     1      11.970  38.380  -7.812  1.00  0.00     0.181 C 
BRANCH   2   3
HETATM    3  C9  UNL     1      12.054  38.140  -6.313  1.00  0.00     0.181 C 
BRANCH   3   4
HETATM    4  C8  UNL     1      10.871  38.889  -5.700  1.00  0.00     0.172 C 
BRANCH   4   5
HETATM    5  C7  UNL     1      10.375  38.213  -4.473  1.00  0.00     0.004 C 
BRANCH   5   6
HETATM    6  C6  UNL     1       9.128  38.222  -4.090  1.00  0.00    -0.020 C 
BRANCH   6   7
HETATM    7  C4  UNL     1       8.606  39.181  -3.025  1.00  0.00     0.027 C 
HETATM    8  C5  UNL     1       9.456  39.151  -1.833  1.00  0.00     0.018 C 
BRANCH   7   9
HETATM    9  C3  UNL     1       8.175  40.397  -3.673  1.00  0.00    -0.012 C 
HETATM   10  C2  UNL     1       7.716  41.556  -3.486  1.00  0.00    -0.064 C 
HETATM   11  C1  UNL     1       7.497  42.344  -4.846  1.00  0.00     0.048 C 
BRANCH  10  12
HETATM   12  C27 UNL     1       7.305  42.383  -2.373  1.00  0.00    -0.082 C 
HETATM   13  C28 UNL     1       8.239  43.158  -1.542  1.00  0.00     0.043 C 
HETATM   14  C29 UNL     1       6.069  43.240  -2.769  1.00  0.00     0.043 C 
ENDBRANCH  10  12
ENDBRANCH   7   9
ENDBRANCH   6   7
ENDBRANCH   5   6
ENDBRANCH   4   5
BRANCH   4  15
HETATM   15  O1  UNL     1      11.260  40.216  -5.400  1.00  0.00    -0.389 OA
ATOM     16  H1  UNL     1      12.201  40.308  -5.488  1.00  0.00     0.210 HD
ENDBRANCH   4  15
ENDBRANCH   3   4
BRANCH   3  17
HETATM   17  O2  UNL     1      11.875  36.810  -5.963  1.00  0.00    -0.390 OA
ATOM     18  H2  UNL     1      12.158  36.744  -5.058  1.00  0.00     0.210 HD
ENDBRANCH   3  17
ENDBRANCH   2   3
BRANCH   2  19
HETATM   19  O3  UNL     1      11.494  39.639  -8.030  1.00  0.00    -0.390 OA
ATOM     20  H3  UNL     1      12.049  40.261  -7.574  1.00  0.00     0.210 HD
ENDBRANCH   2  19
ENDBRANCH   1   2
BRANCH   1  21
HETATM   21  O4  UNL     1      13.795  36.897  -7.874  1.00  0.00    -0.390 OA
ATOM     22  H4  UNL     1      14.474  36.513  -8.415  1.00  0.00     0.210 HD
ENDBRANCH   1  21
BRANCH   1  23
HETATM   23  C12 UNL     1      13.107  37.660  -9.992  1.00  0.00     0.153 C 
BRANCH  23  24
HETATM   24  O5  UNL     1      13.075  36.313 -10.337  1.00  0.00    -0.393 OA
ATOM     25  H5  UNL     1      13.703  35.766  -9.878  1.00  0.00     0.210 HD
ENDBRANCH  23  24
BRANCH  23  26
HETATM   26  C13 UNL     1      14.018  38.379 -10.917  1.00  0.00     0.015 C 
HETATM   27  C14 UNL     1      13.923  37.961 -12.368  1.00  0.00     0.012 C 
BRANCH  26  28
HETATM   28  C15 UNL     1      13.794  39.877 -10.882  1.00  0.00     0.039 C 
BRANCH  28  29
HETATM   29  C16 UNL     1      14.721  40.636  -9.996  1.00  0.00     0.126 C 
HETATM   30  O6  UNL     1      14.045  41.212  -8.909  1.00  0.00    -0.379 OA
HETATM   31  C17 UNL     1      13.553  42.432  -9.392  1.00  0.00     0.133 C 
HETATM   32  C24 UNL     1      14.715  42.990 -10.127  1.00  0.00     0.039 C 
HETATM   33  C25 UNL     1      15.418  41.759 -10.679  1.00  0.00     0.013 C 
HETATM   34  C26 UNL     1      16.905  41.806 -10.337  1.00  0.00     0.012 C 
BRANCH  31  35
HETATM   35  C18 UNL     1      13.083  43.254  -8.211  1.00  0.00     0.009 C 
HETATM   36  C19 UNL     1      13.549  42.445  -6.975  1.00  0.00     0.020 C 
HETATM   37  C20 UNL     1      13.744  44.585  -8.127  1.00  0.00     0.020 C 
BRANCH  35  38
HETATM   38  C21 UNL     1      11.601  43.274  -8.129  1.00  0.00     0.060 C 
HETATM   39  C22 UNL     1      10.828  42.857  -9.321  1.00  0.00     0.046 C 
HETATM   40  C23 UNL     1      11.125  44.668  -7.687  1.00  0.00     0.046 C 
BRANCH  38  41
HETATM   41  O7  UNL     1      11.233  42.426  -7.060  1.00  0.00    -0.390 OA
ATOM     42  H7  UNL     1      10.517  41.883  -7.368  1.00  0.00     0.210 HD
ENDBRANCH  38  41
ENDBRANCH  35  38
ENDBRANCH  31  35
ENDBRANCH  28  29
ENDBRANCH  26  28
ENDBRANCH  23  26
ENDBRANCH   1  23
TORSDOF 20
ENDMDL
MODEL 4
REMARK VINA RESULT: -8.053000850      3.803     13.159
REMARK  20 active torsions:
REMARK  status: ('A' for Active; 'I' for Inactive)
REMARK    1  A    between atoms: C2_2  and  C27_40 
REMARK    2  A    between atoms: C3_3  and  C4_4 
REMARK    3  A    between atoms: C4_4  and  C6_6 
REMARK    4  A    between atoms: C6_6  and  C7_7 
REMARK    5  A    between atoms: C7_7  and  C8_8 
REMARK    6  A    between atoms: C8_8  and  O1_9 
REMARK    7  A    between atoms: C8_8  and  C9_11 
REMARK    8  A    between atoms: C9_11  and  O2_12 
REMARK    9  A    between atoms: C9_11  and  C10_14 
REMARK   10  A    between atoms: C10_14  and  O3_15 
REMARK   11  A    between atoms: C10_14  and  C11_17 
REMARK   12  A    between atoms: C11_17  and  O4_18 
REMARK   13  A    between atoms: C11_17  and  C12_20 
REMARK   14  A    between atoms: C12_20  and  O5_21 
REMARK   15  A    between atoms: C12_20  and  C13_23 
REMARK   16  A    between atoms: C13_23  and  C15_25 
REMARK   17  A    between atoms: C15_25  and  C16_26 
REMARK   18  A    between atoms: C17_28  and  C18_29 
REMARK   19  A    between atoms: C18_29  and  C21_32 
REMARK   20  A    between atoms: C21_32  and  O7_35 
ROOT
HETATM    1  C11 UNL     1      13.868  38.503  -9.082  1.00  0.00     0.178 C 
ENDROOT
BRANCH   1   2
HETATM    2  C10 UNL     1      12.546  38.708  -8.481  1.00  0.00     0.181 C 
BRANCH   2   3
HETATM    3  C9  UNL     1      12.491  38.408  -6.992  1.00  0.00     0.181 C 
BRANCH   3   4
HETATM    4  C8  UNL     1      11.309  39.207  -6.444  1.00  0.00     0.172 C 
BRANCH   4   5
HETATM    5  C7  UNL     1      10.493  38.398  -5.502  1.00  0.00     0.004 C 
BRANCH   5   6
HETATM    6  C6  UNL     1      10.710  38.336  -4.217  1.00  0.00    -0.020 C 
BRANCH   6   7
HETATM    7  C4  UNL     1       9.626  38.637  -3.189  1.00  0.00     0.027 C 
HETATM    8  C5  UNL     1       8.552  39.439  -3.781  1.00  0.00     0.018 C 
BRANCH   7   9
HETATM    9  C3  UNL     1       9.399  37.450  -2.399  1.00  0.00    -0.012 C 
HETATM   10  C2  UNL     1       9.279  36.999  -1.228  1.00  0.00    -0.064 C 
HETATM   11  C1  UNL     1       9.016  35.435  -1.207  1.00  0.00     0.048 C 
BRANCH  10  12
HETATM   12  C27 UNL     1       9.334  37.502   0.127  1.00  0.00    -0.082 C 
HETATM   13  C28 UNL     1       9.878  38.820   0.489  1.00  0.00     0.043 C 
HETATM   14  C29 UNL     1       7.984  37.238   0.853  1.00  0.00     0.043 C 
ENDBRANCH  10  12
ENDBRANCH   7   9
ENDBRANCH   6   7
ENDBRANCH   5   6
ENDBRANCH   4   5
BRANCH   4  15
HETATM   15  O1  UNL     1      11.789  40.370  -5.797  1.00  0.00    -0.389 OA
ATOM     16  H1  UNL     1      12.679  40.553  -6.072  1.00  0.00     0.210 HD
ENDBRANCH   4  15
ENDBRANCH   3   4
BRANCH   3  17
HETATM   17  O2  UNL     1      12.203  37.079  -6.714  1.00  0.00    -0.390 OA
ATOM     18  H2  UNL     1      12.691  36.573  -7.353  1.00  0.00     0.210 HD
ENDBRANCH   3  17
ENDBRANCH   2   3
BRANCH   2  19
HETATM   19  O3  UNL     1      11.888  39.879  -8.719  1.00  0.00    -0.390 OA
ATOM     20  H3  UNL     1      12.409  40.598  -8.381  1.00  0.00     0.210 HD
ENDBRANCH   2  19
ENDBRANCH   1   2
BRANCH   1  21
HETATM   21  O4  UNL     1      14.445  37.325  -8.609  1.00  0.00    -0.390 OA
ATOM     22  H4  UNL     1      15.078  36.989  -9.231  1.00  0.00     0.210 HD
ENDBRANCH   1  21
BRANCH   1  23
HETATM   23  C12 UNL     1      14.097  38.656 -10.519  1.00  0.00     0.153 C 
BRANCH  23  24
HETATM   24  O5  UNL     1      13.381  39.685 -11.122  1.00  0.00    -0.393 OA
ATOM     25  H5  UNL     1      12.600  39.411 -11.589  1.00  0.00     0.210 HD
ENDBRANCH  23  24
BRANCH  23  26
HETATM   26  C13 UNL     1      14.086  37.468 -11.409  1.00  0.00     0.015 C 
HETATM   27  C14 UNL     1      13.059  36.413 -11.061  1.00  0.00     0.012 C 
BRANCH  26  28
HETATM   28  C15 UNL     1      13.845  37.847 -12.856  1.00  0.00     0.039 C 
BRANCH  28  29
HETATM   29  C16 UNL     1      15.074  38.003 -13.685  1.00  0.00     0.126 C 
HETATM   30  O6  UNL     1      14.896  37.489 -14.979  1.00  0.00    -0.379 OA
HETATM   31  C17 UNL     1      15.178  36.121 -14.868  1.00  0.00     0.133 C 
HETATM   32  C24 UNL     1      16.420  36.103 -14.056  1.00  0.00     0.039 C 
HETATM   33  C25 UNL     1      16.263  37.301 -13.130  1.00  0.00     0.013 C 
HETATM   34  C26 UNL     1      17.517  38.169 -13.179  1.00  0.00     0.012 C 
BRANCH  31  35
HETATM   35  C18 UNL     1      15.314  35.551 -16.264  1.00  0.00     0.009 C 
HETATM   36  C19 UNL     1      15.454  36.799 -17.172  1.00  0.00     0.020 C 
HETATM   37  C20 UNL     1      16.553  34.747 -16.447  1.00  0.00     0.020 C 
BRANCH  35  38
HETATM   38  C21 UNL     1      14.058  34.892 -16.697  1.00  0.00     0.060 C 
HETATM   39  C22 UNL     1      14.145  33.538 -17.291  1.00  0.00     0.046 C 
HETATM   40  C23 UNL     1      13.296  35.813 -17.665  1.00  0.00     0.046 C 
BRANCH  38  41
HETATM   41  O7  UNL     1      13.218  34.809 -15.563  1.00  0.00    -0.390 OA
ATOM     42  H7  UNL     1      13.349  35.604 -15.060  1.00  0.00     0.210 HD
ENDBRANCH  38  41
ENDBRANCH  35  38
ENDBRANCH  31  35
ENDBRANCH  28  29
ENDBRANCH  26  28
ENDBRANCH  23  26
ENDBRANCH   1  23
TORSDOF 20
ENDMDL
MODEL 5
REMARK VINA RESULT: -8.019817410      2.361      3.280
REMARK  20 active torsions:
REMARK  status: ('A' for Active; 'I' for Inactive)
REMARK    1  A    between atoms: C2_2  and  C27_40 
REMARK    2  A    between atoms: C3_3  and  C4_4 
REMARK    3  A    between atoms: C4_4  and  C6_6 
REMARK    4  A    between atoms: C6_6  and  C7_7 
REMARK    5  A    between atoms: C7_7  and  C8_8 
REMARK    6  A    between atoms: C8_8  and  O1_9 
REMARK    7  A    between atoms: C8_8  and  C9_11 
REMARK    8  A    between atoms: C9_11  and  O2_12 
REMARK    9  A    between atoms: C9_11  and  C10_14 
REMARK   10  A    between atoms: C10_14  and  O3_15 
REMARK   11  A    between atoms: C10_14  and  C11_17 
REMARK   12  A    between atoms: C11_17  and  O4_18 
REMARK   13  A    between atoms: C11_17  and  C12_20 
REMARK   14  A    between atoms: C12_20  and  O5_21 
REMARK   15  A    between atoms: C12_20  and  C13_23 
REMARK   16  A    between atoms: C13_23  and  C15_25 
REMARK   17  A    between atoms: C15_25  and  C16_26 
REMARK   18  A    between atoms: C17_28  and  C18_29 
REMARK   19  A    between atoms: C18_29  and  C21_32 
REMARK   20  A    between atoms: C21_32  and  O7_35 
ROOT
HETATM    1  C11 UNL     1       9.136  39.040  -4.149  1.00  0.00     0.178 C 
ENDROOT
BRANCH   1   2
HETATM    2  C10 UNL     1      10.382  38.656  -4.823  1.00  0.00     0.181 C 
BRANCH   2   3
HETATM    3  C9  UNL     1      11.013  39.774  -5.636  1.00  0.00     0.181 C 
BRANCH   3   4
HETATM    4  C8  UNL     1      11.232  39.204  -7.037  1.00  0.00     0.172 C 
BRANCH   4   5
HETATM    5  C7  UNL     1      12.664  38.893  -7.283  1.00  0.00     0.004 C 
BRANCH   5   6
HETATM    6  C6  UNL     1      13.084  38.074  -8.208  1.00  0.00    -0.020 C 
BRANCH   6   7
HETATM    7  C4  UNL     1      13.040  38.423  -9.691  1.00  0.00     0.027 C 
HETATM    8  C5  UNL     1      13.541  39.780  -9.924  1.00  0.00     0.018 C 
BRANCH   7   9
HETATM    9  C3  UNL     1      13.465  37.270 -10.448  1.00  0.00    -0.012 C 
HETATM   10  C2  UNL     1      13.700  36.825 -11.604  1.00  0.00    -0.064 C 
HETATM   11  C1  UNL     1      14.178  35.313 -11.584  1.00  0.00     0.048 C 
BRANCH  10  12
HETATM   12  C27 UNL     1      13.637  37.298 -12.969  1.00  0.00    -0.082 C 
HETATM   13  C28 UNL     1      14.189  38.587 -13.414  1.00  0.00     0.043 C 
HETATM   14  C29 UNL     1      14.029  36.156 -13.951  1.00  0.00     0.043 C 
ENDBRANCH  10  12
ENDBRANCH   7   9
ENDBRANCH   6   7
ENDBRANCH   5   6
ENDBRANCH   4   5
BRANCH   4  15
HETATM   15  O1  UNL     1      10.447  38.037  -7.197  1.00  0.00    -0.389 OA
ATOM     16  H1  UNL     1      10.154  37.963  -8.098  1.00  0.00     0.210 HD
ENDBRANCH   4  15
ENDBRANCH   3   4
BRANCH   3  17
HETATM   17  O2  UNL     1      10.176  40.867  -5.805  1.00  0.00    -0.390 OA
ATOM     18  H2  UNL     1       9.587  40.855  -5.059  1.00  0.00     0.210 HD
ENDBRANCH   3  17
ENDBRANCH   2   3
BRANCH   2  19
HETATM   19  O3  UNL     1      11.356  38.032  -4.101  1.00  0.00    -0.390 OA
ATOM     20  H3  UNL     1      11.001  37.230  -3.735  1.00  0.00     0.210 HD
ENDBRANCH   2  19
ENDBRANCH   1   2
BRANCH   1  21
HETATM   21  O4  UNL     1       8.220  37.989  -4.177  1.00  0.00    -0.390 OA
ATOM     22  H4  UNL     1       7.472  38.212  -4.718  1.00  0.00     0.210 HD
ENDBRANCH   1  21
BRANCH   1  23
HETATM   23  C12 UNL     1       9.134  39.701  -2.844  1.00  0.00     0.153 C 
BRANCH  23  24
HETATM   24  O5  UNL     1       9.295  38.851  -1.754  1.00  0.00    -0.393 OA
ATOM     25  H5  UNL     1       8.660  38.968  -1.057  1.00  0.00     0.210 HD
ENDBRANCH  23  24
BRANCH  23  26
HETATM   26  C13 UNL     1       8.101  40.717  -2.522  1.00  0.00     0.015 C 
HETATM   27  C14 UNL     1       8.630  42.011  -1.943  1.00  0.00     0.012 C 
BRANCH  26  28
HETATM   28  C15 UNL     1       7.276  41.090  -3.736  1.00  0.00     0.039 C 
BRANCH  28  29
HETATM   29  C16 UNL     1       6.942  42.538  -3.856  1.00  0.00     0.126 C 
HETATM   30  O6  UNL     1       5.658  42.816  -3.360  1.00  0.00    -0.379 OA
HETATM   31  C17 UNL     1       4.792  42.557  -4.430  1.00  0.00     0.133 C 
HETATM   32  C24 UNL     1       5.475  43.207  -5.576  1.00  0.00     0.039 C 
HETATM   33  C25 UNL     1       6.953  43.041  -5.256  1.00  0.00     0.013 C 
HETATM   34  C26 UNL     1       7.670  44.383  -5.379  1.00  0.00     0.012 C 
BRANCH  31  35
HETATM   35  C18 UNL     1       3.431  43.123  -4.087  1.00  0.00     0.009 C 
HETATM   36  C19 UNL     1       3.692  44.010  -2.843  1.00  0.00     0.020 C 
HETATM   37  C20 UNL     1       2.888  44.019  -5.144  1.00  0.00     0.020 C 
BRANCH  35  38
HETATM   38  C21 UNL     1       2.510  42.058  -3.621  1.00  0.00     0.060 C 
HETATM   39  C22 UNL     1       1.396  41.657  -4.510  1.00  0.00     0.046 C 
HETATM   40  C23 UNL     1       1.939  42.433  -2.242  1.00  0.00     0.046 C 
BRANCH  38  41
HETATM   41  O7  UNL     1       3.294  40.909  -3.371  1.00  0.00    -0.390 OA
ATOM     42  H7  UNL     1       3.018  40.559  -2.532  1.00  0.00     0.210 HD
ENDBRANCH  38  41
ENDBRANCH  35  38
ENDBRANCH  31  35
ENDBRANCH  28  29
ENDBRANCH  26  28
ENDBRANCH  23  26
ENDBRANCH   1  23
TORSDOF 20
ENDMDL
