MODEL 1
REMARK VINA RESULT: -7.030576446      0.000      0.000
REMARK  7 active torsions:
REMARK  status: ('A' for Active; 'I' for Inactive)
REMARK    1  A    between atoms: C2_2  and  C4_4 
REMARK    2  A    between atoms: C10_12  and  O3_13 
REMARK    3  A    between atoms: C10_12  and  C11_15 
REMARK    4  A    between atoms: C11_15  and  O5_17 
REMARK    5  A    between atoms: O5_17  and  C12_18 
REMARK    6  A    between atoms: C12_18  and  C13_19 
REMARK    7  A    between atoms: C13_19  and  C14_21 
ROOT
HETATM    1  C4  UNL     1      -4.262   4.480  11.933  1.00  0.00     0.069 C 
HETATM    2  C5  UNL     1      -3.691   5.012  10.636  1.00  0.00     0.092 C 
HETATM    3  C6  UNL     1      -4.763   5.877  10.038  1.00  0.00     0.161 C 
HETATM    4  O1  UNL     1      -4.953   5.784   8.837  1.00  0.00    -0.295 OA
HETATM    5  C7  UNL     1      -5.525   6.785  10.922  1.00  0.00     0.118 C 
HETATM    6  C8  UNL     1      -4.881   8.163  10.956  1.00  0.00     0.054 C 
HETATM    7  C9  UNL     1      -6.896   6.986  10.267  1.00  0.00     0.054 C 
HETATM    8  O2  UNL     1      -5.758   6.285  12.174  1.00  0.00    -0.328 OA
HETATM    9  C10 UNL     1      -4.660   5.673  12.765  1.00  0.00     0.258 C 
ENDROOT
BRANCH   9  10
HETATM   10  O3  UNL     1      -3.578   6.540  12.880  1.00  0.00    -0.357 OA
ATOM     11  H3  UNL     1      -3.431   6.742  13.797  1.00  0.00     0.213 HD
ENDBRANCH   9  10
BRANCH   9  12
HETATM   12  C11 UNL     1      -5.079   5.272  14.127  1.00  0.00     0.323 C 
HETATM   13  O4  UNL     1      -4.419   5.589  15.147  1.00  0.00    -0.259 OA
BRANCH  12  14
HETATM   14  O5  UNL     1      -6.229   4.532  14.294  1.00  0.00    -0.310 OA
BRANCH  14  15
HETATM   15  C12 UNL     1      -6.271   3.263  14.878  1.00  0.00     0.258 C 
BRANCH  15  16
HETATM   16  C13 UNL     1      -6.628   3.265  16.321  1.00  0.00     0.158 C 
HETATM   17  O6  UNL     1      -7.114   4.184  16.921  1.00  0.00    -0.295 OA
BRANCH  16  18
HETATM   18  C14 UNL     1      -6.357   2.004  17.104  1.00  0.00     0.012 C 
HETATM   19  C15 UNL     1      -7.425   0.963  16.849  1.00  0.00     0.022 C 
HETATM   20  C16 UNL     1      -6.286   2.296  18.579  1.00  0.00     0.022 C 
HETATM   21  C17 UNL     1      -5.044   1.462  16.568  1.00  0.00     0.022 C 
ENDBRANCH  16  18
ENDBRANCH  15  16
ENDBRANCH  14  15
ENDBRANCH  12  14
ENDBRANCH   9  12
BRANCH   1  22
HETATM   22  C2  UNL     1      -3.317   3.547  12.629  1.00  0.00    -0.012 C 
HETATM   23  C1  UNL     1      -1.917   3.592  12.103  1.00  0.00     0.010 C 
HETATM   24  C3  UNL     1      -3.840   2.133  12.401  1.00  0.00     0.010 C 
ENDBRANCH   1  22
TORSDOF 7
ENDMDL
MODEL 2
REMARK VINA RESULT: -6.786736999      1.989      3.144
REMARK  7 active torsions:
REMARK  status: ('A' for Active; 'I' for Inactive)
REMARK    1  A    between atoms: C2_2  and  C4_4 
REMARK    2  A    between atoms: C10_12  and  O3_13 
REMARK    3  A    between atoms: C10_12  and  C11_15 
REMARK    4  A    between atoms: C11_15  and  O5_17 
REMARK    5  A    between atoms: O5_17  and  C12_18 
REMARK    6  A    between atoms: C12_18  and  C13_19 
REMARK    7  A    between atoms: C13_19  and  C14_21 
ROOT
HETATM    1  C4  UNL     1      -3.565   6.155  11.069  1.00  0.00     0.069 C 
HETATM    2  C5  UNL     1      -3.829   7.578  11.517  1.00  0.00     0.092 C 
HETATM    3  C6  UNL     1      -4.974   8.068  10.678  1.00  0.00     0.161 C 
HETATM    4  O1  UNL     1      -4.901   9.204  10.241  1.00  0.00    -0.295 OA
HETATM    5  C7  UNL     1      -6.116   7.162  10.428  1.00  0.00     0.118 C 
HETATM    6  C8  UNL     1      -7.206   7.376  11.467  1.00  0.00     0.054 C 
HETATM    7  C9  UNL     1      -6.730   7.592   9.091  1.00  0.00     0.054 C 
HETATM    8  O2  UNL     1      -5.769   5.846  10.295  1.00  0.00    -0.328 OA
HETATM    9  C10 UNL     1      -4.854   5.391  11.236  1.00  0.00     0.258 C 
ENDROOT
BRANCH   9  10
HETATM   10  O3  UNL     1      -5.321   5.548  12.537  1.00  0.00    -0.357 OA
ATOM     11  H3  UNL     1      -6.268   5.469  12.545  1.00  0.00     0.213 HD
ENDBRANCH   9  10
BRANCH   9  12
HETATM   12  C11 UNL     1      -4.667   3.945  10.983  1.00  0.00     0.323 C 
HETATM   13  O4  UNL     1      -4.260   3.509   9.877  1.00  0.00    -0.259 OA
BRANCH  12  14
HETATM   14  O5  UNL     1      -4.943   3.038  11.983  1.00  0.00    -0.310 OA
BRANCH  14  15
HETATM   15  C12 UNL     1      -3.975   2.284  12.651  1.00  0.00     0.258 C 
BRANCH  15  16
HETATM   16  C13 UNL     1      -4.442   1.688  13.931  1.00  0.00     0.158 C 
HETATM   17  O6  UNL     1      -4.725   0.535  14.105  1.00  0.00    -0.295 OA
BRANCH  16  18
HETATM   18  C14 UNL     1      -4.574   2.610  15.118  1.00  0.00     0.012 C 
HETATM   19  C15 UNL     1      -5.974   3.176  15.217  1.00  0.00     0.022 C 
HETATM   20  C16 UNL     1      -3.583   3.740  15.032  1.00  0.00     0.022 C 
HETATM   21  C17 UNL     1      -4.339   1.740  16.341  1.00  0.00     0.022 C 
ENDBRANCH  16  18
ENDBRANCH  15  16
ENDBRANCH  14  15
ENDBRANCH  12  14
ENDBRANCH   9  12
BRANCH   1  22
HETATM   22  C2  UNL     1      -2.402   5.541  11.787  1.00  0.00    -0.012 C 
HETATM   23  C1  UNL     1      -1.884   6.362  12.926  1.00  0.00     0.010 C 
HETATM   24  C3  UNL     1      -1.271   5.412  10.772  1.00  0.00     0.010 C 
ENDBRANCH   1  22
TORSDOF 7
ENDMDL
MODEL 3
REMARK VINA RESULT: -6.741257173      1.468      6.401
REMARK  7 active torsions:
REMARK  status: ('A' for Active; 'I' for Inactive)
REMARK    1  A    between atoms: C2_2  and  C4_4 
REMARK    2  A    between atoms: C10_12  and  O3_13 
REMARK    3  A    between atoms: C10_12  and  C11_15 
REMARK    4  A    between atoms: C11_15  and  O5_17 
REMARK    5  A    between atoms: O5_17  and  C12_18 
REMARK    6  A    between atoms: C12_18  and  C13_19 
REMARK    7  A    between atoms: C13_19  and  C14_21 
ROOT
HETATM    1  C4  UNL     1      -4.464   2.903  14.769  1.00  0.00     0.069 C 
HETATM    2  C5  UNL     1      -4.624   1.406  14.934  1.00  0.00     0.092 C 
HETATM    3  C6  UNL     1      -5.185   1.202  16.312  1.00  0.00     0.161 C 
HETATM    4  O1  UNL     1      -4.720   0.289  16.975  1.00  0.00    -0.295 OA
HETATM    5  C7  UNL     1      -6.255   2.102  16.790  1.00  0.00     0.118 C 
HETATM    6  C8  UNL     1      -7.625   1.509  16.494  1.00  0.00     0.054 C 
HETATM    7  C9  UNL     1      -6.144   2.143  18.318  1.00  0.00     0.054 C 
HETATM    8  O2  UNL     1      -6.138   3.393  16.354  1.00  0.00    -0.328 OA
HETATM    9  C10 UNL     1      -5.818   3.523  15.008  1.00  0.00     0.258 C 
ENDROOT
BRANCH   9  10
HETATM   10  O3  UNL     1      -6.759   2.912  14.187  1.00  0.00    -0.357 OA
ATOM     11  H3  UNL     1      -7.437   2.515  14.722  1.00  0.00     0.213 HD
ENDBRANCH   9  10
BRANCH   9  12
HETATM   12  C11 UNL     1      -5.814   4.972  14.710  1.00  0.00     0.323 C 
HETATM   13  O4  UNL     1      -5.502   5.830  15.573  1.00  0.00    -0.259 OA
BRANCH  12  14
HETATM   14  O5  UNL     1      -6.160   5.408  13.449  1.00  0.00    -0.310 OA
BRANCH  14  15
HETATM   15  C12 UNL     1      -5.358   6.231  12.653  1.00  0.00     0.258 C 
BRANCH  15  16
HETATM   16  C13 UNL     1      -5.718   6.223  11.211  1.00  0.00     0.158 C 
HETATM   17  O6  UNL     1      -5.447   5.358  10.425  1.00  0.00    -0.295 OA
BRANCH  16  18
HETATM   18  C14 UNL     1      -6.492   7.407  10.683  1.00  0.00     0.012 C 
HETATM   19  C15 UNL     1      -7.104   7.100   9.333  1.00  0.00     0.022 C 
HETATM   20  C16 UNL     1      -5.606   8.617  10.567  1.00  0.00     0.022 C 
HETATM   21  C17 UNL     1      -7.629   7.626  11.667  1.00  0.00     0.022 C 
ENDBRANCH  16  18
ENDBRANCH  15  16
ENDBRANCH  14  15
ENDBRANCH  12  14
ENDBRANCH   9  12
BRANCH   1  22
HETATM   22  C2  UNL     1      -3.859   3.267  13.447  1.00  0.00    -0.012 C 
HETATM   23  C1  UNL     1      -3.549   2.093  12.573  1.00  0.00     0.010 C 
HETATM   24  C3  UNL     1      -2.539   3.972  13.742  1.00  0.00     0.010 C 
ENDBRANCH   1  22
TORSDOF 7
ENDMDL
MODEL 4
REMARK VINA RESULT: -6.704891879      2.292      3.741
REMARK  7 active torsions:
REMARK  status: ('A' for Active; 'I' for Inactive)
REMARK    1  A    between atoms: C2_2  and  C4_4 
REMARK    2  A    between atoms: C10_12  and  O3_13 
REMARK    3  A    between atoms: C10_12  and  C11_15 
REMARK    4  A    between atoms: C11_15  and  O5_17 
REMARK    5  A    between atoms: O5_17  and  C12_18 
REMARK    6  A    between atoms: C12_18  and  C13_19 
REMARK    7  A    between atoms: C13_19  and  C14_21 
ROOT
HETATM    1  C4  UNL     1      -3.902   4.814  13.762  1.00  0.00     0.069 C 
HETATM    2  C5  UNL     1      -3.454   5.987  12.916  1.00  0.00     0.092 C 
HETATM    3  C6  UNL     1      -2.177   5.554  12.254  1.00  0.00     0.161 C 
HETATM    4  O1  UNL     1      -1.269   6.367  12.205  1.00  0.00    -0.295 OA
HETATM    5  C7  UNL     1      -2.086   4.185  11.703  1.00  0.00     0.118 C 
HETATM    6  C8  UNL     1      -2.475   4.174  10.232  1.00  0.00     0.054 C 
HETATM    7  C9  UNL     1      -0.604   3.796  11.741  1.00  0.00     0.054 C 
HETATM    8  O2  UNL     1      -2.758   3.242  12.430  1.00  0.00    -0.328 OA
HETATM    9  C10 UNL     1      -4.028   3.626  12.843  1.00  0.00     0.258 C 
ENDROOT
BRANCH   9  10
HETATM   10  O3  UNL     1      -4.848   3.956  11.769  1.00  0.00    -0.357 OA
ATOM     11  H3  UNL     1      -4.381   3.804  10.955  1.00  0.00     0.213 HD
ENDBRANCH   9  10
BRANCH   9  12
HETATM   12  C11 UNL     1      -4.620   2.460  13.536  1.00  0.00     0.323 C 
HETATM   13  O4  UNL     1      -5.747   2.000  13.223  1.00  0.00    -0.259 OA
BRANCH  12  14
HETATM   14  O5  UNL     1      -3.924   1.849  14.556  1.00  0.00    -0.310 OA
BRANCH  14  15
HETATM   15  C12 UNL     1      -4.207   2.017  15.914  1.00  0.00     0.258 C 
BRANCH  15  16
HETATM   16  C13 UNL     1      -5.279   1.126  16.429  1.00  0.00     0.158 C 
HETATM   17  O6  UNL     1      -5.326  -0.065  16.296  1.00  0.00    -0.295 OA
BRANCH  16  18
HETATM   18  C14 UNL     1      -6.413   1.773  17.187  1.00  0.00     0.012 C 
HETATM   19  C15 UNL     1      -6.754   3.129  16.608  1.00  0.00     0.022 C 
HETATM   20  C16 UNL     1      -6.065   1.925  18.643  1.00  0.00     0.022 C 
HETATM   21  C17 UNL     1      -7.614   0.866  16.982  1.00  0.00     0.022 C 
ENDBRANCH  16  18
ENDBRANCH  15  16
ENDBRANCH  14  15
ENDBRANCH  12  14
ENDBRANCH   9  12
BRANCH   1  22
HETATM   22  C2  UNL     1      -5.151   5.115  14.534  1.00  0.00    -0.012 C 
HETATM   23  C1  UNL     1      -6.233   5.752  13.721  1.00  0.00     0.010 C 
HETATM   24  C3  UNL     1      -4.768   6.103  15.630  1.00  0.00     0.010 C 
ENDBRANCH   1  22
TORSDOF 7
ENDMDL
MODEL 5
REMARK VINA RESULT: -6.651773912      1.936      3.365
REMARK  7 active torsions:
REMARK  status: ('A' for Active; 'I' for Inactive)
REMARK    1  A    between atoms: C2_2  and  C4_4 
REMARK    2  A    between atoms: C10_12  and  O3_13 
REMARK    3  A    between atoms: C10_12  and  C11_15 
REMARK    4  A    between atoms: C11_15  and  O5_17 
REMARK    5  A    between atoms: O5_17  and  C12_18 
REMARK    6  A    between atoms: C12_18  and  C13_19 
REMARK    7  A    between atoms: C13_19  and  C14_21 
ROOT
HETATM    1  C4  UNL     1      -3.595   5.026  13.420  1.00  0.00     0.069 C 
HETATM    2  C5  UNL     1      -2.665   4.551  12.324  1.00  0.00     0.092 C 
HETATM    3  C6  UNL     1      -2.839   3.061  12.255  1.00  0.00     0.161 C 
HETATM    4  O1  UNL     1      -1.832   2.385  12.124  1.00  0.00    -0.295 OA
HETATM    5  C7  UNL     1      -4.202   2.494  12.347  1.00  0.00     0.118 C 
HETATM    6  C8  UNL     1      -4.797   2.305  10.959  1.00  0.00     0.054 C 
HETATM    7  C9  UNL     1      -4.052   1.084  12.927  1.00  0.00     0.054 C 
HETATM    8  O2  UNL     1      -5.038   3.177  13.187  1.00  0.00    -0.328 OA
HETATM    9  C10 UNL     1      -4.983   4.560  13.058  1.00  0.00     0.258 C 
ENDROOT
BRANCH   9  10
HETATM   10  O3  UNL     1      -5.291   4.977  11.768  1.00  0.00    -0.357 OA
ATOM     11  H3  UNL     1      -5.813   4.310  11.336  1.00  0.00     0.213 HD
ENDBRANCH   9  10
BRANCH   9  12
HETATM   12  C11 UNL     1      -6.001   5.112  13.979  1.00  0.00     0.323 C 
HETATM   13  O4  UNL     1      -6.978   5.786  13.566  1.00  0.00    -0.259 OA
BRANCH  12  14
HETATM   14  O5  UNL     1      -5.888   4.886  15.334  1.00  0.00    -0.310 OA
BRANCH  14  15
HETATM   15  C12 UNL     1      -6.542   3.858  16.018  1.00  0.00     0.258 C 
BRANCH  15  16
HETATM   16  C13 UNL     1      -5.654   2.741  16.435  1.00  0.00     0.158 C 
HETATM   17  O6  UNL     1      -4.488   2.636  16.173  1.00  0.00    -0.295 OA
BRANCH  16  18
HETATM   18  C14 UNL     1      -6.270   1.637  17.260  1.00  0.00     0.012 C 
HETATM   19  C15 UNL     1      -7.687   1.349  16.816  1.00  0.00     0.022 C 
HETATM   20  C16 UNL     1      -6.267   1.996  18.721  1.00  0.00     0.022 C 
HETATM   21  C17 UNL     1      -5.436   0.399  16.977  1.00  0.00     0.022 C 
ENDBRANCH  16  18
ENDBRANCH  15  16
ENDBRANCH  14  15
ENDBRANCH  12  14
ENDBRANCH   9  12
BRANCH   1  22
HETATM   22  C2  UNL     1      -3.496   6.505  13.646  1.00  0.00    -0.012 C 
HETATM   23  C1  UNL     1      -2.879   7.257  12.510  1.00  0.00     0.010 C 
HETATM   24  C3  UNL     1      -2.599   6.708  14.863  1.00  0.00     0.010 C 
ENDBRANCH   1  22
TORSDOF 7
ENDMDL
