MODEL 1
REMARK VINA RESULT: -7.138661119      0.000      0.000
REMARK  5 active torsions:
REMARK  status: ('A' for Active; 'I' for Inactive)
REMARK    1  A    between atoms: O1_1  and  C1_3 
REMARK    2  A    between atoms: C1_3  and  C2_4 
REMARK    3  A    between atoms: C1_3  and  C6_12 
REMARK    4  A    between atoms: C1_3  and  C18_28 
REMARK    5  A    between atoms: C8_16  and  N4_17 
ROOT
HETATM    1  C6  UNL     1      -3.770   5.735  12.449  1.00  0.00     0.007 A 
HETATM    2  C7  UNL     1      -3.009   5.932  11.324  1.00  0.00     0.100 A 
HETATM    3  N3  UNL     1      -3.470   6.583  10.243  1.00  0.00    -0.350 N 
ATOM      4  H3  UNL     1      -2.864   6.704   9.432  1.00  0.00     0.166 HD
HETATM    5  C8  UNL     1      -4.708   7.073  10.217  1.00  0.00     0.125 A 
HETATM    6  C16 UNL     1      -5.532   6.919  11.299  1.00  0.00     0.078 A 
HETATM    7 CL1  UNL     1      -7.174   7.546  11.317  1.00  0.00    -0.080 Cl
HETATM    8  C17 UNL     1      -5.039   6.237  12.420  1.00  0.00     0.040 A 
ENDROOT
BRANCH   1   9
HETATM    9  C1  UNL     1      -3.227   5.016  13.592  1.00  0.00     0.214 C 
BRANCH   9  10
HETATM   10  O1  UNL     1      -3.940   5.486  14.724  1.00  0.00    -0.372 OA
ATOM     11  H1  UNL     1      -3.358   5.359  15.465  1.00  0.00     0.211 HD
ENDBRANCH   9  10
BRANCH   9  12
HETATM   12  C2  UNL     1      -3.533   3.549  13.500  1.00  0.00     0.021 A 
HETATM   13  C3  UNL     1      -4.295   2.913  14.459  1.00  0.00     0.101 A 
HETATM   14  N1  UNL     1      -4.571   1.605  14.379  1.00  0.00    -0.361 N 
HETATM   15  C4  UNL     1      -4.117   0.857  13.360  1.00  0.00     0.180 A 
ATOM     16  H1  UNL     1      -5.137   1.169  15.106  1.00  0.00     0.166 HD
HETATM   17  N2  UNL     1      -3.376   1.471  12.428  1.00  0.00    -0.361 N 
HETATM   18  C5  UNL     1      -3.073   2.775  12.461  1.00  0.00     0.101 A 
ATOM     19  H2  UNL     1      -3.024   0.915  11.650  1.00  0.00     0.166 HD
ENDBRANCH   9  12
BRANCH   9  20
HETATM   20  C18 UNL     1      -1.789   5.257  13.909  1.00  0.00     0.427 C 
HETATM   21  F1  UNL     1      -0.892   4.836  12.981  1.00  0.00    -0.167 F 
HETATM   22  F2  UNL     1      -1.622   6.598  14.243  1.00  0.00    -0.167 F 
HETATM   23  F3  UNL     1      -1.517   4.554  15.090  1.00  0.00    -0.167 F 
ENDBRANCH   9  20
ENDBRANCH   1   9
BRANCH   5  24
HETATM   24  N4  UNL     1      -5.236   7.770   9.085  1.00  0.00    -0.365 N 
HETATM   25  C9  UNL     1      -5.352   9.211   9.026  1.00  0.00     0.125 C 
HETATM   26  C10 UNL     1      -6.807   9.523   8.799  1.00  0.00     0.025 C 
HETATM   27  C11 UNL     1      -7.434   8.790   7.680  1.00  0.00    -0.007 C 
HETATM   28  C12 UNL     1      -8.779   8.204   8.121  1.00  0.00     0.005 C 
HETATM   29  C14 UNL     1      -6.970   7.426   7.404  1.00  0.00     0.008 C 
HETATM   30  C13 UNL     1      -8.192   6.815   8.058  1.00  0.00     0.007 C 
HETATM   31  C15 UNL     1      -5.666   7.006   7.959  1.00  0.00     0.129 C 
ENDBRANCH   5  24
TORSDOF 5
ENDMDL
MODEL 2
REMARK VINA RESULT: -6.857463267      1.094      1.411
REMARK  5 active torsions:
REMARK  status: ('A' for Active; 'I' for Inactive)
REMARK    1  A    between atoms: O1_1  and  C1_3 
REMARK    2  A    between atoms: C1_3  and  C2_4 
REMARK    3  A    between atoms: C1_3  and  C6_12 
REMARK    4  A    between atoms: C1_3  and  C18_28 
REMARK    5  A    between atoms: C8_16  and  N4_17 
ROOT
HETATM    1  C6  UNL     1      -3.747   5.636  12.041  1.00  0.00     0.007 A 
HETATM    2  C7  UNL     1      -3.050   5.923  10.895  1.00  0.00     0.100 A 
HETATM    3  N3  UNL     1      -3.561   6.676   9.907  1.00  0.00    -0.350 N 
ATOM      4  H3  UNL     1      -3.001   6.861   9.074  1.00  0.00     0.166 HD
HETATM    5  C8  UNL     1      -4.788   7.184  10.000  1.00  0.00     0.125 A 
HETATM    6  C16 UNL     1      -5.549   6.945  11.111  1.00  0.00     0.078 A 
HETATM    7 CL1  UNL     1      -7.174   7.592  11.285  1.00  0.00    -0.080 Cl
HETATM    8  C17 UNL     1      -5.005   6.157  12.134  1.00  0.00     0.040 A 
ENDROOT
BRANCH   1   9
HETATM    9  C1  UNL     1      -3.152   4.807  13.080  1.00  0.00     0.214 C 
BRANCH   9  10
HETATM   10  O1  UNL     1      -4.233   4.310  13.851  1.00  0.00    -0.372 OA
ATOM     11  H1  UNL     1      -4.236   4.824  14.650  1.00  0.00     0.211 HD
ENDBRANCH   9  10
BRANCH   9  12
HETATM   12  C2  UNL     1      -2.486   3.599  12.489  1.00  0.00     0.021 A 
HETATM   13  C3  UNL     1      -3.185   2.429  12.269  1.00  0.00     0.101 A 
HETATM   14  N1  UNL     1      -2.593   1.350  11.741  1.00  0.00    -0.361 N 
HETATM   15  C4  UNL     1      -1.293   1.361  11.403  1.00  0.00     0.180 A 
ATOM     16  H1  UNL     1      -3.141   0.503  11.592  1.00  0.00     0.166 HD
HETATM   17  N2  UNL     1      -0.612   2.495  11.616  1.00  0.00    -0.361 N 
HETATM   18  C5  UNL     1      -1.156   3.601  12.140  1.00  0.00     0.101 A 
ATOM     19  H2  UNL     1       0.376   2.517  11.365  1.00  0.00     0.166 HD
ENDBRANCH   9  12
BRANCH   9  20
HETATM   20  C18 UNL     1      -2.263   5.500  14.057  1.00  0.00     0.427 C 
HETATM   21  F1  UNL     1      -1.109   6.014  13.559  1.00  0.00    -0.167 F 
HETATM   22  F2  UNL     1      -3.012   6.447  14.752  1.00  0.00    -0.167 F 
HETATM   23  F3  UNL     1      -1.905   4.547  15.018  1.00  0.00    -0.167 F 
ENDBRANCH   9  20
ENDBRANCH   1   9
BRANCH   5  24
HETATM   24  N4  UNL     1      -5.367   7.990   8.969  1.00  0.00    -0.365 N 
HETATM   25  C9  UNL     1      -5.520   9.424   9.076  1.00  0.00     0.125 C 
HETATM   26  C10 UNL     1      -6.988   9.719   8.927  1.00  0.00     0.025 C 
HETATM   27  C11 UNL     1      -7.632   9.099   7.751  1.00  0.00    -0.007 C 
HETATM   28  C12 UNL     1      -8.948   8.431   8.161  1.00  0.00     0.005 C 
HETATM   29  C14 UNL     1      -7.144   7.789   7.310  1.00  0.00     0.008 C 
HETATM   30  C13 UNL     1      -8.331   7.074   7.925  1.00  0.00     0.007 C 
HETATM   31  C15 UNL     1      -5.815   7.345   7.777  1.00  0.00     0.129 C 
ENDBRANCH   5  24
TORSDOF 5
ENDMDL
MODEL 3
REMARK VINA RESULT: -6.855388957      1.253      1.473
REMARK  5 active torsions:
REMARK  status: ('A' for Active; 'I' for Inactive)
REMARK    1  A    between atoms: O1_1  and  C1_3 
REMARK    2  A    between atoms: C1_3  and  C2_4 
REMARK    3  A    between atoms: C1_3  and  C6_12 
REMARK    4  A    between atoms: C1_3  and  C18_28 
REMARK    5  A    between atoms: C8_16  and  N4_17 
ROOT
HETATM    1  C6  UNL     1      -4.555   5.285  11.845  1.00  0.00     0.007 A 
HETATM    2  C7  UNL     1      -4.020   5.002  10.614  1.00  0.00     0.100 A 
HETATM    3  N3  UNL     1      -4.309   5.722   9.517  1.00  0.00    -0.350 N 
ATOM      4  H3  UNL     1      -3.884   5.471   8.624  1.00  0.00     0.166 HD
HETATM    5  C8  UNL     1      -5.142   6.759   9.580  1.00  0.00     0.125 A 
HETATM    6  C16 UNL     1      -5.718   7.106  10.771  1.00  0.00     0.078 A 
HETATM    7 CL1  UNL     1      -6.824   8.466  10.910  1.00  0.00    -0.080 Cl
HETATM    8  C17 UNL     1      -5.409   6.347  11.908  1.00  0.00     0.040 A 
ENDROOT
BRANCH   1   9
HETATM    9  C1  UNL     1      -4.217   4.469  13.002  1.00  0.00     0.214 C 
BRANCH   9  10
HETATM   10  O1  UNL     1      -5.415   4.334  13.749  1.00  0.00    -0.372 OA
ATOM     11  H1  UNL     1      -5.912   3.650  13.315  1.00  0.00     0.211 HD
ENDBRANCH   9  10
BRANCH   9  12
HETATM   12  C2  UNL     1      -3.838   3.077  12.587  1.00  0.00     0.021 A 
HETATM   13  C3  UNL     1      -4.740   2.034  12.665  1.00  0.00     0.101 A 
HETATM   14  N1  UNL     1      -4.405   0.792  12.294  1.00  0.00    -0.361 N 
HETATM   15  C4  UNL     1      -3.177   0.508  11.830  1.00  0.00     0.180 A 
ATOM     16  H1  UNL     1      -5.097   0.046  12.365  1.00  0.00     0.166 HD
HETATM   17  N2  UNL     1      -2.300   1.517  11.755  1.00  0.00    -0.361 N 
HETATM   18  C5  UNL     1      -2.584   2.777  12.111  1.00  0.00     0.101 A 
ATOM     19  H2  UNL     1      -1.363   1.316  11.406  1.00  0.00     0.166 HD
ENDBRANCH   9  12
BRANCH   9  20
HETATM   20  C18 UNL     1      -3.225   5.044  13.957  1.00  0.00     0.427 C 
HETATM   21  F1  UNL     1      -2.663   4.174  14.834  1.00  0.00    -0.167 F 
HETATM   22  F2  UNL     1      -2.276   5.765  13.237  1.00  0.00    -0.167 F 
HETATM   23  F3  UNL     1      -3.909   6.004  14.714  1.00  0.00    -0.167 F 
ENDBRANCH   9  20
ENDBRANCH   1   9
BRANCH   5  24
HETATM   24  N4  UNL     1      -5.475   7.549   8.435  1.00  0.00    -0.365 N 
HETATM   25  C9  UNL     1      -4.879   8.838   8.161  1.00  0.00     0.125 C 
HETATM   26  C10 UNL     1      -6.004   9.834   8.091  1.00  0.00     0.025 C 
HETATM   27  C11 UNL     1      -7.121   9.451   7.204  1.00  0.00    -0.007 C 
HETATM   28  C12 UNL     1      -8.460   9.669   7.917  1.00  0.00     0.005 C 
HETATM   29  C14 UNL     1      -7.453   8.028   7.089  1.00  0.00     0.008 C 
HETATM   30  C13 UNL     1      -8.657   8.175   7.997  1.00  0.00     0.007 C 
HETATM   31  C15 UNL     1      -6.443   7.038   7.518  1.00  0.00     0.129 C 
ENDBRANCH   5  24
TORSDOF 5
ENDMDL
MODEL 4
REMARK VINA RESULT: -6.750852346      4.422      6.479
REMARK  5 active torsions:
REMARK  status: ('A' for Active; 'I' for Inactive)
REMARK    1  A    between atoms: O1_1  and  C1_3 
REMARK    2  A    between atoms: C1_3  and  C2_4 
REMARK    3  A    between atoms: C1_3  and  C6_12 
REMARK    4  A    between atoms: C1_3  and  C18_28 
REMARK    5  A    between atoms: C8_16  and  N4_17 
ROOT
HETATM    1  C6  UNL     1      -2.797   4.332  12.525  1.00  0.00     0.007 A 
HETATM    2  C7  UNL     1      -1.846   4.886  13.345  1.00  0.00     0.100 A 
HETATM    3  N3  UNL     1      -0.606   5.181  12.919  1.00  0.00    -0.350 N 
ATOM      4  H3  UNL     1       0.064   5.593  13.569  1.00  0.00     0.166 HD
HETATM    5  C8  UNL     1      -0.242   4.944  11.661  1.00  0.00     0.125 A 
HETATM    6  C16 UNL     1      -1.131   4.393  10.779  1.00  0.00     0.078 A 
HETATM    7 CL1  UNL     1      -0.702   4.060   9.107  1.00  0.00    -0.080 Cl
HETATM    8  C17 UNL     1      -2.421   4.089  11.236  1.00  0.00     0.040 A 
ENDROOT
BRANCH   1   9
HETATM    9  C1  UNL     1      -4.124   4.023  13.037  1.00  0.00     0.214 C 
BRANCH   9  10
HETATM   10  O1  UNL     1      -4.896   3.637  11.912  1.00  0.00    -0.372 OA
ATOM     11  H1  UNL     1      -5.409   4.402  11.678  1.00  0.00     0.211 HD
ENDBRANCH   9  10
BRANCH   9  12
HETATM   12  C2  UNL     1      -4.088   2.822  13.936  1.00  0.00     0.021 A 
HETATM   13  C3  UNL     1      -3.878   2.947  15.294  1.00  0.00     0.101 A 
HETATM   14  N1  UNL     1      -3.846   1.877  16.098  1.00  0.00    -0.361 N 
HETATM   15  C4  UNL     1      -4.018   0.635  15.616  1.00  0.00     0.180 A 
ATOM     16  H1  UNL     1      -3.689   2.008  17.097  1.00  0.00     0.166 HD
HETATM   17  N2  UNL     1      -4.221   0.510  14.298  1.00  0.00    -0.361 N 
HETATM   18  C5  UNL     1      -4.262   1.547  13.451  1.00  0.00     0.101 A 
ATOM     19  H2  UNL     1      -4.351  -0.427  13.918  1.00  0.00     0.166 HD
ENDBRANCH   9  12
BRANCH   9  20
HETATM   20  C18 UNL     1      -4.878   5.151  13.659  1.00  0.00     0.427 C 
HETATM   21  F1  UNL     1      -4.324   5.702  14.769  1.00  0.00    -0.167 F 
HETATM   22  F2  UNL     1      -5.160   6.097  12.677  1.00  0.00    -0.167 F 
HETATM   23  F3  UNL     1      -6.126   4.638  14.035  1.00  0.00    -0.167 F 
ENDBRANCH   9  20
ENDBRANCH   1   9
BRANCH   5  24
HETATM   24  N4  UNL     1       1.069   5.243  11.170  1.00  0.00    -0.365 N 
HETATM   25  C9  UNL     1       2.163   4.298  11.210  1.00  0.00     0.125 C 
HETATM   26  C10 UNL     1       3.265   4.938  12.010  1.00  0.00     0.025 C 
HETATM   27  C11 UNL     1       3.625   6.308  11.590  1.00  0.00    -0.007 C 
HETATM   28  C12 UNL     1       3.722   7.227  12.812  1.00  0.00     0.005 C 
HETATM   29  C14 UNL     1       2.559   7.171  11.069  1.00  0.00     0.008 C 
HETATM   30  C13 UNL     1       2.471   7.946  12.369  1.00  0.00     0.007 C 
HETATM   31  C15 UNL     1       1.306   6.535  10.614  1.00  0.00     0.129 C 
ENDBRANCH   5  24
TORSDOF 5
ENDMDL
MODEL 5
REMARK VINA RESULT: -6.718396085      4.375      6.096
REMARK  5 active torsions:
REMARK  status: ('A' for Active; 'I' for Inactive)
REMARK    1  A    between atoms: O1_1  and  C1_3 
REMARK    2  A    between atoms: C1_3  and  C2_4 
REMARK    3  A    between atoms: C1_3  and  C6_12 
REMARK    4  A    between atoms: C1_3  and  C18_28 
REMARK    5  A    between atoms: C8_16  and  N4_17 
ROOT
HETATM    1  C6  UNL     1      -2.936   4.292  12.688  1.00  0.00     0.007 A 
HETATM    2  C7  UNL     1      -1.930   4.532  13.590  1.00  0.00     0.100 A 
HETATM    3  N3  UNL     1      -0.689   4.885  13.214  1.00  0.00    -0.350 N 
ATOM      4  H3  UNL     1       0.024   5.053  13.924  1.00  0.00     0.166 HD
HETATM    5  C8  UNL     1      -0.378   5.018  11.926  1.00  0.00     0.125 A 
HETATM    6  C16 UNL     1      -1.324   4.795  10.963  1.00  0.00     0.078 A 
HETATM    7 CL1  UNL     1      -0.967   4.957   9.250  1.00  0.00    -0.080 Cl
HETATM    8  C17 UNL     1      -2.614   4.428  11.369  1.00  0.00     0.040 A 
ENDROOT
BRANCH   1   9
HETATM    9  C1  UNL     1      -4.262   3.905  13.147  1.00  0.00     0.214 C 
BRANCH   9  10
HETATM   10  O1  UNL     1      -4.967   3.482  11.991  1.00  0.00    -0.372 OA
ATOM     11  H1  UNL     1      -5.887   3.518  12.225  1.00  0.00     0.211 HD
ENDBRANCH   9  10
BRANCH   9  12
HETATM   12  C2  UNL     1      -4.192   2.702  14.042  1.00  0.00     0.021 A 
HETATM   13  C3  UNL     1      -4.260   1.421  13.531  1.00  0.00     0.101 A 
HETATM   14  N1  UNL     1      -4.196   0.347  14.327  1.00  0.00    -0.361 N 
HETATM   15  C4  UNL     1      -4.064   0.471  15.658  1.00  0.00     0.180 A 
ATOM     16  H1  UNL     1      -4.249  -0.584  13.914  1.00  0.00     0.166 HD
HETATM   17  N2  UNL     1      -3.999   1.712  16.157  1.00  0.00    -0.361 N 
HETATM   18  C5  UNL     1      -4.057   2.819  15.405  1.00  0.00     0.101 A 
ATOM     19  H2  UNL     1      -3.901   1.821  17.166  1.00  0.00     0.166 HD
ENDBRANCH   9  12
BRANCH   9  20
HETATM   20  C18 UNL     1      -5.103   4.984  13.743  1.00  0.00     0.427 C 
HETATM   21  F1  UNL     1      -6.306   4.600  14.241  1.00  0.00    -0.167 F 
HETATM   22  F2  UNL     1      -4.339   5.685  14.673  1.00  0.00    -0.167 F 
HETATM   23  F3  UNL     1      -5.358   5.904  12.719  1.00  0.00    -0.167 F 
ENDBRANCH   9  20
ENDBRANCH   1   9
BRANCH   5  24
HETATM   24  N4  UNL     1       0.932   5.389  11.485  1.00  0.00    -0.365 N 
HETATM   25  C9  UNL     1       1.300   6.749  11.157  1.00  0.00     0.125 C 
HETATM   26  C10 UNL     1       1.770   6.741   9.728  1.00  0.00     0.025 C 
HETATM   27  C11 UNL     1       2.784   5.715   9.411  1.00  0.00    -0.007 C 
HETATM   28  C12 UNL     1       2.407   4.981   8.120  1.00  0.00     0.005 C 
HETATM   29  C14 UNL     1       2.713   4.433  10.120  1.00  0.00     0.008 C 
HETATM   30  C13 UNL     1       2.109   3.735   8.919  1.00  0.00     0.007 C 
HETATM   31  C15 UNL     1       1.922   4.368  11.366  1.00  0.00     0.129 C 
ENDBRANCH   5  24
TORSDOF 5
ENDMDL
