MODEL 1
REMARK VINA RESULT: -6.095661499      0.000      0.000
REMARK  9 active torsions:
REMARK  status: ('A' for Active; 'I' for Inactive)
REMARK    1  A    between atoms: C2_2  and  C3_3 
REMARK    2  A    between atoms: C3_3  and  C4_4 
REMARK    3  A    between atoms: C4_4  and  C5_5 
REMARK    4  A    between atoms: C5_5  and  C6_6 
REMARK    5  A    between atoms: C7_7  and  C8_8 
REMARK    6  A    between atoms: C12_16  and  O3_17 
REMARK    7  A    between atoms: C13_19  and  O4_20 
REMARK    8  A    between atoms: C24_33  and  C26_35 
REMARK    9  A    between atoms: C26_35  and  O6_36 
ROOT
HETATM    1  C8  UNL     1      11.939  51.246  84.288  1.00  0.00     0.152 A 
HETATM    2  C9  UNL     1      12.385  51.072  85.699  1.00  0.00     0.116 A 
HETATM    3  C10 UNL     1      11.685  52.329  86.064  1.00  0.00     0.314 A 
HETATM    4  O1  UNL     1      11.351  52.460  84.690  1.00  0.00    -0.337 OA
HETATM    5  C11 UNL     1      12.562  53.438  86.504  1.00  0.00     0.284 C 
HETATM    6  O2  UNL     1      13.402  53.806  85.594  1.00  0.00    -0.268 OA
HETATM    7  N1  UNL     1      12.582  54.102  87.736  1.00  0.00    -0.328 N 
ATOM      8  H1  UNL     1      12.431  55.109  87.677  1.00  0.00     0.165 HD
HETATM    9  C12 UNL     1      12.780  53.608  89.058  1.00  0.00     0.249 C 
HETATM   10  C13 UNL     1      11.614  53.640  89.981  1.00  0.00     0.176 C 
HETATM   11  C15 UNL     1      10.264  53.298  89.475  1.00  0.00     0.059 C 
HETATM   12  C16 UNL     1       9.745  54.079  88.326  1.00  0.00     0.038 C 
HETATM   13  C17 UNL     1       9.811  53.453  86.991  1.00  0.00     0.242 C 
HETATM   14  N2  UNL     1      10.444  52.210  86.827  1.00  0.00    -0.026 N 
HETATM   15  C18 UNL     1       9.591  51.373  85.947  1.00  0.00     0.277 C 
HETATM   16  C19 UNL     1      10.689  51.390  87.968  1.00  0.00     0.282 C 
HETATM   17  C20 UNL     1       9.940  51.843  89.231  1.00  0.00     0.118 C 
HETATM   18  O5  UNL     1       8.615  51.855  88.811  1.00  0.00    -0.362 OA
HETATM   19  C21 UNL     1       7.670  51.355  89.627  1.00  0.00     0.087 C 
HETATM   20  C22 UNL     1       6.456  51.033  88.734  1.00  0.00     0.049 C 
HETATM   21  C23 UNL     1       7.134  52.401  90.608  1.00  0.00     0.049 C 
HETATM   22  C24 UNL     1       8.018  50.124  90.358  1.00  0.00     0.109 C 
HETATM   23  C25 UNL     1       7.219  50.120  91.679  1.00  0.00     0.051 C 
HETATM   24  O7  UNL     1       9.308  49.994  90.688  1.00  0.00    -0.367 OA
HETATM   25  C27 UNL     1      10.234  50.915  90.338  1.00  0.00     0.155 C 
HETATM   26  C28 UNL     1      11.501  50.070  90.122  1.00  0.00     0.042 C 
ENDROOT
BRANCH  10  27
HETATM   27  O4  UNL     1      11.593  54.814  90.759  1.00  0.00    -0.386 OA
HETATM   28  C14 UNL     1      11.160  54.714  92.024  1.00  0.00     0.202 C 
ENDBRANCH  10  27
BRANCH   9  29
HETATM   29  O3  UNL     1      13.746  54.469  89.678  1.00  0.00    -0.374 OA
ATOM     30  H3  UNL     1      13.574  54.442  90.612  1.00  0.00     0.212 HD
ENDBRANCH   9  29
BRANCH  22  31
HETATM   31  C26 UNL     1       7.561  48.843  89.685  1.00  0.00     0.204 C 
BRANCH  31  32
HETATM   32  O6  UNL     1       8.513  48.173  88.983  1.00  0.00    -0.398 OA
ATOM     33  H6  UNL     1       8.306  47.995  88.073  1.00  0.00     0.209 HD
ENDBRANCH  31  32
ENDBRANCH  22  31
BRANCH   1  34
HETATM   34  C7  UNL     1      12.968  51.514  83.264  1.00  0.00     0.001 C 
HETATM   35  C6  UNL     1      13.352  50.624  82.363  1.00  0.00    -0.028 C 
BRANCH  35  36
HETATM   36  C5  UNL     1      14.379  50.898  81.349  1.00  0.00     0.027 C 
BRANCH  36  37
HETATM   37  C4  UNL     1      14.682  52.379  81.377  1.00  0.00     0.004 C 
BRANCH  37  38
HETATM   38  C3  UNL     1      16.193  52.639  81.466  1.00  0.00    -0.000 C 
BRANCH  38  39
HETATM   39  C2  UNL     1      16.593  52.176  82.869  1.00  0.00    -0.005 C 
HETATM   40  C1  UNL     1      16.194  53.201  83.891  1.00  0.00     0.005 C 
ENDBRANCH  38  39
ENDBRANCH  37  38
ENDBRANCH  36  37
ENDBRANCH  35  36
ENDBRANCH   1  34
TORSDOF 9
ENDMDL
MODEL 2
REMARK VINA RESULT: -6.047621544      0.843      1.392
REMARK  9 active torsions:
REMARK  status: ('A' for Active; 'I' for Inactive)
REMARK    1  A    between atoms: C2_2  and  C3_3 
REMARK    2  A    between atoms: C3_3  and  C4_4 
REMARK    3  A    between atoms: C4_4  and  C5_5 
REMARK    4  A    between atoms: C5_5  and  C6_6 
REMARK    5  A    between atoms: C7_7  and  C8_8 
REMARK    6  A    between atoms: C12_16  and  O3_17 
REMARK    7  A    between atoms: C13_19  and  O4_20 
REMARK    8  A    between atoms: C24_33  and  C26_35 
REMARK    9  A    between atoms: C26_35  and  O6_36 
ROOT
HETATM    1  C8  UNL     1      12.436  51.939  84.586  1.00  0.00     0.152 A 
HETATM    2  C9  UNL     1      12.638  51.529  86.004  1.00  0.00     0.116 A 
HETATM    3  C10 UNL     1      11.894  52.735  86.448  1.00  0.00     0.314 A 
HETATM    4  O1  UNL     1      11.797  53.093  85.076  1.00  0.00    -0.337 OA
HETATM    5  C11 UNL     1      12.691  53.731  87.199  1.00  0.00     0.284 C 
HETATM    6  O2  UNL     1      13.674  54.211  86.512  1.00  0.00    -0.268 OA
HETATM    7  N1  UNL     1      12.508  54.191  88.508  1.00  0.00    -0.328 N 
ATOM      8  H1  UNL     1      12.375  55.199  88.589  1.00  0.00     0.165 HD
HETATM    9  C12 UNL     1      12.477  53.487  89.748  1.00  0.00     0.249 C 
HETATM   10  C13 UNL     1      11.173  53.411  90.459  1.00  0.00     0.176 C 
HETATM   11  C15 UNL     1       9.925  53.197  89.688  1.00  0.00     0.059 C 
HETATM   12  C16 UNL     1       9.611  54.167  88.611  1.00  0.00     0.038 C 
HETATM   13  C17 UNL     1       9.898  53.760  87.221  1.00  0.00     0.242 C 
HETATM   14  N2  UNL     1      10.541  52.538  86.966  1.00  0.00    -0.026 N 
HETATM   15  C18 UNL     1       9.843  51.880  85.833  1.00  0.00     0.277 C 
HETATM   16  C19 UNL     1      10.586  51.540  87.983  1.00  0.00     0.282 C 
HETATM   17  C20 UNL     1       9.638  51.811  89.162  1.00  0.00     0.118 C 
HETATM   18  O5  UNL     1       8.403  51.934  88.537  1.00  0.00    -0.362 OA
HETATM   19  C21 UNL     1       7.331  51.342  89.094  1.00  0.00     0.087 C 
HETATM   20  C22 UNL     1       6.283  51.205  87.973  1.00  0.00     0.049 C 
HETATM   21  C23 UNL     1       6.644  52.237  90.128  1.00  0.00     0.049 C 
HETATM   22  C24 UNL     1       7.543  50.000  89.663  1.00  0.00     0.109 C 
HETATM   23  C25 UNL     1       6.534  49.813  90.816  1.00  0.00     0.051 C 
HETATM   24  O7  UNL     1       8.759  49.777  90.176  1.00  0.00    -0.367 OA
HETATM   25  C27 UNL     1       9.736  50.711  90.137  1.00  0.00     0.155 C 
HETATM   26  C28 UNL     1      11.016  49.869  90.000  1.00  0.00     0.042 C 
ENDROOT
BRANCH  10  27
HETATM   27  O4  UNL     1      11.028  54.446  91.401  1.00  0.00    -0.386 OA
HETATM   28  C14 UNL     1      10.104  54.290  92.361  1.00  0.00     0.202 C 
ENDBRANCH  10  27
BRANCH   9  29
HETATM   29  O3  UNL     1      13.330  54.207  90.650  1.00  0.00    -0.374 OA
ATOM     30  H3  UNL     1      14.221  53.946  90.447  1.00  0.00     0.212 HD
ENDBRANCH   9  29
BRANCH  22  31
HETATM   31  C26 UNL     1       7.199  48.858  88.726  1.00  0.00     0.204 C 
BRANCH  31  32
HETATM   32  O6  UNL     1       8.252  48.272  88.096  1.00  0.00    -0.398 OA
ATOM     33  H6  UNL     1       8.047  47.808  87.293  1.00  0.00     0.209 HD
ENDBRANCH  31  32
ENDBRANCH  22  31
BRANCH   1  34
HETATM   34  C7  UNL     1      13.625  52.332  83.804  1.00  0.00     0.001 C 
HETATM   35  C6  UNL     1      14.795  52.626  84.349  1.00  0.00    -0.028 C 
BRANCH  35  36
HETATM   36  C5  UNL     1      15.973  53.018  83.564  1.00  0.00     0.027 C 
BRANCH  36  37
HETATM   37  C4  UNL     1      16.227  51.940  82.533  1.00  0.00     0.004 C 
BRANCH  37  38
HETATM   38  C3  UNL     1      16.227  52.517  81.109  1.00  0.00    -0.000 C 
BRANCH  38  39
HETATM   39  C2  UNL     1      15.852  51.340  80.206  1.00  0.00    -0.005 C 
HETATM   40  C1  UNL     1      14.615  50.661  80.719  1.00  0.00     0.005 C 
ENDBRANCH  38  39
ENDBRANCH  37  38
ENDBRANCH  36  37
ENDBRANCH  35  36
ENDBRANCH   1  34
TORSDOF 9
ENDMDL
MODEL 3
REMARK VINA RESULT: -6.017712956      4.678      7.789
REMARK  9 active torsions:
REMARK  status: ('A' for Active; 'I' for Inactive)
REMARK    1  A    between atoms: C2_2  and  C3_3 
REMARK    2  A    between atoms: C3_3  and  C4_4 
REMARK    3  A    between atoms: C4_4  and  C5_5 
REMARK    4  A    between atoms: C5_5  and  C6_6 
REMARK    5  A    between atoms: C7_7  and  C8_8 
REMARK    6  A    between atoms: C12_16  and  O3_17 
REMARK    7  A    between atoms: C13_19  and  O4_20 
REMARK    8  A    between atoms: C24_33  and  C26_35 
REMARK    9  A    between atoms: C26_35  and  O6_36 
ROOT
HETATM    1  C8  UNL     1      12.179  54.042  90.740  1.00  0.00     0.152 A 
HETATM    2  C9  UNL     1      11.270  53.366  91.707  1.00  0.00     0.116 A 
HETATM    3  C10 UNL     1      12.403  53.218  92.654  1.00  0.00     0.314 A 
HETATM    4  O1  UNL     1      13.222  53.814  91.657  1.00  0.00    -0.337 OA
HETATM    5  C11 UNL     1      12.827  51.827  92.925  1.00  0.00     0.284 C 
HETATM    6  O2  UNL     1      13.229  51.208  91.865  1.00  0.00    -0.268 OA
HETATM    7  N1  UNL     1      12.841  51.136  94.142  1.00  0.00    -0.328 N 
ATOM      8  H1  UNL     1      13.757  50.781  94.417  1.00  0.00     0.165 HD
HETATM    9  C12 UNL     1      11.792  50.847  95.063  1.00  0.00     0.249 C 
HETATM   10  C13 UNL     1      11.831  51.533  96.382  1.00  0.00     0.176 C 
HETATM   11  C15 UNL     1      12.239  52.955  96.461  1.00  0.00     0.059 C 
HETATM   12  C16 UNL     1      13.566  53.319  95.907  1.00  0.00     0.038 C 
HETATM   13  C17 UNL     1      13.598  53.947  94.571  1.00  0.00     0.242 C 
HETATM   14  N2  UNL     1      12.413  54.086  93.831  1.00  0.00    -0.026 N 
HETATM   15  C18 UNL     1      12.396  55.448  93.241  1.00  0.00     0.277 C 
HETATM   16  C19 UNL     1      11.154  53.969  94.491  1.00  0.00     0.282 C 
HETATM   17  C20 UNL     1      11.249  54.009  96.024  1.00  0.00     0.118 C 
HETATM   18  O5  UNL     1      11.906  55.211  96.256  1.00  0.00    -0.362 OA
HETATM   19  C21 UNL     1      11.472  56.008  97.250  1.00  0.00     0.087 C 
HETATM   20  C22 UNL     1      12.016  57.416  96.941  1.00  0.00     0.049 C 
HETATM   21  C23 UNL     1      12.108  55.658  98.597  1.00  0.00     0.049 C 
HETATM   22  C24 UNL     1      10.011  56.125  97.406  1.00  0.00     0.109 C 
HETATM   23  C25 UNL     1       9.720  56.414  98.894  1.00  0.00     0.051 C 
HETATM   24  O7  UNL     1       9.308  55.034  97.082  1.00  0.00    -0.367 OA
HETATM   25  C27 UNL     1       9.898  53.915  96.605  1.00  0.00     0.155 C 
HETATM   26  C28 UNL     1       8.842  53.349  95.639  1.00  0.00     0.042 C 
ENDROOT
BRANCH  10  27
HETATM   27  O4  UNL     1      12.479  50.754  97.359  1.00  0.00    -0.386 OA
HETATM   28  C14 UNL     1      12.166  50.980  98.643  1.00  0.00     0.202 C 
ENDBRANCH  10  27
BRANCH   9  29
HETATM   29  O3  UNL     1      11.901  49.454  95.385  1.00  0.00    -0.374 OA
ATOM     30  H3  UNL     1      12.391  49.401  96.197  1.00  0.00     0.212 HD
ENDBRANCH   9  29
BRANCH  22  31
HETATM   31  C26 UNL     1       9.398  57.321  96.705  1.00  0.00     0.204 C 
BRANCH  31  32
HETATM   32  O6  UNL     1       8.104  57.176  96.310  1.00  0.00    -0.398 OA
ATOM     33  H6  UNL     1       7.447  57.469  96.931  1.00  0.00     0.209 HD
ENDBRANCH  31  32
ENDBRANCH  22  31
BRANCH   1  34
HETATM   34  C7  UNL     1      12.480  53.348  89.472  1.00  0.00     0.001 C 
HETATM   35  C6  UNL     1      11.797  53.538  88.354  1.00  0.00    -0.028 C 
BRANCH  35  36
HETATM   36  C5  UNL     1      12.101  52.843  87.097  1.00  0.00     0.027 C 
BRANCH  36  37
HETATM   37  C4  UNL     1      12.832  53.810  86.192  1.00  0.00     0.004 C 
BRANCH  37  38
HETATM   38  C3  UNL     1      13.662  53.069  85.134  1.00  0.00    -0.000 C 
BRANCH  38  39
HETATM   39  C2  UNL     1      14.995  53.819  85.080  1.00  0.00    -0.005 C 
HETATM   40  C1  UNL     1      15.849  53.285  83.965  1.00  0.00     0.005 C 
ENDBRANCH  38  39
ENDBRANCH  37  38
ENDBRANCH  36  37
ENDBRANCH  35  36
ENDBRANCH   1  34
TORSDOF 9
ENDMDL
MODEL 4
REMARK VINA RESULT: -5.981782039      1.296      1.542
REMARK  9 active torsions:
REMARK  status: ('A' for Active; 'I' for Inactive)
REMARK    1  A    between atoms: C2_2  and  C3_3 
REMARK    2  A    between atoms: C3_3  and  C4_4 
REMARK    3  A    between atoms: C4_4  and  C5_5 
REMARK    4  A    between atoms: C5_5  and  C6_6 
REMARK    5  A    between atoms: C7_7  and  C8_8 
REMARK    6  A    between atoms: C12_16  and  O3_17 
REMARK    7  A    between atoms: C13_19  and  O4_20 
REMARK    8  A    between atoms: C24_33  and  C26_35 
REMARK    9  A    between atoms: C26_35  and  O6_36 
ROOT
HETATM    1  C8  UNL     1      11.712  50.943  84.754  1.00  0.00     0.152 A 
HETATM    2  C9  UNL     1      12.473  51.038  86.031  1.00  0.00     0.116 A 
HETATM    3  C10 UNL     1      11.439  51.957  86.568  1.00  0.00     0.314 A 
HETATM    4  O1  UNL     1      10.802  51.866  85.301  1.00  0.00    -0.337 OA
HETATM    5  C11 UNL     1      11.894  53.339  86.834  1.00  0.00     0.284 C 
HETATM    6  O2  UNL     1      12.321  53.941  85.774  1.00  0.00    -0.268 OA
HETATM    7  N1  UNL     1      11.915  54.036  88.048  1.00  0.00    -0.328 N 
ATOM      8  H1  UNL     1      11.381  54.905  88.046  1.00  0.00     0.165 HD
HETATM    9  C12 UNL     1      12.557  53.736  89.285  1.00  0.00     0.249 C 
HETATM   10  C13 UNL     1      11.687  53.381  90.438  1.00  0.00     0.176 C 
HETATM   11  C15 UNL     1      10.498  52.522  90.226  1.00  0.00     0.059 C 
HETATM   12  C16 UNL     1       9.492  52.976  89.235  1.00  0.00     0.038 C 
HETATM   13  C17 UNL     1       9.514  52.342  87.903  1.00  0.00     0.242 C 
HETATM   14  N2  UNL     1      10.525  51.424  87.578  1.00  0.00    -0.026 N 
HETATM   15  C18 UNL     1       9.894  50.274  86.883  1.00  0.00     0.277 C 
HETATM   16  C19 UNL     1      11.296  50.829  88.619  1.00  0.00     0.282 C 
HETATM   17  C20 UNL     1      10.712  51.041  90.024  1.00  0.00     0.118 C 
HETATM   18  O5  UNL     1       9.428  50.525  89.900  1.00  0.00    -0.362 OA
HETATM   19  C21 UNL     1       8.938  49.756  90.889  1.00  0.00     0.087 C 
HETATM   20  C22 UNL     1       7.783  48.944  90.271  1.00  0.00     0.049 C 
HETATM   21  C23 UNL     1       8.259  50.579  91.986  1.00  0.00     0.049 C 
HETATM   22  C24 UNL     1       9.874  48.795  91.499  1.00  0.00     0.109 C 
HETATM   23  C25 UNL     1       9.431  48.570  92.960  1.00  0.00     0.051 C 
HETATM   24  O7  UNL     1      11.153  49.184  91.540  1.00  0.00    -0.367 OA
HETATM   25  C27 UNL     1      11.561  50.363  91.020  1.00  0.00     0.155 C 
HETATM   26  C28 UNL     1      12.981  50.049  90.516  1.00  0.00     0.042 C 
ENDROOT
BRANCH  10  27
HETATM   27  O4  UNL     1      11.380  54.504  91.229  1.00  0.00    -0.386 OA
HETATM   28  C14 UNL     1      11.108  54.297  92.525  1.00  0.00     0.202 C 
ENDBRANCH  10  27
BRANCH   9  29
HETATM   29  O3  UNL     1      13.225  54.934  89.702  1.00  0.00    -0.374 OA
ATOM     30  H3  UNL     1      13.992  54.661  90.192  1.00  0.00     0.212 HD
ENDBRANCH   9  29
BRANCH  22  31
HETATM   31  C26 UNL     1       9.813  47.398  90.910  1.00  0.00     0.204 C 
BRANCH  31  32
HETATM   32  O6  UNL     1      10.742  47.117  89.957  1.00  0.00    -0.398 OA
ATOM     33  H6  UNL     1      11.099  46.237  89.975  1.00  0.00     0.209 HD
ENDBRANCH  31  32
ENDBRANCH  22  31
BRANCH   1  34
HETATM   34  C7  UNL     1      12.323  51.517  83.539  1.00  0.00     0.001 C 
HETATM   35  C6  UNL     1      13.308  50.937  82.872  1.00  0.00    -0.028 C 
BRANCH  35  36
HETATM   36  C5  UNL     1      13.913  51.515  81.665  1.00  0.00     0.027 C 
BRANCH  36  37
HETATM   37  C4  UNL     1      15.415  51.388  81.787  1.00  0.00     0.004 C 
BRANCH  37  38
HETATM   38  C3  UNL     1      16.074  52.751  82.041  1.00  0.00    -0.000 C 
BRANCH  38  39
HETATM   39  C2  UNL     1      16.483  52.725  83.515  1.00  0.00    -0.005 C 
HETATM   40  C1  UNL     1      15.544  53.566  84.332  1.00  0.00     0.005 C 
ENDBRANCH  38  39
ENDBRANCH  37  38
ENDBRANCH  36  37
ENDBRANCH  35  36
ENDBRANCH   1  34
TORSDOF 9
ENDMDL
MODEL 5
REMARK VINA RESULT: -5.975848224      3.948      6.762
REMARK  9 active torsions:
REMARK  status: ('A' for Active; 'I' for Inactive)
REMARK    1  A    between atoms: C2_2  and  C3_3 
REMARK    2  A    between atoms: C3_3  and  C4_4 
REMARK    3  A    between atoms: C4_4  and  C5_5 
REMARK    4  A    between atoms: C5_5  and  C6_6 
REMARK    5  A    between atoms: C7_7  and  C8_8 
REMARK    6  A    between atoms: C12_16  and  O3_17 
REMARK    7  A    between atoms: C13_19  and  O4_20 
REMARK    8  A    between atoms: C24_33  and  C26_35 
REMARK    9  A    between atoms: C26_35  and  O6_36 
ROOT
HETATM    1  C8  UNL     1      11.547  53.630  89.542  1.00  0.00     0.152 A 
HETATM    2  C9  UNL     1      10.822  52.831  90.569  1.00  0.00     0.116 A 
HETATM    3  C10 UNL     1      12.100  52.623  91.295  1.00  0.00     0.314 A 
HETATM    4  O1  UNL     1      12.732  53.343  90.245  1.00  0.00    -0.337 OA
HETATM    5  C11 UNL     1      12.582  51.225  91.342  1.00  0.00     0.284 C 
HETATM    6  O2  UNL     1      12.810  50.730  90.171  1.00  0.00    -0.268 OA
HETATM    7  N1  UNL     1      12.810  50.414  92.461  1.00  0.00    -0.328 N 
ATOM      8  H1  UNL     1      13.764  50.061  92.541  1.00  0.00     0.165 HD
HETATM    9  C12 UNL     1      11.934  50.000  93.506  1.00  0.00     0.249 C 
HETATM   10  C13 UNL     1      12.184  50.548  94.866  1.00  0.00     0.176 C 
HETATM   11  C15 UNL     1      12.580  51.967  95.027  1.00  0.00     0.059 C 
HETATM   12  C16 UNL     1      13.790  52.427  94.303  1.00  0.00     0.038 C 
HETATM   13  C17 UNL     1      13.589  53.189  93.055  1.00  0.00     0.242 C 
HETATM   14  N2  UNL     1      12.295  53.365  92.539  1.00  0.00    -0.026 N 
HETATM   15  C18 UNL     1      12.161  54.779  92.108  1.00  0.00     0.277 C 
HETATM   16  C19 UNL     1      11.166  53.143  93.382  1.00  0.00     0.282 C 
HETATM   17  C20 UNL     1      11.517  53.028  94.873  1.00  0.00     0.118 C 
HETATM   18  O5  UNL     1      12.187  54.220  95.121  1.00  0.00    -0.362 OA
HETATM   19  C21 UNL     1      11.914  54.897  96.251  1.00  0.00     0.087 C 
HETATM   20  C22 UNL     1      12.379  56.346  96.008  1.00  0.00     0.049 C 
HETATM   21  C23 UNL     1      12.772  54.431  97.430  1.00  0.00     0.049 C 
HETATM   22  C24 UNL     1      10.499  54.951  96.658  1.00  0.00     0.109 C 
HETATM   23  C25 UNL     1      10.457  55.078  98.196  1.00  0.00     0.051 C 
HETATM   24  O7  UNL     1       9.766  53.878  96.341  1.00  0.00    -0.367 OA
HETATM   25  C27 UNL     1      10.284  52.833  95.657  1.00  0.00     0.155 C 
HETATM   26  C28 UNL     1       9.089  52.336  94.824  1.00  0.00     0.042 C 
ENDROOT
BRANCH  10  27
HETATM   27  O4  UNL     1      12.997  49.693  95.634  1.00  0.00    -0.386 OA
HETATM   28  C14 UNL     1      12.890  49.766  96.969  1.00  0.00     0.202 C 
ENDBRANCH  10  27
BRANCH   9  29
HETATM   29  O3  UNL     1      12.114  48.585  93.656  1.00  0.00    -0.374 OA
ATOM     30  H3  UNL     1      12.043  48.399  94.585  1.00  0.00     0.212 HD
ENDBRANCH   9  29
BRANCH  22  31
HETATM   31  C26 UNL     1       9.760  56.194  96.199  1.00  0.00     0.204 C 
BRANCH  31  32
HETATM   32  O6  UNL     1       8.572  55.977  95.572  1.00  0.00    -0.398 OA
ATOM     33  H6  UNL     1       8.218  55.099  95.651  1.00  0.00     0.209 HD
ENDBRANCH  31  32
ENDBRANCH  22  31
BRANCH   1  34
HETATM   34  C7  UNL     1      11.641  53.080  88.176  1.00  0.00     0.001 C 
HETATM   35  C6  UNL     1      11.924  53.813  87.110  1.00  0.00    -0.028 C 
BRANCH  35  36
HETATM   36  C5  UNL     1      12.013  53.258  85.753  1.00  0.00     0.027 C 
BRANCH  36  37
HETATM   37  C4  UNL     1      13.473  53.008  85.445  1.00  0.00     0.004 C 
BRANCH  37  38
HETATM   38  C3  UNL     1      14.342  54.211  85.839  1.00  0.00    -0.000 C 
BRANCH  38  39
HETATM   39  C2  UNL     1      15.498  54.210  84.835  1.00  0.00    -0.005 C 
HETATM   40  C1  UNL     1      15.429  52.990  83.961  1.00  0.00     0.005 C 
ENDBRANCH  38  39
ENDBRANCH  37  38
ENDBRANCH  36  37
ENDBRANCH  35  36
ENDBRANCH   1  34
TORSDOF 9
ENDMDL
