MODEL 1
REMARK VINA RESULT: -8.441211632      0.000      0.000
REMARK  9 active torsions:
REMARK  status: ('A' for Active; 'I' for Inactive)
REMARK    1  A    between atoms: C2_2  and  O1_5 
REMARK    2  A    between atoms: O1_5  and  C5_6 
REMARK       I    between atoms: C5_6  and  N1_8 
REMARK    3  A    between atoms: N1_8  and  C6_10 
REMARK    4  A    between atoms: C6_10  and  C9_13 
REMARK       I    between atoms: C9_13  and  N2_15 
REMARK    5  A    between atoms: N2_15  and  C10_17 
REMARK    6  A    between atoms: C10_17  and  C11_18 
REMARK    7  A    between atoms: C10_17  and  N5_30 
REMARK       I    between atoms: C11_18  and  N3_20 
REMARK    8  A    between atoms: N3_20  and  C12_22 
REMARK    9  A    between atoms: C12_22  and  C13_23 
ROOT
HETATM    1  C10 UNL     1      25.082   4.564  11.556  1.00  0.00     0.417 C 
ENDROOT
BRANCH   1   2
HETATM    2  N2  UNL     1      24.171   4.949  12.636  1.00  0.00    -0.321 N 
HETATM    3  C9  UNL     1      24.563   4.755  13.965  1.00  0.00     0.247 C 
HETATM    4  O3  UNL     1      25.706   4.248  14.240  1.00  0.00    -0.271 OA
ATOM      5  H2  UNL     1      23.261   5.355  12.422  1.00  0.00     0.165 HD
BRANCH   3   6
HETATM    6  C6  UNL     1      23.714   5.110  15.136  1.00  0.00     0.108 C 
HETATM    7  C7  UNL     1      24.518   4.863  16.407  1.00  0.00     0.049 C 
HETATM    8  C8  UNL     1      22.523   4.187  15.159  1.00  0.00     0.049 C 
BRANCH   6   9
HETATM    9  N1  UNL     1      23.337   6.501  15.113  1.00  0.00    -0.319 N 
HETATM   10  C5  UNL     1      24.317   7.482  15.393  1.00  0.00     0.362 C 
HETATM   11  O2  UNL     1      25.499   7.161  15.655  1.00  0.00    -0.238 OA
ATOM     12  H1  UNL     1      22.378   6.773  14.897  1.00  0.00     0.166 HD
BRANCH  10  13
HETATM   13  O1  UNL     1      23.990   8.809  15.383  1.00  0.00    -0.294 OA
BRANCH  13  14
HETATM   14  C2  UNL     1      24.552   9.800  14.561  1.00  0.00     0.061 C 
HETATM   15  C1  UNL     1      25.842  10.363  15.070  1.00  0.00     0.046 C 
HETATM   16  C3  UNL     1      23.537  10.942  14.509  1.00  0.00     0.046 C 
HETATM   17  C4  UNL     1      24.710   9.306  13.135  1.00  0.00     0.046 C 
ENDBRANCH  13  14
ENDBRANCH  10  13
ENDBRANCH   6   9
ENDBRANCH   3   6
ENDBRANCH   1   2
BRANCH   1  18
HETATM   18  C11 UNL     1      25.550   5.762  10.829  1.00  0.00     0.271 C 
HETATM   19  O4  UNL     1      24.723   6.740  10.712  1.00  0.00    -0.269 OA
HETATM   20  N3  UNL     1      26.799   5.969  10.247  1.00  0.00    -0.353 N 
ATOM     21  H3  UNL     1      27.490   5.222  10.321  1.00  0.00     0.162 HD
BRANCH  20  22
HETATM   22  C12 UNL     1      27.177   7.177   9.545  1.00  0.00     0.172 C 
BRANCH  22  23
HETATM   23  C13 UNL     1      28.384   7.795  10.184  1.00  0.00     0.040 A 
HETATM   24  S1  UNL     1      28.488   8.911  11.489  1.00  0.00    -0.084 SA
HETATM   25  C14 UNL     1      30.185   9.070  11.551  1.00  0.00     0.139 A 
HETATM   26  N4  UNL     1      30.574   8.266  10.577  1.00  0.00    -0.350 N 
HETATM   27  C15 UNL     1      29.704   7.617   9.876  1.00  0.00     0.118 A 
ATOM     28  H4  UNL     1      31.569   8.158  10.376  1.00  0.00     0.166 HD
HETATM   29 CL1  UNL     1      30.159   6.513   8.541  1.00  0.00    -0.063 Cl
ENDBRANCH  22  23
ENDBRANCH  20  22
ENDBRANCH   1  18
BRANCH   1  30
HETATM   30  N5  UNL     1      24.432   3.570  10.810  1.00  0.00     0.132 N 
HETATM   31  C16 UNL     1      24.985   2.829   9.767  1.00  0.00     0.356 C 
HETATM   32  C17 UNL     1      23.553   2.513   9.309  1.00  0.00     0.296 C 
HETATM   33  F1  UNL     1      22.938   1.508   9.993  1.00  0.00    -0.203 F 
HETATM   34  F2  UNL     1      23.393   2.557   7.959  1.00  0.00    -0.203 F 
HETATM   35  C18 UNL     1      23.278   3.848  10.033  1.00  0.00     0.356 C 
ENDBRANCH   1  30
TORSDOF 9
ENDMDL
MODEL 2
REMARK VINA RESULT: -8.321375843      1.210      1.418
REMARK  9 active torsions:
REMARK  status: ('A' for Active; 'I' for Inactive)
REMARK    1  A    between atoms: C2_2  and  O1_5 
REMARK    2  A    between atoms: O1_5  and  C5_6 
REMARK       I    between atoms: C5_6  and  N1_8 
REMARK    3  A    between atoms: N1_8  and  C6_10 
REMARK    4  A    between atoms: C6_10  and  C9_13 
REMARK       I    between atoms: C9_13  and  N2_15 
REMARK    5  A    between atoms: N2_15  and  C10_17 
REMARK    6  A    between atoms: C10_17  and  C11_18 
REMARK    7  A    between atoms: C10_17  and  N5_30 
REMARK       I    between atoms: C11_18  and  N3_20 
REMARK    8  A    between atoms: N3_20  and  C12_22 
REMARK    9  A    between atoms: C12_22  and  C13_23 
ROOT
HETATM    1  C10 UNL     1      25.126   4.808  11.280  1.00  0.00     0.417 C 
ENDROOT
BRANCH   1   2
HETATM    2  N2  UNL     1      24.216   5.030  12.407  1.00  0.00    -0.321 N 
HETATM    3  C9  UNL     1      24.659   4.768  13.708  1.00  0.00     0.247 C 
HETATM    4  O3  UNL     1      25.847   4.340  13.917  1.00  0.00    -0.271 OA
ATOM      5  H2  UNL     1      23.269   5.372  12.244  1.00  0.00     0.165 HD
BRANCH   3   6
HETATM    6  C6  UNL     1      23.816   4.958  14.921  1.00  0.00     0.108 C 
HETATM    7  C7  UNL     1      24.646   4.595  16.146  1.00  0.00     0.049 C 
HETATM    8  C8  UNL     1      22.656   3.997  14.851  1.00  0.00     0.049 C 
BRANCH   6   9
HETATM    9  N1  UNL     1      23.393   6.328  15.061  1.00  0.00    -0.319 N 
HETATM   10  C5  UNL     1      24.347   7.307  15.424  1.00  0.00     0.362 C 
HETATM   11  O2  UNL     1      25.546   7.002  15.620  1.00  0.00    -0.238 OA
ATOM     12  H1  UNL     1      22.419   6.588  14.900  1.00  0.00     0.166 HD
BRANCH  10  13
HETATM   13  O1  UNL     1      23.976   8.615  15.569  1.00  0.00    -0.294 OA
BRANCH  13  14
HETATM   14  C2  UNL     1      24.518   9.715  14.885  1.00  0.00     0.061 C 
HETATM   15  C1  UNL     1      25.900  10.090  15.320  1.00  0.00     0.046 C 
HETATM   16  C3  UNL     1      23.601  10.901  15.182  1.00  0.00     0.046 C 
HETATM   17  C4  UNL     1      24.468   9.506  13.382  1.00  0.00     0.046 C 
ENDBRANCH  13  14
ENDBRANCH  10  13
ENDBRANCH   6   9
ENDBRANCH   3   6
ENDBRANCH   1   2
BRANCH   1  18
HETATM   18  C11 UNL     1      25.558   6.101  10.710  1.00  0.00     0.271 C 
HETATM   19  O4  UNL     1      24.717   7.074  10.750  1.00  0.00    -0.269 OA
HETATM   20  N3  UNL     1      26.787   6.402  10.127  1.00  0.00    -0.353 N 
ATOM     21  H3  UNL     1      27.488   5.663  10.078  1.00  0.00     0.162 HD
BRANCH  20  22
HETATM   22  C12 UNL     1      27.131   7.700   9.584  1.00  0.00     0.172 C 
BRANCH  22  23
HETATM   23  C13 UNL     1      28.514   8.092  10.008  1.00  0.00     0.040 A 
HETATM   24  S1  UNL     1      29.950   8.241   9.072  1.00  0.00    -0.084 SA
HETATM   25  C14 UNL     1      31.015   8.716  10.318  1.00  0.00     0.139 A 
HETATM   26  N4  UNL     1      30.218   8.734  11.372  1.00  0.00    -0.350 N 
HETATM   27  C15 UNL     1      28.967   8.428  11.253  1.00  0.00     0.118 A 
ATOM     28  H4  UNL     1      30.592   8.990  12.286  1.00  0.00     0.166 HD
HETATM   29 CL1  UNL     1      27.831   8.429  12.637  1.00  0.00    -0.063 Cl
ENDBRANCH  22  23
ENDBRANCH  20  22
ENDBRANCH   1  18
BRANCH   1  30
HETATM   30  N5  UNL     1      24.492   3.902  10.418  1.00  0.00     0.132 N 
HETATM   31  C16 UNL     1      23.475   3.013  10.761  1.00  0.00     0.356 C 
HETATM   32  C17 UNL     1      23.836   2.206   9.504  1.00  0.00     0.296 C 
HETATM   33  F1  UNL     1      23.320   2.692   8.341  1.00  0.00    -0.203 F 
HETATM   34  F2  UNL     1      23.812   0.860   9.699  1.00  0.00    -0.203 F 
HETATM   35  C18 UNL     1      25.206   2.868   9.757  1.00  0.00     0.356 C 
ENDBRANCH   1  30
TORSDOF 9
ENDMDL
MODEL 3
REMARK VINA RESULT: -8.234433689      1.235      1.285
REMARK  9 active torsions:
REMARK  status: ('A' for Active; 'I' for Inactive)
REMARK    1  A    between atoms: C2_2  and  O1_5 
REMARK    2  A    between atoms: O1_5  and  C5_6 
REMARK       I    between atoms: C5_6  and  N1_8 
REMARK    3  A    between atoms: N1_8  and  C6_10 
REMARK    4  A    between atoms: C6_10  and  C9_13 
REMARK       I    between atoms: C9_13  and  N2_15 
REMARK    5  A    between atoms: N2_15  and  C10_17 
REMARK    6  A    between atoms: C10_17  and  C11_18 
REMARK    7  A    between atoms: C10_17  and  N5_30 
REMARK       I    between atoms: C11_18  and  N3_20 
REMARK    8  A    between atoms: N3_20  and  C12_22 
REMARK    9  A    between atoms: C12_22  and  C13_23 
ROOT
HETATM    1  C10 UNL     1      25.073   4.533  11.554  1.00  0.00     0.417 C 
ENDROOT
BRANCH   1   2
HETATM    2  N2  UNL     1      24.152   4.964  12.609  1.00  0.00    -0.321 N 
HETATM    3  C9  UNL     1      24.503   4.765  13.949  1.00  0.00     0.247 C 
HETATM    4  O3  UNL     1      25.617   4.215  14.255  1.00  0.00    -0.271 OA
ATOM      5  H2  UNL     1      23.264   5.404  12.369  1.00  0.00     0.165 HD
BRANCH   3   6
HETATM    6  C6  UNL     1      23.640   5.164  15.096  1.00  0.00     0.108 C 
HETATM    7  C7  UNL     1      24.410   4.916  16.387  1.00  0.00     0.049 C 
HETATM    8  C8  UNL     1      22.423   4.275  15.109  1.00  0.00     0.049 C 
BRANCH   6   9
HETATM    9  N1  UNL     1      23.304   6.564  15.041  1.00  0.00    -0.319 N 
HETATM   10  C5  UNL     1      24.308   7.522  15.312  1.00  0.00     0.362 C 
HETATM   11  O2  UNL     1      25.478   7.173  15.593  1.00  0.00    -0.238 OA
ATOM     12  H1  UNL     1      22.355   6.860  14.811  1.00  0.00     0.166 HD
BRANCH  10  13
HETATM   13  O1  UNL     1      24.020   8.858  15.273  1.00  0.00    -0.294 OA
BRANCH  13  14
HETATM   14  C2  UNL     1      24.603   9.812  14.423  1.00  0.00     0.061 C 
HETATM   15  C1  UNL     1      25.894  10.379  14.928  1.00  0.00     0.046 C 
HETATM   16  C3  UNL     1      23.602  10.963  14.317  1.00  0.00     0.046 C 
HETATM   17  C4  UNL     1      24.773   9.265  13.018  1.00  0.00     0.046 C 
ENDBRANCH  13  14
ENDBRANCH  10  13
ENDBRANCH   6   9
ENDBRANCH   3   6
ENDBRANCH   1   2
BRANCH   1  18
HETATM   18  C11 UNL     1      25.588   5.704  10.815  1.00  0.00     0.271 C 
HETATM   19  O4  UNL     1      24.764   6.663  10.582  1.00  0.00    -0.269 OA
HETATM   20  N3  UNL     1      26.881   5.902  10.335  1.00  0.00    -0.353 N 
ATOM     21  H3  UNL     1      27.572   5.171  10.503  1.00  0.00     0.162 HD
BRANCH  20  22
HETATM   22  C12 UNL     1      27.305   7.083   9.612  1.00  0.00     0.172 C 
BRANCH  22  23
HETATM   23  C13 UNL     1      27.744   8.151  10.569  1.00  0.00     0.040 A 
HETATM   24  S1  UNL     1      28.614   8.012  12.047  1.00  0.00    -0.084 SA
HETATM   25  C14 UNL     1      28.676   9.667  12.459  1.00  0.00     0.139 A 
HETATM   26  N4  UNL     1      28.032  10.228  11.450  1.00  0.00    -0.350 N 
HETATM   27  C15 UNL     1      27.556   9.502  10.492  1.00  0.00     0.118 A 
ATOM     28  H4  UNL     1      27.910  11.240  11.427  1.00  0.00     0.166 HD
HETATM   29 CL1  UNL     1      26.672  10.193   9.096  1.00  0.00    -0.063 Cl
ENDBRANCH  22  23
ENDBRANCH  20  22
ENDBRANCH   1  18
BRANCH   1  30
HETATM   30  N5  UNL     1      24.409   3.543  10.814  1.00  0.00     0.132 N 
HETATM   31  C16 UNL     1      24.957   2.781   9.783  1.00  0.00     0.356 C 
HETATM   32  C17 UNL     1      23.522   2.488   9.318  1.00  0.00     0.296 C 
HETATM   33  F1  UNL     1      22.883   1.501  10.006  1.00  0.00    -0.203 F 
HETATM   34  F2  UNL     1      23.374   2.521   7.966  1.00  0.00    -0.203 F 
HETATM   35  C18 UNL     1      23.267   3.835  10.025  1.00  0.00     0.356 C 
ENDBRANCH   1  30
TORSDOF 9
ENDMDL
MODEL 4
REMARK VINA RESULT: -8.163009894      2.909      5.772
REMARK  9 active torsions:
REMARK  status: ('A' for Active; 'I' for Inactive)
REMARK    1  A    between atoms: C2_2  and  O1_5 
REMARK    2  A    between atoms: O1_5  and  C5_6 
REMARK       I    between atoms: C5_6  and  N1_8 
REMARK    3  A    between atoms: N1_8  and  C6_10 
REMARK    4  A    between atoms: C6_10  and  C9_13 
REMARK       I    between atoms: C9_13  and  N2_15 
REMARK    5  A    between atoms: N2_15  and  C10_17 
REMARK    6  A    between atoms: C10_17  and  C11_18 
REMARK    7  A    between atoms: C10_17  and  N5_30 
REMARK       I    between atoms: C11_18  and  N3_20 
REMARK    8  A    between atoms: N3_20  and  C12_22 
REMARK    9  A    between atoms: C12_22  and  C13_23 
ROOT
HETATM    1  C10 UNL     1      24.463   4.912  10.593  1.00  0.00     0.417 C 
ENDROOT
BRANCH   1   2
HETATM    2  N2  UNL     1      25.678   5.608  10.161  1.00  0.00    -0.321 N 
HETATM    3  C9  UNL     1      25.825   6.970  10.444  1.00  0.00     0.247 C 
HETATM    4  O3  UNL     1      24.911   7.607  11.075  1.00  0.00    -0.271 OA
ATOM      5  H2  UNL     1      26.409   5.104   9.660  1.00  0.00     0.165 HD
BRANCH   3   6
HETATM    6  C6  UNL     1      27.017   7.771  10.050  1.00  0.00     0.108 C 
HETATM    7  C7  UNL     1      26.540   9.117   9.518  1.00  0.00     0.049 C 
HETATM    8  C8  UNL     1      27.722   7.056   8.926  1.00  0.00     0.049 C 
BRANCH   6   9
HETATM    9  N1  UNL     1      27.881   8.020  11.176  1.00  0.00    -0.319 N 
HETATM   10  C5  UNL     1      28.419   6.921  11.885  1.00  0.00     0.362 C 
HETATM   11  O2  UNL     1      28.159   5.743  11.548  1.00  0.00    -0.238 OA
ATOM     12  H1  UNL     1      28.102   8.976  11.457  1.00  0.00     0.166 HD
BRANCH  10  13
HETATM   13  O1  UNL     1      29.238   7.124  12.960  1.00  0.00    -0.294 OA
BRANCH  13  14
HETATM   14  C2  UNL     1      30.586   7.517  12.919  1.00  0.00     0.061 C 
HETATM   15  C1  UNL     1      31.342   6.997  11.736  1.00  0.00     0.046 C 
HETATM   16  C3  UNL     1      31.240   6.945  14.176  1.00  0.00     0.046 C 
HETATM   17  C4  UNL     1      30.721   9.026  13.018  1.00  0.00     0.046 C 
ENDBRANCH  13  14
ENDBRANCH  10  13
ENDBRANCH   6   9
ENDBRANCH   3   6
ENDBRANCH   1   2
BRANCH   1  18
HETATM   18  C11 UNL     1      24.439   4.790  12.065  1.00  0.00     0.271 C 
HETATM   19  O4  UNL     1      23.305   4.537  12.617  1.00  0.00    -0.269 OA
HETATM   20  N3  UNL     1      25.513   4.913  12.944  1.00  0.00    -0.353 N 
ATOM     21  H3  UNL     1      26.434   5.106  12.551  1.00  0.00     0.162 HD
BRANCH  20  22
HETATM   22  C12 UNL     1      25.403   4.783  14.382  1.00  0.00     0.172 C 
BRANCH  22  23
HETATM   23  C13 UNL     1      24.976   6.084  14.992  1.00  0.00     0.040 A 
HETATM   24  S1  UNL     1      25.743   7.623  14.948  1.00  0.00    -0.084 SA
HETATM   25  C14 UNL     1      24.606   8.499  15.870  1.00  0.00     0.139 A 
HETATM   26  N4  UNL     1      23.709   7.571  16.157  1.00  0.00    -0.350 N 
HETATM   27  C15 UNL     1      23.863   6.359  15.736  1.00  0.00     0.118 A 
ATOM     28  H4  UNL     1      22.890   7.814  16.716  1.00  0.00     0.166 HD
HETATM   29 CL1  UNL     1      22.690   5.051  16.088  1.00  0.00    -0.063 Cl
ENDBRANCH  22  23
ENDBRANCH  20  22
ENDBRANCH   1  18
BRANCH   1  30
HETATM   30  N5  UNL     1      24.385   3.728   9.846  1.00  0.00     0.132 N 
HETATM   31  C16 UNL     1      23.570   2.632  10.123  1.00  0.00     0.356 C 
HETATM   32  C17 UNL     1      24.502   1.789   9.239  1.00  0.00     0.296 C 
HETATM   33  F1  UNL     1      24.278   1.897   7.899  1.00  0.00    -0.203 F 
HETATM   34  F2  UNL     1      24.757   0.553   9.745  1.00  0.00    -0.203 F 
HETATM   35  C18 UNL     1      25.508   2.878   9.665  1.00  0.00     0.356 C 
ENDBRANCH   1  30
TORSDOF 9
ENDMDL
MODEL 5
REMARK VINA RESULT: -7.903946500      2.653      5.686
REMARK  9 active torsions:
REMARK  status: ('A' for Active; 'I' for Inactive)
REMARK    1  A    between atoms: C2_2  and  O1_5 
REMARK    2  A    between atoms: O1_5  and  C5_6 
REMARK       I    between atoms: C5_6  and  N1_8 
REMARK    3  A    between atoms: N1_8  and  C6_10 
REMARK    4  A    between atoms: C6_10  and  C9_13 
REMARK       I    between atoms: C9_13  and  N2_15 
REMARK    5  A    between atoms: N2_15  and  C10_17 
REMARK    6  A    between atoms: C10_17  and  C11_18 
REMARK    7  A    between atoms: C10_17  and  N5_30 
REMARK       I    between atoms: C11_18  and  N3_20 
REMARK    8  A    between atoms: N3_20  and  C12_22 
REMARK    9  A    between atoms: C12_22  and  C13_23 
ROOT
HETATM    1  C10 UNL     1      24.903   4.734  10.857  1.00  0.00     0.417 C 
ENDROOT
BRANCH   1   2
HETATM    2  N2  UNL     1      26.218   5.257  10.482  1.00  0.00    -0.321 N 
HETATM    3  C9  UNL     1      26.364   6.624  10.220  1.00  0.00     0.247 C 
HETATM    4  O3  UNL     1      25.360   7.414  10.307  1.00  0.00    -0.271 OA
ATOM      5  H2  UNL     1      27.021   4.632  10.413  1.00  0.00     0.165 HD
BRANCH   3   6
HETATM    6  C6  UNL     1      27.654   7.258   9.830  1.00  0.00     0.108 C 
HETATM    7  C7  UNL     1      27.352   8.574   9.126  1.00  0.00     0.049 C 
HETATM    8  C8  UNL     1      28.348   6.357   8.841  1.00  0.00     0.049 C 
BRANCH   6   9
HETATM    9  N1  UNL     1      28.469   7.548  10.983  1.00  0.00    -0.319 N 
HETATM   10  C5  UNL     1      29.214   6.503  11.576  1.00  0.00     0.362 C 
HETATM   11  O2  UNL     1      29.179   5.339  11.115  1.00  0.00    -0.238 OA
ATOM     12  H1  UNL     1      28.507   8.493  11.364  1.00  0.00     0.166 HD
BRANCH  10  13
HETATM   13  O1  UNL     1      29.993   6.745  12.673  1.00  0.00    -0.294 OA
BRANCH  13  14
HETATM   14  C2  UNL     1      31.146   7.546  12.717  1.00  0.00     0.061 C 
HETATM   15  C1  UNL     1      31.887   7.628  11.419  1.00  0.00     0.046 C 
HETATM   16  C3  UNL     1      32.079   6.903  13.743  1.00  0.00     0.046 C 
HETATM   17  C4  UNL     1      30.830   8.935  13.241  1.00  0.00     0.046 C 
ENDBRANCH  13  14
ENDBRANCH  10  13
ENDBRANCH   6   9
ENDBRANCH   3   6
ENDBRANCH   1   2
BRANCH   1  18
HETATM   18  C11 UNL     1      24.707   4.842  12.317  1.00  0.00     0.271 C 
HETATM   19  O4  UNL     1      23.513   4.675  12.766  1.00  0.00    -0.269 OA
HETATM   20  N3  UNL     1      25.674   5.102  13.287  1.00  0.00    -0.353 N 
ATOM     21  H3  UNL     1      26.637   5.235  12.978  1.00  0.00     0.162 HD
BRANCH  20  22
HETATM   22  C12 UNL     1      25.396   5.197  14.704  1.00  0.00     0.172 C 
BRANCH  22  23
HETATM   23  C13 UNL     1      25.101   6.617  15.085  1.00  0.00     0.040 A 
HETATM   24  S1  UNL     1      23.605   7.353  15.510  1.00  0.00    -0.084 SA
HETATM   25  C14 UNL     1      24.173   8.939  15.782  1.00  0.00     0.139 A 
HETATM   26  N4  UNL     1      25.465   8.816  15.534  1.00  0.00    -0.350 N 
HETATM   27  C15 UNL     1      25.960   7.674  15.184  1.00  0.00     0.118 A 
ATOM     28  H4  UNL     1      26.076   9.629  15.619  1.00  0.00     0.166 HD
HETATM   29 CL1  UNL     1      27.700   7.437  14.831  1.00  0.00    -0.063 Cl
ENDBRANCH  22  23
ENDBRANCH  20  22
ENDBRANCH   1  18
BRANCH   1  30
HETATM   30  N5  UNL     1      24.793   3.459  10.284  1.00  0.00     0.132 N 
HETATM   31  C16 UNL     1      25.601   2.939   9.273  1.00  0.00     0.356 C 
HETATM   32  C17 UNL     1      24.489   1.917   8.991  1.00  0.00     0.296 C 
HETATM   33  F1  UNL     1      24.466   0.844   9.830  1.00  0.00    -0.203 F 
HETATM   34  F2  UNL     1      24.281   1.695   7.665  1.00  0.00    -0.203 F 
HETATM   35  C18 UNL     1      23.624   3.041   9.597  1.00  0.00     0.356 C 
ENDBRANCH   1  30
TORSDOF 9
ENDMDL
