MODEL 1
REMARK VINA RESULT: -4.339448748      0.000      0.000
REMARK  6 active torsions:
REMARK  status: ('A' for Active; 'I' for Inactive)
REMARK    1  A    between atoms: N2_4  and  C1_6 
REMARK    2  A    between atoms: C2_7  and  C3_8 
REMARK    3  A    between atoms: C3_8  and  N3_9 
REMARK    4  A    between atoms: C3_8  and  N4_13 
REMARK    5  A    between atoms: C5_22  and  N7_23 
REMARK    6  A    between atoms: N7_23  and  N8_25 
ROOT
HETATM    1  C1  UNL     1       1.501 -14.274  -0.448  1.00  0.00     0.119 A 
HETATM    2  C2  UNL     1       0.259 -14.818  -0.823  1.00  0.00     0.100 A 
HETATM    3  N5  UNL     1       0.086 -15.102  -2.122  1.00  0.00    -0.351 N 
ATOM      4  H5  UNL     1      -0.805 -15.499  -2.421  1.00  0.00     0.166 HD
HETATM    5  C4  UNL     1       1.036 -14.888  -3.048  1.00  0.00     0.182 A 
HETATM    6  N6  UNL     1       2.225 -14.371  -2.718  1.00  0.00    -0.336 N 
ATOM      7  H6  UNL     1       2.941 -14.210  -3.427  1.00  0.00     0.168 HD
HETATM    8  C5  UNL     1       2.458 -14.060  -1.394  1.00  0.00     0.151 A 
ENDROOT
BRANCH   2   9
HETATM    9  C3  UNL     1      -0.793 -15.063   0.168  1.00  0.00     0.429 C 
BRANCH   9  10
HETATM   10  N3  UNL     1      -0.667 -16.335   0.848  1.00  0.00    -0.045 N 
ATOM     11  H33 UNL     1       0.201 -16.801   0.582  1.00  0.00     0.277 HD
ATOM     12  H32 UNL     1      -0.487 -16.195   1.842  1.00  0.00     0.277 HD
ATOM     13  H31 UNL     1      -1.466 -16.955   0.710  1.00  0.00     0.277 HD
ENDBRANCH   9  10
BRANCH   9  14
HETATM   14  N4  UNL     1      -2.083 -15.010  -0.527  1.00  0.00    -0.045 N 
ATOM     15  H43 UNL     1      -2.305 -14.079  -0.879  1.00  0.00     0.277 HD
ATOM     16  H42 UNL     1      -2.070 -15.494  -1.424  1.00  0.00     0.277 HD
ATOM     17  H41 UNL     1      -2.794 -15.372   0.109  1.00  0.00     0.277 HD
ENDBRANCH   9  14
ENDBRANCH   2   9
BRANCH   1  18
HETATM   18  N2  UNL     1       1.736 -13.955   0.909  1.00  0.00    -0.302 N 
HETATM   19  N1  UNL     1       2.378 -14.763   1.618  1.00  0.00    -0.345 N 
ATOM     20  H12 UNL     1       2.719 -15.633   1.208  1.00  0.00     0.176 HD
ATOM     21  H11 UNL     1       2.547 -14.534   2.597  1.00  0.00     0.176 HD
ATOM     22  H2  UNL     1       1.388 -13.082   1.304  1.00  0.00     0.186 HD
ENDBRANCH   1  18
BRANCH   8  23
HETATM   23  N7  UNL     1       3.601 -13.572  -1.133  1.00  0.00    -0.290 N 
ATOM     24  H7  UNL     1       3.653 -12.566  -0.969  1.00  0.00     0.188 HD
BRANCH  23  25
HETATM   25  N8  UNL     1       4.771 -14.279  -1.051  1.00  0.00    -0.344 N 
ATOM     26  H82 UNL     1       4.734 -15.146  -0.514  1.00  0.00     0.176 HD
ATOM     27  H81 UNL     1       5.657 -14.012  -1.477  1.00  0.00     0.176 HD
ENDBRANCH  23  25
ENDBRANCH   8  23
TORSDOF 6
ENDMDL
MODEL 2
REMARK VINA RESULT: -4.179110287      1.205      3.396
REMARK  6 active torsions:
REMARK  status: ('A' for Active; 'I' for Inactive)
REMARK    1  A    between atoms: N2_4  and  C1_6 
REMARK    2  A    between atoms: C2_7  and  C3_8 
REMARK    3  A    between atoms: C3_8  and  N3_9 
REMARK    4  A    between atoms: C3_8  and  N4_13 
REMARK    5  A    between atoms: C5_22  and  N7_23 
REMARK    6  A    between atoms: N7_23  and  N8_25 
ROOT
HETATM    1  C1  UNL     1       1.666 -14.625  -0.973  1.00  0.00     0.119 A 
HETATM    2  C2  UNL     1       0.752 -14.954  -1.991  1.00  0.00     0.100 A 
HETATM    3  N5  UNL     1      -0.523 -15.147  -1.624  1.00  0.00    -0.351 N 
ATOM      4  H5  UNL     1      -1.207 -15.386  -2.342  1.00  0.00     0.166 HD
HETATM    5  C4  UNL     1      -0.940 -15.038  -0.351  1.00  0.00     0.182 A 
HETATM    6  N6  UNL     1      -0.091 -14.728   0.635  1.00  0.00    -0.336 N 
ATOM      7  H6  UNL     1      -0.415 -14.648   1.599  1.00  0.00     0.168 HD
HETATM    8  C5  UNL     1       1.234 -14.518   0.314  1.00  0.00     0.151 A 
ENDROOT
BRANCH   2   9
HETATM    9  C3  UNL     1       1.181 -15.076  -3.387  1.00  0.00     0.429 C 
BRANCH   9  10
HETATM   10  N3  UNL     1       0.141 -14.764  -4.345  1.00  0.00    -0.045 N 
ATOM     11  H33 UNL     1      -0.770 -15.067  -3.999  1.00  0.00     0.277 HD
ATOM     12  H32 UNL     1      -0.019 -13.758  -4.387  1.00  0.00     0.277 HD
ATOM     13  H31 UNL     1       0.316 -15.140  -5.277  1.00  0.00     0.277 HD
ENDBRANCH   9  10
BRANCH   9  14
HETATM   14  N4  UNL     1       1.636 -16.455  -3.596  1.00  0.00    -0.045 N 
ATOM     15  H43 UNL     1       2.636 -16.570  -3.438  1.00  0.00     0.277 HD
ATOM     16  H42 UNL     1       1.310 -17.093  -2.871  1.00  0.00     0.277 HD
ATOM     17  H41 UNL     1       1.348 -16.739  -4.533  1.00  0.00     0.277 HD
ENDBRANCH   9  14
ENDBRANCH   2   9
BRANCH   1  18
HETATM   18  N2  UNL     1       3.024 -14.411  -1.306  1.00  0.00    -0.302 N 
HETATM   19  N1  UNL     1       3.447 -13.237  -1.396  1.00  0.00    -0.345 N 
ATOM     20  H12 UNL     1       2.810 -12.458  -1.231  1.00  0.00     0.176 HD
ATOM     21  H11 UNL     1       4.427 -13.083  -1.636  1.00  0.00     0.176 HD
ATOM     22  H2  UNL     1       3.648 -15.201  -1.469  1.00  0.00     0.186 HD
ENDBRANCH   1  18
BRANCH   8  23
HETATM   23  N7  UNL     1       2.000 -14.225   1.285  1.00  0.00    -0.290 N 
ATOM     24  H7  UNL     1       2.097 -13.237   1.521  1.00  0.00     0.188 HD
BRANCH  23  25
HETATM   25  N8  UNL     1       2.705 -15.121   2.043  1.00  0.00    -0.344 N 
ATOM     26  H82 UNL     1       2.802 -16.059   1.653  1.00  0.00     0.176 HD
ATOM     27  H81 UNL     1       3.131 -14.928   2.948  1.00  0.00     0.176 HD
ENDBRANCH  23  25
ENDBRANCH   8  23
TORSDOF 6
ENDMDL
MODEL 3
REMARK VINA RESULT: -4.125173312      1.578      3.015
REMARK  6 active torsions:
REMARK  status: ('A' for Active; 'I' for Inactive)
REMARK    1  A    between atoms: N2_4  and  C1_6 
REMARK    2  A    between atoms: C2_7  and  C3_8 
REMARK    3  A    between atoms: C3_8  and  N3_9 
REMARK    4  A    between atoms: C3_8  and  N4_13 
REMARK    5  A    between atoms: C5_22  and  N7_23 
REMARK    6  A    between atoms: N7_23  and  N8_25 
ROOT
HETATM    1  C1  UNL     1       2.783 -14.473  -0.699  1.00  0.00     0.119 A 
HETATM    2  C2  UNL     1       1.758 -14.801   0.206  1.00  0.00     0.100 A 
HETATM    3  N5  UNL     1       2.127 -15.360   1.367  1.00  0.00    -0.351 N 
ATOM      4  H5  UNL     1       1.403 -15.607   2.042  1.00  0.00     0.166 HD
HETATM    5  C4  UNL     1       3.409 -15.609   1.681  1.00  0.00     0.182 A 
HETATM    6  N6  UNL     1       4.403 -15.308   0.838  1.00  0.00    -0.336 N 
ATOM      7  H6  UNL     1       5.374 -15.500   1.084  1.00  0.00     0.168 HD
HETATM    8  C5  UNL     1       4.081 -14.729  -0.372  1.00  0.00     0.151 A 
ENDROOT
BRANCH   2   9
HETATM    9  C3  UNL     1       0.351 -14.538  -0.112  1.00  0.00     0.429 C 
BRANCH   9  10
HETATM   10  N3  UNL     1      -0.458 -14.224   1.046  1.00  0.00    -0.045 N 
ATOM     11  H33 UNL     1      -0.161 -14.773   1.853  1.00  0.00     0.277 HD
ATOM     12  H32 UNL     1      -0.246 -13.287   1.390  1.00  0.00     0.277 HD
ATOM     13  H31 UNL     1      -1.461 -14.330   0.887  1.00  0.00     0.277 HD
ENDBRANCH   9  10
BRANCH   9  14
HETATM   14  N4  UNL     1      -0.189 -15.731  -0.773  1.00  0.00    -0.045 N 
ATOM     15  H43 UNL     1      -0.373 -16.494  -0.123  1.00  0.00     0.277 HD
ATOM     16  H42 UNL     1      -1.145 -15.601  -1.103  1.00  0.00     0.277 HD
ATOM     17  H41 UNL     1       0.457 -15.993  -1.519  1.00  0.00     0.277 HD
ENDBRANCH   9  14
ENDBRANCH   2   9
BRANCH   1  18
HETATM   18  N2  UNL     1       2.449 -13.880  -1.939  1.00  0.00    -0.302 N 
HETATM   19  N1  UNL     1       2.362 -14.608  -2.954  1.00  0.00    -0.345 N 
ATOM     20  H12 UNL     1       2.532 -15.610  -2.871  1.00  0.00     0.176 HD
ATOM     21  H11 UNL     1       2.121 -14.181  -3.848  1.00  0.00     0.176 HD
ATOM     22  H2  UNL     1       2.281 -12.877  -2.005  1.00  0.00     0.186 HD
ENDBRANCH   1  18
BRANCH   8  23
HETATM   23  N7  UNL     1       5.060 -14.462  -1.137  1.00  0.00    -0.290 N 
ATOM     24  H7  UNL     1       5.175 -13.489  -1.424  1.00  0.00     0.188 HD
BRANCH  23  25
HETATM   25  N8  UNL     1       5.973 -15.366  -1.608  1.00  0.00    -0.344 N 
ATOM     26  H82 UNL     1       6.949 -15.178  -1.379  1.00  0.00     0.176 HD
ATOM     27  H81 UNL     1       5.757 -16.195  -2.160  1.00  0.00     0.176 HD
ENDBRANCH  23  25
ENDBRANCH   8  23
TORSDOF 6
ENDMDL
MODEL 4
REMARK VINA RESULT: -4.038270920      1.127      3.879
REMARK  6 active torsions:
REMARK  status: ('A' for Active; 'I' for Inactive)
REMARK    1  A    between atoms: N2_4  and  C1_6 
REMARK    2  A    between atoms: C2_7  and  C3_8 
REMARK    3  A    between atoms: C3_8  and  N3_9 
REMARK    4  A    between atoms: C3_8  and  N4_13 
REMARK    5  A    between atoms: C5_22  and  N7_23 
REMARK    6  A    between atoms: N7_23  and  N8_25 
ROOT
HETATM    1  C1  UNL     1       1.014 -14.501   0.045  1.00  0.00     0.119 A 
HETATM    2  C2  UNL     1       1.657 -14.668  -1.195  1.00  0.00     0.100 A 
HETATM    3  N5  UNL     1       0.892 -15.038  -2.232  1.00  0.00    -0.351 N 
ATOM      4  H5  UNL     1       1.333 -15.166  -3.143  1.00  0.00     0.166 HD
HETATM    5  C4  UNL     1      -0.431 -15.247  -2.123  1.00  0.00     0.182 A 
HETATM    6  N6  UNL     1      -1.066 -15.095  -0.956  1.00  0.00    -0.336 N 
ATOM      7  H6  UNL     1      -2.071 -15.255  -0.882  1.00  0.00     0.168 HD
HETATM    8  C5  UNL     1      -0.327 -14.715   0.145  1.00  0.00     0.151 A 
ENDROOT
BRANCH   2   9
HETATM    9  C3  UNL     1       3.098 -14.446  -1.340  1.00  0.00     0.429 C 
BRANCH   9  10
HETATM   10  N3  UNL     1       3.465 -13.048  -1.428  1.00  0.00    -0.045 N 
ATOM     11  H33 UNL     1       3.164 -12.543  -0.594  1.00  0.00     0.277 HD
ATOM     12  H32 UNL     1       4.475 -12.934  -1.341  1.00  0.00     0.277 HD
ATOM     13  H31 UNL     1       3.123 -12.587  -2.272  1.00  0.00     0.277 HD
ENDBRANCH   9  10
BRANCH   9  14
HETATM   14  N4  UNL     1       3.539 -15.141  -2.553  1.00  0.00    -0.045 N 
ATOM     15  H43 UNL     1       3.164 -16.086  -2.627  1.00  0.00     0.277 HD
ATOM     16  H42 UNL     1       3.118 -14.763  -3.402  1.00  0.00     0.277 HD
ATOM     17  H41 UNL     1       4.559 -15.118  -2.572  1.00  0.00     0.277 HD
ENDBRANCH   9  14
ENDBRANCH   2   9
BRANCH   1  18
HETATM   18  N2  UNL     1       1.775 -14.112   1.172  1.00  0.00    -0.302 N 
HETATM   19  N1  UNL     1       2.432 -14.981   1.788  1.00  0.00    -0.345 N 
ATOM     20  H12 UNL     1       2.408 -15.950   1.470  1.00  0.00     0.176 HD
ATOM     21  H11 UNL     1       2.981 -14.700   2.601  1.00  0.00     0.176 HD
ATOM     22  H2  UNL     1       1.788 -13.139   1.477  1.00  0.00     0.186 HD
ENDBRANCH   1  18
BRANCH   8  23
HETATM   23  N7  UNL     1      -0.976 -14.584   1.230  1.00  0.00    -0.290 N 
ATOM     24  H7  UNL     1      -1.154 -13.633   1.554  1.00  0.00     0.188 HD
BRANCH  23  25
HETATM   25  N8  UNL     1      -1.457 -15.608   1.999  1.00  0.00    -0.344 N 
ATOM     26  H82 UNL     1      -2.344 -15.435   2.473  1.00  0.00     0.176 HD
ATOM     27  H81 UNL     1      -1.007 -16.513   2.133  1.00  0.00     0.176 HD
ENDBRANCH  23  25
ENDBRANCH   8  23
TORSDOF 6
ENDMDL
MODEL 5
REMARK VINA RESULT: -4.034399854      1.313      2.857
REMARK  6 active torsions:
REMARK  status: ('A' for Active; 'I' for Inactive)
REMARK    1  A    between atoms: N2_4  and  C1_6 
REMARK    2  A    between atoms: C2_7  and  C3_8 
REMARK    3  A    between atoms: C3_8  and  N3_9 
REMARK    4  A    between atoms: C3_8  and  N4_13 
REMARK    5  A    between atoms: C5_22  and  N7_23 
REMARK    6  A    between atoms: N7_23  and  N8_25 
ROOT
HETATM    1  C1  UNL     1       1.737 -14.683  -1.731  1.00  0.00     0.119 A 
HETATM    2  C2  UNL     1       0.459 -14.984  -1.227  1.00  0.00     0.100 A 
HETATM    3  N5  UNL     1       0.195 -14.602   0.031  1.00  0.00    -0.351 N 
ATOM      4  H5  UNL     1      -0.725 -14.808   0.421  1.00  0.00     0.166 HD
HETATM    5  C4  UNL     1       1.090 -13.959   0.799  1.00  0.00     0.182 A 
HETATM    6  N6  UNL     1       2.312 -13.661   0.345  1.00  0.00    -0.336 N 
ATOM      7  H6  UNL     1       2.986 -13.173   0.935  1.00  0.00     0.168 HD
HETATM    8  C5  UNL     1       2.638 -14.031  -0.944  1.00  0.00     0.151 A 
ENDROOT
BRANCH   2   9
HETATM    9  C3  UNL     1      -0.536 -15.684  -2.046  1.00  0.00     0.429 C 
BRANCH   9  10
HETATM   10  N3  UNL     1      -1.896 -15.253  -1.803  1.00  0.00    -0.045 N 
ATOM     11  H33 UNL     1      -1.910 -14.422  -1.212  1.00  0.00     0.277 HD
ATOM     12  H32 UNL     1      -2.308 -14.865  -2.652  1.00  0.00     0.277 HD
ATOM     13  H31 UNL     1      -2.494 -15.982  -1.414  1.00  0.00     0.277 HD
ENDBRANCH   9  10
BRANCH   9  14
HETATM   14  N4  UNL     1      -0.422 -17.118  -1.761  1.00  0.00    -0.045 N 
ATOM     15  H43 UNL     1       0.058 -17.632  -2.499  1.00  0.00     0.277 HD
ATOM     16  H42 UNL     1       0.233 -17.321  -1.006  1.00  0.00     0.277 HD
ATOM     17  H41 UNL     1      -1.361 -17.474  -1.577  1.00  0.00     0.277 HD
ENDBRANCH   9  14
ENDBRANCH   2   9
BRANCH   1  18
HETATM   18  N2  UNL     1       2.067 -15.065  -3.053  1.00  0.00    -0.302 N 
HETATM   19  N1  UNL     1       1.659 -14.363  -4.005  1.00  0.00    -0.345 N 
ATOM     20  H12 UNL     1       1.097 -13.532  -3.815  1.00  0.00     0.176 HD
ATOM     21  H11 UNL     1       1.897 -14.638  -4.958  1.00  0.00     0.176 HD
ATOM     22  H2  UNL     1       2.628 -15.897  -3.226  1.00  0.00     0.186 HD
ENDBRANCH   1  18
BRANCH   8  23
HETATM   23  N7  UNL     1       3.809 -13.725  -1.330  1.00  0.00    -0.290 N 
ATOM     24  H7  UNL     1       3.925 -12.829  -1.804  1.00  0.00     0.188 HD
BRANCH  23  25
HETATM   25  N8  UNL     1       4.929 -14.495  -1.163  1.00  0.00    -0.344 N 
ATOM     26  H82 UNL     1       5.791 -14.126  -1.565  1.00  0.00     0.176 HD
ATOM     27  H81 UNL     1       4.967 -15.390  -0.677  1.00  0.00     0.176 HD
ENDBRANCH  23  25
ENDBRANCH   8  23
TORSDOF 6
ENDMDL
