MODEL 1
REMARK VINA RESULT: -5.195600480      0.000      0.000
REMARK  3 active torsions:
REMARK  status: ('A' for Active; 'I' for Inactive)
REMARK    1  A    between atoms: N1_1  and  N2_4 
REMARK    2  A    between atoms: N2_4  and  C1_6 
REMARK    3  A    between atoms: C1_6  and  O1_7 
ROOT
HETATM    1  C1  UNL     1       2.500 -14.390   0.665  1.00  0.00     0.173 C 
HETATM    2  C2  UNL     1       3.708 -14.727  -0.023  1.00  0.00     0.125 A 
HETATM    3  C3  UNL     1       4.807 -15.233   0.689  1.00  0.00     0.140 A 
HETATM    4  N3  UNL     1       4.684 -15.398   2.088  1.00  0.00    -0.081 NA
HETATM    5  N4  UNL     1       5.944 -15.555   0.068  1.00  0.00    -0.296 N 
ATOM      6  H4  UNL     1       6.728 -15.923   0.607  1.00  0.00     0.171 HD
HETATM    7  C4  UNL     1       6.065 -15.400  -1.261  1.00  0.00     0.328 A 
HETATM    8  O2  UNL     1       7.142 -15.702  -1.866  1.00  0.00    -0.247 OA
HETATM    9  N5  UNL     1       5.050 -14.920  -1.998  1.00  0.00    -0.275 N 
ATOM     10  H5  UNL     1       5.152 -14.807  -3.006  1.00  0.00     0.173 HD
HETATM   11  C5  UNL     1       3.871 -14.585  -1.374  1.00  0.00     0.267 A 
HETATM   12  O3  UNL     1       2.955 -14.142  -2.101  1.00  0.00    -0.267 OA
ENDROOT
BRANCH   1  13
HETATM   13  N2  UNL     1       1.298 -13.879   0.172  1.00  0.00    -0.286 N 
ATOM     14  H2  UNL     1       1.067 -12.892   0.286  1.00  0.00     0.188 HD
BRANCH  13  15
HETATM   15  N1  UNL     1       0.398 -14.768  -0.496  1.00  0.00    -0.343 N 
ATOM     16  H12 UNL     1      -0.194 -15.394   0.050  1.00  0.00     0.176 HD
ATOM     17  H11 UNL     1       0.368 -14.758  -1.516  1.00  0.00     0.176 HD
ENDBRANCH  13  15
ENDBRANCH   1  13
BRANCH   1  18
HETATM   18  O1  UNL     1       2.526 -14.592   1.954  1.00  0.00    -0.344 OA
ATOM     19  H1  UNL     1       2.509 -13.805   2.484  1.00  0.00     0.219 HD
ENDBRANCH   1  18
TORSDOF 3
ENDMDL
MODEL 2
REMARK VINA RESULT: -5.195397359      2.379      5.389
REMARK  3 active torsions:
REMARK  status: ('A' for Active; 'I' for Inactive)
REMARK    1  A    between atoms: N1_1  and  N2_4 
REMARK    2  A    between atoms: N2_4  and  C1_6 
REMARK    3  A    between atoms: C1_6  and  O1_7 
ROOT
HETATM    1  C1  UNL     1       2.679 -14.155  -1.619  1.00  0.00     0.173 C 
HETATM    2  C2  UNL     1       1.455 -14.364  -0.908  1.00  0.00     0.125 A 
HETATM    3  C3  UNL     1       0.344 -14.914  -1.564  1.00  0.00     0.140 A 
HETATM    4  N3  UNL     1       0.469 -15.251  -2.931  1.00  0.00    -0.081 NA
HETATM    5  N4  UNL     1      -0.808 -15.118  -0.920  1.00  0.00    -0.296 N 
ATOM      6  H4  UNL     1      -1.602 -15.521  -1.419  1.00  0.00     0.171 HD
HETATM    7  C4  UNL     1      -0.931 -14.799   0.379  1.00  0.00     0.328 A 
HETATM    8  O2  UNL     1      -2.021 -14.988   1.006  1.00  0.00    -0.247 OA
HETATM    9  N5  UNL     1       0.096 -14.269   1.062  1.00  0.00    -0.275 N 
ATOM     10  H5  UNL     1      -0.008 -14.031   2.049  1.00  0.00     0.173 HD
HETATM   11  C5  UNL     1       1.290 -14.053   0.415  1.00  0.00     0.267 A 
HETATM   12  O3  UNL     1       2.217 -13.557   1.092  1.00  0.00    -0.267 OA
ENDROOT
BRANCH   1  13
HETATM   13  N2  UNL     1       3.895 -13.630  -1.180  1.00  0.00    -0.286 N 
ATOM     14  H2  UNL     1       4.154 -12.666  -1.393  1.00  0.00     0.188 HD
BRANCH  13  15
HETATM   15  N1  UNL     1       4.772 -14.471  -0.424  1.00  0.00    -0.343 N 
ATOM     16  H12 UNL     1       4.743 -14.447   0.596  1.00  0.00     0.176 HD
ATOM     17  H11 UNL     1       5.414 -15.085  -0.926  1.00  0.00     0.176 HD
ENDBRANCH  13  15
ENDBRANCH   1  13
BRANCH   1  18
HETATM   18  O1  UNL     1       2.653 -14.511  -2.874  1.00  0.00    -0.344 OA
ATOM     19  H1  UNL     1       1.871 -14.979  -3.143  1.00  0.00     0.219 HD
ENDBRANCH   1  18
TORSDOF 3
ENDMDL
MODEL 3
REMARK VINA RESULT: -5.193628759      1.493      2.712
REMARK  3 active torsions:
REMARK  status: ('A' for Active; 'I' for Inactive)
REMARK    1  A    between atoms: N1_1  and  N2_4 
REMARK    2  A    between atoms: N2_4  and  C1_6 
REMARK    3  A    between atoms: C1_6  and  O1_7 
ROOT
HETATM    1  C1  UNL     1       1.342 -14.401  -0.287  1.00  0.00     0.173 C 
HETATM    2  C2  UNL     1       2.721 -14.616  -0.603  1.00  0.00     0.125 A 
HETATM    3  C3  UNL     1       3.124 -14.756  -1.940  1.00  0.00     0.140 A 
HETATM    4  N3  UNL     1       2.138 -14.682  -2.951  1.00  0.00    -0.081 NA
HETATM    5  N4  UNL     1       4.405 -14.956  -2.258  1.00  0.00    -0.296 N 
ATOM      6  H4  UNL     1       4.673 -15.054  -3.238  1.00  0.00     0.171 HD
HETATM    7  C4  UNL     1       5.344 -15.027  -1.301  1.00  0.00     0.328 A 
HETATM    8  O2  UNL     1       6.569 -15.217  -1.589  1.00  0.00    -0.247 OA
HETATM    9  N5  UNL     1       5.023 -14.900  -0.004  1.00  0.00    -0.275 N 
ATOM     10  H5  UNL     1       5.744 -14.956   0.716  1.00  0.00     0.173 HD
HETATM   11  C5  UNL     1       3.708 -14.694   0.342  1.00  0.00     0.267 A 
HETATM   12  O3  UNL     1       3.456 -14.582   1.562  1.00  0.00    -0.267 OA
ENDROOT
BRANCH   1  13
HETATM   13  N2  UNL     1       0.720 -14.236   0.952  1.00  0.00    -0.286 N 
ATOM     14  H2  UNL     1       1.267 -14.015   1.784  1.00  0.00     0.188 HD
BRANCH  13  15
HETATM   15  N1  UNL     1      -0.702 -14.384   1.028  1.00  0.00    -0.343 N 
ATOM     16  H12 UNL     1      -1.140 -15.243   0.695  1.00  0.00     0.176 HD
ATOM     17  H11 UNL     1      -1.252 -13.619   1.419  1.00  0.00     0.176 HD
ENDBRANCH  13  15
ENDBRANCH   1  13
BRANCH   1  18
HETATM   18  O1  UNL     1       0.543 -14.355  -1.317  1.00  0.00    -0.344 OA
ATOM     19  H1  UNL     1      -0.157 -14.996  -1.311  1.00  0.00     0.219 HD
ENDBRANCH   1  18
TORSDOF 3
ENDMDL
MODEL 4
REMARK VINA RESULT: -5.152983516      3.045      3.732
REMARK  3 active torsions:
REMARK  status: ('A' for Active; 'I' for Inactive)
REMARK    1  A    between atoms: N1_1  and  N2_4 
REMARK    2  A    between atoms: N2_4  and  C1_6 
REMARK    3  A    between atoms: C1_6  and  O1_7 
ROOT
HETATM    1  C1  UNL     1       0.548 -14.202   0.476  1.00  0.00     0.173 C 
HETATM    2  C2  UNL     1       0.935 -14.496  -0.870  1.00  0.00     0.125 A 
HETATM    3  C3  UNL     1       2.233 -14.197  -1.311  1.00  0.00     0.140 A 
HETATM    4  N3  UNL     1       3.134 -13.604  -0.397  1.00  0.00    -0.081 NA
HETATM    5  N4  UNL     1       2.617 -14.463  -2.562  1.00  0.00    -0.296 N 
ATOM      6  H4  UNL     1       3.566 -14.237  -2.859  1.00  0.00     0.171 HD
HETATM    7  C4  UNL     1       1.763 -15.026  -3.433  1.00  0.00     0.328 A 
HETATM    8  O2  UNL     1       2.114 -15.286  -4.628  1.00  0.00    -0.247 OA
HETATM    9  N5  UNL     1       0.508 -15.336  -3.072  1.00  0.00    -0.275 N 
ATOM     10  H5  UNL     1      -0.132 -15.764  -3.742  1.00  0.00     0.173 HD
HETATM   11  C5  UNL     1       0.097 -15.069  -1.787  1.00  0.00     0.267 A 
HETATM   12  O3  UNL     1      -1.081 -15.375  -1.497  1.00  0.00    -0.267 OA
ENDROOT
BRANCH   1  13
HETATM   13  N2  UNL     1      -0.670 -14.408   1.126  1.00  0.00    -0.286 N 
ATOM     14  H2  UNL     1      -1.324 -13.637   1.263  1.00  0.00     0.188 HD
BRANCH  13  15
HETATM   15  N1  UNL     1      -0.982 -15.724   1.595  1.00  0.00    -0.343 N 
ATOM     16  H12 UNL     1      -0.297 -16.473   1.495  1.00  0.00     0.176 HD
ATOM     17  H11 UNL     1      -1.894 -15.885   2.023  1.00  0.00     0.176 HD
ENDBRANCH  13  15
ENDBRANCH   1  13
BRANCH   1  18
HETATM   18  O1  UNL     1       1.479 -13.656   1.209  1.00  0.00    -0.344 OA
ATOM     19  H1  UNL     1       2.293 -13.475   0.754  1.00  0.00     0.219 HD
ENDBRANCH   1  18
TORSDOF 3
ENDMDL
MODEL 5
REMARK VINA RESULT: -5.067040321      1.936      3.947
REMARK  3 active torsions:
REMARK  status: ('A' for Active; 'I' for Inactive)
REMARK    1  A    between atoms: N1_1  and  N2_4 
REMARK    2  A    between atoms: N2_4  and  C1_6 
REMARK    3  A    between atoms: C1_6  and  O1_7 
ROOT
HETATM    1  C1  UNL     1       3.275 -14.364   0.322  1.00  0.00     0.173 C 
HETATM    2  C2  UNL     1       2.606 -14.582  -0.924  1.00  0.00     0.125 A 
HETATM    3  C3  UNL     1       1.205 -14.546  -0.988  1.00  0.00     0.140 A 
HETATM    4  N3  UNL     1       0.484 -14.292   0.202  1.00  0.00    -0.081 NA
HETATM    5  N4  UNL     1       0.560 -14.746  -2.139  1.00  0.00    -0.296 N 
ATOM      6  H4  UNL     1      -0.460 -14.714  -2.160  1.00  0.00     0.171 HD
HETATM    7  C4  UNL     1       1.241 -14.989  -3.271  1.00  0.00     0.328 A 
HETATM    8  O2  UNL     1       0.641 -15.181  -4.375  1.00  0.00    -0.247 OA
HETATM    9  N5  UNL     1       2.583 -15.036  -3.276  1.00  0.00    -0.275 N 
ATOM     10  H5  UNL     1       3.091 -15.221  -4.141  1.00  0.00     0.173 HD
HETATM   11  C5  UNL     1       3.263 -14.832  -2.098  1.00  0.00     0.267 A 
HETATM   12  O3  UNL     1       4.512 -14.886  -2.151  1.00  0.00    -0.267 OA
ENDROOT
BRANCH   1  13
HETATM   13  N2  UNL     1       4.639 -14.354   0.621  1.00  0.00    -0.286 N 
ATOM     14  H2  UNL     1       5.134 -13.473   0.760  1.00  0.00     0.188 HD
BRANCH  13  15
HETATM   15  N1  UNL     1       5.326 -15.605   0.726  1.00  0.00    -0.343 N 
ATOM     16  H12 UNL     1       6.310 -15.666   0.463  1.00  0.00     0.176 HD
ATOM     17  H11 UNL     1       4.811 -16.417   1.065  1.00  0.00     0.176 HD
ENDBRANCH  13  15
ENDBRANCH   1  13
BRANCH   1  18
HETATM   18  O1  UNL     1       2.486 -14.141   1.338  1.00  0.00    -0.344 OA
ATOM     19  H1  UNL     1       2.905 -14.188   2.189  1.00  0.00     0.219 HD
ENDBRANCH   1  18
TORSDOF 3
ENDMDL
