MODEL 1
REMARK VINA RESULT: -7.565432297      0.000      0.000
REMARK  7 active torsions:
REMARK  status: ('A' for Active; 'I' for Inactive)
REMARK       I    between atoms: C1_2  and  N2_4 
REMARK    1  A    between atoms: N2_4  and  C2_6 
REMARK    2  A    between atoms: C2_6  and  C3_7 
REMARK    3  A    between atoms: C3_7  and  O2_8 
REMARK    4  A    between atoms: O2_8  and  C4_9 
REMARK    5  A    between atoms: C4_9  and  C5_10 
REMARK    6  A    between atoms: C5_10  and  N3_11 
REMARK       I    between atoms: N3_11  and  C6_12 
REMARK       I    between atoms: C6_12  and  N5_14 
REMARK    7  A    between atoms: C8_21  and  N9_22 
ROOT
HETATM    1  N3  UNL     1      42.085 -69.236  32.275  1.00  0.00    -0.416 NA
HETATM    2  C6  UNL     1      41.119 -68.951  31.658  1.00  0.00     0.263 C 
HETATM    3  N4  UNL     1      40.763 -69.724  30.474  1.00  0.00    -0.049 NA
HETATM    4  N5  UNL     1      40.259 -67.866  32.038  1.00  0.00    -0.305 N 
ATOM      5  H5  UNL     1      39.254 -68.034  32.001  1.00  0.00     0.171 HD
HETATM    6  C7  UNL     1      40.641 -66.715  32.416  1.00  0.00     0.138 C 
HETATM    7  N6  UNL     1      39.738 -65.655  32.787  1.00  0.00    -0.273 N 
ATOM      8  H6  UNL     1      38.788 -65.765  33.140  1.00  0.00     0.185 HD
HETATM    9  N7  UNL     1      40.408 -64.448  32.574  1.00  0.00    -0.028 NA
HETATM   10  N8  UNL     1      41.668 -64.737  32.063  1.00  0.00    -0.092 NA
HETATM   11  C8  UNL     1      41.981 -66.090  32.580  1.00  0.00     0.265 C 
ENDROOT
BRANCH   1  12
HETATM   12  C5  UNL     1      43.179 -69.541  32.994  1.00  0.00     0.247 C 
BRANCH  12  13
HETATM   13  C4  UNL     1      43.779 -70.864  32.448  1.00  0.00     0.201 C 
BRANCH  13  14
HETATM   14  O2  UNL     1      44.864 -71.241  33.201  1.00  0.00    -0.387 OA
BRANCH  14  15
HETATM   15  C3  UNL     1      45.744 -71.953  32.385  1.00  0.00     0.187 C 
BRANCH  15  16
HETATM   16  C2  UNL     1      46.595 -71.055  31.545  1.00  0.00     0.150 C 
BRANCH  16  17
HETATM   17  N2  UNL     1      46.682 -71.441  30.158  1.00  0.00    -0.343 N 
HETATM   18  C1  UNL     1      46.157 -70.602  29.158  1.00  0.00     0.328 C 
HETATM   19  N1  UNL     1      46.247 -71.010  27.801  1.00  0.00    -0.040 NA
HETATM   20  O1  UNL     1      45.623 -69.521  29.474  1.00  0.00    -0.251 OA
ATOM     21  H2  UNL     1      47.124 -72.324  29.902  1.00  0.00     0.163 HD
ENDBRANCH  16  17
ENDBRANCH  15  16
ENDBRANCH  14  15
ENDBRANCH  13  14
ENDBRANCH  12  13
ENDBRANCH   1  12
BRANCH  11  22
HETATM   22  N9  UNL     1      42.453 -65.933  33.882  1.00  0.00    -0.341 N 
HETATM   23  C9  UNL     1      43.343 -65.263  34.451  1.00  0.00     0.198 C 
HETATM   24  N10 UNL     1      43.496 -65.413  35.898  1.00  0.00    -0.067 NA
HETATM   25  N11 UNL     1      44.255 -64.348  33.861  1.00  0.00    -0.067 NA
ATOM     26  H9  UNL     1      41.940 -66.516  34.542  1.00  0.00     0.164 HD
ENDBRANCH  11  22
TORSDOF 7
ENDMDL
MODEL 2
REMARK VINA RESULT: -7.039265122      1.016      1.141
REMARK  7 active torsions:
REMARK  status: ('A' for Active; 'I' for Inactive)
REMARK       I    between atoms: C1_2  and  N2_4 
REMARK    1  A    between atoms: N2_4  and  C2_6 
REMARK    2  A    between atoms: C2_6  and  C3_7 
REMARK    3  A    between atoms: C3_7  and  O2_8 
REMARK    4  A    between atoms: O2_8  and  C4_9 
REMARK    5  A    between atoms: C4_9  and  C5_10 
REMARK    6  A    between atoms: C5_10  and  N3_11 
REMARK       I    between atoms: N3_11  and  C6_12 
REMARK       I    between atoms: C6_12  and  N5_14 
REMARK    7  A    between atoms: C8_21  and  N9_22 
ROOT
HETATM    1  N3  UNL     1      42.110 -69.104  32.238  1.00  0.00    -0.416 NA
HETATM    2  C6  UNL     1      41.142 -68.806  31.630  1.00  0.00     0.263 C 
HETATM    3  N4  UNL     1      40.776 -69.561  30.437  1.00  0.00    -0.049 NA
HETATM    4  N5  UNL     1      40.289 -67.723  32.029  1.00  0.00    -0.305 N 
ATOM      5  H5  UNL     1      39.283 -67.885  31.995  1.00  0.00     0.171 HD
HETATM    6  C7  UNL     1      40.678 -66.579  32.421  1.00  0.00     0.138 C 
HETATM    7  N6  UNL     1      39.782 -65.520  32.812  1.00  0.00    -0.273 N 
ATOM      8  H6  UNL     1      38.833 -65.631  33.168  1.00  0.00     0.185 HD
HETATM    9  N7  UNL     1      40.456 -64.313  32.612  1.00  0.00    -0.028 NA
HETATM   10  N8  UNL     1      41.712 -64.601  32.091  1.00  0.00    -0.092 NA
HETATM   11  C8  UNL     1      42.022 -65.962  32.587  1.00  0.00     0.265 C 
ENDROOT
BRANCH   1  12
HETATM   12  C5  UNL     1      43.206 -69.423  32.947  1.00  0.00     0.247 C 
BRANCH  12  13
HETATM   13  C4  UNL     1      43.447 -70.952  32.828  1.00  0.00     0.201 C 
BRANCH  13  14
HETATM   14  O2  UNL     1      43.890 -71.267  31.566  1.00  0.00    -0.387 OA
BRANCH  14  15
HETATM   15  C3  UNL     1      44.801 -72.320  31.667  1.00  0.00     0.187 C 
BRANCH  15  16
HETATM   16  C2  UNL     1      45.878 -72.242  30.633  1.00  0.00     0.150 C 
BRANCH  16  17
HETATM   17  N2  UNL     1      46.979 -71.380  30.983  1.00  0.00    -0.343 N 
HETATM   18  C1  UNL     1      46.999 -70.044  30.540  1.00  0.00     0.328 C 
HETATM   19  N1  UNL     1      48.099 -69.219  30.890  1.00  0.00    -0.040 NA
HETATM   20  O1  UNL     1      46.057 -69.607  29.849  1.00  0.00    -0.251 OA
ATOM     21  H2  UNL     1      47.746 -71.738  31.552  1.00  0.00     0.163 HD
ENDBRANCH  16  17
ENDBRANCH  15  16
ENDBRANCH  14  15
ENDBRANCH  13  14
ENDBRANCH  12  13
ENDBRANCH   1  12
BRANCH  11  22
HETATM   22  N9  UNL     1      42.501 -65.826  33.888  1.00  0.00    -0.341 N 
HETATM   23  C9  UNL     1      43.403 -65.173  34.461  1.00  0.00     0.198 C 
HETATM   24  N10 UNL     1      43.559 -65.340  35.905  1.00  0.00    -0.067 NA
HETATM   25  N11 UNL     1      44.324 -64.264  33.877  1.00  0.00    -0.067 NA
ATOM     26  H9  UNL     1      41.983 -66.409  34.544  1.00  0.00     0.164 HD
ENDBRANCH  11  22
TORSDOF 7
ENDMDL
MODEL 3
REMARK VINA RESULT: -7.029115157      3.551      7.053
REMARK  7 active torsions:
REMARK  status: ('A' for Active; 'I' for Inactive)
REMARK       I    between atoms: C1_2  and  N2_4 
REMARK    1  A    between atoms: N2_4  and  C2_6 
REMARK    2  A    between atoms: C2_6  and  C3_7 
REMARK    3  A    between atoms: C3_7  and  O2_8 
REMARK    4  A    between atoms: O2_8  and  C4_9 
REMARK    5  A    between atoms: C4_9  and  C5_10 
REMARK    6  A    between atoms: C5_10  and  N3_11 
REMARK       I    between atoms: N3_11  and  C6_12 
REMARK       I    between atoms: C6_12  and  N5_14 
REMARK    7  A    between atoms: C8_21  and  N9_22 
ROOT
HETATM    1  N3  UNL     1      41.950 -65.883  33.214  1.00  0.00    -0.416 NA
HETATM    2  C6  UNL     1      41.296 -65.724  32.244  1.00  0.00     0.263 C 
HETATM    3  N4  UNL     1      40.468 -64.531  32.118  1.00  0.00    -0.049 NA
HETATM    4  N5  UNL     1      41.293 -66.664  31.159  1.00  0.00    -0.305 N 
ATOM      5  H5  UNL     1      41.342 -66.285  30.214  1.00  0.00     0.171 HD
HETATM    6  C7  UNL     1      41.233 -67.928  31.274  1.00  0.00     0.138 C 
HETATM    7  N6  UNL     1      41.232 -68.833  30.153  1.00  0.00    -0.273 N 
ATOM      8  H6  UNL     1      41.625 -68.654  29.229  1.00  0.00     0.185 HD
HETATM    9  N7  UNL     1      40.592 -70.004  30.568  1.00  0.00    -0.028 NA
HETATM   10  N8  UNL     1      40.184 -69.830  31.885  1.00  0.00    -0.092 NA
HETATM   11  C8  UNL     1      41.135 -68.840  32.445  1.00  0.00     0.265 C 
ENDROOT
BRANCH   1  12
HETATM   12  C5  UNL     1      42.703 -66.088  34.309  1.00  0.00     0.247 C 
BRANCH  12  13
HETATM   13  C4  UNL     1      43.304 -64.729  34.758  1.00  0.00     0.201 C 
BRANCH  13  14
HETATM   14  O2  UNL     1      44.441 -64.451  34.040  1.00  0.00    -0.387 OA
BRANCH  14  15
HETATM   15  C3  UNL     1      44.303 -63.188  33.462  1.00  0.00     0.187 C 
BRANCH  15  16
HETATM   16  C2  UNL     1      45.497 -62.320  33.696  1.00  0.00     0.150 C 
BRANCH  16  17
HETATM   17  N2  UNL     1      45.720 -61.973  35.078  1.00  0.00    -0.343 N 
HETATM   18  C1  UNL     1      46.429 -60.803  35.407  1.00  0.00     0.328 C 
HETATM   19  N1  UNL     1      46.643 -60.488  36.774  1.00  0.00    -0.040 NA
HETATM   20  O1  UNL     1      46.860 -60.064  34.499  1.00  0.00    -0.251 OA
ATOM     21  H2  UNL     1      45.362 -62.576  35.819  1.00  0.00     0.163 HD
ENDBRANCH  16  17
ENDBRANCH  15  16
ENDBRANCH  14  15
ENDBRANCH  13  14
ENDBRANCH  12  13
ENDBRANCH   1  12
BRANCH  11  22
HETATM   22  N9  UNL     1      42.286 -69.537  32.806  1.00  0.00    -0.341 N 
HETATM   23  C9  UNL     1      43.272 -70.031  32.215  1.00  0.00     0.198 C 
HETATM   24  N10 UNL     1      44.292 -70.700  33.024  1.00  0.00    -0.067 NA
HETATM   25  N11 UNL     1      43.541 -70.033  30.821  1.00  0.00    -0.067 NA
ATOM     26  H9  UNL     1      42.339 -69.680  33.814  1.00  0.00     0.164 HD
ENDBRANCH  11  22
TORSDOF 7
ENDMDL
MODEL 4
REMARK VINA RESULT: -6.896350063      3.247      6.855
REMARK  7 active torsions:
REMARK  status: ('A' for Active; 'I' for Inactive)
REMARK       I    between atoms: C1_2  and  N2_4 
REMARK    1  A    between atoms: N2_4  and  C2_6 
REMARK    2  A    between atoms: C2_6  and  C3_7 
REMARK    3  A    between atoms: C3_7  and  O2_8 
REMARK    4  A    between atoms: O2_8  and  C4_9 
REMARK    5  A    between atoms: C4_9  and  C5_10 
REMARK    6  A    between atoms: C5_10  and  N3_11 
REMARK       I    between atoms: N3_11  and  C6_12 
REMARK       I    between atoms: C6_12  and  N5_14 
REMARK    7  A    between atoms: C8_21  and  N9_22 
ROOT
HETATM    1  N3  UNL     1      41.875 -65.958  33.134  1.00  0.00    -0.416 NA
HETATM    2  C6  UNL     1      41.217 -65.838  32.160  1.00  0.00     0.263 C 
HETATM    3  N4  UNL     1      40.348 -64.676  32.014  1.00  0.00    -0.049 NA
HETATM    4  N5  UNL     1      41.247 -66.794  31.091  1.00  0.00    -0.305 N 
ATOM      5  H5  UNL     1      41.285 -66.429  30.140  1.00  0.00     0.171 HD
HETATM    6  C7  UNL     1      41.232 -68.057  31.225  1.00  0.00     0.138 C 
HETATM    7  N6  UNL     1      41.264 -68.980  30.119  1.00  0.00    -0.273 N 
ATOM      8  H6  UNL     1      41.651 -68.802  29.193  1.00  0.00     0.185 HD
HETATM    9  N7  UNL     1      40.665 -70.166  30.552  1.00  0.00    -0.028 NA
HETATM   10  N8  UNL     1      40.249 -69.985  31.866  1.00  0.00    -0.092 NA
HETATM   11  C8  UNL     1      41.164 -68.954  32.411  1.00  0.00     0.265 C 
ENDROOT
BRANCH   1  12
HETATM   12  C5  UNL     1      42.633 -66.119  34.232  1.00  0.00     0.247 C 
BRANCH  12  13
HETATM   13  C4  UNL     1      41.967 -65.358  35.410  1.00  0.00     0.201 C 
BRANCH  13  14
HETATM   14  O2  UNL     1      42.894 -64.579  36.058  1.00  0.00    -0.387 OA
BRANCH  14  15
HETATM   15  C3  UNL     1      42.974 -63.349  35.402  1.00  0.00     0.187 C 
BRANCH  15  16
HETATM   16  C2  UNL     1      44.312 -63.123  34.776  1.00  0.00     0.150 C 
BRANCH  16  17
HETATM   17  N2  UNL     1      45.059 -62.028  35.345  1.00  0.00    -0.343 N 
HETATM   18  C1  UNL     1      46.024 -61.354  34.573  1.00  0.00     0.328 C 
HETATM   19  N1  UNL     1      46.752 -60.287  35.160  1.00  0.00    -0.040 NA
HETATM   20  O1  UNL     1      46.226 -61.703  33.393  1.00  0.00    -0.251 OA
ATOM     21  H2  UNL     1      44.888 -61.742  36.309  1.00  0.00     0.163 HD
ENDBRANCH  16  17
ENDBRANCH  15  16
ENDBRANCH  14  15
ENDBRANCH  13  14
ENDBRANCH  12  13
ENDBRANCH   1  12
BRANCH  11  22
HETATM   22  N9  UNL     1      42.339 -69.604  32.784  1.00  0.00    -0.341 N 
HETATM   23  C9  UNL     1      43.357 -70.043  32.205  1.00  0.00     0.198 C 
HETATM   24  N10 UNL     1      44.390 -70.679  33.023  1.00  0.00    -0.067 NA
HETATM   25  N11 UNL     1      43.653 -70.008  30.817  1.00  0.00    -0.067 NA
ATOM     26  H9  UNL     1      42.378 -69.762  33.790  1.00  0.00     0.164 HD
ENDBRANCH  11  22
TORSDOF 7
ENDMDL
MODEL 5
REMARK VINA RESULT: -6.579082943      1.320      1.892
REMARK  7 active torsions:
REMARK  status: ('A' for Active; 'I' for Inactive)
REMARK       I    between atoms: C1_2  and  N2_4 
REMARK    1  A    between atoms: N2_4  and  C2_6 
REMARK    2  A    between atoms: C2_6  and  C3_7 
REMARK    3  A    between atoms: C3_7  and  O2_8 
REMARK    4  A    between atoms: O2_8  and  C4_9 
REMARK    5  A    between atoms: C4_9  and  C5_10 
REMARK    6  A    between atoms: C5_10  and  N3_11 
REMARK       I    between atoms: N3_11  and  C6_12 
REMARK       I    between atoms: C6_12  and  N5_14 
REMARK    7  A    between atoms: C8_21  and  N9_22 
ROOT
HETATM    1  N3  UNL     1      41.953 -69.224  32.239  1.00  0.00    -0.416 NA
HETATM    2  C6  UNL     1      40.907 -68.981  31.748  1.00  0.00     0.263 C 
HETATM    3  N4  UNL     1      40.404 -69.817  30.665  1.00  0.00    -0.049 NA
HETATM    4  N5  UNL     1      40.088 -67.887  32.189  1.00  0.00    -0.305 N 
ATOM      5  H5  UNL     1      39.091 -68.067  32.300  1.00  0.00     0.171 HD
HETATM    6  C7  UNL     1      40.498 -66.715  32.454  1.00  0.00     0.138 C 
HETATM    7  N6  UNL     1      39.636 -65.647  32.894  1.00  0.00    -0.273 N 
ATOM      8  H6  UNL     1      38.745 -65.749  33.380  1.00  0.00     0.185 HD
HETATM    9  N7  UNL     1      40.249 -64.444  32.531  1.00  0.00    -0.028 NA
HETATM   10  N8  UNL     1      41.431 -64.746  31.866  1.00  0.00    -0.092 NA
HETATM   11  C8  UNL     1      41.836 -66.068  32.400  1.00  0.00     0.265 C 
ENDROOT
BRANCH   1  12
HETATM   12  C5  UNL     1      43.140 -69.479  32.814  1.00  0.00     0.247 C 
BRANCH  12  13
HETATM   13  C4  UNL     1      43.527 -70.954  32.521  1.00  0.00     0.201 C 
BRANCH  13  14
HETATM   14  O2  UNL     1      43.541 -71.182  31.167  1.00  0.00    -0.387 OA
BRANCH  14  15
HETATM   15  C3  UNL     1      44.279 -70.168  30.555  1.00  0.00     0.187 C 
BRANCH  15  16
HETATM   16  C2  UNL     1      45.679 -70.591  30.244  1.00  0.00     0.150 C 
BRANCH  16  17
HETATM   17  N2  UNL     1      46.692 -69.912  31.014  1.00  0.00    -0.343 N 
HETATM   18  C1  UNL     1      47.267 -70.540  32.134  1.00  0.00     0.328 C 
HETATM   19  N1  UNL     1      48.254 -69.847  32.881  1.00  0.00    -0.040 NA
HETATM   20  O1  UNL     1      46.903 -71.689  32.455  1.00  0.00    -0.251 OA
ATOM     21  H2  UNL     1      46.991 -68.974  30.747  1.00  0.00     0.163 HD
ENDBRANCH  16  17
ENDBRANCH  15  16
ENDBRANCH  14  15
ENDBRANCH  13  14
ENDBRANCH  12  13
ENDBRANCH   1  12
BRANCH  11  22
HETATM   22  N9  UNL     1      42.480 -65.839  33.615  1.00  0.00    -0.341 N 
HETATM   23  C9  UNL     1      43.289 -65.000  34.071  1.00  0.00     0.198 C 
HETATM   24  N10 UNL     1      43.717 -65.146  35.462  1.00  0.00    -0.067 NA
HETATM   25  N11 UNL     1      43.867 -63.892  33.397  1.00  0.00    -0.067 NA
ATOM     26  H9  UNL     1      42.226 -66.537  34.313  1.00  0.00     0.164 HD
ENDBRANCH  11  22
TORSDOF 7
ENDMDL
