MODEL 1
REMARK VINA RESULT: -4.393959211      0.000      0.000
REMARK  4 active torsions:
REMARK  status: ('A' for Active; 'I' for Inactive)
REMARK    1  A    between atoms: C2_2  and  N1_3 
REMARK    2  A    between atoms: N1_3  and  C3_4 
REMARK    3  A    between atoms: N1_3  and  C6_7 
REMARK    4  A    between atoms: C9_13  and  O1_14 
ROOT
HETATM    1  C6  UNL     1     -34.786 -15.494   3.238  1.00  0.00     0.140 C 
HETATM    2  C7  UNL     1     -33.813 -15.752   4.366  1.00  0.00     0.260 C 
HETATM    3  N2  UNL     1     -33.453 -14.497   4.958  1.00  0.00    -0.071 N 
ATOM      4  H21 UNL     1     -32.554 -14.126   4.647  1.00  0.00     0.277 HD
ATOM      5  H22 UNL     1     -33.210 -14.551   5.947  1.00  0.00     0.277 HD
HETATM    6  C8  UNL     1     -34.580 -13.646   4.667  1.00  0.00     0.266 C 
HETATM    7  C9  UNL     1     -34.775 -14.016   3.187  1.00  0.00     0.170 C 
ENDROOT
BRANCH   1   8
HETATM    8  N1  UNL     1     -36.014 -16.110   3.449  1.00  0.00    -0.381 N 
BRANCH   8   9
HETATM    9  C2  UNL     1     -36.863 -16.534   2.463  1.00  0.00     0.055 C 
HETATM   10  C1  UNL     1     -36.598 -16.231   1.027  1.00  0.00     0.054 C 
ENDBRANCH   8   9
BRANCH   8  11
HETATM   11  C3  UNL     1     -36.213 -16.759   4.708  1.00  0.00     0.075 C 
HETATM   12  C4  UNL     1     -36.450 -18.231   4.656  1.00  0.00     0.032 C 
HETATM   13  C5  UNL     1     -37.381 -16.025   5.417  1.00  0.00     0.032 C 
ENDBRANCH   8  11
ENDBRANCH   1   8
BRANCH   7  14
HETATM   14  O1  UNL     1     -33.635 -13.583   2.527  1.00  0.00    -0.387 OA
HETATM   15  C10 UNL     1     -33.743 -12.210   2.322  1.00  0.00     0.202 C 
ENDBRANCH   7  14
TORSDOF 4
ENDMDL
MODEL 2
REMARK VINA RESULT: -3.857702569      2.842      4.773
REMARK  4 active torsions:
REMARK  status: ('A' for Active; 'I' for Inactive)
REMARK    1  A    between atoms: C2_2  and  N1_3 
REMARK    2  A    between atoms: N1_3  and  C3_4 
REMARK    3  A    between atoms: N1_3  and  C6_7 
REMARK    4  A    between atoms: C9_13  and  O1_14 
ROOT
HETATM    1  C6  UNL     1     -33.956 -12.775   4.451  1.00  0.00     0.140 C 
HETATM    2  C7  UNL     1     -32.961 -11.784   3.891  1.00  0.00     0.260 C 
HETATM    3  N2  UNL     1     -32.889 -11.957   2.470  1.00  0.00    -0.071 N 
ATOM      4  H21 UNL     1     -32.090 -12.507   2.152  1.00  0.00     0.277 HD
ATOM      5  H22 UNL     1     -32.650 -11.111   1.953  1.00  0.00     0.277 HD
HETATM    6  C8  UNL     1     -34.173 -12.520   2.130  1.00  0.00     0.266 C 
HETATM    7  C9  UNL     1     -34.268 -13.574   3.246  1.00  0.00     0.170 C 
ENDROOT
BRANCH   1   8
HETATM    8  N1  UNL     1     -35.022 -12.151   5.088  1.00  0.00    -0.381 N 
BRANCH   8   9
HETATM    9  C2  UNL     1     -35.808 -12.720   6.053  1.00  0.00     0.055 C 
HETATM   10  C1  UNL     1     -35.356 -13.922   6.812  1.00  0.00     0.054 C 
ENDBRANCH   8   9
BRANCH   8  11
HETATM   11  C3  UNL     1     -35.030 -10.720   5.100  1.00  0.00     0.075 C 
HETATM   12  C4  UNL     1     -35.091 -10.076   6.445  1.00  0.00     0.032 C 
HETATM   13  C5  UNL     1     -36.211 -10.266   4.204  1.00  0.00     0.032 C 
ENDBRANCH   8  11
ENDBRANCH   1   8
BRANCH   7  14
HETATM   14  O1  UNL     1     -33.244 -14.479   3.012  1.00  0.00    -0.387 OA
HETATM   15  C10 UNL     1     -33.344 -15.505   3.948  1.00  0.00     0.202 C 
ENDBRANCH   7  14
TORSDOF 4
ENDMDL
MODEL 3
REMARK VINA RESULT: -3.820895881      2.152      3.730
REMARK  4 active torsions:
REMARK  status: ('A' for Active; 'I' for Inactive)
REMARK    1  A    between atoms: C2_2  and  N1_3 
REMARK    2  A    between atoms: N1_3  and  C3_4 
REMARK    3  A    between atoms: N1_3  and  C6_7 
REMARK    4  A    between atoms: C9_13  and  O1_14 
ROOT
HETATM    1  C6  UNL     1     -34.561 -12.624   3.681  1.00  0.00     0.140 C 
HETATM    2  C7  UNL     1     -33.839 -12.730   2.356  1.00  0.00     0.260 C 
HETATM    3  N2  UNL     1     -32.868 -11.678   2.276  1.00  0.00    -0.071 N 
ATOM      4  H21 UNL     1     -33.166 -10.871   1.726  1.00  0.00     0.277 HD
ATOM      5  H22 UNL     1     -32.052 -11.900   1.707  1.00  0.00     0.277 HD
HETATM    6  C8  UNL     1     -32.571 -11.382   3.655  1.00  0.00     0.266 C 
HETATM    7  C9  UNL     1     -34.008 -11.355   4.202  1.00  0.00     0.170 C 
ENDROOT
BRANCH   1   8
HETATM    8  N1  UNL     1     -34.391 -13.758   4.467  1.00  0.00    -0.381 N 
BRANCH   8   9
HETATM    9  C2  UNL     1     -34.780 -13.878   5.773  1.00  0.00     0.055 C 
HETATM   10  C1  UNL     1     -36.132 -13.435   6.223  1.00  0.00     0.054 C 
ENDBRANCH   8   9
BRANCH   8  11
HETATM   11  C3  UNL     1     -34.237 -15.008   3.788  1.00  0.00     0.075 C 
HETATM   12  C4  UNL     1     -35.498 -15.738   3.467  1.00  0.00     0.032 C 
HETATM   13  C5  UNL     1     -33.285 -15.878   4.649  1.00  0.00     0.032 C 
ENDBRANCH   8  11
ENDBRANCH   1   8
BRANCH   7  14
HETATM   14  O1  UNL     1     -34.638 -10.286   3.584  1.00  0.00    -0.387 OA
HETATM   15  C10 UNL     1     -35.967 -10.262   3.997  1.00  0.00     0.202 C 
ENDBRANCH   7  14
TORSDOF 4
ENDMDL
MODEL 4
REMARK VINA RESULT: -3.799052571      1.543      3.275
REMARK  4 active torsions:
REMARK  status: ('A' for Active; 'I' for Inactive)
REMARK    1  A    between atoms: C2_2  and  N1_3 
REMARK    2  A    between atoms: N1_3  and  C3_4 
REMARK    3  A    between atoms: N1_3  and  C6_7 
REMARK    4  A    between atoms: C9_13  and  O1_14 
ROOT
HETATM    1  C6  UNL     1     -35.915 -15.566   3.217  1.00  0.00     0.140 C 
HETATM    2  C7  UNL     1     -37.191 -16.225   2.742  1.00  0.00     0.260 C 
HETATM    3  N2  UNL     1     -37.239 -16.156   1.311  1.00  0.00    -0.071 N 
ATOM      4  H21 UNL     1     -37.826 -15.405   0.945  1.00  0.00     0.277 HD
ATOM      5  H22 UNL     1     -37.752 -16.919   0.870  1.00  0.00     0.277 HD
HETATM    6  C8  UNL     1     -35.852 -16.069   0.927  1.00  0.00     0.266 C 
HETATM    7  C9  UNL     1     -35.393 -15.014   1.947  1.00  0.00     0.170 C 
ENDROOT
BRANCH   1   8
HETATM    8  N1  UNL     1     -35.091 -16.446   3.909  1.00  0.00    -0.381 N 
BRANCH   8   9
HETATM    9  C2  UNL     1     -33.785 -16.210   4.239  1.00  0.00     0.055 C 
HETATM   10  C1  UNL     1     -33.392 -15.019   5.046  1.00  0.00     0.054 C 
ENDBRANCH   8   9
BRANCH   8  11
HETATM   11  C3  UNL     1     -35.729 -17.434   4.724  1.00  0.00     0.075 C 
HETATM   12  C4  UNL     1     -36.410 -16.931   5.952  1.00  0.00     0.032 C 
HETATM   13  C5  UNL     1     -34.654 -18.498   5.071  1.00  0.00     0.032 C 
ENDBRANCH   8  11
ENDBRANCH   1   8
BRANCH   7  14
HETATM   14  O1  UNL     1     -36.075 -13.849   1.633  1.00  0.00    -0.387 OA
HETATM   15  C10 UNL     1     -35.221 -12.770   1.846  1.00  0.00     0.202 C 
ENDBRANCH   7  14
TORSDOF 4
ENDMDL
MODEL 5
REMARK VINA RESULT: -3.775314560      1.900      3.937
REMARK  4 active torsions:
REMARK  status: ('A' for Active; 'I' for Inactive)
REMARK    1  A    between atoms: C2_2  and  N1_3 
REMARK    2  A    between atoms: N1_3  and  C3_4 
REMARK    3  A    between atoms: N1_3  and  C6_7 
REMARK    4  A    between atoms: C9_13  and  O1_14 
ROOT
HETATM    1  C6  UNL     1     -35.842 -15.419   4.109  1.00  0.00     0.140 C 
HETATM    2  C7  UNL     1     -36.801 -15.704   5.243  1.00  0.00     0.260 C 
HETATM    3  N2  UNL     1     -37.327 -17.028   5.079  1.00  0.00    -0.071 N 
ATOM      4  H21 UNL     1     -38.258 -17.062   4.662  1.00  0.00     0.277 HD
ATOM      5  H22 UNL     1     -37.583 -17.491   5.951  1.00  0.00     0.277 HD
HETATM    6  C8  UNL     1     -36.308 -17.708   4.320  1.00  0.00     0.266 C 
HETATM    7  C9  UNL     1     -36.036 -16.620   3.267  1.00  0.00     0.170 C 
ENDROOT
BRANCH   1   8
HETATM    8  N1  UNL     1     -34.552 -15.164   4.558  1.00  0.00    -0.381 N 
BRANCH   8   9
HETATM    9  C2  UNL     1     -33.576 -14.533   3.837  1.00  0.00     0.055 C 
HETATM   10  C1  UNL     1     -33.912 -13.523   2.792  1.00  0.00     0.054 C 
ENDBRANCH   8   9
BRANCH   8  11
HETATM   11  C3  UNL     1     -34.349 -15.122   5.974  1.00  0.00     0.075 C 
HETATM   12  C4  UNL     1     -33.923 -13.808   6.536  1.00  0.00     0.032 C 
HETATM   13  C5  UNL     1     -33.330 -16.239   6.319  1.00  0.00     0.032 C 
ENDBRANCH   8  11
ENDBRANCH   1   8
BRANCH   7  14
HETATM   14  O1  UNL     1     -37.206 -16.489   2.535  1.00  0.00    -0.387 OA
HETATM   15  C10 UNL     1     -36.870 -16.117   1.236  1.00  0.00     0.202 C 
ENDBRANCH   7  14
TORSDOF 4
ENDMDL
