MODEL 1
REMARK VINA RESULT: -6.664741324      0.000      0.000
REMARK  11 active torsions:
REMARK  status: ('A' for Active; 'I' for Inactive)
REMARK    1  A    between atoms: C2_2  and  C3_3 
REMARK    2  A    between atoms: C3_3  and  C4_4 
REMARK    3  A    between atoms: C4_4  and  N1_5 
REMARK    4  A    between atoms: C5_6  and  N2_7 
REMARK    5  A    between atoms: N3_12  and  C8_13 
REMARK    6  A    between atoms: C8_13  and  C9_14 
REMARK    7  A    between atoms: C9_14  and  C10_15 
REMARK    8  A    between atoms: C10_15  and  C11_16 
REMARK    9  A    between atoms: C11_16  and  N4_17 
REMARK   10  A    between atoms: C13_24  and  N6_25 
REMARK   11  A    between atoms: C14_30  and  N8_31 
ROOT
HETATM    1  N1  UNL     1      13.564  41.416  -9.566  1.00  0.00    -0.323 N 
HETATM    2  C5  UNL     1      13.843  40.907 -10.825  1.00  0.00     0.173 A 
HETATM    3  C7  UNL     1      13.750  39.581 -11.119  1.00  0.00     0.293 A 
HETATM    4  O1  UNL     1      14.009  39.141 -12.275  1.00  0.00    -0.264 OA
HETATM    5  N3  UNL     1      13.365  38.738 -10.125  1.00  0.00    -0.295 N 
HETATM    6  C12 UNL     1      13.083  39.169  -8.886  1.00  0.00     0.157 A 
HETATM    7  N5  UNL     1      12.701  38.322  -7.913  1.00  0.00    -0.174 N 
ATOM      8  H5  UNL     1      12.634  37.329  -8.136  1.00  0.00     0.186 HD
HETATM    9  C13 UNL     1      12.406  38.716  -6.666  1.00  0.00     0.679 A 
HETATM   10  N7  UNL     1      12.506  40.015  -6.415  1.00  0.00    -0.175 N 
ATOM     11  H7  UNL     1      12.286  40.337  -5.473  1.00  0.00     0.186 HD
HETATM   12  C14 UNL     1      12.882  40.946  -7.332  1.00  0.00     0.145 A 
HETATM   13  C15 UNL     1      13.189  40.555  -8.612  1.00  0.00     0.126 A 
ENDROOT
BRANCH   5  14
HETATM   14  C8  UNL     1      13.279  37.349 -10.465  1.00  0.00     0.134 C 
BRANCH  14  15
HETATM   15  C9  UNL     1      14.596  36.603 -10.209  1.00  0.00     0.022 C 
BRANCH  15  16
HETATM   16  C10 UNL     1      14.962  35.861 -11.465  1.00  0.00     0.029 C 
BRANCH  16  17
HETATM   17  C11 UNL     1      13.683  35.626 -12.247  1.00  0.00     0.229 C 
BRANCH  17  18
HETATM   18  N4  UNL     1      14.081  35.573 -13.661  1.00  0.00    -0.079 N 
ATOM     19  H43 UNL     1      14.900  36.141 -13.877  1.00  0.00     0.274 HD
ATOM     20  H42 UNL     1      14.479  34.675 -13.939  1.00  0.00     0.274 HD
ATOM     21  H41 UNL     1      13.251  35.834 -14.194  1.00  0.00     0.274 HD
ENDBRANCH  17  18
ENDBRANCH  16  17
ENDBRANCH  15  16
ENDBRANCH  14  15
ENDBRANCH   5  14
BRANCH   2  22
HETATM   22  N2  UNL     1      14.199  41.776 -11.694  1.00  0.00    -0.376 N 
HETATM   23  C6  UNL     1      13.425  42.301 -12.776  1.00  0.00     0.148 C 
ATOM     24  H2  UNL     1      15.149  42.136 -11.604  1.00  0.00     0.160 HD
ENDBRANCH   2  22
BRANCH   1  25
HETATM   25  C4  UNL     1      13.693  42.813  -9.399  1.00  0.00     0.131 C 
BRANCH  25  26
HETATM   26  C3  UNL     1      15.164  43.183  -9.399  1.00  0.00     0.020 C 
BRANCH  26  27
HETATM   27  C2  UNL     1      15.591  43.728  -8.028  1.00  0.00    -0.003 C 
HETATM   28  C1  UNL     1      16.921  44.441  -8.151  1.00  0.00     0.005 C 
ENDBRANCH  26  27
ENDBRANCH  25  26
ENDBRANCH   1  25
BRANCH   9  29
HETATM   29  N6  UNL     1      12.043  37.845  -5.766  1.00  0.00    -0.234 N 
ATOM     30  H62 UNL     1      11.794  36.883  -5.993  1.00  0.00     0.174 HD
ATOM     31  H61 UNL     1      11.994  38.108  -4.782  1.00  0.00     0.174 HD
ENDBRANCH   9  29
BRANCH  12  32
HETATM   32  N8  UNL     1      12.935  42.170  -6.994  1.00  0.00    -0.383 N 
ATOM     33  H82 UNL     1      12.735  42.457  -6.036  1.00  0.00     0.157 HD
ATOM     34  H81 UNL     1      13.188  42.873  -7.690  1.00  0.00     0.157 HD
ENDBRANCH  12  32
TORSDOF 11
ENDMDL
MODEL 2
REMARK VINA RESULT: -6.256344491      1.139      1.881
REMARK  11 active torsions:
REMARK  status: ('A' for Active; 'I' for Inactive)
REMARK    1  A    between atoms: C2_2  and  C3_3 
REMARK    2  A    between atoms: C3_3  and  C4_4 
REMARK    3  A    between atoms: C4_4  and  N1_5 
REMARK    4  A    between atoms: C5_6  and  N2_7 
REMARK    5  A    between atoms: N3_12  and  C8_13 
REMARK    6  A    between atoms: C8_13  and  C9_14 
REMARK    7  A    between atoms: C9_14  and  C10_15 
REMARK    8  A    between atoms: C10_15  and  C11_16 
REMARK    9  A    between atoms: C11_16  and  N4_17 
REMARK   10  A    between atoms: C13_24  and  N6_25 
REMARK   11  A    between atoms: C14_30  and  N8_31 
ROOT
HETATM    1  N1  UNL     1      13.484  41.397  -9.763  1.00  0.00    -0.323 N 
HETATM    2  C5  UNL     1      13.767  40.841 -11.001  1.00  0.00     0.173 A 
HETATM    3  C7  UNL     1      13.712  39.502 -11.235  1.00  0.00     0.293 A 
HETATM    4  O1  UNL     1      13.974  39.018 -12.373  1.00  0.00    -0.264 OA
HETATM    5  N3  UNL     1      13.362  38.692 -10.201  1.00  0.00    -0.295 N 
HETATM    6  C12 UNL     1      13.078  39.169  -8.980  1.00  0.00     0.157 A 
HETATM    7  N5  UNL     1      12.732  38.355  -7.967  1.00  0.00    -0.174 N 
ATOM      8  H5  UNL     1      12.692  37.352  -8.144  1.00  0.00     0.186 HD
HETATM    9  C13 UNL     1      12.435  38.795  -6.735  1.00  0.00     0.679 A 
HETATM   10  N7  UNL     1      12.498  40.107  -6.543  1.00  0.00    -0.175 N 
ATOM     11  H7  UNL     1      12.277  40.463  -5.614  1.00  0.00     0.186 HD
HETATM   12  C14 UNL     1      12.837  41.007  -7.504  1.00  0.00     0.145 A 
HETATM   13  C15 UNL     1      13.144  40.569  -8.769  1.00  0.00     0.126 A 
ENDROOT
BRANCH   5  14
HETATM   14  C8  UNL     1      13.316  37.287 -10.478  1.00  0.00     0.134 C 
BRANCH  14  15
HETATM   15  C9  UNL     1      14.667  36.599 -10.234  1.00  0.00     0.022 C 
BRANCH  15  16
HETATM   16  C10 UNL     1      15.021  35.818 -11.470  1.00  0.00     0.029 C 
BRANCH  16  17
HETATM   17  C11 UNL     1      13.736  35.565 -12.235  1.00  0.00     0.229 C 
BRANCH  17  18
HETATM   18  N4  UNL     1      14.107  35.575 -13.658  1.00  0.00    -0.079 N 
ATOM     19  H43 UNL     1      13.305  35.553 -14.288  1.00  0.00     0.274 HD
ATOM     20  H42 UNL     1      14.486  36.468 -13.974  1.00  0.00     0.274 HD
ATOM     21  H41 UNL     1      14.747  34.792 -13.785  1.00  0.00     0.274 HD
ENDBRANCH  17  18
ENDBRANCH  16  17
ENDBRANCH  15  16
ENDBRANCH  14  15
ENDBRANCH   5  14
BRANCH   2  22
HETATM   22  N2  UNL     1      14.089  41.681 -11.911  1.00  0.00    -0.376 N 
HETATM   23  C6  UNL     1      15.387  41.919 -12.466  1.00  0.00     0.148 C 
ATOM     24  H2  UNL     1      13.330  42.249 -12.286  1.00  0.00     0.160 HD
ENDBRANCH   2  22
BRANCH   1  25
HETATM   25  C4  UNL     1      13.571  42.803  -9.659  1.00  0.00     0.131 C 
BRANCH  25  26
HETATM   26  C3  UNL     1      12.516  43.435 -10.548  1.00  0.00     0.020 C 
BRANCH  26  27
HETATM   27  C2  UNL     1      11.308  43.899  -9.718  1.00  0.00    -0.003 C 
HETATM   28  C1  UNL     1      10.184  42.893  -9.843  1.00  0.00     0.005 C 
ENDBRANCH  26  27
ENDBRANCH  25  26
ENDBRANCH   1  25
BRANCH   9  29
HETATM   29  N6  UNL     1      12.107  37.954  -5.794  1.00  0.00    -0.234 N 
ATOM     30  H62 UNL     1      11.313  38.100  -5.171  1.00  0.00     0.174 HD
ATOM     31  H61 UNL     1      12.650  37.104  -5.648  1.00  0.00     0.174 HD
ENDBRANCH   9  29
BRANCH  12  32
HETATM   32  N8  UNL     1      12.855  42.246  -7.221  1.00  0.00    -0.383 N 
ATOM     33  H82 UNL     1      12.888  42.560  -6.252  1.00  0.00     0.157 HD
ATOM     34  H81 UNL     1      12.844  42.933  -7.975  1.00  0.00     0.157 HD
ENDBRANCH  12  32
TORSDOF 11
ENDMDL
MODEL 3
REMARK VINA RESULT: -6.122030281      2.305      5.549
REMARK  11 active torsions:
REMARK  status: ('A' for Active; 'I' for Inactive)
REMARK    1  A    between atoms: C2_2  and  C3_3 
REMARK    2  A    between atoms: C3_3  and  C4_4 
REMARK    3  A    between atoms: C4_4  and  N1_5 
REMARK    4  A    between atoms: C5_6  and  N2_7 
REMARK    5  A    between atoms: N3_12  and  C8_13 
REMARK    6  A    between atoms: C8_13  and  C9_14 
REMARK    7  A    between atoms: C9_14  and  C10_15 
REMARK    8  A    between atoms: C10_15  and  C11_16 
REMARK    9  A    between atoms: C11_16  and  N4_17 
REMARK   10  A    between atoms: C13_24  and  N6_25 
REMARK   11  A    between atoms: C14_30  and  N8_31 
ROOT
HETATM    1  N1  UNL     1      14.224  39.400 -11.057  1.00  0.00    -0.323 N 
HETATM    2  C5  UNL     1      13.964  40.649 -11.600  1.00  0.00     0.173 A 
HETATM    3  C7  UNL     1      13.293  41.619 -10.922  1.00  0.00     0.293 A 
HETATM    4  O1  UNL     1      13.068  42.751 -11.438  1.00  0.00    -0.264 OA
HETATM    5  N3  UNL     1      12.869  41.334  -9.663  1.00  0.00    -0.295 N 
HETATM    6  C12 UNL     1      13.089  40.144  -9.083  1.00  0.00     0.157 A 
HETATM    7  N5  UNL     1      12.664  39.878  -7.835  1.00  0.00    -0.174 N 
ATOM      8  H5  UNL     1      12.161  40.606  -7.330  1.00  0.00     0.186 HD
HETATM    9  C13 UNL     1      12.870  38.703  -7.221  1.00  0.00     0.679 A 
HETATM   10  N7  UNL     1      13.529  37.781  -7.911  1.00  0.00    -0.175 N 
ATOM     11  H7  UNL     1      13.696  36.880  -7.463  1.00  0.00     0.186 HD
HETATM   12  C14 UNL     1      13.997  37.958  -9.175  1.00  0.00     0.145 A 
HETATM   13  C15 UNL     1      13.791  39.155  -9.815  1.00  0.00     0.126 A 
ENDROOT
BRANCH   5  14
HETATM   14  C8  UNL     1      12.163  42.375  -8.976  1.00  0.00     0.134 C 
BRANCH  14  15
HETATM   15  C9  UNL     1      10.669  42.397  -9.328  1.00  0.00     0.022 C 
BRANCH  15  16
HETATM   16  C10 UNL     1      10.076  43.659  -8.763  1.00  0.00     0.029 C 
BRANCH  16  17
HETATM   17  C11 UNL     1       9.264  44.315  -9.863  1.00  0.00     0.229 C 
BRANCH  17  18
HETATM   18  N4  UNL     1       8.632  43.216 -10.608  1.00  0.00    -0.079 N 
ATOM     19  H43 UNL     1       9.214  42.380 -10.671  1.00  0.00     0.274 HD
ATOM     20  H42 UNL     1       7.851  42.785 -10.114  1.00  0.00     0.274 HD
ATOM     21  H41 UNL     1       8.377  43.605 -11.515  1.00  0.00     0.274 HD
ENDBRANCH  17  18
ENDBRANCH  16  17
ENDBRANCH  15  16
ENDBRANCH  14  15
ENDBRANCH   5  14
BRANCH   2  22
HETATM   22  N2  UNL     1      14.399  40.824 -12.790  1.00  0.00    -0.376 N 
HETATM   23  C6  UNL     1      15.540  41.582 -13.204  1.00  0.00     0.148 C 
ATOM     24  H2  UNL     1      13.869  40.369 -13.533  1.00  0.00     0.160 HD
ENDBRANCH   2  22
BRANCH   1  25
HETATM   25  C4  UNL     1      14.938  38.488 -11.866  1.00  0.00     0.131 C 
BRANCH  25  26
HETATM   26  C3  UNL     1      14.007  37.922 -12.922  1.00  0.00     0.020 C 
BRANCH  26  27
HETATM   27  C2  UNL     1      14.363  36.460 -13.238  1.00  0.00    -0.003 C 
HETATM   28  C1  UNL     1      13.295  35.542 -12.684  1.00  0.00     0.005 C 
ENDBRANCH  26  27
ENDBRANCH  25  26
ENDBRANCH   1  25
BRANCH   9  29
HETATM   29  N6  UNL     1      12.432  38.505  -6.009  1.00  0.00    -0.234 N 
ATOM     30  H62 UNL     1      11.466  38.675  -5.732  1.00  0.00     0.174 HD
ATOM     31  H61 UNL     1      13.061  38.167  -5.281  1.00  0.00     0.174 HD
ENDBRANCH   9  29
BRANCH  12  32
HETATM   32  N8  UNL     1      14.628  37.014  -9.746  1.00  0.00    -0.383 N 
ATOM     33  H82 UNL     1      14.556  36.055  -9.404  1.00  0.00     0.157 HD
ATOM     34  H81 UNL     1      15.209  37.218 -10.560  1.00  0.00     0.157 HD
ENDBRANCH  12  32
TORSDOF 11
ENDMDL
MODEL 4
REMARK VINA RESULT: -6.015590843      2.494      5.706
REMARK  11 active torsions:
REMARK  status: ('A' for Active; 'I' for Inactive)
REMARK    1  A    between atoms: C2_2  and  C3_3 
REMARK    2  A    between atoms: C3_3  and  C4_4 
REMARK    3  A    between atoms: C4_4  and  N1_5 
REMARK    4  A    between atoms: C5_6  and  N2_7 
REMARK    5  A    between atoms: N3_12  and  C8_13 
REMARK    6  A    between atoms: C8_13  and  C9_14 
REMARK    7  A    between atoms: C9_14  and  C10_15 
REMARK    8  A    between atoms: C10_15  and  C11_16 
REMARK    9  A    between atoms: C11_16  and  N4_17 
REMARK   10  A    between atoms: C13_24  and  N6_25 
REMARK   11  A    between atoms: C14_30  and  N8_31 
ROOT
HETATM    1  N1  UNL     1      13.539  39.409  -9.445  1.00  0.00    -0.323 N 
HETATM    2  C5  UNL     1      13.660  40.354 -10.452  1.00  0.00     0.173 A 
HETATM    3  C7  UNL     1      13.044  41.567 -10.399  1.00  0.00     0.293 A 
HETATM    4  O1  UNL     1      13.170  42.413 -11.329  1.00  0.00    -0.264 OA
HETATM    5  N3  UNL     1      12.286  41.845  -9.306  1.00  0.00    -0.295 N 
HETATM    6  C12 UNL     1      12.130  40.971  -8.299  1.00  0.00     0.157 A 
HETATM    7  N5  UNL     1      11.377  41.262  -7.223  1.00  0.00    -0.174 N 
ATOM      8  H5  UNL     1      10.915  42.170  -7.186  1.00  0.00     0.186 HD
HETATM    9  C13 UNL     1      11.201  40.417  -6.195  1.00  0.00     0.679 A 
HETATM   10  N7  UNL     1      11.817  39.245  -6.280  1.00  0.00    -0.175 N 
ATOM     11  H7  UNL     1      11.697  38.587  -5.510  1.00  0.00     0.186 HD
HETATM   12  C14 UNL     1      12.598  38.863  -7.326  1.00  0.00     0.145 A 
HETATM   13  C15 UNL     1      12.784  39.717  -8.384  1.00  0.00     0.126 A 
ENDROOT
BRANCH   5  14
HETATM   14  C8  UNL     1      11.649  43.128  -9.280  1.00  0.00     0.134 C 
BRANCH  14  15
HETATM   15  C9  UNL     1      10.181  43.060  -9.725  1.00  0.00     0.022 C 
BRANCH  15  16
HETATM   16  C10 UNL     1       9.368  43.898  -8.778  1.00  0.00     0.029 C 
BRANCH  16  17
HETATM   17  C11 UNL     1       8.832  45.082  -9.560  1.00  0.00     0.229 C 
BRANCH  17  18
HETATM   18  N4  UNL     1       8.540  44.575 -10.909  1.00  0.00    -0.079 N 
ATOM     19  H43 UNL     1       9.369  44.473 -11.495  1.00  0.00     0.274 HD
ATOM     20  H42 UNL     1       8.259  43.594 -10.923  1.00  0.00     0.274 HD
ATOM     21  H41 UNL     1       7.839  45.206 -11.298  1.00  0.00     0.274 HD
ENDBRANCH  17  18
ENDBRANCH  16  17
ENDBRANCH  15  16
ENDBRANCH  14  15
ENDBRANCH   5  14
BRANCH   2  22
HETATM   22  N2  UNL     1      14.392  40.003 -11.440  1.00  0.00    -0.376 N 
HETATM   23  C6  UNL     1      15.745  40.384 -11.709  1.00  0.00     0.148 C 
ATOM     24  H2  UNL     1      13.959  39.377 -12.119  1.00  0.00     0.160 HD
ENDBRANCH   2  22
BRANCH   1  25
HETATM   25  C4  UNL     1      14.238  38.194  -9.622  1.00  0.00     0.131 C 
BRANCH  25  26
HETATM   26  C3  UNL     1      13.408  37.262 -10.485  1.00  0.00     0.020 C 
BRANCH  26  27
HETATM   27  C2  UNL     1      14.307  36.280 -11.252  1.00  0.00    -0.003 C 
HETATM   28  C1  UNL     1      13.516  35.617 -12.358  1.00  0.00     0.005 C 
ENDBRANCH  26  27
ENDBRANCH  25  26
ENDBRANCH   1  25
BRANCH   9  29
HETATM   29  N6  UNL     1      10.458  40.757  -5.180  1.00  0.00    -0.234 N 
ATOM     30  H62 UNL     1       9.443  40.654  -5.175  1.00  0.00     0.174 HD
ATOM     31  H61 UNL     1      10.879  41.148  -4.338  1.00  0.00     0.174 HD
ENDBRANCH   9  29
BRANCH  12  32
HETATM   32  N8  UNL     1      13.155  37.720  -7.305  1.00  0.00    -0.383 N 
ATOM     33  H82 UNL     1      13.135  37.114  -8.125  1.00  0.00     0.157 HD
ATOM     34  H81 UNL     1      13.634  37.411  -6.459  1.00  0.00     0.157 HD
ENDBRANCH  12  32
TORSDOF 11
ENDMDL
MODEL 5
REMARK VINA RESULT: -5.999703443      1.522      3.843
REMARK  11 active torsions:
REMARK  status: ('A' for Active; 'I' for Inactive)
REMARK    1  A    between atoms: C2_2  and  C3_3 
REMARK    2  A    between atoms: C3_3  and  C4_4 
REMARK    3  A    between atoms: C4_4  and  N1_5 
REMARK    4  A    between atoms: C5_6  and  N2_7 
REMARK    5  A    between atoms: N3_12  and  C8_13 
REMARK    6  A    between atoms: C8_13  and  C9_14 
REMARK    7  A    between atoms: C9_14  and  C10_15 
REMARK    8  A    between atoms: C10_15  and  C11_16 
REMARK    9  A    between atoms: C11_16  and  N4_17 
REMARK   10  A    between atoms: C13_24  and  N6_25 
REMARK   11  A    between atoms: C14_30  and  N8_31 
ROOT
HETATM    1  N1  UNL     1      13.423  41.379  -9.266  1.00  0.00    -0.323 N 
HETATM    2  C5  UNL     1      13.007  40.366  -8.417  1.00  0.00     0.173 A 
HETATM    3  C7  UNL     1      12.955  39.060  -8.799  1.00  0.00     0.293 A 
HETATM    4  O1  UNL     1      12.573  38.154  -8.006  1.00  0.00    -0.264 OA
HETATM    5  N3  UNL     1      13.333  38.758 -10.069  1.00  0.00    -0.295 N 
HETATM    6  C12 UNL     1      13.745  39.693 -10.938  1.00  0.00     0.157 A 
HETATM    7  N5  UNL     1      14.117  39.377 -12.191  1.00  0.00    -0.174 N 
ATOM      8  H5  UNL     1      14.077  38.399 -12.476  1.00  0.00     0.186 HD
HETATM    9  C13 UNL     1      14.539  40.282 -13.087  1.00  0.00     0.679 A 
HETATM   10  N7  UNL     1      14.578  41.545 -12.679  1.00  0.00    -0.175 N 
ATOM     11  H7  UNL     1      14.895  42.250 -13.343  1.00  0.00     0.186 HD
HETATM   12  C14 UNL     1      14.222  41.960 -11.434  1.00  0.00     0.145 A 
HETATM   13  C15 UNL     1      13.787  41.043 -10.509  1.00  0.00     0.126 A 
ENDROOT
BRANCH   5  14
HETATM   14  C8  UNL     1      13.266  37.376 -10.442  1.00  0.00     0.134 C 
BRANCH  14  15
HETATM   15  C9  UNL     1      14.598  36.645 -10.217  1.00  0.00     0.022 C 
BRANCH  15  16
HETATM   16  C10 UNL     1      14.908  35.851 -11.456  1.00  0.00     0.029 C 
BRANCH  16  17
HETATM   17  C11 UNL     1      13.627  35.739 -12.260  1.00  0.00     0.229 C 
BRANCH  17  18
HETATM   18  N4  UNL     1      14.044  35.548 -13.657  1.00  0.00    -0.079 N 
ATOM     19  H43 UNL     1      13.404  35.965 -14.334  1.00  0.00     0.274 HD
ATOM     20  H42 UNL     1      14.866  36.094 -13.915  1.00  0.00     0.274 HD
ATOM     21  H41 UNL     1      14.166  34.543 -13.776  1.00  0.00     0.274 HD
ENDBRANCH  17  18
ENDBRANCH  16  17
ENDBRANCH  15  16
ENDBRANCH  14  15
ENDBRANCH   5  14
BRANCH   2  22
HETATM   22  N2  UNL     1      12.669  40.747  -7.243  1.00  0.00    -0.376 N 
HETATM   23  C6  UNL     1      11.348  40.853  -6.702  1.00  0.00     0.148 C 
ATOM     24  H2  UNL     1      13.432  41.007  -6.619  1.00  0.00     0.160 HD
ENDBRANCH   2  22
BRANCH   1  25
HETATM   25  C4  UNL     1      13.437  42.689  -8.739  1.00  0.00     0.131 C 
BRANCH  25  26
HETATM   26  C3  UNL     1      14.618  42.837  -7.799  1.00  0.00     0.020 C 
BRANCH  26  27
HETATM   27  C2  UNL     1      15.224  44.246  -7.898  1.00  0.00    -0.003 C 
HETATM   28  C1  UNL     1      16.706  44.147  -8.192  1.00  0.00     0.005 C 
ENDBRANCH  26  27
ENDBRANCH  25  26
ENDBRANCH   1  25
BRANCH   9  29
HETATM   29  N6  UNL     1      14.886  39.913 -14.288  1.00  0.00    -0.234 N 
ATOM     30  H62 UNL     1      15.556  40.430 -14.856  1.00  0.00     0.174 HD
ATOM     31  H61 UNL     1      14.485  39.074 -14.706  1.00  0.00     0.174 HD
ENDBRANCH   9  29
BRANCH  12  32
HETATM   32  N8  UNL     1      14.307  43.193 -11.138  1.00  0.00    -0.383 N 
ATOM     33  H82 UNL     1      13.996  43.536 -10.229  1.00  0.00     0.157 HD
ATOM     34  H81 UNL     1      14.698  43.846 -11.817  1.00  0.00     0.157 HD
ENDBRANCH  12  32
TORSDOF 11
ENDMDL
