MODEL 1
REMARK VINA RESULT: -6.557385578      0.000      0.000
REMARK  11 active torsions:
REMARK  status: ('A' for Active; 'I' for Inactive)
REMARK    1  A    between atoms: N1_1  and  C1_5 
REMARK    2  A    between atoms: C1_5  and  C2_6 
REMARK    3  A    between atoms: C2_6  and  C3_7 
REMARK    4  A    between atoms: C3_7  and  S1_8 
REMARK    5  A    between atoms: S1_8  and  C4_9 
REMARK    6  A    between atoms: C4_9  and  C5_10 
REMARK    7  A    between atoms: C5_10  and  N2_11 
REMARK    8  A    between atoms: N2_11  and  C6_13 
REMARK    9  A    between atoms: C9_16  and  C10_17 
REMARK   10  A    between atoms: C13_25  and  O1_26 
REMARK   11  A    between atoms: C14_28  and  N6_29 
ROOT
HETATM    1  C6  UNL     1      13.334  39.006  -9.033  1.00  0.00     0.111 C 
HETATM    2  C7  UNL     1      13.255  40.132 -10.009  1.00  0.00     0.028 C 
HETATM    3  C8  UNL     1      14.621  39.977 -10.735  1.00  0.00     0.011 C 
HETATM    4  C9  UNL     1      14.645  38.522 -11.033  1.00  0.00     0.043 C 
HETATM    5  C14 UNL     1      13.870  37.869  -9.959  1.00  0.00     0.212 C 
ENDROOT
BRANCH   1   6
HETATM    6  N2  UNL     1      12.198  38.566  -8.361  1.00  0.00    -0.395 N 
ATOM      7  H2  UNL     1      11.599  37.844  -8.763  1.00  0.00     0.159 HD
BRANCH   6   8
HETATM    8  C5  UNL     1      11.899  39.139  -7.118  1.00  0.00     0.066 C 
BRANCH   8   9
HETATM    9  C4  UNL     1      11.718  38.271  -5.929  1.00  0.00     0.118 C 
BRANCH   9  10
HETATM   10  S1  UNL     1      10.311  38.869  -4.912  1.00  0.00    -0.164 SA
BRANCH  10  11
HETATM   11  C3  UNL     1      10.610  38.568  -3.156  1.00  0.00     0.076 C 
BRANCH  11  12
HETATM   12  C2  UNL     1       9.469  37.694  -2.662  1.00  0.00     0.037 C 
BRANCH  12  13
HETATM   13  C1  UNL     1       9.937  37.026  -1.384  1.00  0.00     0.230 C 
BRANCH  13  14
HETATM   14  N1  UNL     1       9.232  35.794  -1.129  1.00  0.00    -0.079 N 
ATOM     15  H13 UNL     1       8.228  35.953  -1.039  1.00  0.00     0.274 HD
ATOM     16  H12 UNL     1       9.226  35.194  -1.954  1.00  0.00     0.274 HD
ATOM     17  H11 UNL     1       9.604  35.303  -0.317  1.00  0.00     0.274 HD
ENDBRANCH  13  14
ENDBRANCH  12  13
ENDBRANCH  11  12
ENDBRANCH  10  11
ENDBRANCH   9  10
ENDBRANCH   8   9
ENDBRANCH   6   8
ENDBRANCH   1   6
BRANCH   5  18
HETATM   18  N6  UNL     1      14.677  37.034  -9.092  1.00  0.00    -0.073 N 
ATOM     19  H63 UNL     1      15.635  36.903  -9.418  1.00  0.00     0.274 HD
ATOM     20  H62 UNL     1      14.916  37.471  -8.203  1.00  0.00     0.274 HD
ATOM     21  H61 UNL     1      14.149  36.167  -8.999  1.00  0.00     0.274 HD
ENDBRANCH   5  18
BRANCH   4  22
HETATM   22  C10 UNL     1      14.147  38.245 -12.428  1.00  0.00     0.120 C 
HETATM   23  N3  UNL     1      13.236  37.099 -12.421  1.00  0.00    -0.357 N 
HETATM   24  C11 UNL     1      13.605  35.827 -12.924  1.00  0.00     0.184 C 
ATOM     25  H3  UNL     1      12.299  37.222 -12.039  1.00  0.00     0.162 HD
HETATM   26  N4  UNL     1      13.207  34.617 -12.310  1.00  0.00    -0.064 NA
HETATM   27  N5  UNL     1      14.348  35.750 -14.016  1.00  0.00    -0.362 N 
HETATM   28  C12 UNL     1      14.669  37.090 -14.530  1.00  0.00     0.156 C 
ATOM     29  H5  UNL     1      14.658  34.877 -14.445  1.00  0.00     0.162 HD
HETATM   30  C13 UNL     1      15.284  37.836 -13.335  1.00  0.00     0.159 C 
BRANCH  30  31
HETATM   31  O1  UNL     1      15.999  38.872 -13.888  1.00  0.00    -0.392 OA
ATOM     32  H1  UNL     1      16.749  39.164 -13.383  1.00  0.00     0.210 HD
ENDBRANCH  30  31
ENDBRANCH   4  22
TORSDOF 11
ENDMDL
MODEL 2
REMARK VINA RESULT: -6.451119147      4.149      8.582
REMARK  11 active torsions:
REMARK  status: ('A' for Active; 'I' for Inactive)
REMARK    1  A    between atoms: N1_1  and  C1_5 
REMARK    2  A    between atoms: C1_5  and  C2_6 
REMARK    3  A    between atoms: C2_6  and  C3_7 
REMARK    4  A    between atoms: C3_7  and  S1_8 
REMARK    5  A    between atoms: S1_8  and  C4_9 
REMARK    6  A    between atoms: C4_9  and  C5_10 
REMARK    7  A    between atoms: C5_10  and  N2_11 
REMARK    8  A    between atoms: N2_11  and  C6_13 
REMARK    9  A    between atoms: C9_16  and  C10_17 
REMARK   10  A    between atoms: C13_25  and  O1_26 
REMARK   11  A    between atoms: C14_28  and  N6_29 
ROOT
HETATM    1  C6  UNL     1      14.333  38.903 -11.292  1.00  0.00     0.111 C 
HETATM    2  C7  UNL     1      13.392  37.769 -11.064  1.00  0.00     0.028 C 
HETATM    3  C8  UNL     1      13.765  37.376  -9.607  1.00  0.00     0.011 C 
HETATM    4  C9  UNL     1      13.771  38.697  -8.927  1.00  0.00     0.043 C 
HETATM    5  C14 UNL     1      14.160  39.686  -9.952  1.00  0.00     0.212 C 
ENDROOT
BRANCH   1   6
HETATM    6  N2  UNL     1      14.157  39.770 -12.366  1.00  0.00    -0.395 N 
ATOM      7  H2  UNL     1      13.400  40.454 -12.367  1.00  0.00     0.159 HD
BRANCH   6   8
HETATM    8  C5  UNL     1      15.048  39.681 -13.444  1.00  0.00     0.066 C 
BRANCH   8   9
HETATM    9  C4  UNL     1      14.551  39.263 -14.778  1.00  0.00     0.118 C 
BRANCH   9  10
HETATM   10  S1  UNL     1      15.349  37.690 -15.290  1.00  0.00    -0.164 SA
BRANCH  10  11
HETATM   11  C3  UNL     1      14.967  36.364 -14.124  1.00  0.00     0.076 C 
BRANCH  11  12
HETATM   12  C2  UNL     1      13.531  35.946 -14.392  1.00  0.00     0.037 C 
BRANCH  12  13
HETATM   13  C1  UNL     1      13.383  35.789 -15.893  1.00  0.00     0.230 C 
BRANCH  13  14
HETATM   14  N1  UNL     1      13.558  34.420 -16.312  1.00  0.00    -0.079 N 
ATOM     15  H13 UNL     1      14.528  34.121 -16.205  1.00  0.00     0.274 HD
ATOM     16  H12 UNL     1      13.117  33.773 -15.657  1.00  0.00     0.274 HD
ATOM     17  H11 UNL     1      13.226  34.267 -17.264  1.00  0.00     0.274 HD
ENDBRANCH  13  14
ENDBRANCH  12  13
ENDBRANCH  11  12
ENDBRANCH  10  11
ENDBRANCH   9  10
ENDBRANCH   8   9
ENDBRANCH   6   8
ENDBRANCH   1   6
BRANCH   5  18
HETATM   18  N6  UNL     1      15.453  40.291  -9.706  1.00  0.00    -0.073 N 
ATOM     19  H63 UNL     1      16.145  39.649  -9.321  1.00  0.00     0.274 HD
ATOM     20  H62 UNL     1      15.969  40.523 -10.553  1.00  0.00     0.274 HD
ATOM     21  H61 UNL     1      15.255  41.094  -9.108  1.00  0.00     0.274 HD
ENDBRANCH   5  18
BRANCH   4  22
HETATM   22  C10 UNL     1      12.449  38.969  -8.258  1.00  0.00     0.120 C 
HETATM   23  N3  UNL     1      12.139  40.398  -8.314  1.00  0.00    -0.357 N 
HETATM   24  C11 UNL     1      12.228  41.244  -7.181  1.00  0.00     0.184 C 
ATOM     25  H3  UNL     1      11.846  40.801  -9.203  1.00  0.00     0.162 HD
HETATM   26  N4  UNL     1      12.709  42.572  -7.254  1.00  0.00    -0.064 NA
HETATM   27  N5  UNL     1      11.846  40.790  -5.998  1.00  0.00    -0.362 N 
HETATM   28  C12 UNL     1      11.369  39.402  -6.096  1.00  0.00     0.156 C 
ATOM     29  H5  UNL     1      11.876  41.331  -5.133  1.00  0.00     0.162 HD
HETATM   30  C13 UNL     1      12.512  38.639  -6.785  1.00  0.00     0.159 C 
BRANCH  30  31
HETATM   31  O1  UNL     1      12.304  37.318  -6.466  1.00  0.00    -0.392 OA
ATOM     32  H1  UNL     1      12.980  36.916  -5.933  1.00  0.00     0.210 HD
ENDBRANCH  30  31
ENDBRANCH   4  22
TORSDOF 11
ENDMDL
MODEL 3
REMARK VINA RESULT: -6.359234033      3.902      8.200
REMARK  11 active torsions:
REMARK  status: ('A' for Active; 'I' for Inactive)
REMARK    1  A    between atoms: N1_1  and  C1_5 
REMARK    2  A    between atoms: C1_5  and  C2_6 
REMARK    3  A    between atoms: C2_6  and  C3_7 
REMARK    4  A    between atoms: C3_7  and  S1_8 
REMARK    5  A    between atoms: S1_8  and  C4_9 
REMARK    6  A    between atoms: C4_9  and  C5_10 
REMARK    7  A    between atoms: C5_10  and  N2_11 
REMARK    8  A    between atoms: N2_11  and  C6_13 
REMARK    9  A    between atoms: C9_16  and  C10_17 
REMARK   10  A    between atoms: C13_25  and  O1_26 
REMARK   11  A    between atoms: C14_28  and  N6_29 
ROOT
HETATM    1  C6  UNL     1      14.268  39.087 -11.042  1.00  0.00     0.111 C 
HETATM    2  C7  UNL     1      13.510  37.829 -10.782  1.00  0.00     0.028 C 
HETATM    3  C8  UNL     1      13.895  37.565  -9.299  1.00  0.00     0.011 C 
HETATM    4  C9  UNL     1      13.673  38.898  -8.683  1.00  0.00     0.043 C 
HETATM    5  C14 UNL     1      13.933  39.890  -9.746  1.00  0.00     0.212 C 
ENDROOT
BRANCH   1   6
HETATM    6  N2  UNL     1      13.991  39.867 -12.160  1.00  0.00    -0.395 N 
ATOM      7  H2  UNL     1      13.052  40.230 -12.325  1.00  0.00     0.159 HD
BRANCH   6   8
HETATM    8  C5  UNL     1      15.036  40.140 -13.054  1.00  0.00     0.066 C 
BRANCH   8   9
HETATM    9  C4  UNL     1      16.368  39.524 -12.842  1.00  0.00     0.118 C 
BRANCH   9  10
HETATM   10  S1  UNL     1      16.647  38.176 -14.057  1.00  0.00    -0.164 SA
BRANCH  10  11
HETATM   11  C3  UNL     1      15.659  36.721 -13.645  1.00  0.00     0.076 C 
BRANCH  11  12
HETATM   12  C2  UNL     1      14.500  36.688 -14.628  1.00  0.00     0.037 C 
BRANCH  12  13
HETATM   13  C1  UNL     1      13.382  35.899 -13.975  1.00  0.00     0.230 C 
BRANCH  13  14
HETATM   14  N1  UNL     1      13.859  35.092 -12.879  1.00  0.00    -0.079 N 
ATOM     15  H13 UNL     1      14.355  35.658 -12.190  1.00  0.00     0.274 HD
ATOM     16  H12 UNL     1      13.088  34.766 -12.296  1.00  0.00     0.274 HD
ATOM     17  H11 UNL     1      14.434  34.313 -13.202  1.00  0.00     0.274 HD
ENDBRANCH  13  14
ENDBRANCH  12  13
ENDBRANCH  11  12
ENDBRANCH  10  11
ENDBRANCH   9  10
ENDBRANCH   8   9
ENDBRANCH   6   8
ENDBRANCH   1   6
BRANCH   5  18
HETATM   18  N6  UNL     1      15.107  40.703  -9.499  1.00  0.00    -0.073 N 
ATOM     19  H63 UNL     1      15.930  40.169  -9.222  1.00  0.00     0.274 HD
ATOM     20  H62 UNL     1      15.512  41.111 -10.341  1.00  0.00     0.274 HD
ATOM     21  H61 UNL     1      14.807  41.391  -8.809  1.00  0.00     0.274 HD
ENDBRANCH   5  18
BRANCH   4  22
HETATM   22  C10 UNL     1      12.304  38.987  -8.059  1.00  0.00     0.120 C 
HETATM   23  N3  UNL     1      11.808  40.362  -8.123  1.00  0.00    -0.357 N 
HETATM   24  C11 UNL     1      11.746  41.205  -6.985  1.00  0.00     0.184 C 
ATOM     25  H3  UNL     1      11.495  40.729  -9.021  1.00  0.00     0.162 HD
HETATM   26  N4  UNL     1      12.047  42.585  -7.039  1.00  0.00    -0.064 NA
HETATM   27  N5  UNL     1      11.388  40.696  -5.817  1.00  0.00    -0.362 N 
HETATM   28  C12 UNL     1      11.105  39.258  -5.935  1.00  0.00     0.156 C 
ATOM     29  H5  UNL     1      11.317  41.230  -4.951  1.00  0.00     0.162 HD
HETATM   30  C13 UNL     1      12.362  38.659  -6.586  1.00  0.00     0.159 C 
BRANCH  30  31
HETATM   31  O1  UNL     1      12.322  37.319  -6.278  1.00  0.00    -0.392 OA
ATOM     32  H1  UNL     1      12.008  37.111  -5.405  1.00  0.00     0.210 HD
ENDBRANCH  30  31
ENDBRANCH   4  22
TORSDOF 11
ENDMDL
MODEL 4
REMARK VINA RESULT: -6.309715570      2.508      3.270
REMARK  11 active torsions:
REMARK  status: ('A' for Active; 'I' for Inactive)
REMARK    1  A    between atoms: N1_1  and  C1_5 
REMARK    2  A    between atoms: C1_5  and  C2_6 
REMARK    3  A    between atoms: C2_6  and  C3_7 
REMARK    4  A    between atoms: C3_7  and  S1_8 
REMARK    5  A    between atoms: S1_8  and  C4_9 
REMARK    6  A    between atoms: C4_9  and  C5_10 
REMARK    7  A    between atoms: C5_10  and  N2_11 
REMARK    8  A    between atoms: N2_11  and  C6_13 
REMARK    9  A    between atoms: C9_16  and  C10_17 
REMARK   10  A    between atoms: C13_25  and  O1_26 
REMARK   11  A    between atoms: C14_28  and  N6_29 
ROOT
HETATM    1  C6  UNL     1      13.552  38.473 -10.570  1.00  0.00     0.111 C 
HETATM    2  C7  UNL     1      13.553  36.983 -10.622  1.00  0.00     0.028 C 
HETATM    3  C8  UNL     1      13.420  36.751 -12.154  1.00  0.00     0.011 C 
HETATM    4  C9  UNL     1      14.450  37.675 -12.693  1.00  0.00     0.043 C 
HETATM    5  C14 UNL     1      14.538  38.797 -11.736  1.00  0.00     0.212 C 
ENDROOT
BRANCH   1   6
HETATM    6  N2  UNL     1      13.952  39.145  -9.419  1.00  0.00    -0.395 N 
ATOM      7  H2  UNL     1      14.937  39.344  -9.245  1.00  0.00     0.159 HD
BRANCH   6   8
HETATM    8  C5  UNL     1      12.966  39.543  -8.506  1.00  0.00     0.066 C 
BRANCH   8   9
HETATM    9  C4  UNL     1      12.583  38.639  -7.394  1.00  0.00     0.118 C 
BRANCH   9  10
HETATM   10  S1  UNL     1      11.366  39.464  -6.294  1.00  0.00    -0.164 SA
BRANCH  10  11
HETATM   11  C3  UNL     1      10.909  38.388  -4.915  1.00  0.00     0.076 C 
BRANCH  11  12
HETATM   12  C2  UNL     1       9.880  39.146  -4.093  1.00  0.00     0.037 C 
BRANCH  12  13
HETATM   13  C1  UNL     1      10.176  38.862  -2.633  1.00  0.00     0.230 C 
BRANCH  13  14
HETATM   14  N1  UNL     1      11.570  39.053  -2.318  1.00  0.00    -0.079 N 
ATOM     15  H13 UNL     1      11.906  39.956  -2.652  1.00  0.00     0.274 HD
ATOM     16  H12 UNL     1      11.709  39.190  -1.317  1.00  0.00     0.274 HD
ATOM     17  H11 UNL     1      12.148  38.289  -2.670  1.00  0.00     0.274 HD
ENDBRANCH  13  14
ENDBRANCH  12  13
ENDBRANCH  11  12
ENDBRANCH  10  11
ENDBRANCH   9  10
ENDBRANCH   8   9
ENDBRANCH   6   8
ENDBRANCH   1   6
BRANCH   5  18
HETATM   18  N6  UNL     1      14.070  40.056 -12.280  1.00  0.00    -0.073 N 
ATOM     19  H63 UNL     1      14.282  40.184 -13.269  1.00  0.00     0.274 HD
ATOM     20  H62 UNL     1      13.056  40.116 -12.370  1.00  0.00     0.274 HD
ATOM     21  H61 UNL     1      14.476  40.768 -11.673  1.00  0.00     0.274 HD
ENDBRANCH   5  18
BRANCH   4  22
HETATM   22  C10 UNL     1      15.750  36.955 -12.941  1.00  0.00     0.120 C 
HETATM   23  N3  UNL     1      16.874  37.761 -12.463  1.00  0.00    -0.357 N 
HETATM   24  C11 UNL     1      17.753  38.443 -13.340  1.00  0.00     0.184 C 
ATOM     25  H3  UNL     1      17.030  37.835 -11.458  1.00  0.00     0.162 HD
HETATM   26  N4  UNL     1      18.271  39.728 -13.057  1.00  0.00    -0.064 NA
HETATM   27  N5  UNL     1      18.120  37.865 -14.473  1.00  0.00    -0.362 N 
HETATM   28  C12 UNL     1      17.501  36.538 -14.610  1.00  0.00     0.156 C 
ATOM     29  H5  UNL     1      18.748  38.284 -15.159  1.00  0.00     0.162 HD
HETATM   30  C13 UNL     1      15.995  36.781 -14.422  1.00  0.00     0.159 C 
BRANCH  30  31
HETATM   31  O1  UNL     1      15.381  35.694 -14.998  1.00  0.00    -0.392 OA
ATOM     32  H1  UNL     1      15.881  35.256 -15.677  1.00  0.00     0.210 HD
ENDBRANCH  30  31
ENDBRANCH   4  22
TORSDOF 11
ENDMDL
MODEL 5
REMARK VINA RESULT: -6.244345285      4.336      9.138
REMARK  11 active torsions:
REMARK  status: ('A' for Active; 'I' for Inactive)
REMARK    1  A    between atoms: N1_1  and  C1_5 
REMARK    2  A    between atoms: C1_5  and  C2_6 
REMARK    3  A    between atoms: C2_6  and  C3_7 
REMARK    4  A    between atoms: C3_7  and  S1_8 
REMARK    5  A    between atoms: S1_8  and  C4_9 
REMARK    6  A    between atoms: C4_9  and  C5_10 
REMARK    7  A    between atoms: C5_10  and  N2_11 
REMARK    8  A    between atoms: N2_11  and  C6_13 
REMARK    9  A    between atoms: C9_16  and  C10_17 
REMARK   10  A    between atoms: C13_25  and  O1_26 
REMARK   11  A    between atoms: C14_28  and  N6_29 
ROOT
HETATM    1  C6  UNL     1      14.254  38.170 -11.408  1.00  0.00     0.111 C 
HETATM    2  C7  UNL     1      13.316  37.353 -10.585  1.00  0.00     0.028 C 
HETATM    3  C8  UNL     1      13.807  37.709  -9.154  1.00  0.00     0.011 C 
HETATM    4  C9  UNL     1      13.894  39.191  -9.221  1.00  0.00     0.043 C 
HETATM    5  C14 UNL     1      14.210  39.521 -10.625  1.00  0.00     0.212 C 
ENDROOT
BRANCH   1   6
HETATM    6  N2  UNL     1      14.001  38.403 -12.756  1.00  0.00    -0.395 N 
ATOM      7  H2  UNL     1      13.762  39.337 -13.090  1.00  0.00     0.159 HD
BRANCH   6   8
HETATM    8  C5  UNL     1      14.082  37.321 -13.643  1.00  0.00     0.066 C 
BRANCH   8   9
HETATM    9  C4  UNL     1      15.396  36.688 -13.916  1.00  0.00     0.118 C 
BRANCH   9  10
HETATM   10  S1  UNL     1      15.637  36.477 -15.723  1.00  0.00    -0.164 SA
BRANCH  10  11
HETATM   11  C3  UNL     1      14.210  37.097 -16.642  1.00  0.00     0.076 C 
BRANCH  11  12
HETATM   12  C2  UNL     1      13.515  35.885 -17.239  1.00  0.00     0.037 C 
BRANCH  12  13
HETATM   13  C1  UNL     1      14.451  34.704 -17.071  1.00  0.00     0.230 C 
BRANCH  13  14
HETATM   14  N1  UNL     1      13.744  33.447 -17.100  1.00  0.00    -0.079 N 
ATOM     15  H13 UNL     1      13.701  33.024 -16.173  1.00  0.00     0.274 HD
ATOM     16  H12 UNL     1      12.746  33.587 -17.260  1.00  0.00     0.274 HD
ATOM     17  H11 UNL     1      14.141  32.802 -17.783  1.00  0.00     0.274 HD
ENDBRANCH  13  14
ENDBRANCH  12  13
ENDBRANCH  11  12
ENDBRANCH  10  11
ENDBRANCH   9  10
ENDBRANCH   8   9
ENDBRANCH   6   8
ENDBRANCH   1   6
BRANCH   5  18
HETATM   18  N6  UNL     1      15.530  40.093 -10.799  1.00  0.00    -0.073 N 
ATOM     19  H63 UNL     1      16.285  39.512 -10.434  1.00  0.00     0.274 HD
ATOM     20  H62 UNL     1      15.852  40.106 -11.766  1.00  0.00     0.274 HD
ATOM     21  H61 UNL     1      15.473  41.016 -10.368  1.00  0.00     0.274 HD
ENDBRANCH   5  18
BRANCH   4  22
HETATM   22  C10 UNL     1      12.640  39.834  -8.689  1.00  0.00     0.120 C 
HETATM   23  N3  UNL     1      12.910  41.216  -8.292  1.00  0.00    -0.357 N 
HETATM   24  C11 UNL     1      12.997  41.618  -6.936  1.00  0.00     0.184 C 
ATOM     25  H3  UNL     1      13.040  41.918  -9.019  1.00  0.00     0.162 HD
HETATM   26  N4  UNL     1      13.936  42.571  -6.480  1.00  0.00    -0.064 NA
HETATM   27  N5  UNL     1      12.169  41.093  -6.047  1.00  0.00    -0.362 N 
HETATM   28  C12 UNL     1      11.257  40.129  -6.683  1.00  0.00     0.156 C 
ATOM     29  H5  UNL     1      12.163  41.326  -5.054  1.00  0.00     0.162 HD
HETATM   30  C13 UNL     1      12.176  39.147  -7.426  1.00  0.00     0.159 C 
BRANCH  30  31
HETATM   31  O1  UNL     1      11.414  38.017  -7.615  1.00  0.00    -0.392 OA
ATOM     32  H1  UNL     1      10.743  37.864  -6.960  1.00  0.00     0.210 HD
ENDBRANCH  30  31
ENDBRANCH   4  22
TORSDOF 11
ENDMDL
