MODEL 1
REMARK VINA RESULT: -6.575262160      0.000      0.000
REMARK  2 active torsions:
REMARK  status: ('A' for Active; 'I' for Inactive)
REMARK    1  A    between atoms: C2_2  and  C3_3 
REMARK    2  A    between atoms: C7_8  and  O2_9 
ROOT
HETATM    1  C3  UNL     1     -10.099  19.509  78.312  1.00  0.00     0.132 C 
HETATM    2  O1  UNL     1     -10.908  19.353  77.134  1.00  0.00    -0.347 OA
HETATM    3  C4  UNL     1      -9.999  19.856  76.282  1.00  0.00     0.198 C 
HETATM    4  C5  UNL     1      -9.902  21.247  76.777  1.00  0.00     0.074 C 
HETATM    5  C6  UNL     1      -8.764  21.663  77.625  1.00  0.00     0.046 C 
HETATM    6  C7  UNL     1      -7.891  20.457  77.344  1.00  0.00     0.088 C 
HETATM    7  C8  UNL     1      -7.690  20.587  75.852  1.00  0.00     0.248 C 
HETATM    8  O3  UNL     1      -8.588  20.467  74.933  1.00  0.00    -0.235 OA
HETATM    9  O4  UNL     1      -9.802  19.954  75.004  1.00  0.00    -0.201 OA
HETATM   10  C9  UNL     1      -8.648  19.281  77.866  1.00  0.00     0.057 C 
HETATM   11  C10 UNL     1      -9.053  18.716  76.552  1.00  0.00     0.081 C 
ENDROOT
BRANCH   1  12
HETATM   12  C2  UNL     1     -10.430  18.485  79.353  1.00  0.00     0.028 C 
HETATM   13  C1  UNL     1     -10.674  18.933  80.728  1.00  0.00     0.007 C 
ENDBRANCH   1  12
BRANCH   6  14
HETATM   14  O2  UNL     1      -6.671  20.536  77.970  1.00  0.00    -0.387 OA
ATOM     15  H2  UNL     1      -6.746  20.818  78.875  1.00  0.00     0.210 HD
ENDBRANCH   6  14
TORSDOF 2
ENDMDL
MODEL 2
REMARK VINA RESULT: -5.939072874      2.377      4.480
REMARK  2 active torsions:
REMARK  status: ('A' for Active; 'I' for Inactive)
REMARK    1  A    between atoms: C2_2  and  C3_3 
REMARK    2  A    between atoms: C7_8  and  O2_9 
ROOT
HETATM    1  C3  UNL     1      -9.835  18.151  77.388  1.00  0.00     0.132 C 
HETATM    2  O1  UNL     1     -11.219  18.233  77.769  1.00  0.00    -0.347 OA
HETATM    3  C4  UNL     1     -11.021  17.903  79.057  1.00  0.00     0.198 C 
HETATM    4  C5  UNL     1     -10.508  16.524  78.909  1.00  0.00     0.074 C 
HETATM    5  C6  UNL     1      -9.060  16.247  79.022  1.00  0.00     0.046 C 
HETATM    6  C7  UNL     1      -8.677  17.578  79.634  1.00  0.00     0.088 C 
HETATM    7  C8  UNL     1      -9.462  17.540  80.924  1.00  0.00     0.248 C 
HETATM    8  O3  UNL     1     -10.746  17.562  81.055  1.00  0.00    -0.235 OA
HETATM    9  O4  UNL     1     -11.675  17.888  80.176  1.00  0.00    -0.201 OA
HETATM   10  C9  UNL     1      -9.029  18.608  78.611  1.00  0.00     0.057 C 
HETATM   11  C10 UNL     1     -10.226  19.159  79.298  1.00  0.00     0.081 C 
ENDROOT
BRANCH   1  12
HETATM   12  C2  UNL     1      -9.516  19.071  76.252  1.00  0.00     0.028 C 
HETATM   13  C1  UNL     1     -10.022  18.742  74.915  1.00  0.00     0.007 C 
ENDBRANCH   1  12
BRANCH   6  14
HETATM   14  O2  UNL     1      -7.337  17.655  79.925  1.00  0.00    -0.387 OA
ATOM     15  H2  UNL     1      -6.975  18.515  79.743  1.00  0.00     0.210 HD
ENDBRANCH   6  14
TORSDOF 2
ENDMDL
MODEL 3
REMARK VINA RESULT: -5.906632103      1.646      2.231
REMARK  2 active torsions:
REMARK  status: ('A' for Active; 'I' for Inactive)
REMARK    1  A    between atoms: C2_2  and  C3_3 
REMARK    2  A    between atoms: C7_8  and  O2_9 
ROOT
HETATM    1  C3  UNL     1     -11.018  18.825  76.455  1.00  0.00     0.132 C 
HETATM    2  O1  UNL     1     -10.717  19.612  75.290  1.00  0.00    -0.347 OA
HETATM    3  C4  UNL     1      -9.550  20.090  75.752  1.00  0.00     0.198 C 
HETATM    4  C5  UNL     1     -10.019  20.875  76.916  1.00  0.00     0.074 C 
HETATM    5  C6  UNL     1      -9.892  20.332  78.286  1.00  0.00     0.046 C 
HETATM    6  C7  UNL     1      -8.931  19.214  77.939  1.00  0.00     0.088 C 
HETATM    7  C8  UNL     1      -7.748  19.998  77.424  1.00  0.00     0.248 C 
HETATM    8  O3  UNL     1      -7.697  20.715  76.351  1.00  0.00    -0.235 OA
HETATM    9  O4  UNL     1      -8.517  20.742  75.318  1.00  0.00    -0.201 OA
HETATM   10  C9  UNL     1      -9.670  18.326  76.993  1.00  0.00     0.057 C 
HETATM   11  C10 UNL     1      -8.940  18.713  75.758  1.00  0.00     0.081 C 
ENDROOT
BRANCH   1  12
HETATM   12  C2  UNL     1     -11.853  17.629  76.117  1.00  0.00     0.028 C 
HETATM   13  C1  UNL     1     -11.910  16.517  77.072  1.00  0.00     0.007 C 
ENDBRANCH   1  12
BRANCH   6  14
HETATM   14  O2  UNL     1      -8.546  18.493  79.043  1.00  0.00    -0.387 OA
ATOM     15  H2  UNL     1      -8.507  17.559  78.871  1.00  0.00     0.210 HD
ENDBRANCH   6  14
TORSDOF 2
ENDMDL
MODEL 4
REMARK VINA RESULT: -5.474822208      1.962      4.094
REMARK  2 active torsions:
REMARK  status: ('A' for Active; 'I' for Inactive)
REMARK    1  A    between atoms: C2_2  and  C3_3 
REMARK    2  A    between atoms: C7_8  and  O2_9 
ROOT
HETATM    1  C3  UNL     1      -8.980  19.131  77.669  1.00  0.00     0.132 C 
HETATM    2  O1  UNL     1      -9.437  18.159  76.714  1.00  0.00    -0.347 OA
HETATM    3  C4  UNL     1     -10.235  17.497  77.569  1.00  0.00     0.198 C 
HETATM    4  C5  UNL     1      -9.235  16.985  78.532  1.00  0.00     0.074 C 
HETATM    5  C6  UNL     1      -9.043  17.652  79.838  1.00  0.00     0.046 C 
HETATM    6  C7  UNL     1     -10.309  18.482  79.796  1.00  0.00     0.088 C 
HETATM    7  C8  UNL     1     -11.363  17.399  79.752  1.00  0.00     0.248 C 
HETATM    8  O3  UNL     1     -11.578  16.561  78.794  1.00  0.00    -0.235 OA
HETATM    9  O4  UNL     1     -11.157  16.587  77.544  1.00  0.00    -0.201 OA
HETATM   10  C9  UNL     1     -10.161  19.385  78.616  1.00  0.00     0.057 C 
HETATM   11  C10 UNL     1     -11.131  18.698  77.725  1.00  0.00     0.081 C 
ENDROOT
BRANCH   1  12
HETATM   12  C2  UNL     1      -8.624  20.429  77.014  1.00  0.00     0.028 C 
HETATM   13  C1  UNL     1      -9.073  21.679  77.637  1.00  0.00     0.007 C 
ENDBRANCH   1  12
BRANCH   6  14
HETATM   14  O2  UNL     1     -10.482  19.232  80.933  1.00  0.00    -0.387 OA
ATOM     15  H2  UNL     1     -11.107  18.841  81.534  1.00  0.00     0.210 HD
ENDBRANCH   6  14
TORSDOF 2
ENDMDL
MODEL 5
REMARK VINA RESULT: -5.456831598      4.667      6.912
REMARK  2 active torsions:
REMARK  status: ('A' for Active; 'I' for Inactive)
REMARK    1  A    between atoms: C2_2  and  C3_3 
REMARK    2  A    between atoms: C7_8  and  O2_9 
ROOT
HETATM    1  C3  UNL     1      -9.961  17.519  81.466  1.00  0.00     0.132 C 
HETATM    2  O1  UNL     1     -10.833  16.653  82.211  1.00  0.00    -0.347 OA
HETATM    3  C4  UNL     1      -9.925  16.319  83.143  1.00  0.00     0.198 C 
HETATM    4  C5  UNL     1      -8.927  15.613  82.309  1.00  0.00     0.074 C 
HETATM    5  C6  UNL     1      -7.679  16.292  81.897  1.00  0.00     0.046 C 
HETATM    6  C7  UNL     1      -7.784  17.449  82.869  1.00  0.00     0.088 C 
HETATM    7  C8  UNL     1      -7.736  16.721  84.191  1.00  0.00     0.248 C 
HETATM    8  O3  UNL     1      -8.623  15.911  84.667  1.00  0.00    -0.235 OA
HETATM    9  O4  UNL     1      -9.872  15.718  84.290  1.00  0.00    -0.201 OA
HETATM   10  C9  UNL     1      -9.033  18.177  82.496  1.00  0.00     0.057 C 
HETATM   11  C10 UNL     1      -9.862  17.737  83.648  1.00  0.00     0.081 C 
ENDROOT
BRANCH   1  12
HETATM   12  C2  UNL     1     -10.719  18.603  80.766  1.00  0.00     0.028 C 
HETATM   13  C1  UNL     1     -10.308  18.988  79.412  1.00  0.00     0.007 C 
ENDBRANCH   1  12
BRANCH   6  14
HETATM   14  O2  UNL     1      -6.710  18.301  82.786  1.00  0.00    -0.387 OA
ATOM     15  H2  UNL     1      -5.964  17.904  82.353  1.00  0.00     0.210 HD
ENDBRANCH   6  14
TORSDOF 2
ENDMDL
