MODEL 1
REMARK VINA RESULT: -6.146615193      0.000      0.000
REMARK  6 active torsions:
REMARK  status: ('A' for Active; 'I' for Inactive)
REMARK    1  A    between atoms: C2_3  and  C3_4 
REMARK    2  A    between atoms: C3_4  and  C4_5 
REMARK    3  A    between atoms: C5_6  and  C6_7 
REMARK    4  A    between atoms: C7_8  and  C8_9 
REMARK    5  A    between atoms: C10_12  and  C11_13 
REMARK    6  A    between atoms: C11_13  and  O2_14 
ROOT
HETATM    1  N1  UNL     1     -10.791  15.892  77.418  1.00  0.00    -0.197 NA
HETATM    2  C1  UNL     1     -11.727  16.405  76.973  1.00  0.00     0.060 C 
HETATM    3  C2  UNL     1     -12.907  17.069  76.427  1.00  0.00     0.136 C 
ENDROOT
BRANCH   3   4
HETATM    4  C3  UNL     1     -12.540  17.691  75.074  1.00  0.00     0.109 C 
BRANCH   4   5
HETATM    5  C4  UNL     1     -11.342  18.504  75.316  1.00  0.00    -0.092 C 
HETATM    6  C5  UNL     1     -10.347  19.159  75.529  1.00  0.00    -0.015 C 
BRANCH   6   7
HETATM    7  C6  UNL     1      -9.178  19.918  75.800  1.00  0.00    -0.012 C 
HETATM    8  C7  UNL     1      -8.179  20.562  76.053  1.00  0.00    -0.058 C 
BRANCH   8   9
HETATM    9  C8  UNL     1      -6.980  21.335  76.383  1.00  0.00     0.228 C 
HETATM   10  C9  UNL     1      -6.522  20.962  77.780  1.00  0.00     0.215 C 
HETATM   11  O1  UNL     1      -5.134  20.902  77.599  1.00  0.00    -0.356 OA
HETATM   12  C10 UNL     1      -4.903  20.537  76.294  1.00  0.00     0.284 C 
HETATM   13  O3  UNL     1      -5.976  20.927  75.526  1.00  0.00    -0.340 OA
BRANCH  12  14
HETATM   14  C11 UNL     1      -3.619  21.227  75.849  1.00  0.00     0.224 C 
BRANCH  14  15
HETATM   15  O2  UNL     1      -2.820  20.322  75.157  1.00  0.00    -0.396 OA
ATOM     16  H2  UNL     1      -2.451  20.745  74.391  1.00  0.00     0.209 HD
ENDBRANCH  14  15
ENDBRANCH  12  14
ENDBRANCH   8   9
ENDBRANCH   6   7
ENDBRANCH   4   5
ENDBRANCH   3   4
TORSDOF 6
ENDMDL
MODEL 2
REMARK VINA RESULT: -5.981530253      1.275      1.393
REMARK  6 active torsions:
REMARK  status: ('A' for Active; 'I' for Inactive)
REMARK    1  A    between atoms: C2_3  and  C3_4 
REMARK    2  A    between atoms: C3_4  and  C4_5 
REMARK    3  A    between atoms: C5_6  and  C6_7 
REMARK    4  A    between atoms: C7_8  and  C8_9 
REMARK    5  A    between atoms: C10_12  and  C11_13 
REMARK    6  A    between atoms: C11_13  and  O2_14 
ROOT
HETATM    1  N1  UNL     1     -15.332  17.120  77.036  1.00  0.00    -0.197 NA
HETATM    2  C1  UNL     1     -14.230  17.029  76.697  1.00  0.00     0.060 C 
HETATM    3  C2  UNL     1     -12.844  16.894  76.261  1.00  0.00     0.136 C 
ENDROOT
BRANCH   3   4
HETATM    4  C3  UNL     1     -12.630  17.771  75.020  1.00  0.00     0.109 C 
BRANCH   4   5
HETATM    5  C4  UNL     1     -11.403  18.535  75.273  1.00  0.00    -0.092 C 
HETATM    6  C5  UNL     1     -10.390  19.156  75.501  1.00  0.00    -0.015 C 
BRANCH   6   7
HETATM    7  C6  UNL     1      -9.206  19.885  75.791  1.00  0.00    -0.012 C 
HETATM    8  C7  UNL     1      -8.204  20.519  76.054  1.00  0.00    -0.058 C 
BRANCH   8   9
HETATM    9  C8  UNL     1      -7.010  21.300  76.385  1.00  0.00     0.228 C 
HETATM   10  C9  UNL     1      -6.558  20.939  77.787  1.00  0.00     0.215 C 
HETATM   11  O1  UNL     1      -5.169  20.885  77.613  1.00  0.00    -0.356 OA
HETATM   12  C10 UNL     1      -4.929  20.512  76.313  1.00  0.00     0.284 C 
HETATM   13  O3  UNL     1      -6.000  20.891  75.536  1.00  0.00    -0.340 OA
BRANCH  12  14
HETATM   14  C11 UNL     1      -3.645  21.206  75.870  1.00  0.00     0.224 C 
BRANCH  14  15
HETATM   15  O2  UNL     1      -2.846  20.304  75.174  1.00  0.00    -0.396 OA
ATOM     16  H2  UNL     1      -1.984  20.680  75.043  1.00  0.00     0.209 HD
ENDBRANCH  14  15
ENDBRANCH  12  14
ENDBRANCH   8   9
ENDBRANCH   6   7
ENDBRANCH   4   5
ENDBRANCH   3   4
TORSDOF 6
ENDMDL
MODEL 3
REMARK VINA RESULT: -5.885063657      1.875      2.175
REMARK  6 active torsions:
REMARK  status: ('A' for Active; 'I' for Inactive)
REMARK    1  A    between atoms: C2_3  and  C3_4 
REMARK    2  A    between atoms: C3_4  and  C4_5 
REMARK    3  A    between atoms: C5_6  and  C6_7 
REMARK    4  A    between atoms: C7_8  and  C8_9 
REMARK    5  A    between atoms: C10_12  and  C11_13 
REMARK    6  A    between atoms: C11_13  and  O2_14 
ROOT
HETATM    1  N1  UNL     1     -14.857  16.654  72.515  1.00  0.00    -0.197 NA
HETATM    2  C1  UNL     1     -14.387  17.303  73.349  1.00  0.00     0.060 C 
HETATM    3  C2  UNL     1     -13.813  18.121  74.413  1.00  0.00     0.136 C 
ENDROOT
BRANCH   3   4
HETATM    4  C3  UNL     1     -12.805  17.272  75.198  1.00  0.00     0.109 C 
BRANCH   4   5
HETATM    5  C4  UNL     1     -11.637  18.134  75.418  1.00  0.00    -0.092 C 
HETATM    6  C5  UNL     1     -10.671  18.834  75.618  1.00  0.00    -0.015 C 
BRANCH   6   7
HETATM    7  C6  UNL     1      -9.542  19.656  75.875  1.00  0.00    -0.012 C 
HETATM    8  C7  UNL     1      -8.589  20.374  76.105  1.00  0.00    -0.058 C 
BRANCH   8   9
HETATM    9  C8  UNL     1      -7.456  21.257  76.388  1.00  0.00     0.228 C 
HETATM   10  C9  UNL     1      -7.031  21.067  77.832  1.00  0.00     0.215 C 
HETATM   11  O1  UNL     1      -5.636  21.084  77.703  1.00  0.00    -0.356 OA
HETATM   12  C10 UNL     1      -5.330  20.599  76.455  1.00  0.00     0.284 C 
HETATM   13  O3  UNL     1      -6.395  20.830  75.614  1.00  0.00    -0.340 OA
BRANCH  12  14
HETATM   14  C11 UNL     1      -4.077  21.324  75.979  1.00  0.00     0.224 C 
BRANCH  14  15
HETATM   15  O2  UNL     1      -3.242  20.426  75.322  1.00  0.00    -0.396 OA
ATOM     16  H2  UNL     1      -3.743  19.666  75.051  1.00  0.00     0.209 HD
ENDBRANCH  14  15
ENDBRANCH  12  14
ENDBRANCH   8   9
ENDBRANCH   6   7
ENDBRANCH   4   5
ENDBRANCH   3   4
TORSDOF 6
ENDMDL
MODEL 4
REMARK VINA RESULT: -5.820117604      5.416      6.740
REMARK  6 active torsions:
REMARK  status: ('A' for Active; 'I' for Inactive)
REMARK    1  A    between atoms: C2_3  and  C3_4 
REMARK    2  A    between atoms: C3_4  and  C4_5 
REMARK    3  A    between atoms: C5_6  and  C6_7 
REMARK    4  A    between atoms: C7_8  and  C8_9 
REMARK    5  A    between atoms: C10_12  and  C11_13 
REMARK    6  A    between atoms: C11_13  and  O2_14 
ROOT
HETATM    1  N1  UNL     1      -8.240  20.902  75.556  1.00  0.00    -0.197 NA
HETATM    2  C1  UNL     1      -8.857  19.950  75.327  1.00  0.00     0.060 C 
HETATM    3  C2  UNL     1      -9.622  18.738  75.053  1.00  0.00     0.136 C 
ENDROOT
BRANCH   3   4
HETATM    4  C3  UNL     1     -11.030  18.903  75.640  1.00  0.00     0.109 C 
BRANCH   4   5
HETATM    5  C4  UNL     1     -10.879  18.777  77.094  1.00  0.00    -0.092 C 
HETATM    6  C5  UNL     1     -10.740  18.689  78.293  1.00  0.00    -0.015 C 
BRANCH   6   7
HETATM    7  C6  UNL     1     -10.554  18.594  79.697  1.00  0.00    -0.012 C 
HETATM    8  C7  UNL     1     -10.375  18.505  80.896  1.00  0.00    -0.058 C 
BRANCH   8   9
HETATM    9  C8  UNL     1     -10.138  18.386  82.336  1.00  0.00     0.228 C 
HETATM   10  C9  UNL     1     -10.826  17.134  82.846  1.00  0.00     0.215 C 
HETATM   11  O1  UNL     1      -9.856  16.638  83.728  1.00  0.00    -0.356 OA
HETATM   12  C10 UNL     1      -8.628  17.033  83.256  1.00  0.00     0.284 C 
HETATM   13  O3  UNL     1      -8.783  18.183  82.517  1.00  0.00    -0.340 OA
BRANCH  12  14
HETATM   14  C11 UNL     1      -7.729  17.264  84.465  1.00  0.00     0.224 C 
BRANCH  14  15
HETATM   15  O2  UNL     1      -6.962  18.408  84.262  1.00  0.00    -0.396 OA
ATOM     16  H2  UNL     1      -6.524  18.644  85.070  1.00  0.00     0.209 HD
ENDBRANCH  14  15
ENDBRANCH  12  14
ENDBRANCH   8   9
ENDBRANCH   6   7
ENDBRANCH   4   5
ENDBRANCH   3   4
TORSDOF 6
ENDMDL
MODEL 5
REMARK VINA RESULT: -5.726652043      4.976      8.197
REMARK  6 active torsions:
REMARK  status: ('A' for Active; 'I' for Inactive)
REMARK    1  A    between atoms: C2_3  and  C3_4 
REMARK    2  A    between atoms: C3_4  and  C4_5 
REMARK    3  A    between atoms: C5_6  and  C6_7 
REMARK    4  A    between atoms: C7_8  and  C8_9 
REMARK    5  A    between atoms: C10_12  and  C11_13 
REMARK    6  A    between atoms: C11_13  and  O2_14 
ROOT
HETATM    1  N1  UNL     1      -5.521  21.550  75.428  1.00  0.00    -0.197 NA
HETATM    2  C1  UNL     1      -6.193  21.228  76.313  1.00  0.00     0.060 C 
HETATM    3  C2  UNL     1      -7.028  20.833  77.444  1.00  0.00     0.136 C 
ENDROOT
BRANCH   3   4
HETATM    4  C3  UNL     1      -8.348  21.610  77.377  1.00  0.00     0.109 C 
BRANCH   4   5
HETATM    5  C4  UNL     1      -9.348  20.664  76.867  1.00  0.00    -0.092 C 
HETATM    6  C5  UNL     1     -10.168  19.891  76.427  1.00  0.00    -0.015 C 
BRANCH   6   7
HETATM    7  C6  UNL     1     -11.136  19.000  75.894  1.00  0.00    -0.012 C 
HETATM    8  C7  UNL     1     -11.979  18.252  75.440  1.00  0.00    -0.058 C 
BRANCH   8   9
HETATM    9  C8  UNL     1     -13.014  17.367  74.901  1.00  0.00     0.228 C 
HETATM   10  C9  UNL     1     -14.168  17.304  75.883  1.00  0.00     0.215 C 
HETATM   11  O1  UNL     1     -15.264  17.354  75.010  1.00  0.00    -0.356 OA
HETATM   12  C10 UNL     1     -14.876  18.067  73.902  1.00  0.00     0.284 C 
HETATM   13  O3  UNL     1     -13.512  17.960  73.757  1.00  0.00    -0.340 OA
BRANCH  12  14
HETATM   14  C11 UNL     1     -15.612  17.480  72.703  1.00  0.00     0.224 C 
BRANCH  14  15
HETATM   15  O2  UNL     1     -14.729  16.720  71.943  1.00  0.00    -0.396 OA
ATOM     16  H2  UNL     1     -15.218  16.125  71.387  1.00  0.00     0.209 HD
ENDBRANCH  14  15
ENDBRANCH  12  14
ENDBRANCH   8   9
ENDBRANCH   6   7
ENDBRANCH   4   5
ENDBRANCH   3   4
TORSDOF 6
ENDMDL
