MODEL 1
REMARK VINA RESULT: -7.601791942      0.000      0.000
REMARK  12 active torsions:
REMARK  status: ('A' for Active; 'I' for Inactive)
REMARK    1  A    between atoms: N1_1  and  C1_4 
REMARK    2  A    between atoms: C6_19  and  C7_20 
REMARK    3  A    between atoms: C7_20  and  N6_21 
REMARK    4  A    between atoms: N6_21  and  C8_24 
REMARK    5  A    between atoms: C8_24  and  C9_25 
REMARK    6  A    between atoms: C9_25  and  C10_26 
REMARK    7  A    between atoms: C10_26  and  C11_27 
REMARK    8  A    between atoms: C11_27  and  C12_28 
REMARK    9  A    between atoms: C12_28  and  C13_29 
REMARK   10  A    between atoms: C13_29  and  C14_30 
REMARK   11  A    between atoms: C14_30  and  S1_31 
REMARK   12  A    between atoms: S1_31  and  C15_32 
ROOT
HETATM    1  C7  UNL     1      10.745  39.051  -4.977  1.00  0.00     0.263 C 
ENDROOT
BRANCH   1   2
HETATM    2  C6  UNL     1       9.382  39.292  -4.301  1.00  0.00     0.164 A 
HETATM    3  C2  UNL     1       9.554  38.855  -2.905  1.00  0.00     0.083 A 
HETATM    4  N2  UNL     1       9.812  37.526  -2.726  1.00  0.00    -0.191 N 
HETATM    5  C3  UNL     1       9.478  39.739  -1.852  1.00  0.00     0.131 A 
HETATM    6  C1  UNL     1       9.996  37.076  -1.473  1.00  0.00     0.679 A 
ATOM      7  H2  UNL     1       9.864  36.891  -3.522  1.00  0.00     0.184 HD
HETATM    8  N3  UNL     1       9.928  37.917  -0.425  1.00  0.00    -0.154 N 
HETATM    9  C4  UNL     1       9.674  39.233  -0.579  1.00  0.00     0.288 A 
ATOM     10  H3  UNL     1      10.074  37.548   0.515  1.00  0.00     0.187 HD
HETATM   11  O1  UNL     1       9.604  40.042   0.377  1.00  0.00    -0.265 OA
HETATM   12  N4  UNL     1       9.190  41.120  -2.041  1.00  0.00    -0.302 N 
HETATM   13  C5  UNL     1       8.975  41.596  -3.359  1.00  0.00     0.321 A 
ATOM     14  H4  UNL     1       9.140  41.754  -1.244  1.00  0.00     0.171 HD
HETATM   15  O2  UNL     1       8.721  42.828  -3.526  1.00  0.00    -0.247 OA
HETATM   16  N5  UNL     1       9.051  40.685  -4.432  1.00  0.00    -0.331 N 
ATOM     17  H5  UNL     1       8.857  41.040  -5.369  1.00  0.00     0.165 HD
BRANCH   6  18
HETATM   18  N1  UNL     1      10.243  35.823  -1.249  1.00  0.00    -0.234 N 
ATOM     19  H12 UNL     1       9.589  35.126  -1.604  1.00  0.00     0.174 HD
ATOM     20  H11 UNL     1      11.074  35.541  -0.728  1.00  0.00     0.174 HD
ENDBRANCH   6  18
ENDBRANCH   1   2
BRANCH   1  21
HETATM   21  N6  UNL     1      11.245  40.314  -5.465  1.00  0.00    -0.073 N 
ATOM     22  H62 UNL     1      10.513  41.025  -5.475  1.00  0.00     0.277 HD
ATOM     23  H61 UNL     1      11.878  40.747  -4.794  1.00  0.00     0.277 HD
BRANCH  21  24
HETATM   24  C8  UNL     1      11.861  40.183  -6.755  1.00  0.00     0.232 C 
BRANCH  24  25
HETATM   25  C9  UNL     1      11.876  38.716  -7.177  1.00  0.00     0.027 C 
BRANCH  25  26
HETATM   26  C10 UNL     1      13.145  38.463  -7.938  1.00  0.00     0.002 C 
BRANCH  26  27
HETATM   27  C11 UNL     1      13.155  39.243  -9.225  1.00  0.00     0.000 C 
BRANCH  27  28
HETATM   28  C12 UNL     1      13.515  38.360 -10.364  1.00  0.00     0.001 C 
BRANCH  28  29
HETATM   29  C13 UNL     1      14.259  37.109 -10.091  1.00  0.00     0.010 C 
BRANCH  29  30
HETATM   30  C14 UNL     1      14.600  36.204 -11.197  1.00  0.00     0.076 C 
BRANCH  30  31
HETATM   31  S1  UNL     1      13.379  35.825 -12.427  1.00  0.00    -0.136 SA
BRANCH  31  32
HETATM   32  C15 UNL     1      13.897  36.056 -14.123  1.00  0.00     0.208 C 
HETATM   33  C16 UNL     1      14.187  37.476 -14.521  1.00  0.00     0.275 C 
HETATM   34  N7  UNL     1      15.014  37.450 -15.714  1.00  0.00    -0.070 N 
HETATM   35  C17 UNL     1      14.748  36.270 -16.460  1.00  0.00     0.258 C 
ATOM     36  H72 UNL     1      14.900  38.294 -16.277  1.00  0.00     0.277 HD
ATOM     37  H71 UNL     1      16.005  37.551 -15.495  1.00  0.00     0.277 HD
HETATM   38  C18 UNL     1      13.316  35.794 -16.339  1.00  0.00     0.197 C 
HETATM   39  O3  UNL     1      13.001  35.463 -15.027  1.00  0.00    -0.372 OA
ENDBRANCH  31  32
ENDBRANCH  30  31
ENDBRANCH  29  30
ENDBRANCH  28  29
ENDBRANCH  27  28
ENDBRANCH  26  27
ENDBRANCH  25  26
ENDBRANCH  24  25
ENDBRANCH  21  24
ENDBRANCH   1  21
TORSDOF 12
ENDMDL
MODEL 2
REMARK VINA RESULT: -7.575482873      3.166     12.358
REMARK  12 active torsions:
REMARK  status: ('A' for Active; 'I' for Inactive)
REMARK    1  A    between atoms: N1_1  and  C1_4 
REMARK    2  A    between atoms: C6_19  and  C7_20 
REMARK    3  A    between atoms: C7_20  and  N6_21 
REMARK    4  A    between atoms: N6_21  and  C8_24 
REMARK    5  A    between atoms: C8_24  and  C9_25 
REMARK    6  A    between atoms: C9_25  and  C10_26 
REMARK    7  A    between atoms: C10_26  and  C11_27 
REMARK    8  A    between atoms: C11_27  and  C12_28 
REMARK    9  A    between atoms: C12_28  and  C13_29 
REMARK   10  A    between atoms: C13_29  and  C14_30 
REMARK   11  A    between atoms: C14_30  and  S1_31 
REMARK   12  A    between atoms: S1_31  and  C15_32 
ROOT
HETATM    1  C7  UNL     1      14.661  36.906 -11.805  1.00  0.00     0.263 C 
ENDROOT
BRANCH   1   2
HETATM    2  C6  UNL     1      15.893  36.691 -12.703  1.00  0.00     0.164 A 
HETATM    3  C2  UNL     1      15.388  36.750 -14.085  1.00  0.00     0.083 A 
HETATM    4  N2  UNL     1      14.511  35.765 -14.440  1.00  0.00    -0.191 N 
HETATM    5  C3  UNL     1      15.763  37.750 -14.954  1.00  0.00     0.131 A 
HETATM    6  C1  UNL     1      14.003  35.782 -15.684  1.00  0.00     0.679 A 
ATOM      7  H2  UNL     1      14.247  35.036 -13.778  1.00  0.00     0.184 HD
HETATM    8  N3  UNL     1      14.351  36.747 -16.554  1.00  0.00    -0.154 N 
HETATM    9  C4  UNL     1      15.216  37.729 -16.225  1.00  0.00     0.288 A 
ATOM     10  H3  UNL     1      13.949  36.737 -17.492  1.00  0.00     0.187 HD
HETATM   11  O1  UNL     1      15.560  38.642 -17.013  1.00  0.00    -0.265 OA
HETATM   12  N4  UNL     1      16.691  38.764 -14.587  1.00  0.00    -0.302 N 
HETATM   13  C5  UNL     1      17.246  38.740 -13.283  1.00  0.00     0.321 A 
ATOM     14  H4  UNL     1      16.952  39.494 -15.249  1.00  0.00     0.171 HD
HETATM   15  O2  UNL     1      18.072  39.645 -12.956  1.00  0.00    -0.247 OA
HETATM   16  N5  UNL     1      16.860  37.711 -12.399  1.00  0.00    -0.331 N 
ATOM     17  H5  UNL     1      17.298  37.689 -11.477  1.00  0.00     0.165 HD
BRANCH   6  18
HETATM   18  N1  UNL     1      13.167  34.870 -16.071  1.00  0.00    -0.234 N 
ATOM     19  H12 UNL     1      12.233  35.156 -16.365  1.00  0.00     0.174 HD
ATOM     20  H11 UNL     1      13.437  33.886 -16.081  1.00  0.00     0.174 HD
ENDBRANCH   6  18
ENDBRANCH   1   2
BRANCH   1  21
HETATM   21  N6  UNL     1      15.006  36.531 -10.455  1.00  0.00    -0.073 N 
ATOM     22  H62 UNL     1      14.911  35.525 -10.313  1.00  0.00     0.277 HD
ATOM     23  H61 UNL     1      16.007  36.623 -10.289  1.00  0.00     0.277 HD
BRANCH  21  24
HETATM   24  C8  UNL     1      14.246  37.268  -9.485  1.00  0.00     0.232 C 
BRANCH  24  25
HETATM   25  C9  UNL     1      14.156  38.734  -9.900  1.00  0.00     0.027 C 
BRANCH  25  26
HETATM   26  C10 UNL     1      13.201  39.424  -8.969  1.00  0.00     0.002 C 
BRANCH  26  27
HETATM   27  C11 UNL     1      12.978  38.597  -7.731  1.00  0.00     0.000 C 
BRANCH  27  28
HETATM   28  C12 UNL     1      11.689  38.963  -7.090  1.00  0.00     0.001 C 
BRANCH  28  29
HETATM   29  C13 UNL     1      11.356  38.377  -5.771  1.00  0.00     0.010 C 
BRANCH  29  30
HETATM   30  C14 UNL     1      10.700  39.203  -4.748  1.00  0.00     0.076 C 
BRANCH  30  31
HETATM   31  S1  UNL     1       9.118  38.715  -4.110  1.00  0.00    -0.136 SA
BRANCH  31  32
HETATM   32  C15 UNL     1       9.124  38.086  -2.436  1.00  0.00     0.208 C 
HETATM   33  C16 UNL     1      10.283  38.527  -1.586  1.00  0.00     0.275 C 
HETATM   34  N7  UNL     1       9.917  38.341  -0.194  1.00  0.00    -0.070 N 
HETATM   35  C17 UNL     1       8.980  37.279  -0.078  1.00  0.00     0.258 C 
ATOM     36  H72 UNL     1      10.734  38.198   0.401  1.00  0.00     0.277 HD
ATOM     37  H71 UNL     1       9.574  39.203   0.231  1.00  0.00     0.277 HD
HETATM   38  C18 UNL     1       9.172  36.195  -1.118  1.00  0.00     0.197 C 
HETATM   39  O3  UNL     1       8.992  36.689  -2.404  1.00  0.00    -0.372 OA
ENDBRANCH  31  32
ENDBRANCH  30  31
ENDBRANCH  29  30
ENDBRANCH  28  29
ENDBRANCH  27  28
ENDBRANCH  26  27
ENDBRANCH  25  26
ENDBRANCH  24  25
ENDBRANCH  21  24
ENDBRANCH   1  21
TORSDOF 12
ENDMDL
MODEL 3
REMARK VINA RESULT: -7.552535690      4.550     10.362
REMARK  12 active torsions:
REMARK  status: ('A' for Active; 'I' for Inactive)
REMARK    1  A    between atoms: N1_1  and  C1_4 
REMARK    2  A    between atoms: C6_19  and  C7_20 
REMARK    3  A    between atoms: C7_20  and  N6_21 
REMARK    4  A    between atoms: N6_21  and  C8_24 
REMARK    5  A    between atoms: C8_24  and  C9_25 
REMARK    6  A    between atoms: C9_25  and  C10_26 
REMARK    7  A    between atoms: C10_26  and  C11_27 
REMARK    8  A    between atoms: C11_27  and  C12_28 
REMARK    9  A    between atoms: C12_28  and  C13_29 
REMARK   10  A    between atoms: C13_29  and  C14_30 
REMARK   11  A    between atoms: C14_30  and  S1_31 
REMARK   12  A    between atoms: S1_31  and  C15_32 
ROOT
HETATM    1  C7  UNL     1      16.483  38.886 -12.834  1.00  0.00     0.263 C 
ENDROOT
BRANCH   1   2
HETATM    2  C6  UNL     1      15.002  38.888 -12.411  1.00  0.00     0.164 A 
HETATM    3  C2  UNL     1      14.413  37.693 -13.039  1.00  0.00     0.083 A 
HETATM    4  N2  UNL     1      14.394  37.688 -14.405  1.00  0.00    -0.191 N 
HETATM    5  C3  UNL     1      13.931  36.642 -12.292  1.00  0.00     0.131 A 
HETATM    6  C1  UNL     1      13.884  36.614 -15.031  1.00  0.00     0.679 A 
ATOM      7  H2  UNL     1      14.758  38.479 -14.936  1.00  0.00     0.184 HD
HETATM    8  N3  UNL     1      13.406  35.572 -14.327  1.00  0.00    -0.154 N 
HETATM    9  C4  UNL     1      13.415  35.556 -12.978  1.00  0.00     0.288 A 
ATOM     10  H3  UNL     1      13.027  34.769 -14.828  1.00  0.00     0.187 HD
HETATM   11  O1  UNL     1      12.977  34.601 -12.293  1.00  0.00    -0.265 OA
HETATM   12  N4  UNL     1      13.935  36.659 -10.869  1.00  0.00    -0.302 N 
HETATM   13  C5  UNL     1      14.452  37.798 -10.203  1.00  0.00     0.321 A 
ATOM     14  H4  UNL     1      13.572  35.867 -10.340  1.00  0.00     0.171 HD
HETATM   15  O2  UNL     1      14.457  37.811  -8.935  1.00  0.00    -0.247 OA
HETATM   16  N5  UNL     1      14.942  38.873 -10.974  1.00  0.00    -0.331 N 
ATOM     17  H5  UNL     1      15.276  39.699 -10.477  1.00  0.00     0.165 HD
BRANCH   6  18
HETATM   18  N1  UNL     1      13.843  36.560 -16.326  1.00  0.00    -0.234 N 
ATOM     19  H12 UNL     1      13.309  37.270 -16.827  1.00  0.00     0.174 HD
ATOM     20  H11 UNL     1      14.333  35.823 -16.832  1.00  0.00     0.174 HD
ENDBRANCH   6  18
ENDBRANCH   1   2
BRANCH   1  21
HETATM   21  N6  UNL     1      17.246  39.605 -11.842  1.00  0.00    -0.073 N 
ATOM     22  H62 UNL     1      16.635  40.101 -11.193  1.00  0.00     0.277 HD
ATOM     23  H61 UNL     1      17.693  38.967 -11.184  1.00  0.00     0.277 HD
BRANCH  21  24
HETATM   24  C8  UNL     1      18.202  40.492 -12.441  1.00  0.00     0.232 C 
BRANCH  24  25
HETATM   25  C9  UNL     1      18.500  41.652 -11.494  1.00  0.00     0.027 C 
BRANCH  25  26
HETATM   26  C10 UNL     1      17.379  41.740 -10.499  1.00  0.00     0.002 C 
BRANCH  26  27
HETATM   27  C11 UNL     1      17.318  43.116  -9.892  1.00  0.00     0.000 C 
BRANCH  27  28
HETATM   28  C12 UNL     1      16.017  43.322  -9.204  1.00  0.00     0.001 C 
BRANCH  28  29
HETATM   29  C13 UNL     1      16.002  44.023  -7.900  1.00  0.00     0.010 C 
BRANCH  29  30
HETATM   30  C14 UNL     1      14.808  43.952  -7.046  1.00  0.00     0.076 C 
BRANCH  30  31
HETATM   31  S1  UNL     1      13.237  43.553  -7.767  1.00  0.00    -0.136 SA
BRANCH  31  32
HETATM   32  C15 UNL     1      12.663  41.883  -7.486  1.00  0.00     0.208 C 
HETATM   33  C16 UNL     1      12.092  41.187  -8.690  1.00  0.00     0.275 C 
HETATM   34  N7  UNL     1      12.114  39.758  -8.437  1.00  0.00    -0.070 N 
HETATM   35  C17 UNL     1      12.018  39.513  -7.040  1.00  0.00     0.258 C 
ATOM     36  H72 UNL     1      11.391  39.265  -8.963  1.00  0.00     0.277 HD
ATOM     37  H71 UNL     1      12.931  39.308  -8.850  1.00  0.00     0.277 HD
HETATM   38  C18 UNL     1      11.198  40.551  -6.304  1.00  0.00     0.197 C 
HETATM   39  O3  UNL     1      11.770  41.813  -6.405  1.00  0.00    -0.372 OA
ENDBRANCH  31  32
ENDBRANCH  30  31
ENDBRANCH  29  30
ENDBRANCH  28  29
ENDBRANCH  27  28
ENDBRANCH  26  27
ENDBRANCH  25  26
ENDBRANCH  24  25
ENDBRANCH  21  24
ENDBRANCH   1  21
TORSDOF 12
ENDMDL
MODEL 4
REMARK VINA RESULT: -7.522655610      1.930      3.605
REMARK  12 active torsions:
REMARK  status: ('A' for Active; 'I' for Inactive)
REMARK    1  A    between atoms: N1_1  and  C1_4 
REMARK    2  A    between atoms: C6_19  and  C7_20 
REMARK    3  A    between atoms: C7_20  and  N6_21 
REMARK    4  A    between atoms: N6_21  and  C8_24 
REMARK    5  A    between atoms: C8_24  and  C9_25 
REMARK    6  A    between atoms: C9_25  and  C10_26 
REMARK    7  A    between atoms: C10_26  and  C11_27 
REMARK    8  A    between atoms: C11_27  and  C12_28 
REMARK    9  A    between atoms: C12_28  and  C13_29 
REMARK   10  A    between atoms: C13_29  and  C14_30 
REMARK   11  A    between atoms: C14_30  and  S1_31 
REMARK   12  A    between atoms: S1_31  and  C15_32 
ROOT
HETATM    1  C7  UNL     1      10.876  38.479  -5.808  1.00  0.00     0.263 C 
ENDROOT
BRANCH   1   2
HETATM    2  C6  UNL     1      10.815  39.098  -4.399  1.00  0.00     0.164 A 
HETATM    3  C2  UNL     1       9.800  40.162  -4.481  1.00  0.00     0.083 A 
HETATM    4  N2  UNL     1      10.096  41.202  -5.316  1.00  0.00    -0.191 N 
HETATM    5  C3  UNL     1       8.621  40.097  -3.774  1.00  0.00     0.131 A 
HETATM    6  C1  UNL     1       9.196  42.192  -5.444  1.00  0.00     0.679 A 
ATOM      7  H2  UNL     1      10.976  41.226  -5.830  1.00  0.00     0.184 HD
HETATM    8  N3  UNL     1       8.034  42.155  -4.766  1.00  0.00    -0.154 N 
HETATM    9  C4  UNL     1       7.722  41.138  -3.936  1.00  0.00     0.288 A 
ATOM     10  H3  UNL     1       7.368  42.919  -4.883  1.00  0.00     0.187 HD
HETATM   11  O1  UNL     1       6.649  41.075  -3.290  1.00  0.00    -0.265 OA
HETATM   12  N4  UNL     1       8.324  39.021  -2.891  1.00  0.00    -0.302 N 
HETATM   13  C5  UNL     1       9.278  37.985  -2.737  1.00  0.00     0.321 A 
ATOM     14  H4  UNL     1       7.443  38.997  -2.380  1.00  0.00     0.171 HD
HETATM   15  O2  UNL     1       9.012  37.026  -1.951  1.00  0.00    -0.247 OA
HETATM   16  N5  UNL     1      10.486  38.058  -3.461  1.00  0.00    -0.331 N 
ATOM     17  H5  UNL     1      11.176  37.322  -3.309  1.00  0.00     0.165 HD
BRANCH   6  18
HETATM   18  N1  UNL     1       9.428  43.202  -6.223  1.00  0.00    -0.234 N 
ATOM     19  H12 UNL     1       9.046  43.187  -7.168  1.00  0.00     0.174 HD
ATOM     20  H11 UNL     1       9.982  43.994  -5.897  1.00  0.00     0.174 HD
ENDBRANCH   6  18
ENDBRANCH   1   2
BRANCH   1  21
HETATM   21  N6  UNL     1      12.260  38.269  -6.158  1.00  0.00    -0.073 N 
ATOM     22  H62 UNL     1      12.879  38.499  -5.380  1.00  0.00     0.277 HD
ATOM     23  H61 UNL     1      12.475  37.276  -6.245  1.00  0.00     0.277 HD
BRANCH  21  24
HETATM   24  C8  UNL     1      12.627  38.989  -7.345  1.00  0.00     0.232 C 
BRANCH  24  25
HETATM   25  C9  UNL     1      13.495  38.107  -8.240  1.00  0.00     0.027 C 
BRANCH  25  26
HETATM   26  C10 UNL     1      13.271  38.526  -9.664  1.00  0.00     0.002 C 
BRANCH  26  27
HETATM   27  C11 UNL     1      13.208  37.323 -10.566  1.00  0.00     0.000 C 
BRANCH  27  28
HETATM   28  C12 UNL     1      14.517  36.621 -10.588  1.00  0.00     0.001 C 
BRANCH  28  29
HETATM   29  C13 UNL     1      15.281  36.574 -11.856  1.00  0.00     0.010 C 
BRANCH  29  30
HETATM   30  C14 UNL     1      15.495  37.806 -12.627  1.00  0.00     0.076 C 
BRANCH  30  31
HETATM   31  S1  UNL     1      14.436  38.173 -14.003  1.00  0.00    -0.136 SA
BRANCH  31  32
HETATM   32  C15 UNL     1      14.311  36.890 -15.242  1.00  0.00     0.208 C 
HETATM   33  C16 UNL     1      13.460  35.709 -14.865  1.00  0.00     0.275 C 
HETATM   34  N7  UNL     1      13.082  35.018 -16.083  1.00  0.00    -0.070 N 
HETATM   35  C17 UNL     1      14.076  35.217 -17.080  1.00  0.00     0.258 C 
ATOM     36  H72 UNL     1      12.896  34.028 -15.920  1.00  0.00     0.277 HD
ATOM     37  H71 UNL     1      12.154  35.292 -16.407  1.00  0.00     0.277 HD
HETATM   38  C18 UNL     1      15.473  35.357 -16.514  1.00  0.00     0.197 C 
HETATM   39  O3  UNL     1      15.574  36.467 -15.685  1.00  0.00    -0.372 OA
ENDBRANCH  31  32
ENDBRANCH  30  31
ENDBRANCH  29  30
ENDBRANCH  28  29
ENDBRANCH  27  28
ENDBRANCH  26  27
ENDBRANCH  25  26
ENDBRANCH  24  25
ENDBRANCH  21  24
ENDBRANCH   1  21
TORSDOF 12
ENDMDL
MODEL 5
REMARK VINA RESULT: -7.512890461      3.883      6.529
REMARK  12 active torsions:
REMARK  status: ('A' for Active; 'I' for Inactive)
REMARK    1  A    between atoms: N1_1  and  C1_4 
REMARK    2  A    between atoms: C6_19  and  C7_20 
REMARK    3  A    between atoms: C7_20  and  N6_21 
REMARK    4  A    between atoms: N6_21  and  C8_24 
REMARK    5  A    between atoms: C8_24  and  C9_25 
REMARK    6  A    between atoms: C9_25  and  C10_26 
REMARK    7  A    between atoms: C10_26  and  C11_27 
REMARK    8  A    between atoms: C11_27  and  C12_28 
REMARK    9  A    between atoms: C12_28  and  C13_29 
REMARK   10  A    between atoms: C13_29  and  C14_30 
REMARK   11  A    between atoms: C14_30  and  S1_31 
REMARK   12  A    between atoms: S1_31  and  C15_32 
ROOT
HETATM    1  C7  UNL     1      13.112  38.335  -9.319  1.00  0.00     0.263 C 
ENDROOT
BRANCH   1   2
HETATM    2  C6  UNL     1      13.375  38.961  -7.937  1.00  0.00     0.164 A 
HETATM    3  C2  UNL     1      12.871  40.342  -8.029  1.00  0.00     0.083 A 
HETATM    4  N2  UNL     1      13.518  41.152  -8.917  1.00  0.00    -0.191 N 
HETATM    5  C3  UNL     1      11.802  40.776  -7.278  1.00  0.00     0.131 A 
HETATM    6  C1  UNL     1      13.087  42.418  -9.056  1.00  0.00     0.679 A 
ATOM      7  H2  UNL     1      14.307  40.807  -9.463  1.00  0.00     0.184 HD
HETATM    8  N3  UNL     1      12.044  42.870  -8.336  1.00  0.00    -0.154 N 
HETATM    9  C4  UNL     1      11.391  42.087  -7.453  1.00  0.00     0.288 A 
ATOM     10  H3  UNL     1      11.737  43.835  -8.462  1.00  0.00     0.187 HD
HETATM   11  O1  UNL     1      10.417  42.479  -6.767  1.00  0.00    -0.265 OA
HETATM   12  N4  UNL     1      11.142  39.935  -6.340  1.00  0.00    -0.302 N 
HETATM   13  C5  UNL     1      11.605  38.605  -6.175  1.00  0.00     0.321 A 
ATOM     14  H4  UNL     1      10.352  40.281  -5.797  1.00  0.00     0.171 HD
HETATM   15  O2  UNL     1      11.015  37.855  -5.339  1.00  0.00    -0.247 OA
HETATM   16  N5  UNL     1      12.703  38.167  -6.944  1.00  0.00    -0.331 N 
ATOM     17  H5  UNL     1      13.045  37.219  -6.785  1.00  0.00     0.165 HD
BRANCH   6  18
HETATM   18  N1  UNL     1      13.667  43.228  -9.885  1.00  0.00    -0.234 N 
ATOM     19  H12 UNL     1      13.885  42.892 -10.823  1.00  0.00     0.174 HD
ATOM     20  H11 UNL     1      13.899  44.181  -9.606  1.00  0.00     0.174 HD
ENDBRANCH   6  18
ENDBRANCH   1   2
BRANCH   1  21
HETATM   21  N6  UNL     1      14.381  38.024  -9.932  1.00  0.00    -0.073 N 
ATOM     22  H62 UNL     1      14.675  38.763 -10.571  1.00  0.00     0.277 HD
ATOM     23  H61 UNL     1      15.143  38.084  -9.257  1.00  0.00     0.277 HD
BRANCH  21  24
HETATM   24  C8  UNL     1      14.361  36.746 -10.585  1.00  0.00     0.232 C 
BRANCH  24  25
HETATM   25  C9  UNL     1      13.220  36.698 -11.598  1.00  0.00     0.027 C 
BRANCH  25  26
HETATM   26  C10 UNL     1      13.475  35.551 -12.532  1.00  0.00     0.002 C 
BRANCH  26  27
HETATM   27  C11 UNL     1      13.407  36.008 -13.964  1.00  0.00     0.000 C 
BRANCH  27  28
HETATM   28  C12 UNL     1      14.535  36.925 -14.269  1.00  0.00     0.001 C 
BRANCH  28  29
HETATM   29  C13 UNL     1      14.373  37.921 -15.353  1.00  0.00     0.010 C 
BRANCH  29  30
HETATM   30  C14 UNL     1      14.401  39.356 -15.037  1.00  0.00     0.076 C 
BRANCH  30  31
HETATM   31  S1  UNL     1      14.166  39.889 -13.362  1.00  0.00    -0.136 SA
BRANCH  31  32
HETATM   32  C15 UNL     1      15.653  40.355 -12.485  1.00  0.00     0.208 C 
HETATM   33  C16 UNL     1      16.766  39.344 -12.522  1.00  0.00     0.275 C 
HETATM   34  N7  UNL     1      18.005  40.025 -12.199  1.00  0.00    -0.070 N 
HETATM   35  C17 UNL     1      17.738  41.143 -11.361  1.00  0.00     0.258 C 
ATOM     36  H72 UNL     1      18.694  39.394 -11.788  1.00  0.00     0.277 HD
ATOM     37  H71 UNL     1      18.527  40.290 -13.034  1.00  0.00     0.277 HD
HETATM   38  C18 UNL     1      16.552  40.933 -10.443  1.00  0.00     0.197 C 
HETATM   39  O3  UNL     1      15.381  40.741 -11.164  1.00  0.00    -0.372 OA
ENDBRANCH  31  32
ENDBRANCH  30  31
ENDBRANCH  29  30
ENDBRANCH  28  29
ENDBRANCH  27  28
ENDBRANCH  26  27
ENDBRANCH  25  26
ENDBRANCH  24  25
ENDBRANCH  21  24
ENDBRANCH   1  21
TORSDOF 12
ENDMDL
