MODEL 1
REMARK VINA RESULT: -5.996932455      0.000      0.000
REMARK  4 active torsions:
REMARK  status: ('A' for Active; 'I' for Inactive)
REMARK    1  A    between atoms: C2_2  and  C3_3 
REMARK    2  A    between atoms: C3_3  and  N1_4 
REMARK       I    between atoms: N1_4  and  C4_5 
REMARK    3  A    between atoms: N1_4  and  C8_10 
REMARK    4  A    between atoms: C4_5  and  C5_7 
ROOT
HETATM    1  C8  UNL     1      24.369   6.346  -3.024  1.00  0.00     0.687 A 
HETATM    2  N2  UNL     1      23.814   5.124  -3.071  1.00  0.00    -0.200 N 
ATOM      3  H2  UNL     1      22.883   5.018  -3.475  1.00  0.00     0.183 HD
HETATM    4  C9  UNL     1      24.455   4.024  -2.597  1.00  0.00     0.126 A 
HETATM    5  C10 UNL     1      25.705   4.150  -2.053  1.00  0.00     0.042 A 
HETATM    6 BR1  UNL     1      26.559   2.576  -1.404  1.00  0.00    -0.048 Br
HETATM    7  C11 UNL     1      26.271   5.392  -2.003  1.00  0.00     0.126 A 
HETATM    8  N3  UNL     1      25.593   6.435  -2.483  1.00  0.00    -0.200 N 
ATOM      9  H3  UNL     1      26.032   7.355  -2.437  1.00  0.00     0.183 HD
ENDROOT
BRANCH   1  10
HETATM   10  N1  UNL     1      23.675   7.510  -3.539  1.00  0.00    -0.147 N 
HETATM   11  C4  UNL     1      23.609   8.616  -2.704  1.00  0.00     0.249 C 
HETATM   12  O1  UNL     1      24.109   8.572  -1.507  1.00  0.00    -0.271 OA
BRANCH  10  13
HETATM   13  C3  UNL     1      23.075   7.518  -4.831  1.00  0.00     0.177 C 
BRANCH  13  14
HETATM   14  C2  UNL     1      21.667   7.085  -4.862  1.00  0.00    -0.016 C 
HETATM   15  C1  UNL     1      20.779   7.806  -5.477  1.00  0.00     0.008 C 
ENDBRANCH  13  14
ENDBRANCH  10  13
BRANCH  11  16
HETATM   16  C5  UNL     1      22.972   9.886  -3.135  1.00  0.00     0.123 A 
HETATM   17  C6  UNL     1      22.500  10.840  -2.149  1.00  0.00    -0.012 A 
HETATM   18  C7  UNL     1      21.546  10.087  -2.661  1.00  0.00    -0.012 A 
ENDBRANCH  11  16
ENDBRANCH   1  10
TORSDOF 4
ENDMDL
MODEL 2
REMARK VINA RESULT: -5.940462899      3.657      5.743
REMARK  4 active torsions:
REMARK  status: ('A' for Active; 'I' for Inactive)
REMARK    1  A    between atoms: C2_2  and  C3_3 
REMARK    2  A    between atoms: C3_3  and  N1_4 
REMARK       I    between atoms: N1_4  and  C4_5 
REMARK    3  A    between atoms: N1_4  and  C8_10 
REMARK    4  A    between atoms: C4_5  and  C5_7 
ROOT
HETATM    1  C8  UNL     1      20.873   8.034  -4.127  1.00  0.00     0.687 A 
HETATM    2  N2  UNL     1      19.987   7.616  -3.208  1.00  0.00    -0.200 N 
ATOM      3  H2  UNL     1      20.308   7.437  -2.257  1.00  0.00     0.183 HD
HETATM    4  C9  UNL     1      18.676   7.424  -3.509  1.00  0.00     0.126 A 
HETATM    5  C10 UNL     1      18.231   7.660  -4.781  1.00  0.00     0.042 A 
HETATM    6 BR1  UNL     1      16.384   7.375  -5.148  1.00  0.00    -0.048 Br
HETATM    7  C11 UNL     1      19.131   8.085  -5.718  1.00  0.00     0.126 A 
HETATM    8  N3  UNL     1      20.404   8.255  -5.364  1.00  0.00    -0.200 N 
ATOM      9  H3  UNL     1      21.062   8.572  -6.077  1.00  0.00     0.183 HD
ENDROOT
BRANCH   1  10
HETATM   10  N1  UNL     1      22.268   8.242  -3.791  1.00  0.00    -0.147 N 
HETATM   11  C4  UNL     1      23.006   7.111  -3.470  1.00  0.00     0.249 C 
HETATM   12  O1  UNL     1      22.443   5.942  -3.432  1.00  0.00    -0.271 OA
BRANCH  10  13
HETATM   13  C3  UNL     1      22.853   9.540  -3.772  1.00  0.00     0.177 C 
BRANCH  13  14
HETATM   14  C2  UNL     1      22.571  10.329  -2.561  1.00  0.00    -0.016 C 
HETATM   15  C1  UNL     1      21.556  11.138  -2.534  1.00  0.00     0.008 C 
ENDBRANCH  13  14
ENDBRANCH  10  13
BRANCH  11  16
HETATM   16  C5  UNL     1      24.455   7.185  -3.157  1.00  0.00     0.123 A 
HETATM   17  C6  UNL     1      25.066   6.204  -2.279  1.00  0.00    -0.012 A 
HETATM   18  C7  UNL     1      24.793   7.352  -1.688  1.00  0.00    -0.012 A 
ENDBRANCH  11  16
ENDBRANCH   1  10
TORSDOF 4
ENDMDL
MODEL 3
REMARK VINA RESULT: -5.920138763      3.666      5.754
REMARK  4 active torsions:
REMARK  status: ('A' for Active; 'I' for Inactive)
REMARK    1  A    between atoms: C2_2  and  C3_3 
REMARK    2  A    between atoms: C3_3  and  N1_4 
REMARK       I    between atoms: N1_4  and  C4_5 
REMARK    3  A    between atoms: N1_4  and  C8_10 
REMARK    4  A    between atoms: C4_5  and  C5_7 
ROOT
HETATM    1  C8  UNL     1      20.862   8.050  -4.119  1.00  0.00     0.687 A 
HETATM    2  N2  UNL     1      20.397   8.273  -5.359  1.00  0.00    -0.200 N 
ATOM      3  H2  UNL     1      21.042   8.598  -6.079  1.00  0.00     0.183 HD
HETATM    4  C9  UNL     1      19.093   8.077  -5.684  1.00  0.00     0.126 A 
HETATM    5  C10 UNL     1      18.214   7.641  -4.730  1.00  0.00     0.042 A 
HETATM    6 BR1  UNL     1      16.397   7.383  -5.238  1.00  0.00    -0.048 Br
HETATM    7  C11 UNL     1      18.685   7.414  -3.467  1.00  0.00     0.126 A 
HETATM    8  N3  UNL     1      19.975   7.624  -3.207  1.00  0.00    -0.200 N 
ATOM      9  H3  UNL     1      20.308   7.451  -2.259  1.00  0.00     0.183 HD
ENDROOT
BRANCH   1  10
HETATM   10  N1  UNL     1      22.258   8.257  -3.788  1.00  0.00    -0.147 N 
HETATM   11  C4  UNL     1      22.996   7.126  -3.469  1.00  0.00     0.249 C 
HETATM   12  O1  UNL     1      22.433   5.957  -3.430  1.00  0.00    -0.271 OA
BRANCH  10  13
HETATM   13  C3  UNL     1      22.844   9.554  -3.772  1.00  0.00     0.177 C 
BRANCH  13  14
HETATM   14  C2  UNL     1      22.571  10.342  -2.557  1.00  0.00    -0.016 C 
HETATM   15  C1  UNL     1      21.559  11.154  -2.523  1.00  0.00     0.008 C 
ENDBRANCH  13  14
ENDBRANCH  10  13
BRANCH  11  16
HETATM   16  C5  UNL     1      24.447   7.198  -3.162  1.00  0.00     0.123 A 
HETATM   17  C6  UNL     1      25.061   6.215  -2.289  1.00  0.00    -0.012 A 
HETATM   18  C7  UNL     1      24.790   7.361  -1.695  1.00  0.00    -0.012 A 
ENDBRANCH  11  16
ENDBRANCH   1  10
TORSDOF 4
ENDMDL
MODEL 4
REMARK VINA RESULT: -5.784452449      1.865      3.147
REMARK  4 active torsions:
REMARK  status: ('A' for Active; 'I' for Inactive)
REMARK    1  A    between atoms: C2_2  and  C3_3 
REMARK    2  A    between atoms: C3_3  and  N1_4 
REMARK       I    between atoms: N1_4  and  C4_5 
REMARK    3  A    between atoms: N1_4  and  C8_10 
REMARK    4  A    between atoms: C4_5  and  C5_7 
ROOT
HETATM    1  C8  UNL     1      23.188   7.190  -3.093  1.00  0.00     0.687 A 
HETATM    2  N2  UNL     1      23.336   5.917  -3.495  1.00  0.00    -0.200 N 
ATOM      3  H2  UNL     1      22.650   5.517  -4.134  1.00  0.00     0.183 HD
HETATM    4  C9  UNL     1      24.374   5.147  -3.076  1.00  0.00     0.126 A 
HETATM    5  C10 UNL     1      25.304   5.670  -2.219  1.00  0.00     0.042 A 
HETATM    6 BR1  UNL     1      26.738   4.548  -1.663  1.00  0.00    -0.048 Br
HETATM    7  C11 UNL     1      25.154   6.965  -1.807  1.00  0.00     0.126 A 
HETATM    8  N3  UNL     1      24.115   7.671  -2.251  1.00  0.00    -0.200 N 
ATOM      9  H3  UNL     1      24.020   8.636  -1.933  1.00  0.00     0.183 HD
ENDROOT
BRANCH   1  10
HETATM   10  N1  UNL     1      22.079   8.003  -3.553  1.00  0.00    -0.147 N 
HETATM   11  C4  UNL     1      20.835   7.390  -3.598  1.00  0.00     0.249 C 
HETATM   12  O1  UNL     1      20.701   6.138  -3.285  1.00  0.00    -0.271 OA
BRANCH  10  13
HETATM   13  C3  UNL     1      22.255   9.357  -3.957  1.00  0.00     0.177 C 
BRANCH  13  14
HETATM   14  C2  UNL     1      22.396  10.319  -2.851  1.00  0.00    -0.016 C 
HETATM   15  C1  UNL     1      21.393  11.071  -2.512  1.00  0.00     0.008 C 
ENDBRANCH  13  14
ENDBRANCH  10  13
BRANCH  11  16
HETATM   16  C5  UNL     1      19.612   8.130  -4.003  1.00  0.00     0.123 A 
HETATM   17  C6  UNL     1      18.452   7.412  -4.497  1.00  0.00    -0.012 A 
HETATM   18  C7  UNL     1      19.194   7.946  -5.448  1.00  0.00    -0.012 A 
ENDBRANCH  11  16
ENDBRANCH   1  10
TORSDOF 4
ENDMDL
MODEL 5
REMARK VINA RESULT: -5.741870579      1.912      3.376
REMARK  4 active torsions:
REMARK  status: ('A' for Active; 'I' for Inactive)
REMARK    1  A    between atoms: C2_2  and  C3_3 
REMARK    2  A    between atoms: C3_3  and  N1_4 
REMARK       I    between atoms: N1_4  and  C4_5 
REMARK    3  A    between atoms: N1_4  and  C8_10 
REMARK    4  A    between atoms: C4_5  and  C5_7 
ROOT
HETATM    1  C8  UNL     1      23.140   7.299  -3.080  1.00  0.00     0.687 A 
HETATM    2  N2  UNL     1      23.972   7.764  -2.133  1.00  0.00    -0.200 N 
ATOM      3  H2  UNL     1      23.806   8.691  -1.741  1.00  0.00     0.183 HD
HETATM    4  C9  UNL     1      25.027   7.037  -1.682  1.00  0.00     0.126 A 
HETATM    5  C10 UNL     1      25.262   5.791  -2.198  1.00  0.00     0.042 A 
HETATM    6 BR1  UNL     1      26.754   4.814  -1.530  1.00  0.00    -0.048 Br
HETATM    7  C11 UNL     1      24.418   5.316  -3.162  1.00  0.00     0.126 A 
HETATM    8  N3  UNL     1      23.400   6.075  -3.566  1.00  0.00    -0.200 N 
ATOM      9  H3  UNL     1      22.781   5.704  -4.287  1.00  0.00     0.183 HD
ENDROOT
BRANCH   1  10
HETATM   10  N1  UNL     1      22.014   8.083  -3.547  1.00  0.00    -0.147 N 
HETATM   11  C4  UNL     1      20.786   7.440  -3.597  1.00  0.00     0.249 C 
HETATM   12  O1  UNL     1      20.682   6.185  -3.282  1.00  0.00    -0.271 OA
BRANCH  10  13
HETATM   13  C3  UNL     1      22.159   9.440  -3.953  1.00  0.00     0.177 C 
BRANCH  13  14
HETATM   14  C2  UNL     1      22.331  10.401  -2.849  1.00  0.00    -0.016 C 
HETATM   15  C1  UNL     1      21.339  11.156  -2.485  1.00  0.00     0.008 C 
ENDBRANCH  13  14
ENDBRANCH  10  13
BRANCH  11  16
HETATM   16  C5  UNL     1      19.548   8.148  -4.009  1.00  0.00     0.123 A 
HETATM   17  C6  UNL     1      18.408   7.400  -4.508  1.00  0.00    -0.012 A 
HETATM   18  C7  UNL     1      19.141   7.951  -5.457  1.00  0.00    -0.012 A 
ENDBRANCH  11  16
ENDBRANCH   1  10
TORSDOF 4
ENDMDL
