MODEL 1
REMARK VINA RESULT: -7.447902828      0.000      0.000
REMARK  5 active torsions:
REMARK  status: ('A' for Active; 'I' for Inactive)
REMARK    1  A    between atoms: N1_5  and  C5_6 
REMARK    2  A    between atoms: C5_6  and  C6_7 
REMARK    3  A    between atoms: C6_7  and  C7_8 
REMARK    4  A    between atoms: C7_8  and  N2_10 
REMARK    5  A    between atoms: C11_13  and  N3_14 
ROOT
HETATM    1  C7  UNL     1      23.598   6.722  -2.919  1.00  0.00     0.220 C 
HETATM    2  C8  UNL     1      24.817   7.608  -3.000  1.00  0.00     0.043 C 
ENDROOT
BRANCH   1   3
HETATM    3  C6  UNL     1      23.965   5.278  -2.992  1.00  0.00     0.056 C 
BRANCH   3   4
HETATM    4  C5  UNL     1      25.244   5.073  -2.172  1.00  0.00     0.144 C 
BRANCH   4   5
HETATM    5  N1  UNL     1      25.355   3.726  -1.683  1.00  0.00    -0.327 N 
HETATM    6  C4  UNL     1      24.156   2.883  -1.618  1.00  0.00     0.143 C 
HETATM    7  C3  UNL     1      24.407   1.686  -2.499  1.00  0.00     0.032 C 
HETATM    8  C2  UNL     1      25.861   1.452  -2.830  1.00  0.00     0.046 C 
HETATM    9  C1  UNL     1      26.191   2.256  -4.094  1.00  0.00     0.017 C 
HETATM   10  C18 UNL     1      26.778   1.944  -1.790  1.00  0.00     0.098 C 
HETATM   11  N4  UNL     1      26.504   3.076  -1.239  1.00  0.00    -0.295 N 
HETATM   12 CL1  UNL     1      28.168   1.030  -1.330  1.00  0.00    -0.068 Cl
ATOM     13  H4  UNL     1      27.099   3.475  -0.513  1.00  0.00     0.187 HD
ENDBRANCH   4   5
ENDBRANCH   3   4
ENDBRANCH   1   3
BRANCH   1  14
HETATM   14  N2  UNL     1      22.536   7.134  -3.788  1.00  0.00     0.092 N 
HETATM   15  C9  UNL     1      22.018   8.439  -3.546  1.00  0.00     0.275 C 
HETATM   16  C10 UNL     1      21.099   8.855  -4.677  1.00  0.00     0.066 C 
HETATM   17  C11 UNL     1      20.149   7.784  -5.080  1.00  0.00     0.226 C 
HETATM   18  C16 UNL     1      20.136   6.741  -3.969  1.00  0.00     0.066 C 
HETATM   19  C17 UNL     1      21.501   6.122  -3.791  1.00  0.00     0.275 C 
BRANCH  17  20
HETATM   20  N3  UNL     1      18.815   8.181  -5.326  1.00  0.00     0.093 N 
HETATM   21  C12 UNL     1      17.804   7.407  -4.671  1.00  0.00     0.273 C 
HETATM   22  C13 UNL     1      16.536   8.009  -5.278  1.00  0.00     0.032 C 
HETATM   23  C14 UNL     1      16.957   8.053  -6.750  1.00  0.00     0.032 C 
HETATM   24  C15 UNL     1      18.457   8.297  -6.715  1.00  0.00     0.273 C 
ENDBRANCH  17  20
ENDBRANCH   1  14
TORSDOF 5
ENDMDL
MODEL 2
REMARK VINA RESULT: -7.209137831      1.318      1.771
REMARK  5 active torsions:
REMARK  status: ('A' for Active; 'I' for Inactive)
REMARK    1  A    between atoms: N1_5  and  C5_6 
REMARK    2  A    between atoms: C5_6  and  C6_7 
REMARK    3  A    between atoms: C6_7  and  C7_8 
REMARK    4  A    between atoms: C7_8  and  N2_10 
REMARK    5  A    between atoms: C11_13  and  N3_14 
ROOT
HETATM    1  C7  UNL     1      24.089   6.500  -2.671  1.00  0.00     0.220 C 
HETATM    2  C8  UNL     1      25.361   7.302  -2.794  1.00  0.00     0.043 C 
ENDROOT
BRANCH   1   3
HETATM    3  C6  UNL     1      24.357   5.034  -2.742  1.00  0.00     0.056 C 
BRANCH   3   4
HETATM    4  C5  UNL     1      25.677   4.760  -2.013  1.00  0.00     0.144 C 
BRANCH   4   5
HETATM    5  N1  UNL     1      26.445   3.734  -2.665  1.00  0.00    -0.327 N 
HETATM    6  C4  UNL     1      27.766   3.378  -2.136  1.00  0.00     0.143 C 
HETATM    7  C3  UNL     1      27.715   1.920  -1.759  1.00  0.00     0.032 C 
HETATM    8  C2  UNL     1      26.573   1.156  -2.384  1.00  0.00     0.046 C 
HETATM    9  C1  UNL     1      25.359   1.278  -1.455  1.00  0.00     0.017 C 
HETATM   10  C18 UNL     1      26.146   1.711  -3.679  1.00  0.00     0.098 C 
HETATM   11  N4  UNL     1      26.089   2.993  -3.790  1.00  0.00    -0.295 N 
HETATM   12 CL1  UNL     1      25.738   0.672  -4.997  1.00  0.00    -0.068 Cl
ATOM     13  H4  UNL     1      25.799   3.442  -4.658  1.00  0.00     0.187 HD
ENDBRANCH   4   5
ENDBRANCH   3   4
ENDBRANCH   1   3
BRANCH   1  14
HETATM   14  N2  UNL     1      23.032   6.976  -3.513  1.00  0.00     0.092 N 
HETATM   15  C9  UNL     1      22.480   8.238  -3.150  1.00  0.00     0.275 C 
HETATM   16  C10 UNL     1      21.571   8.749  -4.250  1.00  0.00     0.066 C 
HETATM   17  C11 UNL     1      20.652   7.704  -4.777  1.00  0.00     0.226 C 
HETATM   18  C16 UNL     1      20.645   6.553  -3.777  1.00  0.00     0.066 C 
HETATM   19  C17 UNL     1      22.021   5.948  -3.638  1.00  0.00     0.275 C 
BRANCH  17  20
HETATM   20  N3  UNL     1      19.314   8.096  -5.006  1.00  0.00     0.093 N 
HETATM   21  C12 UNL     1      18.312   7.280  -4.390  1.00  0.00     0.273 C 
HETATM   22  C13 UNL     1      17.037   7.895  -4.970  1.00  0.00     0.032 C 
HETATM   23  C14 UNL     1      17.459   8.013  -6.438  1.00  0.00     0.032 C 
HETATM   24  C15 UNL     1      18.956   8.273  -6.388  1.00  0.00     0.273 C 
ENDBRANCH  17  20
ENDBRANCH   1  14
TORSDOF 5
ENDMDL
MODEL 3
REMARK VINA RESULT: -7.177258868      2.535      7.874
REMARK  5 active torsions:
REMARK  status: ('A' for Active; 'I' for Inactive)
REMARK    1  A    between atoms: N1_5  and  C5_6 
REMARK    2  A    between atoms: C5_6  and  C6_7 
REMARK    3  A    between atoms: C6_7  and  C7_8 
REMARK    4  A    between atoms: C7_8  and  N2_10 
REMARK    5  A    between atoms: C11_13  and  N3_14 
ROOT
HETATM    1  C7  UNL     1      24.066   7.697  -2.990  1.00  0.00     0.220 C 
HETATM    2  C8  UNL     1      23.537   8.744  -2.040  1.00  0.00     0.043 C 
ENDROOT
BRANCH   1   3
HETATM    3  C6  UNL     1      23.139   7.483  -4.139  1.00  0.00     0.056 C 
BRANCH   3   4
HETATM    4  C5  UNL     1      21.877   8.316  -3.890  1.00  0.00     0.144 C 
BRANCH   4   5
HETATM    5  N1  UNL     1      20.731   7.486  -3.635  1.00  0.00    -0.327 N 
HETATM    6  C4  UNL     1      19.465   8.111  -3.234  1.00  0.00     0.143 C 
HETATM    7  C3  UNL     1      18.441   7.745  -4.278  1.00  0.00     0.032 C 
HETATM    8  C2  UNL     1      18.826   6.569  -5.141  1.00  0.00     0.046 C 
HETATM    9  C1  UNL     1      19.624   7.103  -6.337  1.00  0.00     0.017 C 
HETATM   10  C18 UNL     1      19.714   5.616  -4.458  1.00  0.00     0.098 C 
HETATM   11  N4  UNL     1      20.652   6.098  -3.718  1.00  0.00    -0.295 N 
HETATM   12 CL1  UNL     1      19.499   3.912  -4.646  1.00  0.00    -0.068 Cl
ATOM     13  H4  UNL     1      21.304   5.493  -3.219  1.00  0.00     0.187 HD
ENDBRANCH   4   5
ENDBRANCH   3   4
ENDBRANCH   1   3
BRANCH   1  14
HETATM   14  N2  UNL     1      24.517   6.508  -2.332  1.00  0.00     0.092 N 
HETATM   15  C9  UNL     1      25.929   6.395  -2.171  1.00  0.00     0.275 C 
HETATM   16  C10 UNL     1      26.260   5.244  -1.243  1.00  0.00     0.066 C 
HETATM   17  C11 UNL     1      25.486   4.011  -1.545  1.00  0.00     0.226 C 
HETATM   18  C16 UNL     1      24.887   4.175  -2.937  1.00  0.00     0.066 C 
HETATM   19  C17 UNL     1      23.944   5.352  -2.987  1.00  0.00     0.275 C 
BRANCH  17  20
HETATM   20  N3  UNL     1      26.199   2.792  -1.513  1.00  0.00     0.093 N 
HETATM   21  C12 UNL     1      27.492   2.811  -2.129  1.00  0.00     0.273 C 
HETATM   22  C13 UNL     1      27.879   1.334  -2.042  1.00  0.00     0.032 C 
HETATM   23  C14 UNL     1      26.565   0.700  -2.509  1.00  0.00     0.032 C 
HETATM   24  C15 UNL     1      25.484   1.649  -2.016  1.00  0.00     0.273 C 
ENDBRANCH  17  20
ENDBRANCH   1  14
TORSDOF 5
ENDMDL
MODEL 4
REMARK VINA RESULT: -7.155712739      3.214      8.043
REMARK  5 active torsions:
REMARK  status: ('A' for Active; 'I' for Inactive)
REMARK    1  A    between atoms: N1_5  and  C5_6 
REMARK    2  A    between atoms: C5_6  and  C6_7 
REMARK    3  A    between atoms: C6_7  and  C7_8 
REMARK    4  A    between atoms: C7_8  and  N2_10 
REMARK    5  A    between atoms: C11_13  and  N3_14 
ROOT
HETATM    1  C7  UNL     1      23.074   8.823  -3.601  1.00  0.00     0.220 C 
HETATM    2  C8  UNL     1      22.076   9.614  -2.792  1.00  0.00     0.043 C 
ENDROOT
BRANCH   1   3
HETATM    3  C6  UNL     1      22.542   8.493  -4.956  1.00  0.00     0.056 C 
BRANCH   3   4
HETATM    4  C5  UNL     1      21.192   9.199  -5.118  1.00  0.00     0.144 C 
BRANCH   4   5
HETATM    5  N1  UNL     1      20.164   8.293  -5.553  1.00  0.00    -0.327 N 
HETATM    6  C4  UNL     1      20.505   6.890  -5.814  1.00  0.00     0.143 C 
HETATM    7  C3  UNL     1      19.672   6.050  -4.879  1.00  0.00     0.032 C 
HETATM    8  C2  UNL     1      18.483   6.769  -4.292  1.00  0.00     0.046 C 
HETATM    9  C1  UNL     1      18.941   7.466  -3.005  1.00  0.00     0.017 C 
HETATM   10  C18 UNL     1      17.962   7.835  -5.162  1.00  0.00     0.098 C 
HETATM   11  N4  UNL     1      18.819   8.578  -5.775  1.00  0.00    -0.295 N 
HETATM   12 CL1  UNL     1      16.263   8.075  -5.352  1.00  0.00    -0.068 Cl
ATOM     13  H4  UNL     1      18.526   9.336  -6.391  1.00  0.00     0.187 HD
ENDBRANCH   4   5
ENDBRANCH   3   4
ENDBRANCH   1   3
BRANCH   1  14
HETATM   14  N2  UNL     1      23.651   7.727  -2.881  1.00  0.00     0.092 N 
HETATM   15  C9  UNL     1      25.071   7.632  -2.943  1.00  0.00     0.275 C 
HETATM   16  C10 UNL     1      25.572   6.609  -1.944  1.00  0.00     0.066 C 
HETATM   17  C11 UNL     1      24.782   5.349  -1.955  1.00  0.00     0.226 C 
HETATM   18  C16 UNL     1      23.960   5.334  -3.238  1.00  0.00     0.066 C 
HETATM   19  C17 UNL     1      22.999   6.497  -3.280  1.00  0.00     0.275 C 
BRANCH  17  20
HETATM   20  N3  UNL     1      25.514   4.143  -1.886  1.00  0.00     0.093 N 
HETATM   21  C12 UNL     1      26.921   4.253  -2.129  1.00  0.00     0.273 C 
HETATM   22  C13 UNL     1      27.335   2.781  -2.128  1.00  0.00     0.032 C 
HETATM   23  C14 UNL     1      26.217   2.204  -3.002  1.00  0.00     0.032 C 
HETATM   24  C15 UNL     1      25.005   3.070  -2.699  1.00  0.00     0.273 C 
ENDBRANCH  17  20
ENDBRANCH   1  14
TORSDOF 5
ENDMDL
MODEL 5
REMARK VINA RESULT: -7.028926697      5.117      7.761
REMARK  5 active torsions:
REMARK  status: ('A' for Active; 'I' for Inactive)
REMARK    1  A    between atoms: N1_5  and  C5_6 
REMARK    2  A    between atoms: C5_6  and  C6_7 
REMARK    3  A    between atoms: C6_7  and  C7_8 
REMARK    4  A    between atoms: C7_8  and  N2_10 
REMARK    5  A    between atoms: C11_13  and  N3_14 
ROOT
HETATM    1  C7  UNL     1      22.778   2.201  -1.457  1.00  0.00     0.220 C 
HETATM    2  C8  UNL     1      22.186   2.679  -2.760  1.00  0.00     0.043 C 
ENDROOT
BRANCH   1   3
HETATM    3  C6  UNL     1      24.085   1.513  -1.669  1.00  0.00     0.056 C 
BRANCH   3   4
HETATM    4  C5  UNL     1      25.186   2.578  -1.661  1.00  0.00     0.144 C 
BRANCH   4   5
HETATM    5  N1  UNL     1      26.290   2.212  -2.507  1.00  0.00    -0.327 N 
HETATM    6  C4  UNL     1      27.498   3.045  -2.514  1.00  0.00     0.143 C 
HETATM    7  C3  UNL     1      28.643   2.169  -2.072  1.00  0.00     0.032 C 
HETATM    8  C2  UNL     1      28.365   0.689  -2.166  1.00  0.00     0.046 C 
HETATM    9  C1  UNL     1      27.722   0.245  -0.847  1.00  0.00     0.017 C 
HETATM   10  C18 UNL     1      27.397   0.347  -3.220  1.00  0.00     0.098 C 
HETATM   11  N4  UNL     1      26.375   1.119  -3.366  1.00  0.00    -0.295 N 
HETATM   12 CL1  UNL     1      27.629  -1.040  -4.222  1.00  0.00    -0.068 Cl
ATOM     13  H4  UNL     1      25.665   0.938  -4.076  1.00  0.00     0.187 HD
ENDBRANCH   4   5
ENDBRANCH   3   4
ENDBRANCH   1   3
BRANCH   1  14
HETATM   14  N2  UNL     1      21.840   1.504  -0.628  1.00  0.00     0.092 N 
HETATM   15  C9  UNL     1      21.145   2.308   0.321  1.00  0.00     0.275 C 
HETATM   16  C10 UNL     1      20.011   1.520   0.945  1.00  0.00     0.066 C 
HETATM   17  C11 UNL     1      20.410   0.144   1.346  1.00  0.00     0.226 C 
HETATM   18  C16 UNL     1      21.933   0.094   1.360  1.00  0.00     0.066 C 
HETATM   19  C17 UNL     1      22.497   0.370  -0.013  1.00  0.00     0.275 C 
BRANCH  17  20
HETATM   20  N3  UNL     1      19.943  -0.310   2.600  1.00  0.00     0.093 N 
HETATM   21  C12 UNL     1      18.763   0.333   3.095  1.00  0.00     0.273 C 
HETATM   22  C13 UNL     1      18.656  -0.285   4.489  1.00  0.00     0.032 C 
HETATM   23  C14 UNL     1      20.117  -0.161   4.934  1.00  0.00     0.032 C 
HETATM   24  C15 UNL     1      20.923  -0.313   3.654  1.00  0.00     0.273 C 
ENDBRANCH  17  20
ENDBRANCH   1  14
TORSDOF 5
ENDMDL
