MODEL 1
REMARK VINA RESULT: -7.926338142      0.000      0.000
REMARK  9 active torsions:
REMARK  status: ('A' for Active; 'I' for Inactive)
REMARK    1  A    between atoms: C4_5  and  C5_6 
REMARK    2  A    between atoms: C5_6  and  N2_7 
REMARK    3  A    between atoms: C6_11  and  C7_12 
REMARK    4  A    between atoms: C7_12  and  N3_13 
REMARK    5  A    between atoms: N3_13  and  C8_15 
REMARK    6  A    between atoms: C9_22  and  N7_23 
REMARK    7  A    between atoms: N7_23  and  N8_25 
REMARK    8  A    between atoms: C10_30  and  C11_31 
REMARK       I    between atoms: C11_31  and  N10_33 
REMARK    9  A    between atoms: N10_33  and  N11_35 
ROOT
HETATM    1  N1  UNL     1       7.901  14.756   1.746  1.00  0.00    -0.190 NA
HETATM    2  C1  UNL     1       7.537  15.848   1.707  1.00  0.00     0.117 C 
HETATM    3  C2  UNL     1       7.098  17.209   1.658  1.00  0.00     0.115 A 
HETATM    4  C3  UNL     1       7.823  18.106   0.887  1.00  0.00     0.050 A 
HETATM    5  C4  UNL     1       7.442  19.418   0.808  1.00  0.00    -0.016 A 
HETATM    6  C6  UNL     1       6.305  19.899   1.504  1.00  0.00     0.020 A 
HETATM    7  C10 UNL     1       5.628  18.995   2.247  1.00  0.00     0.115 A 
HETATM    8  N12 UNL     1       6.051  17.675   2.296  1.00  0.00    -0.342 N 
ATOM      9  H12 UNL     1       5.512  17.023   2.866  1.00  0.00     0.167 HD
ENDROOT
BRANCH   5  10
HETATM   10  C5  UNL     1       8.269  20.330  -0.041  1.00  0.00     0.269 C 
BRANCH  10  11
HETATM   11  N2  UNL     1       9.085  19.575  -0.946  1.00  0.00    -0.075 N 
ATOM     12  H23 UNL     1       9.874  19.137  -0.470  1.00  0.00     0.274 HD
ATOM     13  H22 UNL     1       8.613  18.729  -1.267  1.00  0.00     0.274 HD
ATOM     14  H21 UNL     1       9.389  20.157  -1.726  1.00  0.00     0.274 HD
ENDBRANCH  10  11
ENDBRANCH   5  10
BRANCH   7  15
HETATM   15  C11 UNL     1       4.496  19.258   3.129  1.00  0.00     0.287 C 
HETATM   16  O1  UNL     1       4.512  19.921   4.171  1.00  0.00    -0.264 OA
HETATM   17  N10 UNL     1       3.211  18.710   2.782  1.00  0.00    -0.271 N 
ATOM     18  H10 UNL     1       3.099  18.147   1.939  1.00  0.00     0.189 HD
BRANCH  17  19
HETATM   19  N11 UNL     1       2.129  18.958   3.610  1.00  0.00    -0.342 N 
ATOM     20 2H11 UNL     1       1.809  18.230   4.250  1.00  0.00     0.176 HD
ATOM     21 1H11 UNL     1       1.670  19.867   3.564  1.00  0.00     0.176 HD
ENDBRANCH  17  19
ENDBRANCH   7  15
BRANCH   6  22
HETATM   22  C7  UNL     1       6.027  21.293   1.266  1.00  0.00     0.120 C 
BRANCH  22  23
HETATM   23  N3  UNL     1       4.856  21.934   1.661  1.00  0.00    -0.199 N 
ATOM     24  H3  UNL     1       3.962  21.535   1.375  1.00  0.00     0.183 HD
BRANCH  23  25
HETATM   25  C8  UNL     1       4.852  23.004   2.367  1.00  0.00     0.712 A 
HETATM   26  N4  UNL     1       5.919  23.260   3.136  1.00  0.00    -0.117 N 
HETATM   27  N5  UNL     1       6.003  24.344   3.901  1.00  0.00    -0.214 N 
ATOM     28  H4  UNL     1       6.695  22.599   3.134  1.00  0.00     0.207 HD
HETATM   29  N6  UNL     1       5.025  25.223   3.932  1.00  0.00    -0.115 N 
ATOM     30  H5  UNL     1       6.835  24.496   4.470  1.00  0.00     0.209 HD
HETATM   31  C9  UNL     1       3.938  25.008   3.180  1.00  0.00     0.726 A 
ATOM     32  H6  UNL     1       5.094  26.054   4.520  1.00  0.00     0.207 HD
HETATM   33  N9  UNL     1       3.847  23.893   2.391  1.00  0.00    -0.018 N 
ATOM     34  H9  UNL     1       3.016  23.737   1.821  1.00  0.00     0.203 HD
BRANCH  31  35
HETATM   35  N7  UNL     1       2.951  25.834   3.171  1.00  0.00    -0.137 N 
ATOM     36  H7  UNL     1       2.698  26.348   4.015  1.00  0.00     0.205 HD
BRANCH  35  37
HETATM   37  N8  UNL     1       2.236  26.013   1.992  1.00  0.00    -0.331 N 
ATOM     38  H82 UNL     1       1.511  25.343   1.736  1.00  0.00     0.177 HD
ATOM     39  H81 UNL     1       2.453  26.816   1.402  1.00  0.00     0.177 HD
ENDBRANCH  35  37
ENDBRANCH  31  35
ENDBRANCH  23  25
ENDBRANCH  22  23
ENDBRANCH   6  22
TORSDOF 9
ENDMDL
MODEL 2
REMARK VINA RESULT: -7.875427319      1.643      3.419
REMARK  9 active torsions:
REMARK  status: ('A' for Active; 'I' for Inactive)
REMARK    1  A    between atoms: C4_5  and  C5_6 
REMARK    2  A    between atoms: C5_6  and  N2_7 
REMARK    3  A    between atoms: C6_11  and  C7_12 
REMARK    4  A    between atoms: C7_12  and  N3_13 
REMARK    5  A    between atoms: N3_13  and  C8_15 
REMARK    6  A    between atoms: C9_22  and  N7_23 
REMARK    7  A    between atoms: N7_23  and  N8_25 
REMARK    8  A    between atoms: C10_30  and  C11_31 
REMARK       I    between atoms: C11_31  and  N10_33 
REMARK    9  A    between atoms: N10_33  and  N11_35 
ROOT
HETATM    1  N1  UNL     1       8.204  15.196   1.265  1.00  0.00    -0.190 NA
HETATM    2  C1  UNL     1       7.556  16.099   1.568  1.00  0.00     0.117 C 
HETATM    3  C2  UNL     1       6.739  17.212   1.944  1.00  0.00     0.115 A 
HETATM    4  C3  UNL     1       5.672  16.984   2.800  1.00  0.00     0.050 A 
HETATM    5  C4  UNL     1       4.863  18.017   3.190  1.00  0.00    -0.016 A 
HETATM    6  C6  UNL     1       5.087  19.341   2.736  1.00  0.00     0.020 A 
HETATM    7  C10 UNL     1       6.134  19.521   1.901  1.00  0.00     0.115 A 
HETATM    8  N12 UNL     1       6.928  18.444   1.534  1.00  0.00    -0.342 N 
ATOM      9  H12 UNL     1       7.709  18.621   0.904  1.00  0.00     0.167 HD
ENDROOT
BRANCH   5  10
HETATM   10  C5  UNL     1       3.731  17.701   4.114  1.00  0.00     0.269 C 
BRANCH  10  11
HETATM   11  N2  UNL     1       2.914  16.655   3.571  1.00  0.00    -0.075 N 
ATOM     12  H23 UNL     1       2.799  16.749   2.562  1.00  0.00     0.274 HD
ATOM     13  H22 UNL     1       3.392  15.754   3.586  1.00  0.00     0.274 HD
ATOM     14  H21 UNL     1       2.015  16.615   4.052  1.00  0.00     0.274 HD
ENDBRANCH  10  11
ENDBRANCH   5  10
BRANCH   7  15
HETATM   15  C11 UNL     1       6.509  20.755   1.220  1.00  0.00     0.287 C 
HETATM   16  O1  UNL     1       5.754  21.676   0.892  1.00  0.00    -0.264 OA
HETATM   17  N10 UNL     1       7.894  20.961   0.881  1.00  0.00    -0.271 N 
ATOM     18  H10 UNL     1       8.593  20.255   1.110  1.00  0.00     0.189 HD
BRANCH  17  19
HETATM   19  N11 UNL     1       8.261  22.131   0.239  1.00  0.00    -0.342 N 
ATOM     20 2H11 UNL     1       8.723  22.871   0.768  1.00  0.00     0.176 HD
ATOM     21 1H11 UNL     1       8.062  22.232  -0.756  1.00  0.00     0.176 HD
ENDBRANCH  17  19
ENDBRANCH   7  15
BRANCH   6  22
HETATM   22  C7  UNL     1       4.167  20.305   3.286  1.00  0.00     0.120 C 
BRANCH  22  23
HETATM   23  N3  UNL     1       4.522  21.283   4.211  1.00  0.00    -0.199 N 
ATOM     24  H3  UNL     1       4.792  20.991   5.150  1.00  0.00     0.183 HD
BRANCH  23  25
HETATM   25  C8  UNL     1       4.524  22.535   3.934  1.00  0.00     0.712 A 
HETATM   26  N4  UNL     1       5.653  23.228   4.137  1.00  0.00    -0.117 N 
HETATM   27  N5  UNL     1       5.748  24.528   3.878  1.00  0.00    -0.214 N 
ATOM     28  H4  UNL     1       6.469  22.740   4.504  1.00  0.00     0.207 HD
HETATM   29  N6  UNL     1       4.720  25.196   3.402  1.00  0.00    -0.115 N 
ATOM     30  H5  UNL     1       6.628  25.014   4.050  1.00  0.00     0.209 HD
HETATM   31  C9  UNL     1       3.570  24.545   3.183  1.00  0.00     0.726 A 
ATOM     32  H6  UNL     1       4.798  26.194   3.204  1.00  0.00     0.207 HD
HETATM   33  N9  UNL     1       3.468  23.206   3.449  1.00  0.00    -0.018 N 
ATOM     34  H9  UNL     1       2.589  22.718   3.279  1.00  0.00     0.203 HD
BRANCH  31  35
HETATM   35  N7  UNL     1       2.532  25.148   2.719  1.00  0.00    -0.137 N 
ATOM     36  H7  UNL     1       1.638  24.663   2.654  1.00  0.00     0.205 HD
BRANCH  35  37
HETATM   37  N8  UNL     1       2.652  26.471   2.308  1.00  0.00    -0.331 N 
ATOM     38  H82 UNL     1       2.198  27.209   2.846  1.00  0.00     0.177 HD
ATOM     39  H81 UNL     1       3.196  26.679   1.470  1.00  0.00     0.177 HD
ENDBRANCH  35  37
ENDBRANCH  31  35
ENDBRANCH  23  25
ENDBRANCH  22  23
ENDBRANCH   6  22
TORSDOF 9
ENDMDL
MODEL 3
REMARK VINA RESULT: -7.860888806      1.502      3.520
REMARK  9 active torsions:
REMARK  status: ('A' for Active; 'I' for Inactive)
REMARK    1  A    between atoms: C4_5  and  C5_6 
REMARK    2  A    between atoms: C5_6  and  N2_7 
REMARK    3  A    between atoms: C6_11  and  C7_12 
REMARK    4  A    between atoms: C7_12  and  N3_13 
REMARK    5  A    between atoms: N3_13  and  C8_15 
REMARK    6  A    between atoms: C9_22  and  N7_23 
REMARK    7  A    between atoms: N7_23  and  N8_25 
REMARK    8  A    between atoms: C10_30  and  C11_31 
REMARK       I    between atoms: C11_31  and  N10_33 
REMARK    9  A    between atoms: N10_33  and  N11_35 
ROOT
HETATM    1  N1  UNL     1       7.559  14.998   2.976  1.00  0.00    -0.190 NA
HETATM    2  C1  UNL     1       7.257  16.074   2.700  1.00  0.00     0.117 C 
HETATM    3  C2  UNL     1       6.869  17.408   2.357  1.00  0.00     0.115 A 
HETATM    4  C3  UNL     1       5.672  17.895   2.862  1.00  0.00     0.050 A 
HETATM    5  C4  UNL     1       5.259  19.165   2.563  1.00  0.00    -0.016 A 
HETATM    6  C6  UNL     1       6.032  20.017   1.736  1.00  0.00     0.020 A 
HETATM    7  C10 UNL     1       7.190  19.505   1.261  1.00  0.00     0.115 A 
HETATM    8  N12 UNL     1       7.569  18.212   1.592  1.00  0.00    -0.342 N 
ATOM      9  H12 UNL     1       8.450  17.863   1.215  1.00  0.00     0.167 HD
ENDROOT
BRANCH   5  10
HETATM   10  C5  UNL     1       3.958  19.625   3.140  1.00  0.00     0.269 C 
BRANCH  10  11
HETATM   11  N2  UNL     1       2.864  19.211   2.311  1.00  0.00    -0.075 N 
ATOM     12  H23 UNL     1       3.156  19.059   1.346  1.00  0.00     0.274 HD
ATOM     13  H22 UNL     1       2.560  18.263   2.529  1.00  0.00     0.274 HD
ATOM     14  H21 UNL     1       2.095  19.879   2.372  1.00  0.00     0.274 HD
ENDBRANCH  10  11
ENDBRANCH   5  10
BRANCH   7  15
HETATM   15  C11 UNL     1       8.104  20.136   0.316  1.00  0.00     0.287 C 
HETATM   16  O1  UNL     1       8.326  21.345   0.198  1.00  0.00    -0.264 OA
HETATM   17  N10 UNL     1       8.847  19.296  -0.588  1.00  0.00    -0.271 N 
ATOM     18  H10 UNL     1       8.731  18.283  -0.568  1.00  0.00     0.189 HD
BRANCH  17  19
HETATM   19  N11 UNL     1       9.721  19.885  -1.486  1.00  0.00    -0.342 N 
ATOM     20 2H11 UNL     1       9.738  20.901  -1.579  1.00  0.00     0.176 HD
ATOM     21 1H11 UNL     1      10.334  19.288  -2.042  1.00  0.00     0.176 HD
ENDBRANCH  17  19
ENDBRANCH   7  15
BRANCH   6  22
HETATM   22  C7  UNL     1       5.466  21.331   1.568  1.00  0.00     0.120 C 
BRANCH  22  23
HETATM   23  N3  UNL     1       5.953  22.476   2.195  1.00  0.00    -0.199 N 
ATOM     24  H3  UNL     1       6.940  22.709   2.088  1.00  0.00     0.183 HD
BRANCH  23  25
HETATM   25  C8  UNL     1       5.213  23.251   2.900  1.00  0.00     0.712 A 
HETATM   26  N4  UNL     1       5.598  23.527   4.153  1.00  0.00    -0.117 N 
HETATM   27  N5  UNL     1       4.895  24.320   4.956  1.00  0.00    -0.214 N 
ATOM     28  H4  UNL     1       6.462  23.115   4.504  1.00  0.00     0.207 HD
HETATM   29  N6  UNL     1       3.776  24.874   4.544  1.00  0.00    -0.115 N 
ATOM     30  H5  UNL     1       5.227  24.501   5.903  1.00  0.00     0.209 HD
HETATM   31  C9  UNL     1       3.352  24.626   3.298  1.00  0.00     0.726 A 
ATOM     32  H6  UNL     1       3.240  25.483   5.163  1.00  0.00     0.207 HD
HETATM   33  N9  UNL     1       4.073  23.810   2.467  1.00  0.00    -0.018 N 
ATOM     34  H9  UNL     1       3.742  23.627   1.520  1.00  0.00     0.203 HD
BRANCH  31  35
HETATM   35  N7  UNL     1       2.265  25.141   2.841  1.00  0.00    -0.137 N 
ATOM     36  H7  UNL     1       1.359  24.739   3.084  1.00  0.00     0.205 HD
BRANCH  35  37
HETATM   37  N8  UNL     1       2.346  26.253   2.010  1.00  0.00    -0.331 N 
ATOM     38  H82 UNL     1       2.839  27.086   2.331  1.00  0.00     0.177 HD
ATOM     39  H81 UNL     1       1.906  26.214   1.091  1.00  0.00     0.177 HD
ENDBRANCH  35  37
ENDBRANCH  31  35
ENDBRANCH  23  25
ENDBRANCH  22  23
ENDBRANCH   6  22
TORSDOF 9
ENDMDL
MODEL 4
REMARK VINA RESULT: -7.814175469      3.604      5.670
REMARK  9 active torsions:
REMARK  status: ('A' for Active; 'I' for Inactive)
REMARK    1  A    between atoms: C4_5  and  C5_6 
REMARK    2  A    between atoms: C5_6  and  N2_7 
REMARK    3  A    between atoms: C6_11  and  C7_12 
REMARK    4  A    between atoms: C7_12  and  N3_13 
REMARK    5  A    between atoms: N3_13  and  C8_15 
REMARK    6  A    between atoms: C9_22  and  N7_23 
REMARK    7  A    between atoms: N7_23  and  N8_25 
REMARK    8  A    between atoms: C10_30  and  C11_31 
REMARK       I    between atoms: C11_31  and  N10_33 
REMARK    9  A    between atoms: N10_33  and  N11_35 
ROOT
HETATM    1  N1  UNL     1      -1.415  20.327   7.371  1.00  0.00    -0.190 NA
HETATM    2  C1  UNL     1      -0.480  20.419   6.706  1.00  0.00     0.117 C 
HETATM    3  C2  UNL     1       0.682  20.519   5.877  1.00  0.00     0.115 A 
HETATM    4  C3  UNL     1       0.712  19.790   4.698  1.00  0.00     0.050 A 
HETATM    5  C4  UNL     1       1.801  19.855   3.870  1.00  0.00    -0.016 A 
HETATM    6  C6  UNL     1       2.922  20.661   4.187  1.00  0.00     0.020 A 
HETATM    7  C10 UNL     1       2.855  21.354   5.347  1.00  0.00     0.115 A 
HETATM    8  N12 UNL     1       1.731  21.258   6.153  1.00  0.00    -0.342 N 
ATOM      9  H12 UNL     1       1.718  21.797   7.018  1.00  0.00     0.167 HD
ENDROOT
BRANCH   5  10
HETATM   10  C5  UNL     1       1.767  19.042   2.615  1.00  0.00     0.269 C 
BRANCH  10  11
HETATM   11  N2  UNL     1       0.463  18.481   2.412  1.00  0.00    -0.075 N 
ATOM     12  H23 UNL     1       0.213  18.451   1.423  1.00  0.00     0.274 HD
ATOM     13  H22 UNL     1       0.447  17.480   2.603  1.00  0.00     0.274 HD
ATOM     14  H21 UNL     1      -0.233  18.984   2.962  1.00  0.00     0.274 HD
ENDBRANCH  10  11
ENDBRANCH   5  10
BRANCH   7  15
HETATM   15  C11 UNL     1       3.910  22.166   5.944  1.00  0.00     0.287 C 
HETATM   16  O1  UNL     1       3.968  23.399   5.968  1.00  0.00    -0.264 OA
HETATM   17  N10 UNL     1       5.014  21.497   6.583  1.00  0.00    -0.271 N 
ATOM     18  H10 UNL     1       5.055  20.478   6.613  1.00  0.00     0.189 HD
BRANCH  17  19
HETATM   19  N11 UNL     1       6.018  22.257   7.157  1.00  0.00    -0.342 N 
ATOM     20 2H11 UNL     1       5.990  22.454   8.158  1.00  0.00     0.176 HD
ATOM     21 1H11 UNL     1       6.771  22.610   6.565  1.00  0.00     0.176 HD
ENDBRANCH  17  19
ENDBRANCH   7  15
BRANCH   6  22
HETATM   22  C7  UNL     1       3.952  20.643   3.181  1.00  0.00     0.120 C 
BRANCH  22  23
HETATM   23  N3  UNL     1       4.224  21.706   2.323  1.00  0.00    -0.199 N 
ATOM     24  H3  UNL     1       4.244  21.529   1.318  1.00  0.00     0.183 HD
BRANCH  23  25
HETATM   25  C8  UNL     1       4.452  22.897   2.740  1.00  0.00     0.712 A 
HETATM   26  N4  UNL     1       5.657  23.167   3.260  1.00  0.00    -0.117 N 
HETATM   27  N5  UNL     1       5.982  24.373   3.717  1.00  0.00    -0.214 N 
ATOM     28  H4  UNL     1       6.350  22.421   3.306  1.00  0.00     0.207 HD
HETATM   29  N6  UNL     1       5.119  25.363   3.675  1.00  0.00    -0.115 N 
ATOM     30  H5  UNL     1       6.912  24.531   4.105  1.00  0.00     0.209 HD
HETATM   31  C9  UNL     1       3.901  25.140   3.164  1.00  0.00     0.726 A 
ATOM     32  H6  UNL     1       5.372  26.287   4.026  1.00  0.00     0.207 HD
HETATM   33  N9  UNL     1       3.562  23.899   2.692  1.00  0.00    -0.018 N 
ATOM     34  H9  UNL     1       2.632  23.738   2.305  1.00  0.00     0.203 HD
BRANCH  31  35
HETATM   35  N7  UNL     1       3.016  26.071   3.098  1.00  0.00    -0.137 N 
ATOM     36  H7  UNL     1       2.888  26.721   3.874  1.00  0.00     0.205 HD
BRANCH  35  37
HETATM   37  N8  UNL     1       2.237  26.177   1.951  1.00  0.00    -0.331 N 
ATOM     38  H82 UNL     1       2.414  25.555   1.162  1.00  0.00     0.177 HD
ATOM     39  H81 UNL     1       1.498  26.880   1.920  1.00  0.00     0.177 HD
ENDBRANCH  35  37
ENDBRANCH  31  35
ENDBRANCH  23  25
ENDBRANCH  22  23
ENDBRANCH   6  22
TORSDOF 9
ENDMDL
MODEL 5
REMARK VINA RESULT: -7.779195708      2.369      4.472
REMARK  9 active torsions:
REMARK  status: ('A' for Active; 'I' for Inactive)
REMARK    1  A    between atoms: C4_5  and  C5_6 
REMARK    2  A    between atoms: C5_6  and  N2_7 
REMARK    3  A    between atoms: C6_11  and  C7_12 
REMARK    4  A    between atoms: C7_12  and  N3_13 
REMARK    5  A    between atoms: N3_13  and  C8_15 
REMARK    6  A    between atoms: C9_22  and  N7_23 
REMARK    7  A    between atoms: N7_23  and  N8_25 
REMARK    8  A    between atoms: C10_30  and  C11_31 
REMARK       I    between atoms: C11_31  and  N10_33 
REMARK    9  A    between atoms: N10_33  and  N11_35 
ROOT
HETATM    1  N1  UNL     1       1.493  17.063  -0.934  1.00  0.00    -0.190 NA
HETATM    2  C1  UNL     1       1.926  17.659  -0.049  1.00  0.00     0.117 C 
HETATM    3  C2  UNL     1       2.455  18.409   1.050  1.00  0.00     0.115 A 
HETATM    4  C3  UNL     1       1.563  19.039   1.904  1.00  0.00     0.050 A 
HETATM    5  C4  UNL     1       2.020  19.767   2.970  1.00  0.00    -0.016 A 
HETATM    6  C6  UNL     1       3.406  19.898   3.233  1.00  0.00     0.020 A 
HETATM    7  C10 UNL     1       4.243  19.272   2.375  1.00  0.00     0.115 A 
HETATM    8  N12 UNL     1       3.733  18.545   1.309  1.00  0.00    -0.342 N 
ATOM      9  H12 UNL     1       4.397  18.085   0.686  1.00  0.00     0.167 HD
ENDROOT
BRANCH   5  10
HETATM   10  C5  UNL     1       1.003  20.420   3.850  1.00  0.00     0.269 C 
BRANCH  10  11
HETATM   11  N2  UNL     1      -0.324  20.116   3.401  1.00  0.00    -0.075 N 
ATOM     12  H23 UNL     1      -0.706  19.297   3.873  1.00  0.00     0.274 HD
ATOM     13  H22 UNL     1      -1.001  20.807   3.725  1.00  0.00     0.274 HD
ATOM     14  H21 UNL     1      -0.344  20.012   2.387  1.00  0.00     0.274 HD
ENDBRANCH  10  11
ENDBRANCH   5  10
BRANCH   7  15
HETATM   15  C11 UNL     1       5.700  19.339   2.367  1.00  0.00     0.287 C 
HETATM   16  O1  UNL     1       6.474  18.666   3.055  1.00  0.00    -0.264 OA
HETATM   17  N10 UNL     1       6.341  20.271   1.476  1.00  0.00    -0.271 N 
ATOM     18  H10 UNL     1       5.785  20.872   0.868  1.00  0.00     0.189 HD
BRANCH  17  19
HETATM   19  N11 UNL     1       7.723  20.340   1.457  1.00  0.00    -0.342 N 
ATOM     20 2H11 UNL     1       8.189  21.187   1.784  1.00  0.00     0.176 HD
ATOM     21 1H11 UNL     1       8.253  19.539   1.113  1.00  0.00     0.176 HD
ENDBRANCH  17  19
ENDBRANCH   7  15
BRANCH   6  22
HETATM   22  C7  UNL     1       3.701  20.659   4.420  1.00  0.00     0.120 C 
BRANCH  22  23
HETATM   23  N3  UNL     1       4.728  21.594   4.514  1.00  0.00    -0.199 N 
ATOM     24  H3  UNL     1       5.622  21.299   4.907  1.00  0.00     0.183 HD
BRANCH  23  25
HETATM   25  C8  UNL     1       4.600  22.810   4.128  1.00  0.00     0.712 A 
HETATM   26  N4  UNL     1       5.657  23.625   4.237  1.00  0.00    -0.117 N 
HETATM   27  N5  UNL     1       5.616  24.900   3.861  1.00  0.00    -0.214 N 
ATOM     28  H4  UNL     1       6.526  23.254   4.622  1.00  0.00     0.207 HD
HETATM   29  N6  UNL     1       4.518  25.419   3.359  1.00  0.00    -0.115 N 
ATOM     30  H5  UNL     1       6.447  25.483   3.964  1.00  0.00     0.209 HD
HETATM   31  C9  UNL     1       3.435  24.641   3.231  1.00  0.00     0.726 A 
ATOM     32  H6  UNL     1       4.491  26.397   3.072  1.00  0.00     0.207 HD
HETATM   33  N9  UNL     1       3.473  23.328   3.617  1.00  0.00    -0.018 N 
ATOM     34  H9  UNL     1       2.643  22.743   3.516  1.00  0.00     0.203 HD
BRANCH  31  35
HETATM   35  N7  UNL     1       2.333  25.095   2.747  1.00  0.00    -0.137 N 
ATOM     36  H7  UNL     1       1.456  24.595   2.896  1.00  0.00     0.205 HD
BRANCH  35  37
HETATM   37  N8  UNL     1       2.358  26.279   2.017  1.00  0.00    -0.331 N 
ATOM     38  H82 UNL     1       1.599  26.486   1.367  1.00  0.00     0.177 HD
ATOM     39  H81 UNL     1       3.139  26.921   2.146  1.00  0.00     0.177 HD
ENDBRANCH  35  37
ENDBRANCH  31  35
ENDBRANCH  23  25
ENDBRANCH  22  23
ENDBRANCH   6  22
TORSDOF 9
ENDMDL
