MODEL 1
REMARK VINA RESULT: -8.216608443      0.000      0.000
REMARK  14 active torsions:
REMARK  status: ('A' for Active; 'I' for Inactive)
REMARK    1  A    between atoms: O1_2  and  C2_3 
REMARK    2  A    between atoms: C3_4  and  N1_5 
REMARK    3  A    between atoms: C4_9  and  O2_10 
REMARK    4  A    between atoms: N2_12  and  N3_13 
REMARK    5  A    between atoms: C5_16  and  O3_17 
REMARK    6  A    between atoms: C6_19  and  N4_20 
REMARK    7  A    between atoms: C6_19  and  C7_24 
REMARK       I    between atoms: C7_24  and  N5_26 
REMARK    8  A    between atoms: N5_26  and  C8_28 
REMARK    9  A    between atoms: C8_28  and  N6_29 
REMARK   10  A    between atoms: N6_29  and  C9_32 
REMARK   11  A    between atoms: N10_41  and  C13_42 
REMARK   12  A    between atoms: C14_44  and  O6_45 
REMARK   13  A    between atoms: C15_47  and  O7_48 
REMARK   14  A    between atoms: C16_50  and  O8_51 
ROOT
HETATM    1  C7  UNL     1      12.828  13.574  35.831  1.00  0.00     0.262 C 
HETATM    2  O4  UNL     1      12.394  14.564  35.171  1.00  0.00    -0.270 OA
HETATM    3  N5  UNL     1      13.415  13.884  37.083  1.00  0.00    -0.335 N 
ATOM      4  H5  UNL     1      13.780  13.119  37.651  1.00  0.00     0.164 HD
ENDROOT
BRANCH   3   5
HETATM    5  C8  UNL     1      13.522  15.233  37.594  1.00  0.00     0.357 C 
BRANCH   5   6
HETATM    6  N6  UNL     1      14.523  16.006  36.932  1.00  0.00    -0.048 N 
ATOM      7  H62 UNL     1      14.797  15.594  36.040  1.00  0.00     0.280 HD
ATOM      8  H61 UNL     1      14.154  16.890  36.581  1.00  0.00     0.280 HD
BRANCH   6   9
HETATM    9  C9  UNL     1      15.631  16.196  37.795  1.00  0.00     0.259 A 
HETATM   10  C10 UNL     1      16.025  17.704  37.931  1.00  0.00     0.189 A 
HETATM   11  N7  UNL     1      17.403  17.739  37.574  1.00  0.00    -0.283 N 
HETATM   12  N8  UNL     1      18.484  18.562  37.420  1.00  0.00    -0.293 N 
HETATM   13  C18 UNL     1      17.717  16.531  37.298  1.00  0.00     0.120 A 
HETATM   14  C11 UNL     1      19.685  18.031  37.019  1.00  0.00     0.199 A 
ATOM     15  H8  UNL     1      18.399  19.562  37.603  1.00  0.00     0.188 HD
HETATM   16  N9  UNL     1      19.907  16.699  36.748  1.00  0.00    -0.335 N 
HETATM   17  C12 UNL     1      18.859  15.825  36.884  1.00  0.00     0.142 A 
ATOM     18  H9  UNL     1      20.827  16.371  36.454  1.00  0.00     0.168 HD
HETATM   19  N10 UNL     1      17.992  14.769  36.944  1.00  0.00    -0.300 N 
HETATM   20  C17 UNL     1      16.888  15.508  37.354  1.00  0.00     0.080 A 
BRANCH  19  21
HETATM   21  C13 UNL     1      18.244  13.402  36.661  1.00  0.00     0.264 C 
HETATM   22  O5  UNL     1      17.125  12.613  36.663  1.00  0.00    -0.331 OA
HETATM   23  C14 UNL     1      17.513  11.317  36.860  1.00  0.00     0.290 C 
HETATM   24  C15 UNL     1      18.876  11.300  37.471  1.00  0.00     0.206 C 
HETATM   25  C16 UNL     1      19.101  12.771  37.751  1.00  0.00     0.201 C 
BRANCH  23  26
HETATM   26  O6  UNL     1      17.549  10.583  35.674  1.00  0.00    -0.368 OA
ATOM     27  H6  UNL     1      18.300  10.800  35.133  1.00  0.00     0.212 HD
ENDBRANCH  23  26
BRANCH  24  28
HETATM   28  O7  UNL     1      18.944  10.528  38.629  1.00  0.00    -0.388 OA
ATOM     29  H7  UNL     1      19.337   9.675  38.484  1.00  0.00     0.210 HD
ENDBRANCH  24  28
BRANCH  25  30
HETATM   30  O8  UNL     1      18.563  13.061  39.005  1.00  0.00    -0.388 OA
ATOM     31  H8  UNL     1      18.919  12.467  39.656  1.00  0.00     0.210 HD
ENDBRANCH  25  30
ENDBRANCH  19  21
ENDBRANCH   6   9
ENDBRANCH   5   6
ENDBRANCH   3   5
BRANCH   1  32
HETATM   32  C6  UNL     1      12.716  12.194  35.305  1.00  0.00     0.270 C 
HETATM   33  C2  UNL     1      11.438  11.555  35.716  1.00  0.00     0.204 C 
HETATM   34  C3  UNL     1      11.471  10.058  35.769  1.00  0.00     0.259 C 
HETATM   35  C4  UNL     1      12.779   9.479  36.165  1.00  0.00     0.247 C 
HETATM   36  N2  UNL     1      13.878  10.037  35.443  1.00  0.00    -0.175 NA
HETATM   37  C5  UNL     1      13.947  11.442  35.723  1.00  0.00     0.262 C 
BRANCH  33  38
HETATM   38  O1  UNL     1      10.975  12.061  36.918  1.00  0.00    -0.385 OA
HETATM   39  C1  UNL     1       9.783  12.771  36.778  1.00  0.00     0.202 C 
ENDBRANCH  33  38
BRANCH  34  40
HETATM   40  N1  UNL     1      10.475   9.618  36.741  1.00  0.00    -0.069 N 
ATOM     41  H13 UNL     1      10.522  10.138  37.617  1.00  0.00     0.275 HD
ATOM     42  H12 UNL     1       9.525   9.879  36.478  1.00  0.00     0.275 HD
ATOM     43  H11 UNL     1      10.585   8.612  36.872  1.00  0.00     0.275 HD
ENDBRANCH  34  40
BRANCH  35  44
HETATM   44  O2  UNL     1      13.043   9.623  37.533  1.00  0.00    -0.377 OA
ATOM     45  H2  UNL     1      13.400  10.476  37.750  1.00  0.00     0.211 HD
ENDBRANCH  35  44
BRANCH  36  46
HETATM   46  N3  UNL     1      13.916   9.705  34.108  1.00  0.00    -0.359 NA
ATOM     47  H32 UNL     1      13.066   9.273  33.745  1.00  0.00     0.171 HD
ATOM     48  H31 UNL     1      14.715   9.135  33.834  1.00  0.00     0.171 HD
ENDBRANCH  36  46
BRANCH  37  49
HETATM   49  O3  UNL     1      15.042  12.003  35.073  1.00  0.00    -0.376 OA
ATOM     50  H3  UNL     1      15.080  12.936  35.247  1.00  0.00     0.211 HD
ENDBRANCH  37  49
BRANCH  32  51
HETATM   51  N4  UNL     1      12.764  12.304  33.835  1.00  0.00    -0.055 N 
ATOM     52  H43 UNL     1      12.053  11.730  33.382  1.00  0.00     0.276 HD
ATOM     53  H42 UNL     1      12.445  13.217  33.507  1.00  0.00     0.276 HD
ATOM     54  H41 UNL     1      13.703  12.084  33.506  1.00  0.00     0.276 HD
ENDBRANCH  32  51
ENDBRANCH   1  32
TORSDOF 14
ENDMDL
MODEL 2
REMARK VINA RESULT: -7.958933089      4.780      8.442
REMARK  14 active torsions:
REMARK  status: ('A' for Active; 'I' for Inactive)
REMARK    1  A    between atoms: O1_2  and  C2_3 
REMARK    2  A    between atoms: C3_4  and  N1_5 
REMARK    3  A    between atoms: C4_9  and  O2_10 
REMARK    4  A    between atoms: N2_12  and  N3_13 
REMARK    5  A    between atoms: C5_16  and  O3_17 
REMARK    6  A    between atoms: C6_19  and  N4_20 
REMARK    7  A    between atoms: C6_19  and  C7_24 
REMARK       I    between atoms: C7_24  and  N5_26 
REMARK    8  A    between atoms: N5_26  and  C8_28 
REMARK    9  A    between atoms: C8_28  and  N6_29 
REMARK   10  A    between atoms: N6_29  and  C9_32 
REMARK   11  A    between atoms: N10_41  and  C13_42 
REMARK   12  A    between atoms: C14_44  and  O6_45 
REMARK   13  A    between atoms: C15_47  and  O7_48 
REMARK   14  A    between atoms: C16_50  and  O8_51 
ROOT
HETATM    1  C7  UNL     1      11.214  18.536  35.270  1.00  0.00     0.262 C 
HETATM    2  O4  UNL     1      11.759  18.494  36.413  1.00  0.00    -0.270 OA
HETATM    3  N5  UNL     1      10.960  17.279  34.667  1.00  0.00    -0.335 N 
ATOM      4  H5  UNL     1      10.522  17.261  33.746  1.00  0.00     0.164 HD
ENDROOT
BRANCH   3   5
HETATM    5  C8  UNL     1      11.292  16.019  35.296  1.00  0.00     0.357 C 
BRANCH   5   6
HETATM    6  N6  UNL     1      12.360  15.332  34.645  1.00  0.00    -0.048 N 
ATOM      7  H62 UNL     1      12.047  14.844  33.806  1.00  0.00     0.280 HD
ATOM      8  H61 UNL     1      13.018  15.975  34.206  1.00  0.00     0.280 HD
BRANCH   6   9
HETATM    9  C9  UNL     1      12.998  14.460  35.562  1.00  0.00     0.259 A 
HETATM   10  C10 UNL     1      14.515  14.260  35.233  1.00  0.00     0.189 A 
HETATM   11  N7  UNL     1      14.665  12.848  35.122  1.00  0.00    -0.283 N 
HETATM   12  N8  UNL     1      15.567  11.849  34.877  1.00  0.00    -0.293 N 
HETATM   13  C18 UNL     1      13.504  12.360  35.336  1.00  0.00     0.120 A 
HETATM   14  C11 UNL     1      15.146  10.542  34.890  1.00  0.00     0.199 A 
ATOM     15  H8  UNL     1      16.543  12.073  34.686  1.00  0.00     0.188 HD
HETATM   16  N9  UNL     1      13.854  10.133  35.137  1.00  0.00    -0.335 N 
HETATM   17  C12 UNL     1      12.905  11.091  35.390  1.00  0.00     0.142 A 
ATOM     18  H9  UNL     1      13.609   9.143  35.133  1.00  0.00     0.168 HD
HETATM   19  N10 UNL     1      11.794  11.839  35.664  1.00  0.00    -0.300 N 
HETATM   20  C17 UNL     1      12.427  13.074  35.602  1.00  0.00     0.080 A 
BRANCH  19  21
HETATM   21  C13 UNL     1      10.470  11.393  35.917  1.00  0.00     0.264 C 
HETATM   22  O5  UNL     1      10.002  11.707  37.165  1.00  0.00    -0.331 OA
HETATM   23  C14 UNL     1       8.975  10.856  37.465  1.00  0.00     0.290 C 
HETATM   24  C15 UNL     1       9.070   9.645  36.594  1.00  0.00     0.206 C 
HETATM   25  C16 UNL     1      10.399   9.871  35.906  1.00  0.00     0.201 C 
BRANCH  23  26
HETATM   26  O6  UNL     1       7.722  11.440  37.276  1.00  0.00    -0.368 OA
ATOM     27  H6  UNL     1       7.126  11.266  37.996  1.00  0.00     0.212 HD
ENDBRANCH  23  26
BRANCH  24  28
HETATM   28  O7  UNL     1       9.046   8.453  37.315  1.00  0.00    -0.388 OA
ATOM     29  H7  UNL     1       9.914   8.112  37.497  1.00  0.00     0.210 HD
ENDBRANCH  24  28
BRANCH  25  30
HETATM   30  O8  UNL     1      11.404   9.343  36.718  1.00  0.00    -0.388 OA
ATOM     31  H8  UNL     1      11.084   8.569  37.167  1.00  0.00     0.210 HD
ENDBRANCH  25  30
ENDBRANCH  19  21
ENDBRANCH   6   9
ENDBRANCH   5   6
ENDBRANCH   3   5
BRANCH   1  32
HETATM   32  C6  UNL     1      10.874  19.828  34.630  1.00  0.00     0.270 C 
HETATM   33  C2  UNL     1       9.470  20.225  34.914  1.00  0.00     0.204 C 
HETATM   34  C3  UNL     1       8.854  21.133  33.893  1.00  0.00     0.259 C 
HETATM   35  C4  UNL     1       9.321  20.910  32.502  1.00  0.00     0.247 C 
HETATM   36  N2  UNL     1      10.743  20.834  32.396  1.00  0.00    -0.175 NA
HETATM   37  C5  UNL     1      11.203  19.717  33.169  1.00  0.00     0.262 C 
BRANCH  33  38
HETATM   38  O1  UNL     1       8.657  19.124  35.121  1.00  0.00    -0.385 OA
HETATM   39  C1  UNL     1       8.203  19.033  36.436  1.00  0.00     0.202 C 
ENDBRANCH  33  38
BRANCH  34  40
HETATM   40  N1  UNL     1       7.409  20.926  33.917  1.00  0.00    -0.069 N 
ATOM     41  H13 UNL     1       7.034  20.651  33.009  1.00  0.00     0.275 HD
ATOM     42  H12 UNL     1       7.139  20.090  34.435  1.00  0.00     0.275 HD
ATOM     43  H11 UNL     1       6.975  21.774  34.283  1.00  0.00     0.275 HD
ENDBRANCH  34  40
BRANCH  35  44
HETATM   44  O2  UNL     1       8.782  19.751  31.929  1.00  0.00    -0.377 OA
ATOM     45  H2  UNL     1       8.774  19.780  30.979  1.00  0.00     0.211 HD
ENDBRANCH  35  44
BRANCH  36  46
HETATM   46  N3  UNL     1      11.401  22.019  32.633  1.00  0.00    -0.359 NA
ATOM     47  H32 UNL     1      10.983  22.841  32.197  1.00  0.00     0.171 HD
ATOM     48  H31 UNL     1      12.397  22.004  32.416  1.00  0.00     0.171 HD
ENDBRANCH  36  46
BRANCH  37  49
HETATM   49  O3  UNL     1      12.583  19.586  33.041  1.00  0.00    -0.376 OA
ATOM     50  H3  UNL     1      12.947  19.199  33.829  1.00  0.00     0.211 HD
ENDBRANCH  37  49
BRANCH  32  51
HETATM   51  N4  UNL     1      11.797  20.829  35.199  1.00  0.00    -0.055 N 
ATOM     52  H43 UNL     1      11.626  21.763  34.829  1.00  0.00     0.276 HD
ATOM     53  H42 UNL     1      11.597  21.021  36.181  1.00  0.00     0.276 HD
ATOM     54  H41 UNL     1      12.760  20.527  35.054  1.00  0.00     0.276 HD
ENDBRANCH  32  51
ENDBRANCH   1  32
TORSDOF 14
ENDMDL
MODEL 3
REMARK VINA RESULT: -7.950485527      1.296      1.499
REMARK  14 active torsions:
REMARK  status: ('A' for Active; 'I' for Inactive)
REMARK    1  A    between atoms: O1_2  and  C2_3 
REMARK    2  A    between atoms: C3_4  and  N1_5 
REMARK    3  A    between atoms: C4_9  and  O2_10 
REMARK    4  A    between atoms: N2_12  and  N3_13 
REMARK    5  A    between atoms: C5_16  and  O3_17 
REMARK    6  A    between atoms: C6_19  and  N4_20 
REMARK    7  A    between atoms: C6_19  and  C7_24 
REMARK       I    between atoms: C7_24  and  N5_26 
REMARK    8  A    between atoms: N5_26  and  C8_28 
REMARK    9  A    between atoms: C8_28  and  N6_29 
REMARK   10  A    between atoms: N6_29  and  C9_32 
REMARK   11  A    between atoms: N10_41  and  C13_42 
REMARK   12  A    between atoms: C14_44  and  O6_45 
REMARK   13  A    between atoms: C15_47  and  O7_48 
REMARK   14  A    between atoms: C16_50  and  O8_51 
ROOT
HETATM    1  C7  UNL     1      14.083  13.412  36.133  1.00  0.00     0.262 C 
HETATM    2  O4  UNL     1      14.687  13.326  37.244  1.00  0.00    -0.270 OA
HETATM    3  N5  UNL     1      14.421  14.538  35.340  1.00  0.00    -0.335 N 
ATOM      4  H5  UNL     1      13.961  14.651  34.437  1.00  0.00     0.164 HD
ENDROOT
BRANCH   3   5
HETATM    5  C8  UNL     1      15.387  15.533  35.751  1.00  0.00     0.357 C 
BRANCH   5   6
HETATM    6  N6  UNL     1      14.962  16.294  36.881  1.00  0.00    -0.048 N 
ATOM      7  H62 UNL     1      14.511  17.168  36.608  1.00  0.00     0.280 HD
ATOM      8  H61 UNL     1      14.171  15.862  37.359  1.00  0.00     0.280 HD
BRANCH   6   9
HETATM    9  C9  UNL     1      16.058  16.510  37.753  1.00  0.00     0.259 A 
HETATM   10  C10 UNL     1      16.433  18.025  37.869  1.00  0.00     0.189 A 
HETATM   11  N7  UNL     1      17.816  18.070  37.528  1.00  0.00    -0.283 N 
HETATM   12  N8  UNL     1      18.889  18.903  37.374  1.00  0.00    -0.293 N 
HETATM   13  C18 UNL     1      18.146  16.861  37.275  1.00  0.00     0.120 A 
HETATM   14  C11 UNL     1      20.100  18.379  36.994  1.00  0.00     0.199 A 
ATOM     15  H8  UNL     1      18.790  19.904  37.539  1.00  0.00     0.188 HD
HETATM   16  N9  UNL     1      20.340  17.046  36.748  1.00  0.00    -0.335 N 
HETATM   17  C12 UNL     1      19.301  16.162  36.886  1.00  0.00     0.142 A 
ATOM     18  H9  UNL     1      21.267  16.724  36.470  1.00  0.00     0.168 HD
HETATM   19  N10 UNL     1      18.444  15.098  36.953  1.00  0.00    -0.300 N 
HETATM   20  C17 UNL     1      17.327  15.830  37.338  1.00  0.00     0.080 A 
BRANCH  19  21
HETATM   21  C13 UNL     1      18.715  13.729  36.694  1.00  0.00     0.264 C 
HETATM   22  O5  UNL     1      17.640  13.023  36.225  1.00  0.00    -0.331 OA
HETATM   23  C14 UNL     1      17.858  11.695  36.465  1.00  0.00     0.290 C 
HETATM   24  C15 UNL     1      18.886  11.554  37.541  1.00  0.00     0.206 C 
HETATM   25  C16 UNL     1      19.062  12.992  37.982  1.00  0.00     0.201 C 
BRANCH  23  26
HETATM   26  O6  UNL     1      18.303  11.011  35.334  1.00  0.00    -0.368 OA
ATOM     27  H6  UNL     1      18.200  11.518  34.537  1.00  0.00     0.212 HD
ENDBRANCH  23  26
BRANCH  24  28
HETATM   28  O7  UNL     1      18.471  10.731  38.585  1.00  0.00    -0.388 OA
ATOM     29  H7  UNL     1      19.084  10.028  38.770  1.00  0.00     0.210 HD
ENDBRANCH  24  28
BRANCH  25  30
HETATM   30  O8  UNL     1      18.105  13.267  38.959  1.00  0.00    -0.388 OA
ATOM     31  H8  UNL     1      17.621  12.477  39.170  1.00  0.00     0.210 HD
ENDBRANCH  25  30
ENDBRANCH  19  21
ENDBRANCH   6   9
ENDBRANCH   5   6
ENDBRANCH   3   5
BRANCH   1  32
HETATM   32  C6  UNL     1      13.096  12.391  35.715  1.00  0.00     0.270 C 
HETATM   33  C2  UNL     1      11.708  12.921  35.764  1.00  0.00     0.204 C 
HETATM   34  C3  UNL     1      10.644  11.882  35.949  1.00  0.00     0.259 C 
HETATM   35  C4  UNL     1      11.049  10.718  36.775  1.00  0.00     0.247 C 
HETATM   36  N2  UNL     1      12.307  10.166  36.383  1.00  0.00    -0.175 NA
HETATM   37  C5  UNL     1      13.321  11.165  36.552  1.00  0.00     0.262 C 
BRANCH  33  38
HETATM   38  O1  UNL     1      11.572  13.914  36.718  1.00  0.00    -0.385 OA
HETATM   39  C1  UNL     1      11.106  15.113  36.181  1.00  0.00     0.202 C 
ENDBRANCH  33  38
BRANCH  34  40
HETATM   40  N1  UNL     1       9.501  12.516  36.600  1.00  0.00    -0.069 N 
ATOM     41  H13 UNL     1       9.645  12.657  37.600  1.00  0.00     0.275 HD
ATOM     42  H12 UNL     1       9.392  13.496  36.339  1.00  0.00     0.275 HD
ATOM     43  H11 UNL     1       8.672  11.959  36.395  1.00  0.00     0.275 HD
ENDBRANCH  34  40
BRANCH  35  44
HETATM   44  O2  UNL     1      11.118  11.021  38.141  1.00  0.00    -0.377 OA
ATOM     45  H2  UNL     1      10.379  10.680  38.631  1.00  0.00     0.211 HD
ENDBRANCH  35  44
BRANCH  36  46
HETATM   46  N3  UNL     1      12.302   9.541  35.157  1.00  0.00    -0.359 NA
ATOM     47  H32 UNL     1      12.274   8.522  35.191  1.00  0.00     0.171 HD
ATOM     48  H31 UNL     1      13.054   9.827  34.531  1.00  0.00     0.171 HD
ENDBRANCH  36  46
BRANCH  37  49
HETATM   49  O3  UNL     1      14.567  10.638  36.228  1.00  0.00    -0.376 OA
ATOM     50  H3  UNL     1      15.256  11.204  36.556  1.00  0.00     0.211 HD
ENDBRANCH  37  49
BRANCH  32  51
HETATM   51  N4  UNL     1      13.438  12.026  34.327  1.00  0.00    -0.055 N 
ATOM     52  H43 UNL     1      12.710  12.298  33.667  1.00  0.00     0.276 HD
ATOM     53  H42 UNL     1      14.195  12.599  33.954  1.00  0.00     0.276 HD
ATOM     54  H41 UNL     1      13.649  11.030  34.277  1.00  0.00     0.276 HD
ENDBRANCH  32  51
ENDBRANCH   1  32
TORSDOF 14
ENDMDL
MODEL 4
REMARK VINA RESULT: -7.883777688      4.768      8.762
REMARK  14 active torsions:
REMARK  status: ('A' for Active; 'I' for Inactive)
REMARK    1  A    between atoms: O1_2  and  C2_3 
REMARK    2  A    between atoms: C3_4  and  N1_5 
REMARK    3  A    between atoms: C4_9  and  O2_10 
REMARK    4  A    between atoms: N2_12  and  N3_13 
REMARK    5  A    between atoms: C5_16  and  O3_17 
REMARK    6  A    between atoms: C6_19  and  N4_20 
REMARK    7  A    between atoms: C6_19  and  C7_24 
REMARK       I    between atoms: C7_24  and  N5_26 
REMARK    8  A    between atoms: N5_26  and  C8_28 
REMARK    9  A    between atoms: C8_28  and  N6_29 
REMARK   10  A    between atoms: N6_29  and  C9_32 
REMARK   11  A    between atoms: N10_41  and  C13_42 
REMARK   12  A    between atoms: C14_44  and  O6_45 
REMARK   13  A    between atoms: C15_47  and  O7_48 
REMARK   14  A    between atoms: C16_50  and  O8_51 
ROOT
HETATM    1  C7  UNL     1      10.794  17.827  34.262  1.00  0.00     0.262 C 
HETATM    2  O4  UNL     1       9.884  17.027  33.891  1.00  0.00    -0.270 OA
HETATM    3  N5  UNL     1      11.723  17.305  35.196  1.00  0.00    -0.335 N 
ATOM      4  H5  UNL     1      12.475  17.911  35.524  1.00  0.00     0.164 HD
ENDROOT
BRANCH   3   5
HETATM    5  C8  UNL     1      11.657  15.952  35.705  1.00  0.00     0.357 C 
BRANCH   5   6
HETATM    6  N6  UNL     1      12.290  15.000  34.852  1.00  0.00    -0.048 N 
ATOM      7  H62 UNL     1      11.651  14.632  34.147  1.00  0.00     0.280 HD
ATOM      8  H61 UNL     1      12.967  15.436  34.226  1.00  0.00     0.280 HD
BRANCH   6   9
HETATM    9  C9  UNL     1      12.872  13.970  35.632  1.00  0.00     0.259 A 
HETATM   10  C10 UNL     1      14.327  13.624  35.167  1.00  0.00     0.189 A 
HETATM   11  N7  UNL     1      14.289  12.222  34.916  1.00  0.00    -0.283 N 
HETATM   12  N8  UNL     1      15.039  11.153  34.511  1.00  0.00    -0.293 N 
HETATM   13  C18 UNL     1      13.092  11.858  35.176  1.00  0.00     0.120 A 
HETATM   14  C11 UNL     1      14.458   9.911  34.437  1.00  0.00     0.199 A 
ATOM     15  H8  UNL     1      16.021  11.277  34.265  1.00  0.00     0.188 HD
HETATM   16  N9  UNL     1      13.144   9.636  34.746  1.00  0.00    -0.335 N 
HETATM   17  C12 UNL     1      12.343  10.670  35.159  1.00  0.00     0.142 A 
ATOM     18  H9  UNL     1      12.776   8.688  34.670  1.00  0.00     0.168 HD
HETATM   19  N10 UNL     1      11.356  11.514  35.587  1.00  0.00    -0.300 N 
HETATM   20  C17 UNL     1      12.135  12.665  35.590  1.00  0.00     0.080 A 
BRANCH  19  21
HETATM   21  C13 UNL     1      10.006  11.206  35.901  1.00  0.00     0.264 C 
HETATM   22  O5  UNL     1       9.638  11.536  37.178  1.00  0.00    -0.331 OA
HETATM   23  C14 UNL     1       8.542  10.793  37.515  1.00  0.00     0.290 C 
HETATM   24  C15 UNL     1       8.460   9.602  36.617  1.00  0.00     0.206 C 
HETATM   25  C16 UNL     1       9.770   9.702  35.863  1.00  0.00     0.201 C 
BRANCH  23  26
HETATM   26  O6  UNL     1       7.352  11.513  37.405  1.00  0.00    -0.368 OA
ATOM     27  H6  UNL     1       6.583  10.972  37.545  1.00  0.00     0.212 HD
ENDBRANCH  23  26
BRANCH  24  28
HETATM   28  O7  UNL     1       8.345   8.401  37.313  1.00  0.00    -0.388 OA
ATOM     29  H7  UNL     1       9.066   7.805  37.148  1.00  0.00     0.210 HD
ENDBRANCH  24  28
BRANCH  25  30
HETATM   30  O8  UNL     1      10.751   9.048  36.609  1.00  0.00    -0.388 OA
ATOM     31  H8  UNL     1      11.564   9.540  36.578  1.00  0.00     0.210 HD
ENDBRANCH  25  30
ENDBRANCH  19  21
ENDBRANCH   6   9
ENDBRANCH   5   6
ENDBRANCH   3   5
BRANCH   1  32
HETATM   32  C6  UNL     1      10.860  19.210  33.737  1.00  0.00     0.270 C 
HETATM   33  C2  UNL     1      10.644  20.213  34.814  1.00  0.00     0.204 C 
HETATM   34  C3  UNL     1      10.108  21.532  34.346  1.00  0.00     0.259 C 
HETATM   35  C4  UNL     1       9.197  21.453  33.177  1.00  0.00     0.247 C 
HETATM   36  N2  UNL     1       9.719  20.654  32.115  1.00  0.00    -0.175 NA
HETATM   37  C5  UNL     1       9.896  19.313  32.591  1.00  0.00     0.262 C 
BRANCH  33  38
HETATM   38  O1  UNL     1       9.848  19.712  35.829  1.00  0.00    -0.385 OA
HETATM   39  C1  UNL     1      10.439  19.840  37.085  1.00  0.00     0.202 C 
ENDBRANCH  33  38
BRANCH  34  40
HETATM   40  N1  UNL     1       9.368  22.136  35.450  1.00  0.00    -0.069 N 
ATOM     41  H13 UNL     1       9.917  22.196  36.307  1.00  0.00     0.275 HD
ATOM     42  H12 UNL     1       9.210  23.135  35.319  1.00  0.00     0.275 HD
ATOM     43  H11 UNL     1       8.501  21.613  35.571  1.00  0.00     0.275 HD
ENDBRANCH  34  40
BRANCH  35  44
HETATM   44  O2  UNL     1       7.931  20.954  33.510  1.00  0.00    -0.377 OA
ATOM     45  H2  UNL     1       7.507  21.456  34.197  1.00  0.00     0.211 HD
ENDBRANCH  35  44
BRANCH  36  46
HETATM   46  N3  UNL     1      10.810  21.194  31.473  1.00  0.00    -0.359 NA
ATOM     47  H32 UNL     1      10.789  22.208  31.362  1.00  0.00     0.171 HD
ATOM     48  H31 UNL     1      11.025  20.771  30.571  1.00  0.00     0.171 HD
ENDBRANCH  36  46
BRANCH  37  49
HETATM   49  O3  UNL     1      10.354  18.499  31.561  1.00  0.00    -0.376 OA
ATOM     50  H3  UNL     1      10.410  17.598  31.858  1.00  0.00     0.211 HD
ENDBRANCH  37  49
BRANCH  32  51
HETATM   51  N4  UNL     1      12.213  19.376  33.171  1.00  0.00    -0.055 N 
ATOM     52  H43 UNL     1      12.735  18.501  33.161  1.00  0.00     0.276 HD
ATOM     53  H42 UNL     1      12.191  19.546  32.165  1.00  0.00     0.276 HD
ATOM     54  H41 UNL     1      12.706  20.112  33.675  1.00  0.00     0.276 HD
ENDBRANCH  32  51
ENDBRANCH   1  32
TORSDOF 14
ENDMDL
MODEL 5
REMARK VINA RESULT: -7.873442752      7.077     10.954
REMARK  14 active torsions:
REMARK  status: ('A' for Active; 'I' for Inactive)
REMARK    1  A    between atoms: O1_2  and  C2_3 
REMARK    2  A    between atoms: C3_4  and  N1_5 
REMARK    3  A    between atoms: C4_9  and  O2_10 
REMARK    4  A    between atoms: N2_12  and  N3_13 
REMARK    5  A    between atoms: C5_16  and  O3_17 
REMARK    6  A    between atoms: C6_19  and  N4_20 
REMARK    7  A    between atoms: C6_19  and  C7_24 
REMARK       I    between atoms: C7_24  and  N5_26 
REMARK    8  A    between atoms: N5_26  and  C8_28 
REMARK    9  A    between atoms: C8_28  and  N6_29 
REMARK   10  A    between atoms: N6_29  and  C9_32 
REMARK   11  A    between atoms: N10_41  and  C13_42 
REMARK   12  A    between atoms: C14_44  and  O6_45 
REMARK   13  A    between atoms: C15_47  and  O7_48 
REMARK   14  A    between atoms: C16_50  and  O8_51 
ROOT
HETATM    1  C7  UNL     1       8.712  18.003  35.107  1.00  0.00     0.262 C 
HETATM    2  O4  UNL     1       8.131  17.004  34.587  1.00  0.00    -0.270 OA
HETATM    3  N5  UNL     1       9.776  17.699  35.992  1.00  0.00    -0.335 N 
ATOM      4  H5  UNL     1      10.275  18.470  36.436  1.00  0.00     0.164 HD
ENDROOT
BRANCH   3   5
HETATM    5  C8  UNL     1      10.191  16.346  36.295  1.00  0.00     0.357 C 
BRANCH   5   6
HETATM    6  N6  UNL     1       9.123  15.526  36.767  1.00  0.00    -0.048 N 
ATOM      7  H62 UNL     1       8.494  16.035  37.388  1.00  0.00     0.280 HD
ATOM      8  H61 UNL     1       8.455  15.303  36.029  1.00  0.00     0.280 HD
BRANCH   6   9
HETATM    9  C9  UNL     1       9.648  14.361  37.379  1.00  0.00     0.259 A 
HETATM   10  C10 UNL     1      10.588  13.558  36.419  1.00  0.00     0.189 A 
HETATM   11  N7  UNL     1      10.032  12.246  36.402  1.00  0.00    -0.283 N 
HETATM   12  N8  UNL     1      10.180  10.991  35.882  1.00  0.00    -0.293 N 
HETATM   13  C18 UNL     1       9.013  12.294  37.173  1.00  0.00     0.120 A 
HETATM   14  C11 UNL     1       9.284  10.008  36.224  1.00  0.00     0.199 A 
ATOM     15  H8  UNL     1      10.949  10.786  35.245  1.00  0.00     0.188 HD
HETATM   16  N9  UNL     1       8.213  10.179  37.074  1.00  0.00    -0.335 N 
HETATM   17  C12 UNL     1       8.014  11.418  37.628  1.00  0.00     0.142 A 
ATOM     18  H9  UNL     1       7.586   9.404  37.287  1.00  0.00     0.168 HD
HETATM   19  N10 UNL     1       7.606  12.539  38.297  1.00  0.00    -0.300 N 
HETATM   20  C17 UNL     1       8.614  13.370  37.822  1.00  0.00     0.080 A 
BRANCH  19  21
HETATM   21  C13 UNL     1       6.497  12.691  39.170  1.00  0.00     0.264 C 
HETATM   22  O5  UNL     1       5.721  11.569  39.290  1.00  0.00    -0.331 OA
HETATM   23  C14 UNL     1       4.484  11.948  39.731  1.00  0.00     0.290 C 
HETATM   24  C15 UNL     1       4.286  13.402  39.450  1.00  0.00     0.206 C 
HETATM   25  C16 UNL     1       5.516  13.721  38.626  1.00  0.00     0.201 C 
BRANCH  23  26
HETATM   26  O6  UNL     1       4.314  11.734  41.099  1.00  0.00    -0.368 OA
ATOM     27  H6  UNL     1       3.609  11.126  41.289  1.00  0.00     0.212 HD
ENDBRANCH  23  26
BRANCH  24  28
HETATM   28  O7  UNL     1       3.106  13.667  38.758  1.00  0.00    -0.388 OA
ATOM     29  H7  UNL     1       3.050  14.564  38.450  1.00  0.00     0.210 HD
ENDBRANCH  24  28
BRANCH  25  30
HETATM   30  O8  UNL     1       5.227  13.442  37.289  1.00  0.00    -0.388 OA
ATOM     31  H8  UNL     1       4.493  12.842  37.235  1.00  0.00     0.210 HD
ENDBRANCH  25  30
ENDBRANCH  19  21
ENDBRANCH   6   9
ENDBRANCH   5   6
ENDBRANCH   3   5
BRANCH   1  32
HETATM   32  C6  UNL     1       8.286  19.387  34.794  1.00  0.00     0.270 C 
HETATM   33  C2  UNL     1       9.150  20.001  33.751  1.00  0.00     0.204 C 
HETATM   34  C3  UNL     1       9.210  21.498  33.785  1.00  0.00     0.259 C 
HETATM   35  C4  UNL     1       9.102  22.093  35.141  1.00  0.00     0.247 C 
HETATM   36  N2  UNL     1       8.017  21.559  35.900  1.00  0.00    -0.175 NA
HETATM   37  C5  UNL     1       8.230  20.153  36.083  1.00  0.00     0.262 C 
BRANCH  33  38
HETATM   38  O1  UNL     1      10.431  19.475  33.772  1.00  0.00    -0.385 OA
HETATM   39  C1  UNL     1      10.744  18.783  32.603  1.00  0.00     0.202 C 
ENDBRANCH  33  38
BRANCH  34  40
HETATM   40  N1  UNL     1      10.488  21.913  33.215  1.00  0.00    -0.069 N 
ATOM     41  H13 UNL     1      11.245  21.262  33.428  1.00  0.00     0.275 HD
ATOM     42  H12 UNL     1      10.514  21.825  32.200  1.00  0.00     0.275 HD
ATOM     43  H11 UNL     1      10.682  22.862  33.534  1.00  0.00     0.275 HD
ENDBRANCH  34  40
BRANCH  35  44
HETATM   44  O2  UNL     1      10.273  21.939  35.894  1.00  0.00    -0.377 OA
ATOM     45  H2  UNL     1      10.107  21.903  36.829  1.00  0.00     0.211 HD
ENDBRANCH  35  44
BRANCH  36  46
HETATM   46  N3  UNL     1       6.768  21.906  35.438  1.00  0.00    -0.359 NA
ATOM     47  H32 UNL     1       6.146  22.314  36.135  1.00  0.00     0.171 HD
ATOM     48  H31 UNL     1       6.271  21.158  34.955  1.00  0.00     0.171 HD
ENDBRANCH  36  46
BRANCH  37  49
HETATM   49  O3  UNL     1       7.213  19.616  36.866  1.00  0.00    -0.376 OA
ATOM     50  H3  UNL     1       6.369  19.926  36.560  1.00  0.00     0.211 HD
ENDBRANCH  37  49
BRANCH  32  51
HETATM   51  N4  UNL     1       6.901  19.291  34.295  1.00  0.00    -0.055 N 
ATOM     52  H43 UNL     1       6.306  18.741  34.914  1.00  0.00     0.276 HD
ATOM     53  H42 UNL     1       6.404  20.180  34.366  1.00  0.00     0.276 HD
ATOM     54  H41 UNL     1       6.905  18.928  33.342  1.00  0.00     0.276 HD
ENDBRANCH  32  51
ENDBRANCH   1  32
TORSDOF 14
ENDMDL
