MODEL 1
REMARK VINA RESULT: -8.067249791      0.000      0.000
REMARK  11 active torsions:
REMARK  status: ('A' for Active; 'I' for Inactive)
REMARK    1  A    between atoms: N1_2  and  C2_5 
REMARK    2  A    between atoms: C2_5  and  C3_6 
REMARK    3  A    between atoms: C7_10  and  O1_11 
REMARK    4  A    between atoms: O1_11  and  C8_12 
REMARK    5  A    between atoms: C10_14  and  S1_15 
REMARK    6  A    between atoms: S1_15  and  C11_16 
REMARK    7  A    between atoms: C14_20  and  O3_21 
REMARK    8  A    between atoms: C15_23  and  O4_24 
REMARK    9  A    between atoms: C16_26  and  C17_27 
REMARK   10  A    between atoms: C18_30  and  N2_31 
REMARK   11  A    between atoms: C20_36  and  N3_37 
ROOT
HETATM    1  C8  UNL     1      39.857  41.635   9.255  1.00  0.00     0.156 C 
HETATM    2  C9  UNL     1      41.019  42.367   8.677  1.00  0.00     0.051 C 
HETATM    3  C10 UNL     1      42.367  41.795   8.957  1.00  0.00     0.082 C 
HETATM    4  C18 UNL     1      42.322  40.308   8.579  1.00  0.00     0.199 C 
HETATM    5  C19 UNL     1      41.359  39.644   9.506  1.00  0.00     0.069 C 
HETATM    6  C20 UNL     1      39.974  40.146   9.250  1.00  0.00     0.214 C 
ENDROOT
BRANCH   3   7
HETATM    7  S1  UNL     1      43.529  42.573   7.799  1.00  0.00    -0.129 SA
BRANCH   7   8
HETATM    8  C11 UNL     1      44.599  41.343   7.008  1.00  0.00     0.200 C 
HETATM    9  O2  UNL     1      45.821  41.354   7.668  1.00  0.00    -0.367 OA
HETATM   10  C12 UNL     1      46.772  40.517   7.140  1.00  0.00     0.150 C 
HETATM   11  C13 UNL     1      48.079  40.817   7.878  1.00  0.00     0.042 C 
HETATM   12  C14 UNL     1      47.060  40.765   5.674  1.00  0.00     0.176 C 
HETATM   13  C15 UNL     1      46.269  42.025   5.299  1.00  0.00     0.167 C 
HETATM   14  C16 UNL     1      44.803  41.644   5.543  1.00  0.00     0.157 C 
BRANCH  12  15
HETATM   15  O3  UNL     1      48.402  40.900   5.399  1.00  0.00    -0.390 OA
ATOM     16  H3  UNL     1      48.683  41.805   5.338  1.00  0.00     0.210 HD
ENDBRANCH  12  15
BRANCH  13  17
HETATM   17  O4  UNL     1      46.429  42.293   3.959  1.00  0.00    -0.392 OA
ATOM     18  H4  UNL     1      45.627  42.660   3.607  1.00  0.00     0.210 HD
ENDBRANCH  13  17
BRANCH  14  19
HETATM   19  C17 UNL     1      44.549  40.454   4.700  1.00  0.00     0.183 C 
HETATM   20  O5  UNL     1      44.810  40.419   3.477  1.00  0.00    -0.648 OA
HETATM   21  O6  UNL     1      43.999  39.332   5.286  1.00  0.00    -0.648 OA
ENDBRANCH  14  19
ENDBRANCH   7   8
ENDBRANCH   3   7
BRANCH   4  22
HETATM   22  N2  UNL     1      41.891  40.281   7.184  1.00  0.00    -0.074 N 
ATOM     23  H23 UNL     1      41.161  40.958   6.964  1.00  0.00     0.274 HD
ATOM     24  H22 UNL     1      42.587  40.642   6.531  1.00  0.00     0.274 HD
ATOM     25  H21 UNL     1      41.622  39.313   7.005  1.00  0.00     0.274 HD
ENDBRANCH   4  22
BRANCH   1  26
HETATM   26  O1  UNL     1      39.555  42.169  10.496  1.00  0.00    -0.354 OA
BRANCH  26  27
HETATM   27  C7  UNL     1      38.647  43.203  10.458  1.00  0.00     0.260 C 
HETATM   28  C6  UNL     1      39.247  44.564  10.495  1.00  0.00     0.061 C 
HETATM   29  C5  UNL     1      39.627  45.045  11.860  1.00  0.00     0.007 C 
HETATM   30  C4  UNL     1      39.674  43.938  12.862  1.00  0.00     0.034 C 
HETATM   31  C3  UNL     1      38.552  42.967  12.759  1.00  0.00     0.150 C 
HETATM   32  O7  UNL     1      37.820  43.069  11.591  1.00  0.00    -0.354 OA
BRANCH  31  33
HETATM   33  C2  UNL     1      37.581  43.155  13.910  1.00  0.00     0.263 C 
BRANCH  33  34
HETATM   34  N1  UNL     1      36.446  43.940  13.492  1.00  0.00    -0.077 N 
HETATM   35  C1  UNL     1      36.383  45.173  14.213  1.00  0.00     0.267 C 
ATOM     36  H12 UNL     1      35.576  43.414  13.570  1.00  0.00     0.276 HD
ATOM     37  H11 UNL     1      36.444  44.092  12.484  1.00  0.00     0.276 HD
ENDBRANCH  33  34
ENDBRANCH  31  33
ENDBRANCH  26  27
ENDBRANCH   1  26
BRANCH   6  38
HETATM   38  N3  UNL     1      39.526  39.583   7.965  1.00  0.00    -0.072 N 
ATOM     39  H33 UNL     1      39.316  40.315   7.287  1.00  0.00     0.274 HD
ATOM     40  H32 UNL     1      40.292  39.127   7.469  1.00  0.00     0.274 HD
ATOM     41  H31 UNL     1      38.734  38.953   8.095  1.00  0.00     0.274 HD
ENDBRANCH   6  38
TORSDOF 11
ENDMDL
MODEL 2
REMARK VINA RESULT: -7.959181093      2.273      3.237
REMARK  11 active torsions:
REMARK  status: ('A' for Active; 'I' for Inactive)
REMARK    1  A    between atoms: N1_2  and  C2_5 
REMARK    2  A    between atoms: C2_5  and  C3_6 
REMARK    3  A    between atoms: C7_10  and  O1_11 
REMARK    4  A    between atoms: O1_11  and  C8_12 
REMARK    5  A    between atoms: C10_14  and  S1_15 
REMARK    6  A    between atoms: S1_15  and  C11_16 
REMARK    7  A    between atoms: C14_20  and  O3_21 
REMARK    8  A    between atoms: C15_23  and  O4_24 
REMARK    9  A    between atoms: C16_26  and  C17_27 
REMARK   10  A    between atoms: C18_30  and  N2_31 
REMARK   11  A    between atoms: C20_36  and  N3_37 
ROOT
HETATM    1  C8  UNL     1      40.090  39.615   7.692  1.00  0.00     0.156 C 
HETATM    2  C9  UNL     1      41.373  39.791   6.954  1.00  0.00     0.051 C 
HETATM    3  C10 UNL     1      42.293  38.618   6.937  1.00  0.00     0.082 C 
HETATM    4  C18 UNL     1      41.477  37.402   6.479  1.00  0.00     0.199 C 
HETATM    5  C19 UNL     1      40.445  37.139   7.526  1.00  0.00     0.069 C 
HETATM    6  C20 UNL     1      39.463  38.266   7.569  1.00  0.00     0.214 C 
ENDROOT
BRANCH   3   7
HETATM    7  S1  UNL     1      43.520  38.919   5.634  1.00  0.00    -0.129 SA
BRANCH   7   8
HETATM    8  C11 UNL     1      44.840  40.019   6.208  1.00  0.00     0.200 C 
HETATM    9  O2  UNL     1      44.245  41.141   6.772  1.00  0.00    -0.367 OA
HETATM   10  C12 UNL     1      45.120  42.109   7.196  1.00  0.00     0.150 C 
HETATM   11  C13 UNL     1      44.274  43.320   7.599  1.00  0.00     0.042 C 
HETATM   12  C14 UNL     1      46.060  42.603   6.116  1.00  0.00     0.176 C 
HETATM   13  C15 UNL     1      45.591  41.936   4.816  1.00  0.00     0.167 C 
HETATM   14  C16 UNL     1      45.750  40.432   5.077  1.00  0.00     0.157 C 
BRANCH  12  15
HETATM   15  O3  UNL     1      46.090  43.974   6.007  1.00  0.00    -0.390 OA
ATOM     16  H3  UNL     1      45.261  44.347   5.733  1.00  0.00     0.210 HD
ENDBRANCH  12  15
BRANCH  13  17
HETATM   17  O4  UNL     1      46.429  42.288   3.784  1.00  0.00    -0.392 OA
ATOM     18  H4  UNL     1      46.815  41.507   3.403  1.00  0.00     0.210 HD
ENDBRANCH  13  17
BRANCH  14  19
HETATM   19  C17 UNL     1      47.176  40.231   5.422  1.00  0.00     0.183 C 
HETATM   20  O5  UNL     1      48.108  40.460   4.620  1.00  0.00    -0.648 OA
HETATM   21  O6  UNL     1      47.494  39.770   6.684  1.00  0.00    -0.648 OA
ENDBRANCH  14  19
ENDBRANCH   7   8
ENDBRANCH   3   7
BRANCH   4  22
HETATM   22  N2  UNL     1      40.906  37.786   5.191  1.00  0.00    -0.074 N 
ATOM     23  H23 UNL     1      41.179  37.176   4.421  1.00  0.00     0.274 HD
ATOM     24  H22 UNL     1      39.902  37.622   5.121  1.00  0.00     0.274 HD
ATOM     25  H21 UNL     1      41.174  38.761   5.059  1.00  0.00     0.274 HD
ENDBRANCH   4  22
BRANCH   1  26
HETATM   26  O1  UNL     1      40.256  40.039   8.998  1.00  0.00    -0.354 OA
BRANCH  26  27
HETATM   27  C7  UNL     1      41.090  41.125   9.138  1.00  0.00     0.260 C 
HETATM   28  C6  UNL     1      41.992  41.075  10.319  1.00  0.00     0.061 C 
HETATM   29  C5  UNL     1      41.358  41.489  11.610  1.00  0.00     0.007 C 
HETATM   30  C4  UNL     1      39.866  41.517  11.530  1.00  0.00     0.034 C 
HETATM   31  C3  UNL     1      39.328  42.107  10.275  1.00  0.00     0.150 C 
HETATM   32  O7  UNL     1      40.269  42.263   9.273  1.00  0.00    -0.354 OA
BRANCH  31  33
HETATM   33  C2  UNL     1      38.736  43.478  10.545  1.00  0.00     0.263 C 
BRANCH  33  34
HETATM   34  N1  UNL     1      39.666  44.515  10.170  1.00  0.00    -0.077 N 
HETATM   35  C1  UNL     1      40.246  45.124  11.325  1.00  0.00     0.267 C 
ATOM     36  H12 UNL     1      39.232  45.206   9.558  1.00  0.00     0.276 HD
ATOM     37  H11 UNL     1      40.379  44.167   9.529  1.00  0.00     0.276 HD
ENDBRANCH  33  34
ENDBRANCH  31  33
ENDBRANCH  26  27
ENDBRANCH   1  26
BRANCH   6  38
HETATM   38  N3  UNL     1      38.630  38.176   6.357  1.00  0.00    -0.072 N 
ATOM     39  H33 UNL     1      37.641  38.078   6.588  1.00  0.00     0.274 HD
ATOM     40  H32 UNL     1      38.587  39.068   5.864  1.00  0.00     0.274 HD
ATOM     41  H31 UNL     1      38.949  37.424   5.746  1.00  0.00     0.274 HD
ENDBRANCH   6  38
TORSDOF 11
ENDMDL
MODEL 3
REMARK VINA RESULT: -7.801242023      2.602      4.900
REMARK  11 active torsions:
REMARK  status: ('A' for Active; 'I' for Inactive)
REMARK    1  A    between atoms: N1_2  and  C2_5 
REMARK    2  A    between atoms: C2_5  and  C3_6 
REMARK    3  A    between atoms: C7_10  and  O1_11 
REMARK    4  A    between atoms: O1_11  and  C8_12 
REMARK    5  A    between atoms: C10_14  and  S1_15 
REMARK    6  A    between atoms: S1_15  and  C11_16 
REMARK    7  A    between atoms: C14_20  and  O3_21 
REMARK    8  A    between atoms: C15_23  and  O4_24 
REMARK    9  A    between atoms: C16_26  and  C17_27 
REMARK   10  A    between atoms: C18_30  and  N2_31 
REMARK   11  A    between atoms: C20_36  and  N3_37 
ROOT
HETATM    1  C8  UNL     1      41.696  41.252  10.494  1.00  0.00     0.156 C 
HETATM    2  C9  UNL     1      42.852  41.243   9.554  1.00  0.00     0.051 C 
HETATM    3  C10 UNL     1      42.806  42.232   8.440  1.00  0.00     0.082 C 
HETATM    4  C18 UNL     1      42.522  43.607   9.058  1.00  0.00     0.199 C 
HETATM    5  C19 UNL     1      41.155  43.552   9.656  1.00  0.00     0.069 C 
HETATM    6  C20 UNL     1      41.141  42.601  10.811  1.00  0.00     0.214 C 
ENDROOT
BRANCH   3   7
HETATM    7  S1  UNL     1      44.480  42.330   7.743  1.00  0.00    -0.129 SA
BRANCH   7   8
HETATM    8  C11 UNL     1      44.780  41.001   6.550  1.00  0.00     0.200 C 
HETATM    9  O2  UNL     1      45.080  39.847   7.263  1.00  0.00    -0.367 OA
HETATM   10  C12 UNL     1      45.401  38.757   6.494  1.00  0.00     0.150 C 
HETATM   11  C13 UNL     1      45.878  37.666   7.455  1.00  0.00     0.042 C 
HETATM   12  C14 UNL     1      46.552  38.999   5.540  1.00  0.00     0.176 C 
HETATM   13  C15 UNL     1      47.095  40.393   5.882  1.00  0.00     0.167 C 
HETATM   14  C16 UNL     1      45.917  41.339   5.615  1.00  0.00     0.157 C 
BRANCH  12  15
HETATM   15  O3  UNL     1      47.531  38.035   5.614  1.00  0.00    -0.390 OA
ATOM     16  H3  UNL     1      47.408  37.326   4.993  1.00  0.00     0.210 HD
ENDBRANCH  12  15
BRANCH  13  17
HETATM   17  O4  UNL     1      48.116  40.719   5.020  1.00  0.00    -0.392 OA
ATOM     18  H4  UNL     1      47.909  41.531   4.570  1.00  0.00     0.210 HD
ENDBRANCH  13  17
BRANCH  14  19
HETATM   19  C17 UNL     1      45.541  41.128   4.200  1.00  0.00     0.183 C 
HETATM   20  O5  UNL     1      46.282  41.449   3.244  1.00  0.00    -0.648 OA
HETATM   21  O6  UNL     1      44.319  40.552   3.917  1.00  0.00    -0.648 OA
ENDBRANCH  14  19
ENDBRANCH   7   8
ENDBRANCH   3   7
BRANCH   4  22
HETATM   22  N2  UNL     1      43.576  43.807  10.049  1.00  0.00    -0.074 N 
ATOM     23  H23 UNL     1      43.992  42.940  10.388  1.00  0.00     0.274 HD
ATOM     24  H22 UNL     1      44.432  44.206   9.664  1.00  0.00     0.274 HD
ATOM     25  H21 UNL     1      43.151  44.374  10.782  1.00  0.00     0.274 HD
ENDBRANCH   4  22
BRANCH   1  26
HETATM   26  O1  UNL     1      40.747  40.345  10.057  1.00  0.00    -0.354 OA
BRANCH  26  27
HETATM   27  C7  UNL     1      39.862  40.855   9.134  1.00  0.00     0.260 C 
HETATM   28  C6  UNL     1      38.487  40.293   9.210  1.00  0.00     0.061 C 
HETATM   29  C5  UNL     1      38.313  38.969   8.534  1.00  0.00     0.007 C 
HETATM   30  C4  UNL     1      39.617  38.303   8.240  1.00  0.00     0.034 C 
HETATM   31  C3  UNL     1      40.669  39.214   7.715  1.00  0.00     0.150 C 
HETATM   32  O7  UNL     1      40.377  40.558   7.857  1.00  0.00    -0.354 OA
BRANCH  31  33
HETATM   33  C2  UNL     1      40.898  38.962   6.236  1.00  0.00     0.263 C 
BRANCH  33  34
HETATM   34  N1  UNL     1      41.114  37.559   5.988  1.00  0.00    -0.077 N 
HETATM   35  C1  UNL     1      40.344  37.113   4.869  1.00  0.00     0.267 C 
ATOM     36  H12 UNL     1      40.931  36.997   6.819  1.00  0.00     0.276 HD
ATOM     37  H11 UNL     1      42.105  37.345   5.872  1.00  0.00     0.276 HD
ENDBRANCH  33  34
ENDBRANCH  31  33
ENDBRANCH  26  27
ENDBRANCH   1  26
BRANCH   6  38
HETATM   38  N3  UNL     1      41.881  43.234  11.916  1.00  0.00    -0.072 N 
ATOM     39  H33 UNL     1      42.843  43.444  11.652  1.00  0.00     0.274 HD
ATOM     40  H32 UNL     1      41.556  44.186  12.089  1.00  0.00     0.274 HD
ATOM     41  H31 UNL     1      41.839  42.664  12.761  1.00  0.00     0.274 HD
ENDBRANCH   6  38
TORSDOF 11
ENDMDL
MODEL 4
REMARK VINA RESULT: -7.796563883      2.241      3.140
REMARK  11 active torsions:
REMARK  status: ('A' for Active; 'I' for Inactive)
REMARK    1  A    between atoms: N1_2  and  C2_5 
REMARK    2  A    between atoms: C2_5  and  C3_6 
REMARK    3  A    between atoms: C7_10  and  O1_11 
REMARK    4  A    between atoms: O1_11  and  C8_12 
REMARK    5  A    between atoms: C10_14  and  S1_15 
REMARK    6  A    between atoms: S1_15  and  C11_16 
REMARK    7  A    between atoms: C14_20  and  O3_21 
REMARK    8  A    between atoms: C15_23  and  O4_24 
REMARK    9  A    between atoms: C16_26  and  C17_27 
REMARK   10  A    between atoms: C18_30  and  N2_31 
REMARK   11  A    between atoms: C20_36  and  N3_37 
ROOT
HETATM    1  C8  UNL     1      40.083  39.519   7.852  1.00  0.00     0.156 C 
HETATM    2  C9  UNL     1      41.341  39.788   7.100  1.00  0.00     0.051 C 
HETATM    3  C10 UNL     1      42.276  38.638   6.942  1.00  0.00     0.082 C 
HETATM    4  C18 UNL     1      41.464  37.459   6.389  1.00  0.00     0.199 C 
HETATM    5  C19 UNL     1      40.468  37.078   7.433  1.00  0.00     0.069 C 
HETATM    6  C20 UNL     1      39.471  38.178   7.614  1.00  0.00     0.214 C 
ENDROOT
BRANCH   3   7
HETATM    7  S1  UNL     1      43.460  39.086   5.641  1.00  0.00    -0.129 SA
BRANCH   7   8
HETATM    8  C11 UNL     1      44.769  40.164   6.279  1.00  0.00     0.200 C 
HETATM    9  O2  UNL     1      44.164  41.268   6.867  1.00  0.00    -0.367 OA
HETATM   10  C12 UNL     1      45.030  42.220   7.341  1.00  0.00     0.150 C 
HETATM   11  C13 UNL     1      44.178  43.418   7.766  1.00  0.00     0.042 C 
HETATM   12  C14 UNL     1      45.993  42.747   6.298  1.00  0.00     0.176 C 
HETATM   13  C15 UNL     1      45.551  42.125   4.967  1.00  0.00     0.167 C 
HETATM   14  C16 UNL     1      45.704  40.612   5.182  1.00  0.00     0.157 C 
BRANCH  12  15
HETATM   15  O3  UNL     1      46.028  44.121   6.236  1.00  0.00    -0.390 OA
ATOM     16  H3  UNL     1      45.243  44.532   6.577  1.00  0.00     0.210 HD
ENDBRANCH  12  15
BRANCH  13  17
HETATM   17  O4  UNL     1      46.412  42.508   3.966  1.00  0.00    -0.392 OA
ATOM     18  H4  UNL     1      46.254  41.986   3.188  1.00  0.00     0.210 HD
ENDBRANCH  13  17
BRANCH  14  19
HETATM   19  C17 UNL     1      47.121  40.398   5.550  1.00  0.00     0.183 C 
HETATM   20  O5  UNL     1      48.065  40.562   4.746  1.00  0.00    -0.648 OA
HETATM   21  O6  UNL     1      47.418  39.997   6.837  1.00  0.00    -0.648 OA
ENDBRANCH  14  19
ENDBRANCH   7   8
ENDBRANCH   3   7
BRANCH   4  22
HETATM   22  N2  UNL     1      40.850  37.958   5.162  1.00  0.00    -0.074 N 
ATOM     23  H23 UNL     1      40.646  38.957   5.180  1.00  0.00     0.274 HD
ATOM     24  H22 UNL     1      41.486  37.982   4.364  1.00  0.00     0.274 HD
ATOM     25  H21 UNL     1      40.028  37.373   5.016  1.00  0.00     0.274 HD
ENDBRANCH   4  22
BRANCH   1  26
HETATM   26  O1  UNL     1      40.281  39.815   9.189  1.00  0.00    -0.354 OA
BRANCH  26  27
HETATM   27  C7  UNL     1      39.610  40.936   9.624  1.00  0.00     0.260 C 
HETATM   28  C6  UNL     1      40.216  42.229   9.208  1.00  0.00     0.061 C 
HETATM   29  C5  UNL     1      41.367  42.681  10.051  1.00  0.00     0.007 C 
HETATM   30  C4  UNL     1      41.914  41.585  10.906  1.00  0.00     0.034 C 
HETATM   31  C3  UNL     1      40.880  40.731  11.549  1.00  0.00     0.150 C 
HETATM   32  O7  UNL     1      39.607  40.896  11.033  1.00  0.00    -0.354 OA
BRANCH  31  33
HETATM   33  C2  UNL     1      40.797  41.027  13.035  1.00  0.00     0.263 C 
BRANCH  33  34
HETATM   34  N1  UNL     1      39.761  41.994  13.303  1.00  0.00    -0.077 N 
HETATM   35  C1  UNL     1      40.313  43.204  13.826  1.00  0.00     0.267 C 
ATOM     36  H12 UNL     1      39.041  41.612  13.916  1.00  0.00     0.276 HD
ATOM     37  H11 UNL     1      39.186  42.167  12.478  1.00  0.00     0.276 HD
ENDBRANCH  33  34
ENDBRANCH  31  33
ENDBRANCH  26  27
ENDBRANCH   1  26
BRANCH   6  38
HETATM   38  N3  UNL     1      38.605  38.193   6.423  1.00  0.00    -0.072 N 
ATOM     39  H33 UNL     1      37.617  38.197   6.678  1.00  0.00     0.274 HD
ATOM     40  H32 UNL     1      38.645  39.092   5.941  1.00  0.00     0.274 HD
ATOM     41  H31 UNL     1      38.827  37.420   5.796  1.00  0.00     0.274 HD
ENDBRANCH   6  38
TORSDOF 11
ENDMDL
MODEL 5
REMARK VINA RESULT: -7.718632482      1.037      1.241
REMARK  11 active torsions:
REMARK  status: ('A' for Active; 'I' for Inactive)
REMARK    1  A    between atoms: N1_2  and  C2_5 
REMARK    2  A    between atoms: C2_5  and  C3_6 
REMARK    3  A    between atoms: C7_10  and  O1_11 
REMARK    4  A    between atoms: O1_11  and  C8_12 
REMARK    5  A    between atoms: C10_14  and  S1_15 
REMARK    6  A    between atoms: S1_15  and  C11_16 
REMARK    7  A    between atoms: C14_20  and  O3_21 
REMARK    8  A    between atoms: C15_23  and  O4_24 
REMARK    9  A    between atoms: C16_26  and  C17_27 
REMARK   10  A    between atoms: C18_30  and  N2_31 
REMARK   11  A    between atoms: C20_36  and  N3_37 
ROOT
HETATM    1  C8  UNL     1      40.190  41.933  10.029  1.00  0.00     0.156 C 
HETATM    2  C9  UNL     1      41.336  42.563   9.317  1.00  0.00     0.051 C 
HETATM    3  C10 UNL     1      42.559  41.725   9.159  1.00  0.00     0.082 C 
HETATM    4  C18 UNL     1      42.121  40.382   8.559  1.00  0.00     0.199 C 
HETATM    5  C19 UNL     1      41.251  39.709   9.568  1.00  0.00     0.069 C 
HETATM    6  C20 UNL     1      39.982  40.482   9.747  1.00  0.00     0.214 C 
ENDROOT
BRANCH   3   7
HETATM    7  S1  UNL     1      43.596  42.523   7.899  1.00  0.00    -0.129 SA
BRANCH   7   8
HETATM    8  C11 UNL     1      44.628  41.316   7.029  1.00  0.00     0.200 C 
HETATM    9  O2  UNL     1      45.869  41.289   7.651  1.00  0.00    -0.367 OA
HETATM   10  C12 UNL     1      46.795  40.465   7.061  1.00  0.00     0.150 C 
HETATM   11  C13 UNL     1      48.128  40.723   7.769  1.00  0.00     0.042 C 
HETATM   12  C14 UNL     1      47.040  40.767   5.597  1.00  0.00     0.176 C 
HETATM   13  C15 UNL     1      46.252  42.049   5.296  1.00  0.00     0.167 C 
HETATM   14  C16 UNL     1      44.789  41.672   5.570  1.00  0.00     0.157 C 
BRANCH  12  15
HETATM   15  O3  UNL     1      48.374  40.900   5.286  1.00  0.00    -0.390 OA
ATOM     16  H3  UNL     1      48.627  41.796   5.096  1.00  0.00     0.210 HD
ENDBRANCH  12  15
BRANCH  13  17
HETATM   17  O4  UNL     1      46.373  42.367   3.964  1.00  0.00    -0.392 OA
ATOM     18  H4  UNL     1      46.666  43.267   3.873  1.00  0.00     0.210 HD
ENDBRANCH  13  17
BRANCH  14  19
HETATM   19  C17 UNL     1      44.497  40.518   4.691  1.00  0.00     0.183 C 
HETATM   20  O5  UNL     1      44.918  40.435   3.515  1.00  0.00    -0.648 OA
HETATM   21  O6  UNL     1      43.726  39.486   5.185  1.00  0.00    -0.648 OA
ENDBRANCH  14  19
ENDBRANCH   7   8
ENDBRANCH   3   7
BRANCH   4  22
HETATM   22  N2  UNL     1      41.416  40.725   7.327  1.00  0.00    -0.074 N 
ATOM     23  H23 UNL     1      41.339  41.728   7.162  1.00  0.00     0.274 HD
ATOM     24  H22 UNL     1      41.938  40.505   6.479  1.00  0.00     0.274 HD
ATOM     25  H21 UNL     1      40.516  40.249   7.392  1.00  0.00     0.274 HD
ENDBRANCH   4  22
BRANCH   1  26
HETATM   26  O1  UNL     1      40.271  42.235  11.377  1.00  0.00    -0.354 OA
BRANCH  26  27
HETATM   27  C7  UNL     1      39.060  42.518  11.966  1.00  0.00     0.260 C 
HETATM   28  C6  UNL     1      38.178  43.421  11.179  1.00  0.00     0.061 C 
HETATM   29  C5  UNL     1      38.497  44.877  11.307  1.00  0.00     0.007 C 
HETATM   30  C4  UNL     1      39.849  45.115  11.896  1.00  0.00     0.034 C 
HETATM   31  C3  UNL     1      40.186  44.231  13.043  1.00  0.00     0.150 C 
HETATM   32  O7  UNL     1      39.334  43.151  13.195  1.00  0.00    -0.354 OA
BRANCH  31  33
HETATM   33  C2  UNL     1      40.147  45.012  14.344  1.00  0.00     0.263 C 
BRANCH  33  34
HETATM   34  N1  UNL     1      38.849  44.904  14.962  1.00  0.00    -0.077 N 
HETATM   35  C1  UNL     1      38.187  46.170  14.986  1.00  0.00     0.267 C 
ATOM     36  H12 UNL     1      38.910  44.494  15.894  1.00  0.00     0.276 HD
ATOM     37  H11 UNL     1      38.278  44.188  14.515  1.00  0.00     0.276 HD
ENDBRANCH  33  34
ENDBRANCH  31  33
ENDBRANCH  26  27
ENDBRANCH   1  26
BRANCH   6  38
HETATM   38  N3  UNL     1      39.170  40.288   8.534  1.00  0.00    -0.072 N 
ATOM     39  H33 UNL     1      38.249  40.715   8.627  1.00  0.00     0.274 HD
ATOM     40  H32 UNL     1      39.521  40.844   7.754  1.00  0.00     0.274 HD
ATOM     41  H31 UNL     1      39.102  39.299   8.290  1.00  0.00     0.274 HD
ENDBRANCH   6  38
TORSDOF 11
ENDMDL
