MODEL 1
REMARK VINA RESULT: -6.666157241      0.000      0.000
REMARK  13 active torsions:
REMARK  status: ('A' for Active; 'I' for Inactive)
REMARK    1  A    between atoms: C2_2  and  O1_3 
REMARK    2  A    between atoms: O1_3  and  N1_4 
REMARK    3  A    between atoms: N1_4  and  C3_6 
REMARK    4  A    between atoms: C3_6  and  N2_8 
REMARK    5  A    between atoms: N2_8  and  C4_10 
REMARK    6  A    between atoms: C5_11  and  O2_12 
REMARK    7  A    between atoms: C7_16  and  C8_17 
REMARK    8  A    between atoms: C8_17  and  O4_18 
REMARK    9  A    between atoms: C9_20  and  O5_21 
REMARK   10  A    between atoms: C10_23  and  O6_24 
REMARK   11  A    between atoms: O6_24  and  C11_25 
REMARK   12  A    between atoms: C17_31  and  O7_32 
REMARK   13  A    between atoms: C18_34  and  N3_35 
ROOT
HETATM    1  C4  UNL     1      41.262  41.861  10.385  1.00  0.00     0.163 C 
HETATM    2  C5  UNL     1      42.004  40.563  10.314  1.00  0.00     0.176 C 
HETATM    3  C6  UNL     1      42.152  40.305   8.817  1.00  0.00     0.162 C 
HETATM    4  O3  UNL     1      42.455  39.031   8.475  1.00  0.00    -0.373 OA
HETATM    5  C7  UNL     1      42.279  38.926   7.084  1.00  0.00     0.176 C 
HETATM    6  C9  UNL     1      42.549  40.229   6.369  1.00  0.00     0.178 C 
HETATM    7  C10 UNL     1      43.760  40.855   7.102  1.00  0.00     0.162 C 
HETATM    8  C16 UNL     1      43.247  41.297   8.435  1.00  0.00     0.083 C 
HETATM    9  C17 UNL     1      42.712  42.692   8.465  1.00  0.00     0.174 C 
HETATM   10  C18 UNL     1      41.898  43.024   9.681  1.00  0.00     0.039 C 
ENDROOT
BRANCH   1  11
HETATM   11  N2  UNL     1      40.863  42.122  11.732  1.00  0.00    -0.353 N 
ATOM     12  H2  UNL     1      41.575  42.163  12.461  1.00  0.00     0.162 HD
BRANCH  11  13
HETATM   13  C3  UNL     1      39.506  42.326  12.082  1.00  0.00     0.192 C 
HETATM   14  S1  UNL     1      39.179  42.536  13.704  1.00  0.00    -0.039 SA
BRANCH  13  15
HETATM   15  N1  UNL     1      38.425  42.361  11.163  1.00  0.00    -0.241 N 
ATOM     16  H1  UNL     1      38.257  41.595  10.511  1.00  0.00     0.197 HD
BRANCH  15  17
HETATM   17  O1  UNL     1      37.617  43.463  11.189  1.00  0.00    -0.279 OA
BRANCH  17  18
HETATM   18  C2  UNL     1      38.331  44.601  10.820  1.00  0.00     0.197 C 
HETATM   19  C1  UNL     1      38.626  44.501   9.341  1.00  0.00     0.036 C 
ENDBRANCH  17  18
ENDBRANCH  15  17
ENDBRANCH  13  15
ENDBRANCH  11  13
ENDBRANCH   1  11
BRANCH   2  20
HETATM   20  O2  UNL     1      41.336  39.569  10.958  1.00  0.00    -0.391 OA
ATOM     21  H2  UNL     1      40.521  39.355  10.520  1.00  0.00     0.210 HD
ENDBRANCH   2  20
BRANCH  10  22
HETATM   22  N3  UNL     1      42.531  43.985  10.490  1.00  0.00    -0.392 N 
HETATM   23  C19 UNL     1      43.581  43.704  11.338  1.00  0.00     0.148 C 
HETATM   24  C20 UNL     1      41.905  45.256  10.590  1.00  0.00     0.148 C 
ENDBRANCH  10  22
BRANCH   9  25
HETATM   25  O7  UNL     1      43.777  43.585   8.434  1.00  0.00    -0.389 OA
ATOM     26  H7  UNL     1      44.248  43.476   7.616  1.00  0.00     0.210 HD
ENDBRANCH   9  25
BRANCH   5  27
HETATM   27  C8  UNL     1      40.990  38.269   6.699  1.00  0.00     0.198 C 
BRANCH  27  28
HETATM   28  O4  UNL     1      40.946  37.784   5.411  1.00  0.00    -0.398 OA
ATOM     29  H4  UNL     1      40.213  38.092   4.891  1.00  0.00     0.209 HD
ENDBRANCH  27  28
ENDBRANCH   5  27
BRANCH   7  30
HETATM   30  O6  UNL     1      44.280  41.791   6.286  1.00  0.00    -0.377 OA
BRANCH  30  31
HETATM   31  C11 UNL     1      45.597  41.876   6.098  1.00  0.00     0.122 C 
HETATM   32  C12 UNL     1      45.870  42.367   4.666  1.00  0.00     0.032 C 
HETATM   33  C13 UNL     1      46.109  41.125   3.865  1.00  0.00     0.002 C 
HETATM   34  C14 UNL     1      46.180  39.954   4.821  1.00  0.00     0.002 C 
HETATM   35  C15 UNL     1      46.419  40.642   6.146  1.00  0.00     0.032 C 
ENDBRANCH  30  31
ENDBRANCH   7  30
BRANCH   6  36
HETATM   36  O5  UNL     1      42.910  39.890   5.066  1.00  0.00    -0.390 OA
ATOM     37  H5  UNL     1      42.837  40.688   4.555  1.00  0.00     0.210 HD
ENDBRANCH   6  36
TORSDOF 13
ENDMDL
MODEL 2
REMARK VINA RESULT: -6.371057282      4.020      6.749
REMARK  13 active torsions:
REMARK  status: ('A' for Active; 'I' for Inactive)
REMARK    1  A    between atoms: C2_2  and  O1_3 
REMARK    2  A    between atoms: O1_3  and  N1_4 
REMARK    3  A    between atoms: N1_4  and  C3_6 
REMARK    4  A    between atoms: C3_6  and  N2_8 
REMARK    5  A    between atoms: N2_8  and  C4_10 
REMARK    6  A    between atoms: C5_11  and  O2_12 
REMARK    7  A    between atoms: C7_16  and  C8_17 
REMARK    8  A    between atoms: C8_17  and  O4_18 
REMARK    9  A    between atoms: C9_20  and  O5_21 
REMARK   10  A    between atoms: C10_23  and  O6_24 
REMARK   11  A    between atoms: O6_24  and  C11_25 
REMARK   12  A    between atoms: C17_31  and  O7_32 
REMARK   13  A    between atoms: C18_34  and  N3_35 
ROOT
HETATM    1  C4  UNL     1      44.310  38.564   7.951  1.00  0.00     0.163 C 
HETATM    2  C5  UNL     1      43.402  38.934   6.820  1.00  0.00     0.176 C 
HETATM    3  C6  UNL     1      42.137  39.433   7.512  1.00  0.00     0.162 C 
HETATM    4  O3  UNL     1      41.030  39.481   6.734  1.00  0.00    -0.373 OA
HETATM    5  C7  UNL     1      39.934  39.690   7.589  1.00  0.00     0.176 C 
HETATM    6  C9  UNL     1      40.307  40.481   8.821  1.00  0.00     0.178 C 
HETATM    7  C10 UNL     1      41.315  41.549   8.333  1.00  0.00     0.162 C 
HETATM    8  C16 UNL     1      42.572  40.808   8.009  1.00  0.00     0.083 C 
HETATM    9  C17 UNL     1      43.523  40.665   9.152  1.00  0.00     0.174 C 
HETATM   10  C18 UNL     1      44.609  39.652   8.940  1.00  0.00     0.039 C 
ENDROOT
BRANCH   1  11
HETATM   11  N2  UNL     1      45.458  37.877   7.450  1.00  0.00    -0.353 N 
ATOM     12  H2  UNL     1      45.756  38.044   6.489  1.00  0.00     0.162 HD
BRANCH  11  13
HETATM   13  C3  UNL     1      46.195  36.972   8.252  1.00  0.00     0.192 C 
HETATM   14  S1  UNL     1      47.811  36.792   7.880  1.00  0.00    -0.039 SA
BRANCH  13  15
HETATM   15  N1  UNL     1      45.661  36.218   9.329  1.00  0.00    -0.241 N 
ATOM     16  H1  UNL     1      45.029  35.434   9.167  1.00  0.00     0.197 HD
BRANCH  15  17
HETATM   17  O1  UNL     1      46.028  36.586  10.593  1.00  0.00    -0.279 OA
BRANCH  17  18
HETATM   18  C2  UNL     1      45.074  36.172  11.519  1.00  0.00     0.197 C 
HETATM   19  C1  UNL     1      44.742  34.727  11.226  1.00  0.00     0.036 C 
ENDBRANCH  17  18
ENDBRANCH  15  17
ENDBRANCH  13  15
ENDBRANCH  11  13
ENDBRANCH   1  11
BRANCH   2  20
HETATM   20  O2  UNL     1      43.172  37.877   5.997  1.00  0.00    -0.391 OA
ATOM     21  H2  UNL     1      42.828  38.156   5.157  1.00  0.00     0.210 HD
ENDBRANCH   2  20
BRANCH  10  22
HETATM   22  N3  UNL     1      45.879  40.252   8.856  1.00  0.00    -0.392 N 
HETATM   23  C19 UNL     1      46.386  40.818   7.706  1.00  0.00     0.148 C 
HETATM   24  C20 UNL     1      46.755  40.064   9.958  1.00  0.00     0.148 C 
ENDBRANCH  10  22
BRANCH   9  25
HETATM   25  O7  UNL     1      44.148  41.888   9.375  1.00  0.00    -0.389 OA
ATOM     26  H7  UNL     1      44.216  42.033  10.311  1.00  0.00     0.210 HD
ENDBRANCH   9  25
BRANCH   5  27
HETATM   27  C8  UNL     1      39.158  38.441   7.871  1.00  0.00     0.198 C 
BRANCH  27  28
HETATM   28  O4  UNL     1      38.020  38.622   8.625  1.00  0.00    -0.398 OA
ATOM     29  H4  UNL     1      37.207  38.412   8.181  1.00  0.00     0.209 HD
ENDBRANCH  27  28
ENDBRANCH   5  27
BRANCH   7  30
HETATM   30  O6  UNL     1      41.373  42.505   9.280  1.00  0.00    -0.377 OA
BRANCH  30  31
HETATM   31  C11 UNL     1      41.165  43.784   8.972  1.00  0.00     0.122 C 
HETATM   32  C12 UNL     1      41.837  44.673  10.032  1.00  0.00     0.032 C 
HETATM   33  C13 UNL     1      40.751  45.010  11.006  1.00  0.00     0.002 C 
HETATM   34  C14 UNL     1      39.439  44.515  10.439  1.00  0.00     0.002 C 
HETATM   35  C15 UNL     1      39.779  44.316   8.979  1.00  0.00     0.032 C 
ENDBRANCH  30  31
ENDBRANCH   7  30
BRANCH   6  36
HETATM   36  O5  UNL     1      39.137  41.099   9.256  1.00  0.00    -0.390 OA
ATOM     37  H5  UNL     1      38.730  41.471   8.482  1.00  0.00     0.210 HD
ENDBRANCH   6  36
TORSDOF 13
ENDMDL
MODEL 3
REMARK VINA RESULT: -6.349186804      2.319      2.698
REMARK  13 active torsions:
REMARK  status: ('A' for Active; 'I' for Inactive)
REMARK    1  A    between atoms: C2_2  and  O1_3 
REMARK    2  A    between atoms: O1_3  and  N1_4 
REMARK    3  A    between atoms: N1_4  and  C3_6 
REMARK    4  A    between atoms: C3_6  and  N2_8 
REMARK    5  A    between atoms: N2_8  and  C4_10 
REMARK    6  A    between atoms: C5_11  and  O2_12 
REMARK    7  A    between atoms: C7_16  and  C8_17 
REMARK    8  A    between atoms: C8_17  and  O4_18 
REMARK    9  A    between atoms: C9_20  and  O5_21 
REMARK   10  A    between atoms: C10_23  and  O6_24 
REMARK   11  A    between atoms: O6_24  and  C11_25 
REMARK   12  A    between atoms: C17_31  and  O7_32 
REMARK   13  A    between atoms: C18_34  and  N3_35 
ROOT
HETATM    1  C4  UNL     1      40.288  43.198  11.512  1.00  0.00     0.163 C 
HETATM    2  C5  UNL     1      40.633  41.750  11.671  1.00  0.00     0.176 C 
HETATM    3  C6  UNL     1      40.666  41.221  10.240  1.00  0.00     0.162 C 
HETATM    4  O3  UNL     1      40.590  39.875  10.117  1.00  0.00    -0.373 OA
HETATM    5  C7  UNL     1      40.358  39.599   8.758  1.00  0.00     0.176 C 
HETATM    6  C9  UNL     1      40.966  40.639   7.846  1.00  0.00     0.178 C 
HETATM    7  C10 UNL     1      42.321  41.011   8.495  1.00  0.00     0.162 C 
HETATM    8  C16 UNL     1      41.986  41.790   9.726  1.00  0.00     0.083 C 
HETATM    9  C17 UNL     1      41.864  43.264   9.516  1.00  0.00     0.174 C 
HETATM   10  C18 UNL     1      41.206  44.005  10.643  1.00  0.00     0.039 C 
ENDROOT
BRANCH   1  11
HETATM   11  N2  UNL     1      40.010  43.776  12.789  1.00  0.00    -0.353 N 
ATOM     12  H2  UNL     1      40.586  43.511  13.589  1.00  0.00     0.162 HD
BRANCH  11  13
HETATM   13  C3  UNL     1      38.960  44.707  12.975  1.00  0.00     0.192 C 
HETATM   14  S1  UNL     1      37.590  44.478  12.052  1.00  0.00    -0.039 SA
BRANCH  13  15
HETATM   15  N1  UNL     1      38.993  45.803  13.876  1.00  0.00    -0.241 N 
ATOM     16  H1  UNL     1      39.749  45.913  14.552  1.00  0.00     0.197 HD
BRANCH  15  17
HETATM   17  O1  UNL     1      37.970  46.706  13.801  1.00  0.00    -0.279 OA
BRANCH  17  18
HETATM   18  C2  UNL     1      37.328  46.820  15.031  1.00  0.00     0.197 C 
HETATM   19  C1  UNL     1      35.901  46.353  14.852  1.00  0.00     0.036 C 
ENDBRANCH  17  18
ENDBRANCH  15  17
ENDBRANCH  13  15
ENDBRANCH  11  13
ENDBRANCH   1  11
BRANCH   2  20
HETATM   20  O2  UNL     1      39.729  41.103  12.453  1.00  0.00    -0.391 OA
ATOM     21  H2  UNL     1      40.154  40.603  13.139  1.00  0.00     0.210 HD
ENDBRANCH   2  20
BRANCH  10  22
HETATM   22  N3  UNL     1      42.104  44.867  11.299  1.00  0.00    -0.392 N 
HETATM   23  C19 UNL     1      43.154  44.435  12.078  1.00  0.00     0.148 C 
HETATM   24  C20 UNL     1      41.765  46.247  11.328  1.00  0.00     0.148 C 
ENDBRANCH  10  22
BRANCH   9  25
HETATM   25  O7  UNL     1      43.137  43.804   9.364  1.00  0.00    -0.389 OA
ATOM     26  H7  UNL     1      43.218  44.565   9.927  1.00  0.00     0.210 HD
ENDBRANCH   9  25
BRANCH   5  27
HETATM   27  C8  UNL     1      38.927  39.277   8.457  1.00  0.00     0.198 C 
BRANCH  27  28
HETATM   28  O4  UNL     1      38.731  38.478   7.352  1.00  0.00    -0.398 OA
ATOM     29  H4  UNL     1      38.948  37.561   7.477  1.00  0.00     0.209 HD
ENDBRANCH  27  28
ENDBRANCH   5  27
BRANCH   7  30
HETATM   30  O6  UNL     1      43.063  41.616   7.549  1.00  0.00    -0.377 OA
BRANCH  30  31
HETATM   31  C11 UNL     1      44.342  41.286   7.369  1.00  0.00     0.122 C 
HETATM   32  C12 UNL     1      45.089  42.483   6.757  1.00  0.00     0.032 C 
HETATM   33  C13 UNL     1      45.096  42.228   5.283  1.00  0.00     0.002 C 
HETATM   34  C14 UNL     1      44.557  40.835   5.042  1.00  0.00     0.002 C 
HETATM   35  C15 UNL     1      44.684  40.206   6.411  1.00  0.00     0.032 C 
ENDBRANCH  30  31
ENDBRANCH   7  30
BRANCH   6  36
HETATM   36  O5  UNL     1      41.185  40.005   6.625  1.00  0.00    -0.390 OA
ATOM     37  H5  UNL     1      41.622  40.641   6.071  1.00  0.00     0.210 HD
ENDBRANCH   6  36
TORSDOF 13
ENDMDL
MODEL 4
REMARK VINA RESULT: -6.346990692      2.115      2.695
REMARK  13 active torsions:
REMARK  status: ('A' for Active; 'I' for Inactive)
REMARK    1  A    between atoms: C2_2  and  O1_3 
REMARK    2  A    between atoms: O1_3  and  N1_4 
REMARK    3  A    between atoms: N1_4  and  C3_6 
REMARK    4  A    between atoms: C3_6  and  N2_8 
REMARK    5  A    between atoms: N2_8  and  C4_10 
REMARK    6  A    between atoms: C5_11  and  O2_12 
REMARK    7  A    between atoms: C7_16  and  C8_17 
REMARK    8  A    between atoms: C8_17  and  O4_18 
REMARK    9  A    between atoms: C9_20  and  O5_21 
REMARK   10  A    between atoms: C10_23  and  O6_24 
REMARK   11  A    between atoms: O6_24  and  C11_25 
REMARK   12  A    between atoms: C17_31  and  O7_32 
REMARK   13  A    between atoms: C18_34  and  N3_35 
ROOT
HETATM    1  C4  UNL     1      40.406  43.063  11.598  1.00  0.00     0.163 C 
HETATM    2  C5  UNL     1      40.740  41.608  11.710  1.00  0.00     0.176 C 
HETATM    3  C6  UNL     1      40.740  41.118  10.265  1.00  0.00     0.162 C 
HETATM    4  O3  UNL     1      40.649  39.777  10.107  1.00  0.00    -0.373 OA
HETATM    5  C7  UNL     1      40.387  39.539   8.746  1.00  0.00     0.176 C 
HETATM    6  C9  UNL     1      40.986  40.598   7.851  1.00  0.00     0.178 C 
HETATM    7  C10 UNL     1      42.357  40.941   8.482  1.00  0.00     0.162 C 
HETATM    8  C16 UNL     1      42.054  41.689   9.740  1.00  0.00     0.083 C 
HETATM    9  C17 UNL     1      41.942  43.169   9.572  1.00  0.00     0.174 C 
HETATM   10  C18 UNL     1      41.314  43.885  10.732  1.00  0.00     0.039 C 
ENDROOT
BRANCH   1  11
HETATM   11  N2  UNL     1      40.160  43.608  12.896  1.00  0.00    -0.353 N 
ATOM     12  H2  UNL     1      40.937  43.705  13.548  1.00  0.00     0.162 HD
BRANCH  11  13
HETATM   13  C3  UNL     1      38.867  44.019  13.300  1.00  0.00     0.192 C 
HETATM   14  S1  UNL     1      38.650  45.653  13.554  1.00  0.00    -0.039 SA
BRANCH  13  15
HETATM   15  N1  UNL     1      37.762  43.151  13.501  1.00  0.00    -0.241 N 
ATOM     16  H1  UNL     1      36.849  43.349  13.091  1.00  0.00     0.197 HD
BRANCH  15  17
HETATM   17  O1  UNL     1      37.971  42.040  14.268  1.00  0.00    -0.279 OA
BRANCH  17  18
HETATM   18  C2  UNL     1      37.427  42.214  15.538  1.00  0.00     0.197 C 
HETATM   19  C1  UNL     1      36.846  40.888  15.977  1.00  0.00     0.036 C 
ENDBRANCH  17  18
ENDBRANCH  15  17
ENDBRANCH  13  15
ENDBRANCH  11  13
ENDBRANCH   1  11
BRANCH   2  20
HETATM   20  O2  UNL     1      39.846  40.948  12.493  1.00  0.00    -0.391 OA
ATOM     21  H2  UNL     1      39.002  40.866  12.066  1.00  0.00     0.210 HD
ENDBRANCH   2  20
BRANCH  10  22
HETATM   22  N3  UNL     1      42.233  44.721  11.393  1.00  0.00    -0.392 N 
HETATM   23  C19 UNL     1      43.306  44.258  12.123  1.00  0.00     0.148 C 
HETATM   24  C20 UNL     1      41.898  46.099  11.484  1.00  0.00     0.148 C 
ENDBRANCH  10  22
BRANCH   9  25
HETATM   25  O7  UNL     1      43.217  43.702   9.410  1.00  0.00    -0.389 OA
ATOM     26  H7  UNL     1      43.383  44.322  10.110  1.00  0.00     0.210 HD
ENDBRANCH   9  25
BRANCH   5  27
HETATM   27  C8  UNL     1      38.947  39.239   8.465  1.00  0.00     0.198 C 
BRANCH  27  28
HETATM   28  O4  UNL     1      38.721  38.478   7.340  1.00  0.00    -0.398 OA
ATOM     29  H4  UNL     1      38.072  38.830   6.742  1.00  0.00     0.209 HD
ENDBRANCH  27  28
ENDBRANCH   5  27
BRANCH   7  30
HETATM   30  O6  UNL     1      43.086  41.565   7.538  1.00  0.00    -0.377 OA
BRANCH  30  31
HETATM   31  C11 UNL     1      44.366  41.250   7.344  1.00  0.00     0.122 C 
HETATM   32  C12 UNL     1      45.097  42.463   6.743  1.00  0.00     0.032 C 
HETATM   33  C13 UNL     1      45.096  42.228   5.265  1.00  0.00     0.002 C 
HETATM   34  C14 UNL     1      44.569  40.833   5.010  1.00  0.00     0.002 C 
HETATM   35  C15 UNL     1      44.713  40.187   6.369  1.00  0.00     0.032 C 
ENDBRANCH  30  31
ENDBRANCH   7  30
BRANCH   6  36
HETATM   36  O5  UNL     1      41.174  39.996   6.609  1.00  0.00    -0.390 OA
ATOM     37  H5  UNL     1      40.622  40.470   5.998  1.00  0.00     0.210 HD
ENDBRANCH   6  36
TORSDOF 13
ENDMDL
MODEL 5
REMARK VINA RESULT: -6.329351499      3.985      7.170
REMARK  13 active torsions:
REMARK  status: ('A' for Active; 'I' for Inactive)
REMARK    1  A    between atoms: C2_2  and  O1_3 
REMARK    2  A    between atoms: O1_3  and  N1_4 
REMARK    3  A    between atoms: N1_4  and  C3_6 
REMARK    4  A    between atoms: C3_6  and  N2_8 
REMARK    5  A    between atoms: N2_8  and  C4_10 
REMARK    6  A    between atoms: C5_11  and  O2_12 
REMARK    7  A    between atoms: C7_16  and  C8_17 
REMARK    8  A    between atoms: C8_17  and  O4_18 
REMARK    9  A    between atoms: C9_20  and  O5_21 
REMARK   10  A    between atoms: C10_23  and  O6_24 
REMARK   11  A    between atoms: O6_24  and  C11_25 
REMARK   12  A    between atoms: C17_31  and  O7_32 
REMARK   13  A    between atoms: C18_34  and  N3_35 
ROOT
HETATM    1  C4  UNL     1      44.346  38.761   7.618  1.00  0.00     0.163 C 
HETATM    2  C5  UNL     1      43.349  39.103   6.555  1.00  0.00     0.176 C 
HETATM    3  C6  UNL     1      42.113  39.539   7.337  1.00  0.00     0.162 C 
HETATM    4  O3  UNL     1      40.956  39.547   6.636  1.00  0.00    -0.373 OA
HETATM    5  C7  UNL     1      39.912  39.699   7.566  1.00  0.00     0.176 C 
HETATM    6  C9  UNL     1      40.333  40.492   8.781  1.00  0.00     0.178 C 
HETATM    7  C10 UNL     1      41.259  41.608   8.240  1.00  0.00     0.162 C 
HETATM    8  C16 UNL     1      42.522  40.927   7.822  1.00  0.00     0.083 C 
HETATM    9  C17 UNL     1      43.553  40.813   8.897  1.00  0.00     0.174 C 
HETATM   10  C18 UNL     1      44.665  39.850   8.599  1.00  0.00     0.039 C 
ENDROOT
BRANCH   1  11
HETATM   11  N2  UNL     1      45.486  38.130   7.032  1.00  0.00    -0.353 N 
ATOM     12  H2  UNL     1      45.726  38.340   6.063  1.00  0.00     0.162 HD
BRANCH  11  13
HETATM   13  C3  UNL     1      46.293  37.223   7.759  1.00  0.00     0.192 C 
HETATM   14  S1  UNL     1      45.644  36.614   9.170  1.00  0.00    -0.039 SA
BRANCH  13  15
HETATM   15  N1  UNL     1      47.595  36.804   7.378  1.00  0.00    -0.241 N 
ATOM     16  H1  UNL     1      47.739  36.160   6.601  1.00  0.00     0.197 HD
BRANCH  15  17
HETATM   17  O1  UNL     1      48.647  37.299   8.097  1.00  0.00    -0.279 OA
BRANCH  17  18
HETATM   18  C2  UNL     1      49.458  36.263   8.552  1.00  0.00     0.197 C 
HETATM   19  C1  UNL     1      49.415  36.273  10.064  1.00  0.00     0.036 C 
ENDBRANCH  17  18
ENDBRANCH  15  17
ENDBRANCH  13  15
ENDBRANCH  11  13
ENDBRANCH   1  11
BRANCH   2  20
HETATM   20  O2  UNL     1      43.109  38.046   5.735  1.00  0.00    -0.391 OA
ATOM     21  H2  UNL     1      43.852  37.865   5.172  1.00  0.00     0.210 HD
ENDBRANCH   2  20
BRANCH  10  22
HETATM   22  N3  UNL     1      45.899  40.506   8.438  1.00  0.00    -0.392 N 
HETATM   23  C19 UNL     1      46.272  41.170   7.289  1.00  0.00     0.148 C 
HETATM   24  C20 UNL     1      46.884  40.278   9.436  1.00  0.00     0.148 C 
ENDBRANCH  10  22
BRANCH   9  25
HETATM   25  O7  UNL     1      44.139  42.059   9.094  1.00  0.00    -0.389 OA
ATOM     26  H7  UNL     1      44.918  41.953   9.628  1.00  0.00     0.210 HD
ENDBRANCH   9  25
BRANCH   5  27
HETATM   27  C8  UNL     1      39.211  38.415   7.882  1.00  0.00     0.198 C 
BRANCH  27  28
HETATM   28  O4  UNL     1      38.065  38.548   8.634  1.00  0.00    -0.398 OA
ATOM     29  H4  UNL     1      37.687  37.731   8.938  1.00  0.00     0.209 HD
ENDBRANCH  27  28
ENDBRANCH   5  27
BRANCH   7  30
HETATM   30  O6  UNL     1      41.340  42.555   9.194  1.00  0.00    -0.377 OA
BRANCH  30  31
HETATM   31  C11 UNL     1      41.071  43.830   8.914  1.00  0.00     0.122 C 
HETATM   32  C12 UNL     1      41.804  44.731   9.923  1.00  0.00     0.032 C 
HETATM   33  C13 UNL     1      40.794  45.032  10.985  1.00  0.00     0.002 C 
HETATM   34  C14 UNL     1      39.453  44.503  10.525  1.00  0.00     0.002 C 
HETATM   35  C15 UNL     1      39.677  44.322   9.041  1.00  0.00     0.032 C 
ENDBRANCH  30  31
ENDBRANCH   7  30
BRANCH   6  36
HETATM   36  O5  UNL     1      39.170  41.054   9.301  1.00  0.00    -0.390 OA
ATOM     37  H5  UNL     1      39.450  41.698   9.942  1.00  0.00     0.210 HD
ENDBRANCH   6  36
TORSDOF 13
ENDMDL
