MODEL 1
REMARK VINA RESULT: -6.884397080      0.000      0.000
REMARK  14 active torsions:
REMARK  status: ('A' for Active; 'I' for Inactive)
REMARK    1  A    between atoms: C2_2  and  N1_3 
REMARK       I    between atoms: N1_3  and  C3_5 
REMARK    2  A    between atoms: C3_5  and  C4_7 
REMARK    3  A    between atoms: C5_9  and  N2_10 
REMARK    4  A    between atoms: N2_10  and  C6_12 
REMARK    5  A    between atoms: C8_15  and  O3_16 
REMARK    6  A    between atoms: O3_16  and  C9_17 
REMARK    7  A    between atoms: C9_17  and  C10_18 
REMARK    8  A    between atoms: C11_20  and  O5_21 
REMARK    9  A    between atoms: C13_23  and  N3_24 
REMARK   10  A    between atoms: N3_24  and  N4_26 
REMARK   11  A    between atoms: N4_26  and  N5_27 
REMARK   12  A    between atoms: C14_30  and  O6_31 
REMARK   13  A    between atoms: C15_33  and  O7_34 
REMARK   14  A    between atoms: C16_36  and  O8_37 
ROOT
HETATM    1  O3  UNL     1      42.536  41.055   7.321  1.00  0.00    -0.376 OA
ENDROOT
BRANCH   1   2
HETATM    2  C8  UNL     1      41.295  41.413   7.839  1.00  0.00     0.202 C 
HETATM    3  C5  UNL     1      40.320  40.283   7.863  1.00  0.00     0.254 C 
HETATM    4  O2  UNL     1      39.629  40.384   9.076  1.00  0.00    -0.347 OA
HETATM    5  C4  UNL     1      40.572  40.763  10.027  1.00  0.00     0.247 C 
HETATM    6  C16 UNL     1      41.488  41.722   9.314  1.00  0.00     0.189 C 
BRANCH   3   7
HETATM    7  N2  UNL     1      41.018  39.027   7.741  1.00  0.00    -0.356 N 
ATOM      8  H2  UNL     1      41.635  38.723   8.494  1.00  0.00     0.162 HD
BRANCH   7   9
HETATM    9  C6  UNL     1      40.866  38.210   6.598  1.00  0.00     0.071 C 
HETATM   10  C7  UNL     1      41.904  38.158   5.533  1.00  0.00     0.081 C 
HETATM   11  S1  UNL     1      39.532  37.307   6.438  1.00  0.00    -0.066 SA
ENDBRANCH   7   9
ENDBRANCH   3   7
BRANCH   5  12
HETATM   12  C3  UNL     1      39.902  41.379  11.192  1.00  0.00     0.249 C 
HETATM   13  N1  UNL     1      38.843  42.309  11.024  1.00  0.00    -0.359 N 
ATOM     14  H1  UNL     1      38.544  42.554  10.079  1.00  0.00     0.162 HD
HETATM   15  O1  UNL     1      40.251  41.094  12.362  1.00  0.00    -0.271 OA
BRANCH  13  16
HETATM   16  C2  UNL     1      38.175  42.920  12.156  1.00  0.00     0.118 C 
HETATM   17  C1  UNL     1      37.745  44.329  11.793  1.00  0.00     0.026 C 
ENDBRANCH  13  16
ENDBRANCH   5  12
BRANCH   6  18
HETATM   18  O8  UNL     1      41.123  43.041   9.517  1.00  0.00    -0.390 OA
ATOM     19  H8  UNL     1      41.646  43.641   9.000  1.00  0.00     0.210 HD
ENDBRANCH   6  18
ENDBRANCH   1   2
BRANCH   1  20
HETATM   20  C9  UNL     1      43.516  41.391   8.285  1.00  0.00     0.203 C 
BRANCH  20  21
HETATM   21  C10 UNL     1      44.791  40.722   7.827  1.00  0.00     0.179 C 
HETATM   22  O4  UNL     1      44.712  40.316   6.495  1.00  0.00    -0.349 OA
HETATM   23  C11 UNL     1      45.994  40.074   6.061  1.00  0.00     0.287 C 
HETATM   24  C13 UNL     1      46.684  39.021   6.872  1.00  0.00     0.200 C 
HETATM   25  C14 UNL     1      45.821  38.441   7.961  1.00  0.00     0.179 C 
HETATM   26  C15 UNL     1      44.980  39.470   8.662  1.00  0.00     0.180 C 
BRANCH  23  27
HETATM   27  O5  UNL     1      46.070  39.715   4.723  1.00  0.00    -0.364 OA
HETATM   28  C12 UNL     1      45.589  40.690   3.866  1.00  0.00     0.204 C 
ENDBRANCH  23  27
BRANCH  24  29
HETATM   29  N3  UNL     1      47.116  37.910   6.034  1.00  0.00    -0.240 N 
ATOM     30  H3  UNL     1      46.779  37.873   5.072  1.00  0.00     0.197 HD
BRANCH  29  31
HETATM   31  N4  UNL     1      47.858  37.023   6.418  1.00  0.00    -0.248 NA
BRANCH  31  32
HETATM   32  N5  UNL     1      48.450  36.000   6.742  1.00  0.00    -0.261 N 
ATOM     33  H52 UNL     1      49.313  36.425   6.402  1.00  0.00     0.193 HD
ATOM     34  H51 UNL     1      48.785  35.093   7.064  1.00  0.00     0.193 HD
ENDBRANCH  31  32
ENDBRANCH  29  31
ENDBRANCH  24  29
BRANCH  25  35
HETATM   35  O6  UNL     1      45.008  37.435   7.479  1.00  0.00    -0.391 OA
ATOM     36  H6  UNL     1      44.292  37.252   8.076  1.00  0.00     0.210 HD
ENDBRANCH  25  35
BRANCH  26  37
HETATM   37  O7  UNL     1      43.700  38.962   8.919  1.00  0.00    -0.390 OA
ATOM     38  H7  UNL     1      43.811  38.235   9.520  1.00  0.00     0.210 HD
ENDBRANCH  26  37
ENDBRANCH  20  21
ENDBRANCH   1  20
TORSDOF 14
ENDMDL
MODEL 2
REMARK VINA RESULT: -6.703752872      1.932      7.823
REMARK  14 active torsions:
REMARK  status: ('A' for Active; 'I' for Inactive)
REMARK    1  A    between atoms: C2_2  and  N1_3 
REMARK       I    between atoms: N1_3  and  C3_5 
REMARK    2  A    between atoms: C3_5  and  C4_7 
REMARK    3  A    between atoms: C5_9  and  N2_10 
REMARK    4  A    between atoms: N2_10  and  C6_12 
REMARK    5  A    between atoms: C8_15  and  O3_16 
REMARK    6  A    between atoms: O3_16  and  C9_17 
REMARK    7  A    between atoms: C9_17  and  C10_18 
REMARK    8  A    between atoms: C11_20  and  O5_21 
REMARK    9  A    between atoms: C13_23  and  N3_24 
REMARK   10  A    between atoms: N3_24  and  N4_26 
REMARK   11  A    between atoms: N4_26  and  N5_27 
REMARK   12  A    between atoms: C14_30  and  O6_31 
REMARK   13  A    between atoms: C15_33  and  O7_34 
REMARK   14  A    between atoms: C16_36  and  O8_37 
ROOT
HETATM    1  O3  UNL     1      42.734  41.466   8.133  1.00  0.00    -0.376 OA
ENDROOT
BRANCH   1   2
HETATM    2  C8  UNL     1      43.366  40.281   8.497  1.00  0.00     0.202 C 
HETATM    3  C5  UNL     1      42.599  39.062   8.106  1.00  0.00     0.254 C 
HETATM    4  O2  UNL     1      43.541  38.137   7.640  1.00  0.00    -0.347 OA
HETATM    5  C4  UNL     1      44.475  38.870   6.913  1.00  0.00     0.247 C 
HETATM    6  C16 UNL     1      44.631  40.165   7.665  1.00  0.00     0.189 C 
BRANCH   3   7
HETATM    7  N2  UNL     1      41.624  39.396   7.097  1.00  0.00    -0.356 N 
ATOM      8  H2  UNL     1      41.437  40.377   6.887  1.00  0.00     0.162 HD
BRANCH   7   9
HETATM    9  C6  UNL     1      40.921  38.392   6.394  1.00  0.00     0.071 C 
HETATM   10  C7  UNL     1      41.315  37.984   5.018  1.00  0.00     0.081 C 
HETATM   11  S1  UNL     1      39.657  37.665   7.096  1.00  0.00    -0.066 SA
ENDBRANCH   7   9
ENDBRANCH   3   7
BRANCH   5  12
HETATM   12  C3  UNL     1      45.744  38.118   6.809  1.00  0.00     0.249 C 
HETATM   13  N1  UNL     1      46.262  37.395   7.915  1.00  0.00    -0.359 N 
ATOM     14  H1  UNL     1      45.746  37.399   8.796  1.00  0.00     0.162 HD
HETATM   15  O1  UNL     1      46.395  38.097   5.739  1.00  0.00    -0.271 OA
BRANCH  13  16
HETATM   16  C2  UNL     1      47.504  36.652   7.829  1.00  0.00     0.118 C 
HETATM   17  C1  UNL     1      47.443  35.450   8.753  1.00  0.00     0.026 C 
ENDBRANCH  13  16
ENDBRANCH   5  12
BRANCH   6  18
HETATM   18  O8  UNL     1      45.705  40.136   8.536  1.00  0.00    -0.390 OA
ATOM     19  H8  UNL     1      45.960  41.006   8.818  1.00  0.00     0.210 HD
ENDBRANCH   6  18
ENDBRANCH   1   2
BRANCH   1  20
HETATM   20  C9  UNL     1      43.134  42.465   9.052  1.00  0.00     0.203 C 
BRANCH  20  21
HETATM   21  C10 UNL     1      41.912  42.771   9.888  1.00  0.00     0.179 C 
HETATM   22  O4  UNL     1      40.830  41.966   9.533  1.00  0.00    -0.349 OA
HETATM   23  C11 UNL     1      39.913  42.035  10.555  1.00  0.00     0.287 C 
HETATM   24  C13 UNL     1      39.443  43.435  10.810  1.00  0.00     0.200 C 
HETATM   25  C14 UNL     1      40.053  44.451   9.881  1.00  0.00     0.179 C 
HETATM   26  C15 UNL     1      41.510  44.206   9.609  1.00  0.00     0.180 C 
BRANCH  23  27
HETATM   27  O5  UNL     1      38.800  41.230  10.359  1.00  0.00    -0.364 OA
HETATM   28  C12 UNL     1      38.919  40.386   9.269  1.00  0.00     0.204 C 
ENDBRANCH  23  27
BRANCH  24  29
HETATM   29  N3  UNL     1      37.997  43.540  10.666  1.00  0.00    -0.240 N 
ATOM     30  H3  UNL     1      37.539  42.954   9.968  1.00  0.00     0.197 HD
BRANCH  29  31
HETATM   31  N4  UNL     1      37.304  44.288  11.333  1.00  0.00    -0.248 NA
BRANCH  31  32
HETATM   32  N5  UNL     1      36.643  44.904  12.160  1.00  0.00    -0.261 N 
ATOM     33  H52 UNL     1      36.668  44.076  12.755  1.00  0.00     0.193 HD
ATOM     34  H51 UNL     1      36.098  45.549  12.733  1.00  0.00     0.193 HD
ENDBRANCH  31  32
ENDBRANCH  29  31
ENDBRANCH  24  29
BRANCH  25  35
HETATM   35  O6  UNL     1      39.368  44.516   8.684  1.00  0.00    -0.391 OA
ATOM     36  H6  UNL     1      38.929  45.352   8.581  1.00  0.00     0.210 HD
ENDBRANCH  25  35
BRANCH  26  37
HETATM   37  O7  UNL     1      41.803  44.449   8.261  1.00  0.00    -0.390 OA
ATOM     38  H7  UNL     1      41.595  45.362   8.098  1.00  0.00     0.210 HD
ENDBRANCH  26  37
ENDBRANCH  20  21
ENDBRANCH   1  20
TORSDOF 14
ENDMDL
MODEL 3
REMARK VINA RESULT: -6.665084804      2.776      7.597
REMARK  14 active torsions:
REMARK  status: ('A' for Active; 'I' for Inactive)
REMARK    1  A    between atoms: C2_2  and  N1_3 
REMARK       I    between atoms: N1_3  and  C3_5 
REMARK    2  A    between atoms: C3_5  and  C4_7 
REMARK    3  A    between atoms: C5_9  and  N2_10 
REMARK    4  A    between atoms: N2_10  and  C6_12 
REMARK    5  A    between atoms: C8_15  and  O3_16 
REMARK    6  A    between atoms: O3_16  and  C9_17 
REMARK    7  A    between atoms: C9_17  and  C10_18 
REMARK    8  A    between atoms: C11_20  and  O5_21 
REMARK    9  A    between atoms: C13_23  and  N3_24 
REMARK   10  A    between atoms: N3_24  and  N4_26 
REMARK   11  A    between atoms: N4_26  and  N5_27 
REMARK   12  A    between atoms: C14_30  and  O6_31 
REMARK   13  A    between atoms: C15_33  and  O7_34 
REMARK   14  A    between atoms: C16_36  and  O8_37 
ROOT
HETATM    1  O3  UNL     1      43.736  42.027   9.230  1.00  0.00    -0.376 OA
ENDROOT
BRANCH   1   2
HETATM    2  C8  UNL     1      43.388  41.910   7.888  1.00  0.00     0.202 C 
HETATM    3  C5  UNL     1      44.544  41.570   7.008  1.00  0.00     0.254 C 
HETATM    4  O2  UNL     1      44.070  40.638   6.077  1.00  0.00    -0.347 OA
HETATM    5  C4  UNL     1      43.209  39.797   6.778  1.00  0.00     0.247 C 
HETATM    6  C16 UNL     1      42.492  40.692   7.753  1.00  0.00     0.189 C 
BRANCH   3   7
HETATM    7  N2  UNL     1      45.627  41.041   7.800  1.00  0.00    -0.356 N 
ATOM      8  H2  UNL     1      45.555  41.055   8.817  1.00  0.00     0.162 HD
BRANCH   7   9
HETATM    9  C6  UNL     1      46.786  40.506   7.195  1.00  0.00     0.071 C 
HETATM   10  C7  UNL     1      47.817  41.382   6.574  1.00  0.00     0.081 C 
HETATM   11  S1  UNL     1      47.003  38.902   7.173  1.00  0.00    -0.066 SA
ENDBRANCH   7   9
ENDBRANCH   3   7
BRANCH   5  12
HETATM   12  C3  UNL     1      42.285  39.120   5.843  1.00  0.00     0.249 C 
HETATM   13  N1  UNL     1      41.476  38.034   6.267  1.00  0.00    -0.359 N 
ATOM     14  H1  UNL     1      41.538  37.718   7.235  1.00  0.00     0.162 HD
HETATM   15  O1  UNL     1      42.191  39.489   4.649  1.00  0.00    -0.271 OA
BRANCH  13  16
HETATM   16  C2  UNL     1      40.565  37.361   5.362  1.00  0.00     0.118 C 
HETATM   17  C1  UNL     1      39.340  36.896   6.127  1.00  0.00     0.026 C 
ENDBRANCH  13  16
ENDBRANCH   5  12
BRANCH   6  18
HETATM   18  O8  UNL     1      41.270  41.121   7.265  1.00  0.00    -0.390 OA
ATOM     19  H8  UNL     1      40.541  40.722   7.724  1.00  0.00     0.210 HD
ENDBRANCH   6  18
ENDBRANCH   1   2
BRANCH   1  20
HETATM   20  C9  UNL     1      43.562  43.381   9.602  1.00  0.00     0.203 C 
BRANCH  20  21
HETATM   21  C10 UNL     1      42.300  43.421  10.433  1.00  0.00     0.179 C 
HETATM   22  O4  UNL     1      41.525  42.276  10.250  1.00  0.00    -0.349 OA
HETATM   23  C11 UNL     1      40.625  42.218  11.288  1.00  0.00     0.287 C 
HETATM   24  C13 UNL     1      39.740  43.425  11.348  1.00  0.00     0.200 C 
HETATM   25  C14 UNL     1      40.009  44.421  10.251  1.00  0.00     0.179 C 
HETATM   26  C15 UNL     1      41.472  44.599   9.957  1.00  0.00     0.180 C 
BRANCH  23  27
HETATM   27  O5  UNL     1      39.820  41.088  11.264  1.00  0.00    -0.364 OA
HETATM   28  C12 UNL     1      40.420  40.001  10.651  1.00  0.00     0.204 C 
ENDBRANCH  23  27
BRANCH  24  29
HETATM   29  N3  UNL     1      38.335  43.054  11.252  1.00  0.00    -0.240 N 
ATOM     30  H3  UNL     1      38.107  42.099  10.974  1.00  0.00     0.197 HD
BRANCH  29  31
HETATM   31  N4  UNL     1      37.416  43.820  11.484  1.00  0.00    -0.248 NA
BRANCH  31  32
HETATM   32  N5  UNL     1      36.644  44.724  11.779  1.00  0.00    -0.261 N 
ATOM     33  H52 UNL     1      36.098  44.490  10.950  1.00  0.00     0.193 HD
ATOM     34  H51 UNL     1      36.107  45.502  12.163  1.00  0.00     0.193 HD
ENDBRANCH  31  32
ENDBRANCH  29  31
ENDBRANCH  24  29
BRANCH  25  35
HETATM   35  O6  UNL     1      39.346  44.083   9.089  1.00  0.00    -0.391 OA
ATOM     36  H6  UNL     1      38.453  44.404   9.093  1.00  0.00     0.210 HD
ENDBRANCH  25  35
BRANCH  26  37
HETATM   37  O7  UNL     1      41.684  44.706   8.577  1.00  0.00    -0.390 OA
ATOM     38  H7  UNL     1      40.825  44.722   8.170  1.00  0.00     0.210 HD
ENDBRANCH  26  37
ENDBRANCH  20  21
ENDBRANCH   1  20
TORSDOF 14
ENDMDL
MODEL 4
REMARK VINA RESULT: -6.523528576      1.613      2.480
REMARK  14 active torsions:
REMARK  status: ('A' for Active; 'I' for Inactive)
REMARK    1  A    between atoms: C2_2  and  N1_3 
REMARK       I    between atoms: N1_3  and  C3_5 
REMARK    2  A    between atoms: C3_5  and  C4_7 
REMARK    3  A    between atoms: C5_9  and  N2_10 
REMARK    4  A    between atoms: N2_10  and  C6_12 
REMARK    5  A    between atoms: C8_15  and  O3_16 
REMARK    6  A    between atoms: O3_16  and  C9_17 
REMARK    7  A    between atoms: C9_17  and  C10_18 
REMARK    8  A    between atoms: C11_20  and  O5_21 
REMARK    9  A    between atoms: C13_23  and  N3_24 
REMARK   10  A    between atoms: N3_24  and  N4_26 
REMARK   11  A    between atoms: N4_26  and  N5_27 
REMARK   12  A    between atoms: C14_30  and  O6_31 
REMARK   13  A    between atoms: C15_33  and  O7_34 
REMARK   14  A    between atoms: C16_36  and  O8_37 
ROOT
HETATM    1  O3  UNL     1      43.736  41.727   7.963  1.00  0.00    -0.376 OA
ENDROOT
BRANCH   1   2
HETATM    2  C8  UNL     1      42.594  42.507   8.120  1.00  0.00     0.202 C 
HETATM    3  C5  UNL     1      41.333  41.710   8.114  1.00  0.00     0.254 C 
HETATM    4  O2  UNL     1      40.514  42.263   9.106  1.00  0.00    -0.347 OA
HETATM    5  C4  UNL     1      41.355  42.585  10.167  1.00  0.00     0.247 C 
HETATM    6  C16 UNL     1      42.624  43.081   9.526  1.00  0.00     0.189 C 
BRANCH   3   7
HETATM    7  N2  UNL     1      41.627  40.321   8.367  1.00  0.00    -0.356 N 
ATOM      8  H2  UNL     1      42.389  40.078   9.000  1.00  0.00     0.162 HD
BRANCH   7   9
HETATM    9  C6  UNL     1      40.880  39.289   7.757  1.00  0.00     0.071 C 
HETATM   10  C7  UNL     1      41.428  38.496   6.623  1.00  0.00     0.081 C 
HETATM   11  S1  UNL     1      39.391  38.957   8.298  1.00  0.00    -0.066 SA
ENDBRANCH   7   9
ENDBRANCH   3   7
BRANCH   5  12
HETATM   12  C3  UNL     1      40.720  43.604  11.030  1.00  0.00     0.249 C 
HETATM   13  N1  UNL     1      39.324  43.853  10.966  1.00  0.00    -0.359 N 
ATOM     14  H1  UNL     1      38.754  43.317  10.312  1.00  0.00     0.162 HD
HETATM   15  O1  UNL     1      41.398  44.275  11.842  1.00  0.00    -0.271 OA
BRANCH  13  16
HETATM   16  C2  UNL     1      38.686  44.847  11.807  1.00  0.00     0.118 C 
HETATM   17  C1  UNL     1      37.270  44.408  12.129  1.00  0.00     0.026 C 
ENDBRANCH  13  16
ENDBRANCH   5  12
BRANCH   6  18
HETATM   18  O8  UNL     1      42.649  44.460   9.416  1.00  0.00    -0.390 OA
ATOM     19  H8  UNL     1      43.315  44.759   8.809  1.00  0.00     0.210 HD
ENDBRANCH   6  18
ENDBRANCH   1   2
BRANCH   1  20
HETATM   20  C9  UNL     1      44.063  41.719   6.586  1.00  0.00     0.203 C 
BRANCH  20  21
HETATM   21  C10 UNL     1      44.736  40.389   6.330  1.00  0.00     0.179 C 
HETATM   22  O4  UNL     1      44.778  39.602   7.481  1.00  0.00    -0.349 OA
HETATM   23  C11 UNL     1      45.046  38.312   7.088  1.00  0.00     0.287 C 
HETATM   24  C13 UNL     1      46.343  38.197   6.347  1.00  0.00     0.200 C 
HETATM   25  C14 UNL     1      47.078  39.504   6.217  1.00  0.00     0.179 C 
HETATM   26  C15 UNL     1      46.171  40.669   5.930  1.00  0.00     0.180 C 
BRANCH  23  27
HETATM   27  O5  UNL     1      45.060  37.402   8.135  1.00  0.00    -0.364 OA
HETATM   28  C12 UNL     1      44.771  37.976   9.362  1.00  0.00     0.204 C 
ENDBRANCH  23  27
BRANCH  24  29
HETATM   29  N3  UNL     1      47.246  37.264   7.006  1.00  0.00    -0.240 N 
ATOM     30  H3  UNL     1      47.121  37.098   8.005  1.00  0.00     0.197 HD
BRANCH  29  31
HETATM   31  N4  UNL     1      48.143  36.671   6.433  1.00  0.00    -0.248 NA
BRANCH  31  32
HETATM   32  N5  UNL     1      48.890  35.954   5.779  1.00  0.00    -0.261 N 
ATOM     33  H52 UNL     1      49.371  36.794   5.458  1.00  0.00     0.193 HD
ATOM     34  H51 UNL     1      49.417  35.224   5.300  1.00  0.00     0.193 HD
ENDBRANCH  31  32
ENDBRANCH  29  31
ENDBRANCH  24  29
BRANCH  25  35
HETATM   35  O6  UNL     1      47.829  39.775   7.343  1.00  0.00    -0.391 OA
ATOM     36  H6  UNL     1      47.957  40.709   7.458  1.00  0.00     0.210 HD
ENDBRANCH  25  35
BRANCH  26  37
HETATM   37  O7  UNL     1      46.578  41.795   6.656  1.00  0.00    -0.390 OA
ATOM     38  H7  UNL     1      46.978  41.474   7.456  1.00  0.00     0.210 HD
ENDBRANCH  26  37
ENDBRANCH  20  21
ENDBRANCH   1  20
TORSDOF 14
ENDMDL
MODEL 5
REMARK VINA RESULT: -6.504766881      1.210      2.119
REMARK  14 active torsions:
REMARK  status: ('A' for Active; 'I' for Inactive)
REMARK    1  A    between atoms: C2_2  and  N1_3 
REMARK       I    between atoms: N1_3  and  C3_5 
REMARK    2  A    between atoms: C3_5  and  C4_7 
REMARK    3  A    between atoms: C5_9  and  N2_10 
REMARK    4  A    between atoms: N2_10  and  C6_12 
REMARK    5  A    between atoms: C8_15  and  O3_16 
REMARK    6  A    between atoms: O3_16  and  C9_17 
REMARK    7  A    between atoms: C9_17  and  C10_18 
REMARK    8  A    between atoms: C11_20  and  O5_21 
REMARK    9  A    between atoms: C13_23  and  N3_24 
REMARK   10  A    between atoms: N3_24  and  N4_26 
REMARK   11  A    between atoms: N4_26  and  N5_27 
REMARK   12  A    between atoms: C14_30  and  O6_31 
REMARK   13  A    between atoms: C15_33  and  O7_34 
REMARK   14  A    between atoms: C16_36  and  O8_37 
ROOT
HETATM    1  O3  UNL     1      43.393  41.242   8.235  1.00  0.00    -0.376 OA
ENDROOT
BRANCH   1   2
HETATM    2  C8  UNL     1      42.132  41.825   8.314  1.00  0.00     0.202 C 
HETATM    3  C5  UNL     1      41.036  40.915   7.869  1.00  0.00     0.254 C 
HETATM    4  O2  UNL     1      39.974  41.112   8.760  1.00  0.00    -0.347 OA
HETATM    5  C4  UNL     1      40.550  41.259  10.019  1.00  0.00     0.247 C 
HETATM    6  C16 UNL     1      41.817  42.037   9.784  1.00  0.00     0.189 C 
BRANCH   3   7
HETATM    7  N2  UNL     1      41.498  39.549   7.870  1.00  0.00    -0.356 N 
ATOM      8  H2  UNL     1      42.227  39.269   8.526  1.00  0.00     0.162 HD
BRANCH   7   9
HETATM    9  C6  UNL     1      40.961  38.591   6.981  1.00  0.00     0.071 C 
HETATM   10  C7  UNL     1      41.732  38.100   5.807  1.00  0.00     0.081 C 
HETATM   11  S1  UNL     1      39.472  38.011   7.240  1.00  0.00    -0.066 SA
ENDBRANCH   7   9
ENDBRANCH   3   7
BRANCH   5  12
HETATM   12  C3  UNL     1      39.616  41.957  10.929  1.00  0.00     0.249 C 
HETATM   13  N1  UNL     1      38.857  43.072  10.487  1.00  0.00    -0.359 N 
ATOM     14  H1  UNL     1      38.963  43.394   9.525  1.00  0.00     0.162 HD
HETATM   15  O1  UNL     1      39.469  41.580  12.114  1.00  0.00    -0.271 OA
BRANCH  13  16
HETATM   16  C2  UNL     1      37.937  43.766  11.366  1.00  0.00     0.118 C 
HETATM   17  C1  UNL     1      38.629  44.967  11.982  1.00  0.00     0.026 C 
ENDBRANCH  13  16
ENDBRANCH   5  12
BRANCH   6  18
HETATM   18  O8  UNL     1      41.640  43.395   9.984  1.00  0.00    -0.390 OA
ATOM     19  H8  UNL     1      42.011  43.687  10.808  1.00  0.00     0.210 HD
ENDBRANCH   6  18
ENDBRANCH   1   2
BRANCH   1  20
HETATM   20  C9  UNL     1      43.884  41.457   6.926  1.00  0.00     0.203 C 
BRANCH  20  21
HETATM   21  C10 UNL     1      44.653  40.207   6.563  1.00  0.00     0.179 C 
HETATM   22  O4  UNL     1      44.790  39.351   7.655  1.00  0.00    -0.349 OA
HETATM   23  C11 UNL     1      45.149  38.116   7.168  1.00  0.00     0.287 C 
HETATM   24  C13 UNL     1      46.428  38.156   6.390  1.00  0.00     0.200 C 
HETATM   25  C14 UNL     1      47.053  39.525   6.333  1.00  0.00     0.179 C 
HETATM   26  C15 UNL     1      46.049  40.628   6.149  1.00  0.00     0.180 C 
BRANCH  23  27
HETATM   27  O5  UNL     1      45.265  37.142   8.150  1.00  0.00    -0.364 OA
HETATM   28  C12 UNL     1      45.016  37.619   9.426  1.00  0.00     0.204 C 
ENDBRANCH  23  27
BRANCH  24  29
HETATM   29  N3  UNL     1      47.421  37.258   6.963  1.00  0.00    -0.240 N 
ATOM     30  H3  UNL     1      47.422  37.122   7.974  1.00  0.00     0.197 HD
BRANCH  29  31
HETATM   31  N4  UNL     1      48.252  36.659   6.302  1.00  0.00    -0.248 NA
BRANCH  31  32
HETATM   32  N5  UNL     1      48.950  35.897   5.645  1.00  0.00    -0.261 N 
ATOM     33  H52 UNL     1      48.429  36.179   4.815  1.00  0.00     0.193 HD
ATOM     34  H51 UNL     1      49.610  35.226   5.251  1.00  0.00     0.193 HD
ENDBRANCH  31  32
ENDBRANCH  29  31
ENDBRANCH  24  29
BRANCH  25  35
HETATM   35  O6  UNL     1      47.813  39.780   7.457  1.00  0.00    -0.391 OA
ATOM     36  H6  UNL     1      47.547  40.587   7.880  1.00  0.00     0.210 HD
ENDBRANCH  25  35
BRANCH  26  37
HETATM   37  O7  UNL     1      46.386  41.732   6.941  1.00  0.00    -0.390 OA
ATOM     38  H7  UNL     1      46.862  42.334   6.381  1.00  0.00     0.210 HD
ENDBRANCH  26  37
ENDBRANCH  20  21
ENDBRANCH   1  20
TORSDOF 14
ENDMDL
