MODEL 1
REMARK VINA RESULT: -7.795121601      0.000      0.000
REMARK  7 active torsions:
REMARK  status: ('A' for Active; 'I' for Inactive)
REMARK    1  A    between atoms: N1_1  and  C1_4 
REMARK    2  A    between atoms: C4_14  and  C5_15 
REMARK       I    between atoms: C5_15  and  N5_17 
REMARK    3  A    between atoms: N5_17  and  C6_19 
REMARK    4  A    between atoms: C6_19  and  C7_20 
REMARK    5  A    between atoms: C6_19  and  C8_25 
REMARK    6  A    between atoms: C7_20  and  N6_21 
REMARK    7  A    between atoms: N6_21  and  O3_23 
ROOT
HETATM    1  C1  UNL     1       9.090  19.152  -0.624  1.00  0.00     0.680 A 
HETATM    2  N2  UNL     1       9.170  17.934  -0.100  1.00  0.00    -0.154 N 
ATOM      3  H2  UNL     1       9.861  17.279  -0.465  1.00  0.00     0.187 HD
HETATM    4  C2  UNL     1       8.359  17.543   0.904  1.00  0.00     0.291 A 
HETATM    5  O1  UNL     1       8.411  16.406   1.417  1.00  0.00    -0.265 OA
HETATM    6  C3  UNL     1       7.413  18.424   1.412  1.00  0.00     0.162 A 
HETATM    7  N3  UNL     1       6.581  18.111   2.398  1.00  0.00    -0.291 N 
ATOM      8  H3  UNL     1       6.628  17.180   2.813  1.00  0.00     0.187 HD
HETATM    9  N4  UNL     1       5.694  18.973   2.854  1.00  0.00    -0.280 N 
ATOM     10  H4  UNL     1       5.071  18.695   3.613  1.00  0.00     0.188 HD
HETATM   11  C4  UNL     1       5.594  20.208   2.341  1.00  0.00     0.191 A 
HETATM   12  N7  UNL     1       6.423  20.550   1.345  1.00  0.00    -0.321 N 
ATOM     13  H7  UNL     1       6.362  21.485   0.942  1.00  0.00     0.169 HD
HETATM   14  C9  UNL     1       7.331  19.687   0.866  1.00  0.00     0.156 A 
HETATM   15  N8  UNL     1       8.172  20.024  -0.141  1.00  0.00    -0.174 N 
ATOM     16  H8  UNL     1       8.113  20.958  -0.546  1.00  0.00     0.186 HD
ENDROOT
BRANCH  11  17
HETATM   17  C5  UNL     1       4.618  21.172   2.837  1.00  0.00     0.288 C 
HETATM   18  O2  UNL     1       3.381  20.915   2.748  1.00  0.00    -0.264 OA
HETATM   19  N5  UNL     1       5.088  22.379   3.410  1.00  0.00    -0.335 N 
ATOM     20  H5  UNL     1       6.094  22.542   3.460  1.00  0.00     0.164 HD
BRANCH  19  21
HETATM   21  C6  UNL     1       4.187  23.395   3.930  1.00  0.00     0.226 C 
BRANCH  21  22
HETATM   22  C7  UNL     1       4.286  23.368   5.394  1.00  0.00     0.122 C 
BRANCH  22  23
HETATM   23  N6  UNL     1       5.324  22.887   5.977  1.00  0.00    -0.282 N 
ATOM     24  H6  UNL     1       6.112  23.491   6.212  1.00  0.00     0.193 HD
BRANCH  23  25
HETATM   25  O3  UNL     1       5.356  21.556   6.278  1.00  0.00    -0.290 OA
ATOM     26  H3  UNL     1       5.490  20.929   5.578  1.00  0.00     0.244 HD
ENDBRANCH  23  25
ENDBRANCH  22  23
ENDBRANCH  21  22
BRANCH  21  27
HETATM   27  C8  UNL     1       4.570  24.739   3.449  1.00  0.00     0.202 C 
HETATM   28  O4  UNL     1       5.646  25.288   3.769  1.00  0.00    -0.646 OA
HETATM   29  O5  UNL     1       3.699  25.409   2.612  1.00  0.00    -0.646 OA
ENDBRANCH  21  27
ENDBRANCH  19  21
ENDBRANCH  11  17
BRANCH   1  30
HETATM   30  N1  UNL     1       9.839  19.579  -1.583  1.00  0.00    -0.234 N 
ATOM     31  H12 UNL     1      10.441  18.888  -2.030  1.00  0.00     0.174 HD
ATOM     32  H11 UNL     1       9.858  20.546  -1.908  1.00  0.00     0.174 HD
ENDBRANCH   1  30
TORSDOF 7
ENDMDL
MODEL 2
REMARK VINA RESULT: -7.514347751      2.098      7.078
REMARK  7 active torsions:
REMARK  status: ('A' for Active; 'I' for Inactive)
REMARK    1  A    between atoms: N1_1  and  C1_4 
REMARK    2  A    between atoms: C4_14  and  C5_15 
REMARK       I    between atoms: C5_15  and  N5_17 
REMARK    3  A    between atoms: N5_17  and  C6_19 
REMARK    4  A    between atoms: C6_19  and  C7_20 
REMARK    5  A    between atoms: C6_19  and  C8_25 
REMARK    6  A    between atoms: C7_20  and  N6_21 
REMARK    7  A    between atoms: N6_21  and  O3_23 
ROOT
HETATM    1  C1  UNL     1       3.416  25.239   3.284  1.00  0.00     0.680 A 
HETATM    2  N2  UNL     1       3.363  25.024   4.594  1.00  0.00    -0.154 N 
ATOM      3  H2  UNL     1       3.046  25.773   5.209  1.00  0.00     0.187 HD
HETATM    4  C2  UNL     1       3.719  23.839   5.129  1.00  0.00     0.291 A 
HETATM    5  O1  UNL     1       3.680  23.606   6.355  1.00  0.00    -0.265 OA
HETATM    6  C3  UNL     1       4.153  22.809   4.303  1.00  0.00     0.162 A 
HETATM    7  N3  UNL     1       4.520  21.617   4.757  1.00  0.00    -0.291 N 
ATOM      8  H3  UNL     1       4.486  21.433   5.761  1.00  0.00     0.187 HD
HETATM    9  N4  UNL     1       4.928  20.663   3.944  1.00  0.00    -0.280 N 
ATOM     10  H4  UNL     1       5.202  19.760   4.330  1.00  0.00     0.188 HD
HETATM   11  C4  UNL     1       4.990  20.857   2.618  1.00  0.00     0.191 A 
HETATM   12  N7  UNL     1       4.625  22.053   2.134  1.00  0.00    -0.321 N 
ATOM     13  H7  UNL     1       4.665  22.218   1.128  1.00  0.00     0.169 HD
HETATM   14  C9  UNL     1       4.208  23.035   2.945  1.00  0.00     0.156 A 
HETATM   15  N8  UNL     1       3.837  24.246   2.464  1.00  0.00    -0.174 N 
ATOM     16  H8  UNL     1       3.877  24.415   1.459  1.00  0.00     0.186 HD
ENDROOT
BRANCH  11  17
HETATM   17  C5  UNL     1       5.440  19.810   1.707  1.00  0.00     0.288 C 
HETATM   18  O2  UNL     1       4.639  19.340   0.845  1.00  0.00    -0.264 OA
HETATM   19  N5  UNL     1       6.774  19.344   1.816  1.00  0.00    -0.335 N 
ATOM     20  H5  UNL     1       7.382  19.752   2.526  1.00  0.00     0.164 HD
BRANCH  19  21
HETATM   21  C6  UNL     1       7.306  18.304   0.950  1.00  0.00     0.226 C 
BRANCH  21  22
HETATM   22  C7  UNL     1       7.919  18.964  -0.209  1.00  0.00     0.122 C 
BRANCH  22  23
HETATM   23  N6  UNL     1       8.742  19.938  -0.056  1.00  0.00    -0.282 N 
ATOM     24  H6  UNL     1       9.743  19.797  -0.193  1.00  0.00     0.193 HD
BRANCH  23  25
HETATM   25  O3  UNL     1       8.256  21.165   0.293  1.00  0.00    -0.290 OA
ATOM     26  H3  UNL     1       8.869  21.854   0.523  1.00  0.00     0.244 HD
ENDBRANCH  23  25
ENDBRANCH  22  23
ENDBRANCH  21  22
BRANCH  21  27
HETATM   27  C8  UNL     1       8.337  17.509   1.650  1.00  0.00     0.202 C 
HETATM   28  O4  UNL     1       8.220  17.153   2.842  1.00  0.00    -0.646 OA
HETATM   29  O5  UNL     1       9.473  17.149   0.952  1.00  0.00    -0.646 OA
ENDBRANCH  21  27
ENDBRANCH  19  21
ENDBRANCH  11  17
BRANCH   1  30
HETATM   30  N1  UNL     1       3.088  26.351   2.718  1.00  0.00    -0.234 N 
ATOM     31  H12 UNL     1       2.090  26.561   2.675  1.00  0.00     0.174 HD
ATOM     32  H11 UNL     1       3.756  27.011   2.322  1.00  0.00     0.174 HD
ENDBRANCH   1  30
TORSDOF 7
ENDMDL
MODEL 3
REMARK VINA RESULT: -7.269483354      1.274      2.177
REMARK  7 active torsions:
REMARK  status: ('A' for Active; 'I' for Inactive)
REMARK    1  A    between atoms: N1_1  and  C1_4 
REMARK    2  A    between atoms: C4_14  and  C5_15 
REMARK       I    between atoms: C5_15  and  N5_17 
REMARK    3  A    between atoms: N5_17  and  C6_19 
REMARK    4  A    between atoms: C6_19  and  C7_20 
REMARK    5  A    between atoms: C6_19  and  C8_25 
REMARK    6  A    between atoms: C7_20  and  N6_21 
REMARK    7  A    between atoms: N6_21  and  O3_23 
ROOT
HETATM    1  C1  UNL     1       9.121  19.109  -0.540  1.00  0.00     0.680 A 
HETATM    2  N2  UNL     1       9.078  17.931   0.073  1.00  0.00    -0.154 N 
ATOM      3  H2  UNL     1       9.699  17.185  -0.239  1.00  0.00     0.187 HD
HETATM    4  C2  UNL     1       8.234  17.700   1.098  1.00  0.00     0.291 A 
HETATM    5  O1  UNL     1       8.171  16.605   1.695  1.00  0.00    -0.265 OA
HETATM    6  C3  UNL     1       7.382  18.708   1.534  1.00  0.00     0.162 A 
HETATM    7  N3  UNL     1       6.525  18.554   2.536  1.00  0.00    -0.291 N 
ATOM      8  H3  UNL     1       6.479  17.656   3.019  1.00  0.00     0.187 HD
HETATM    9  N4  UNL     1       5.730  19.533   2.922  1.00  0.00    -0.280 N 
ATOM     10  H4  UNL     1       5.084  19.376   3.696  1.00  0.00     0.188 HD
HETATM   11  C4  UNL     1       5.755  20.730   2.318  1.00  0.00     0.191 A 
HETATM   12  N7  UNL     1       6.612  20.911   1.303  1.00  0.00    -0.321 N 
ATOM     13  H7  UNL     1       6.646  21.815   0.832  1.00  0.00     0.169 HD
HETATM   14  C9  UNL     1       7.427  19.928   0.896  1.00  0.00     0.156 A 
HETATM   15  N8  UNL     1       8.297  20.102  -0.129  1.00  0.00    -0.174 N 
ATOM     16  H8  UNL     1       8.332  21.005  -0.602  1.00  0.00     0.186 HD
ENDROOT
BRANCH  11  17
HETATM   17  C5  UNL     1       4.881  21.821   2.735  1.00  0.00     0.288 C 
HETATM   18  O2  UNL     1       3.632  21.631   2.813  1.00  0.00    -0.264 OA
HETATM   19  N5  UNL     1       5.464  23.075   3.044  1.00  0.00    -0.335 N 
ATOM     20  H5  UNL     1       6.476  23.181   2.967  1.00  0.00     0.164 HD
BRANCH  19  21
HETATM   21  C6  UNL     1       4.671  24.217   3.469  1.00  0.00     0.226 C 
BRANCH  21  22
HETATM   22  C7  UNL     1       3.650  24.453   2.441  1.00  0.00     0.122 C 
BRANCH  22  23
HETATM   23  N6  UNL     1       3.436  25.632   1.980  1.00  0.00    -0.282 N 
ATOM     24  H6  UNL     1       3.735  25.882   1.038  1.00  0.00     0.193 HD
BRANCH  23  25
HETATM   25  O3  UNL     1       2.802  26.547   2.772  1.00  0.00    -0.290 OA
ATOM     26  H3  UNL     1       1.857  26.622   2.720  1.00  0.00     0.244 HD
ENDBRANCH  23  25
ENDBRANCH  22  23
ENDBRANCH  21  22
BRANCH  21  27
HETATM   27  C8  UNL     1       3.999  23.945   4.758  1.00  0.00     0.202 C 
HETATM   28  O4  UNL     1       4.582  23.402   5.720  1.00  0.00    -0.646 OA
HETATM   29  O5  UNL     1       2.674  24.309   4.896  1.00  0.00    -0.646 OA
ENDBRANCH  21  27
ENDBRANCH  19  21
ENDBRANCH  11  17
BRANCH   1  30
HETATM   30  N1  UNL     1       9.907  19.386  -1.524  1.00  0.00    -0.234 N 
ATOM     31  H12 UNL     1      10.906  19.273  -1.352  1.00  0.00     0.174 HD
ATOM     32  H11 UNL     1       9.590  19.704  -2.440  1.00  0.00     0.174 HD
ENDBRANCH   1  30
TORSDOF 7
ENDMDL
MODEL 4
REMARK VINA RESULT: -7.258303426      1.186      2.334
REMARK  7 active torsions:
REMARK  status: ('A' for Active; 'I' for Inactive)
REMARK    1  A    between atoms: N1_1  and  C1_4 
REMARK    2  A    between atoms: C4_14  and  C5_15 
REMARK       I    between atoms: C5_15  and  N5_17 
REMARK    3  A    between atoms: N5_17  and  C6_19 
REMARK    4  A    between atoms: C6_19  and  C7_20 
REMARK    5  A    between atoms: C6_19  and  C8_25 
REMARK    6  A    between atoms: C7_20  and  N6_21 
REMARK    7  A    between atoms: N6_21  and  O3_23 
ROOT
HETATM    1  C1  UNL     1       7.537  16.030   1.669  1.00  0.00     0.680 A 
HETATM    2  N2  UNL     1       8.508  16.512   0.903  1.00  0.00    -0.154 N 
ATOM      3  H2  UNL     1       9.207  15.872   0.525  1.00  0.00     0.187 HD
HETATM    4  C2  UNL     1       8.592  17.825   0.612  1.00  0.00     0.291 A 
HETATM    5  O1  UNL     1       9.493  18.308  -0.106  1.00  0.00    -0.265 OA
HETATM    6  C3  UNL     1       7.647  18.708   1.120  1.00  0.00     0.162 A 
HETATM    7  N3  UNL     1       7.664  20.013   0.877  1.00  0.00    -0.291 N 
ATOM      8  H3  UNL     1       8.403  20.401   0.290  1.00  0.00     0.187 HD
HETATM    9  N4  UNL     1       6.751  20.821   1.378  1.00  0.00    -0.280 N 
ATOM     10  H4  UNL     1       6.798  21.819   1.169  1.00  0.00     0.188 HD
HETATM   11  C4  UNL     1       5.760  20.358   2.155  1.00  0.00     0.191 A 
HETATM   12  N7  UNL     1       5.720  19.043   2.414  1.00  0.00    -0.321 N 
ATOM     13  H7  UNL     1       4.974  18.673   3.003  1.00  0.00     0.169 HD
HETATM   14  C9  UNL     1       6.640  18.206   1.916  1.00  0.00     0.156 A 
HETATM   15  N8  UNL     1       6.607  16.876   2.173  1.00  0.00    -0.174 N 
ATOM     16  H8  UNL     1       5.862  16.503   2.762  1.00  0.00     0.186 HD
ENDROOT
BRANCH  11  17
HETATM   17  C5  UNL     1       4.743  21.242   2.714  1.00  0.00     0.288 C 
HETATM   18  O2  UNL     1       3.526  20.891   2.694  1.00  0.00    -0.264 OA
HETATM   19  N5  UNL     1       5.152  22.480   3.268  1.00  0.00    -0.335 N 
ATOM     20  H5  UNL     1       6.143  22.720   3.261  1.00  0.00     0.164 HD
BRANCH  19  21
HETATM   21  C6  UNL     1       4.207  23.421   3.846  1.00  0.00     0.226 C 
BRANCH  21  22
HETATM   22  C7  UNL     1       4.313  23.314   5.306  1.00  0.00     0.122 C 
BRANCH  22  23
HETATM   23  N6  UNL     1       5.376  22.855   5.860  1.00  0.00    -0.282 N 
ATOM     24  H6  UNL     1       6.162  23.472   6.062  1.00  0.00     0.193 HD
BRANCH  23  25
HETATM   25  O3  UNL     1       5.438  21.528   6.173  1.00  0.00    -0.290 OA
ATOM     26  H3  UNL     1       5.506  20.892   5.471  1.00  0.00     0.244 HD
ENDBRANCH  23  25
ENDBRANCH  22  23
ENDBRANCH  21  22
BRANCH  21  27
HETATM   27  C8  UNL     1       4.526  24.808   3.443  1.00  0.00     0.202 C 
HETATM   28  O4  UNL     1       3.735  25.517   2.785  1.00  0.00    -0.646 OA
HETATM   29  O5  UNL     1       5.749  25.333   3.811  1.00  0.00    -0.646 OA
ENDBRANCH  21  27
ENDBRANCH  19  21
ENDBRANCH  11  17
BRANCH   1  30
HETATM   30  N1  UNL     1       7.407  14.784   1.979  1.00  0.00    -0.234 N 
ATOM     31  H12 UNL     1       7.776  14.109   1.310  1.00  0.00     0.174 HD
ATOM     32  H11 UNL     1       6.967  14.449   2.836  1.00  0.00     0.174 HD
ENDBRANCH   1  30
TORSDOF 7
ENDMDL
MODEL 5
REMARK VINA RESULT: -7.180735051      1.218      1.429
REMARK  7 active torsions:
REMARK  status: ('A' for Active; 'I' for Inactive)
REMARK    1  A    between atoms: N1_1  and  C1_4 
REMARK    2  A    between atoms: C4_14  and  C5_15 
REMARK       I    between atoms: C5_15  and  N5_17 
REMARK    3  A    between atoms: N5_17  and  C6_19 
REMARK    4  A    between atoms: C6_19  and  C7_20 
REMARK    5  A    between atoms: C6_19  and  C8_25 
REMARK    6  A    between atoms: C7_20  and  N6_21 
REMARK    7  A    between atoms: N6_21  and  O3_23 
ROOT
HETATM    1  C1  UNL     1       9.064  18.873  -0.382  1.00  0.00     0.680 A 
HETATM    2  N2  UNL     1       9.154  17.640   0.105  1.00  0.00    -0.154 N 
ATOM      3  H2  UNL     1       9.872  17.013  -0.256  1.00  0.00     0.187 HD
HETATM    4  C2  UNL     1       8.316  17.199   1.064  1.00  0.00     0.291 A 
HETATM    5  O1  UNL     1       8.376  16.046   1.542  1.00  0.00    -0.265 OA
HETATM    6  C3  UNL     1       7.332  18.041   1.566  1.00  0.00     0.162 A 
HETATM    7  N3  UNL     1       6.472  17.677   2.510  1.00  0.00    -0.291 N 
ATOM      8  H3  UNL     1       6.527  16.734   2.895  1.00  0.00     0.187 HD
HETATM    9  N4  UNL     1       5.550  18.504   2.960  1.00  0.00    -0.280 N 
ATOM     10  H4  UNL     1       4.907  18.187   3.687  1.00  0.00     0.188 HD
HETATM   11  C4  UNL     1       5.440  19.753   2.484  1.00  0.00     0.191 A 
HETATM   12  N7  UNL     1       6.297  20.146   1.531  1.00  0.00    -0.321 N 
ATOM     13  H7  UNL     1       6.229  21.092   1.157  1.00  0.00     0.169 HD
HETATM   14  C9  UNL     1       7.241  19.319   1.059  1.00  0.00     0.156 A 
HETATM   15  N8  UNL     1       8.110  19.708   0.095  1.00  0.00    -0.174 N 
ATOM     16  H8  UNL     1       8.044  20.653  -0.282  1.00  0.00     0.186 HD
ENDROOT
BRANCH  11  17
HETATM   17  C5  UNL     1       4.424  20.678   2.975  1.00  0.00     0.288 C 
HETATM   18  O2  UNL     1       3.198  20.408   2.812  1.00  0.00    -0.264 OA
HETATM   19  N5  UNL     1       4.846  21.864   3.626  1.00  0.00    -0.335 N 
ATOM     20  H5  UNL     1       5.845  22.038   3.733  1.00  0.00     0.164 HD
BRANCH  19  21
HETATM   21  C6  UNL     1       3.903  22.840   4.146  1.00  0.00     0.226 C 
BRANCH  21  22
HETATM   22  C7  UNL     1       4.633  23.709   5.077  1.00  0.00     0.122 C 
BRANCH  22  23
HETATM   23  N6  UNL     1       5.251  24.754   4.659  1.00  0.00    -0.282 N 
ATOM     24  H6  UNL     1       5.020  25.675   5.031  1.00  0.00     0.193 HD
BRANCH  23  25
HETATM   25  O3  UNL     1       6.221  24.614   3.708  1.00  0.00    -0.290 OA
ATOM     26  H3  UNL     1       6.379  25.329   3.104  1.00  0.00     0.244 HD
ENDBRANCH  23  25
ENDBRANCH  22  23
ENDBRANCH  21  22
BRANCH  21  27
HETATM   27  C8  UNL     1       3.343  23.669   3.057  1.00  0.00     0.202 C 
HETATM   28  O4  UNL     1       2.243  24.254   3.153  1.00  0.00    -0.646 OA
HETATM   29  O5  UNL     1       4.071  23.797   1.890  1.00  0.00    -0.646 OA
ENDBRANCH  21  27
ENDBRANCH  19  21
ENDBRANCH  11  17
BRANCH   1  30
HETATM   30  N1  UNL     1       9.838  19.349  -1.299  1.00  0.00    -0.234 N 
ATOM     31  H12 UNL     1       9.385  19.652  -2.161  1.00  0.00     0.174 HD
ATOM     32  H11 UNL     1      10.850  19.434  -1.207  1.00  0.00     0.174 HD
ENDBRANCH   1  30
TORSDOF 7
ENDMDL
