MODEL 1
REMARK VINA RESULT: -8.344613142      0.000      0.000
REMARK  11 active torsions:
REMARK  status: ('A' for Active; 'I' for Inactive)
REMARK    1  A    between atoms: C4_4  and  C5_5 
REMARK    2  A    between atoms: C6_16  and  N6_17 
REMARK    3  A    between atoms: C7_23  and  C8_24 
REMARK       I    between atoms: C8_24  and  N8_26 
REMARK    4  A    between atoms: N8_26  and  C9_28 
REMARK    5  A    between atoms: C9_28  and  C10_29 
REMARK       I    between atoms: C10_29  and  N9_31 
REMARK    6  A    between atoms: N9_31  and  C11_33 
REMARK    7  A    between atoms: C14_36  and  N10_37 
REMARK    8  A    between atoms: N11_42  and  C16_43 
REMARK    9  A    between atoms: C16_43  and  C17_44 
REMARK   10  A    between atoms: C17_44  and  N13_48 
REMARK   11  A    between atoms: N13_48  and  N14_50 
ROOT
HETATM    1  C8  UNL     1       5.545 -31.376  -7.549  1.00  0.00     0.241 C 
HETATM    2  O1  UNL     1       5.799 -32.539  -7.101  1.00  0.00    -0.271 OA
HETATM    3  N8  UNL     1       6.270 -30.918  -8.646  1.00  0.00    -0.351 N 
ATOM      4  H8  UNL     1       6.065 -29.984  -9.002  1.00  0.00     0.163 HD
ENDROOT
BRANCH   3   5
HETATM    5  C9  UNL     1       7.281 -31.677  -9.299  1.00  0.00     0.225 C 
BRANCH   5   6
HETATM    6  C10 UNL     1       7.011 -31.873 -10.736  1.00  0.00     0.236 C 
HETATM    7  O2  UNL     1       7.130 -33.018 -11.237  1.00  0.00    -0.272 OA
HETATM    8  N9  UNL     1       6.618 -30.775 -11.561  1.00  0.00    -0.338 N 
ATOM      9  H9  UNL     1       6.518 -29.838 -11.171  1.00  0.00     0.164 HD
BRANCH   8  10
HETATM   10  C11 UNL     1       6.368 -31.023 -12.955  1.00  0.00     0.186 C 
HETATM   11  C12 UNL     1       7.006 -29.875 -13.735  1.00  0.00     0.049 C 
HETATM   12  C13 UNL     1       6.433 -29.799 -15.131  1.00  0.00     0.038 C 
HETATM   13  C14 UNL     1       5.941 -31.174 -15.501  1.00  0.00     0.201 C 
HETATM   14  C15 UNL     1       4.752 -31.519 -14.640  1.00  0.00     0.157 C 
HETATM   15  N11 UNL     1       5.006 -31.074 -13.273  1.00  0.00    -0.363 N 
BRANCH  13  16
HETATM   16  N10 UNL     1       5.640 -31.282 -16.915  1.00  0.00    -0.073 N 
ATOM     17 3H10 UNL     1       5.523 -30.363 -17.340  1.00  0.00     0.274 HD
ATOM     18 2H10 UNL     1       6.453 -31.602 -17.443  1.00  0.00     0.274 HD
ATOM     19 1H10 UNL     1       4.830 -31.877 -17.090  1.00  0.00     0.274 HD
ENDBRANCH  13  16
BRANCH  15  20
HETATM   20  C16 UNL     1       4.058 -30.202 -12.759  1.00  0.00     0.137 C 
BRANCH  20  21
HETATM   21  C17 UNL     1       3.148 -30.627 -11.707  1.00  0.00     0.129 C 
HETATM   22  N12 UNL     1       2.524 -31.749 -11.795  1.00  0.00    -0.383 N 
ATOM     23 2H12 UNL     1       2.668 -32.312 -12.633  1.00  0.00     0.157 HD
ATOM     24 1H12 UNL     1       1.887 -32.048 -11.057  1.00  0.00     0.157 HD
BRANCH  21  25
HETATM   25  N13 UNL     1       2.948 -29.843 -10.538  1.00  0.00    -0.283 N 
ATOM     26  H13 UNL     1       3.738 -29.629  -9.930  1.00  0.00     0.188 HD
BRANCH  25  27
HETATM   27  N14 UNL     1       1.673 -29.363 -10.216  1.00  0.00    -0.274 N 
HETATM   28  C18 UNL     1       1.357 -28.702  -9.180  1.00  0.00     0.215 C 
HETATM   29  N15 UNL     1      -0.017 -28.317  -9.066  1.00  0.00    -0.065 NA
HETATM   30  N16 UNL     1       2.208 -28.307  -8.129  1.00  0.00    -0.065 NA
ATOM     31  H14 UNL     1       0.924 -29.563 -10.879  1.00  0.00     0.189 HD
ENDBRANCH  25  27
ENDBRANCH  21  25
ENDBRANCH  20  21
ENDBRANCH  15  20
ENDBRANCH   8  10
ENDBRANCH   5   6
ENDBRANCH   3   5
BRANCH   1  32
HETATM   32  C7  UNL     1       4.470 -30.603  -6.841  1.00  0.00     0.186 C 
HETATM   33  C2  UNL     1       4.891 -29.979  -5.575  1.00  0.00     0.027 C 
HETATM   34  C1  UNL     1       6.196 -30.624  -5.043  1.00  0.00     0.024 C 
HETATM   35  C3  UNL     1       5.220 -28.489  -5.778  1.00  0.00     0.024 C 
HETATM   36  C4  UNL     1       3.944 -30.138  -4.469  1.00  0.00     0.066 C 
HETATM   37  N5  UNL     1       3.054 -31.059  -4.471  1.00  0.00    -0.347 N 
HETATM   38  C6  UNL     1       2.961 -31.990  -5.597  1.00  0.00     0.383 C 
ATOM     39  H5  UNL     1       2.409 -31.144  -3.687  1.00  0.00     0.163 HD
HETATM   40  N7  UNL     1       3.255 -31.311  -6.803  1.00  0.00    -0.366 N 
ATOM     41  H7  UNL     1       2.621 -31.334  -7.602  1.00  0.00     0.157 HD
BRANCH  36  42
HETATM   42  C5  UNL     1       4.031 -29.217  -3.313  1.00  0.00     0.160 A 
HETATM   43  N1  UNL     1       3.265 -28.130  -3.118  1.00  0.00    -0.267 N 
HETATM   44  N2  UNL     1       3.633 -27.568  -1.958  1.00  0.00    -0.227 N 
ATOM     45  H1  UNL     1       2.533 -27.793  -3.742  1.00  0.00     0.190 HD
HETATM   46  N3  UNL     1       4.601 -28.269  -1.426  1.00  0.00    -0.227 N 
ATOM     47  H2  UNL     1       3.223 -26.726  -1.554  1.00  0.00     0.210 HD
HETATM   48  N4  UNL     1       4.839 -29.274  -2.259  1.00  0.00    -0.267 N 
ATOM     49  H3  UNL     1       5.079 -28.080  -0.545  1.00  0.00     0.210 HD
ATOM     50  H4  UNL     1       5.546 -29.994  -2.110  1.00  0.00     0.190 HD
ENDBRANCH  36  42
BRANCH  38  51
HETATM   51  N6  UNL     1       3.765 -33.168  -5.348  1.00  0.00    -0.041 N 
ATOM     52  H63 UNL     1       3.191 -33.973  -5.097  1.00  0.00     0.278 HD
ATOM     53  H62 UNL     1       4.174 -33.536  -6.207  1.00  0.00     0.278 HD
ATOM     54  H61 UNL     1       4.474 -32.974  -4.643  1.00  0.00     0.278 HD
ENDBRANCH  38  51
ENDBRANCH   1  32
TORSDOF 11
ENDMDL
MODEL 2
REMARK VINA RESULT: -7.604347721      4.327     10.235
REMARK  11 active torsions:
REMARK  status: ('A' for Active; 'I' for Inactive)
REMARK    1  A    between atoms: C4_4  and  C5_5 
REMARK    2  A    between atoms: C6_16  and  N6_17 
REMARK    3  A    between atoms: C7_23  and  C8_24 
REMARK       I    between atoms: C8_24  and  N8_26 
REMARK    4  A    between atoms: N8_26  and  C9_28 
REMARK    5  A    between atoms: C9_28  and  C10_29 
REMARK       I    between atoms: C10_29  and  N9_31 
REMARK    6  A    between atoms: N9_31  and  C11_33 
REMARK    7  A    between atoms: C14_36  and  N10_37 
REMARK    8  A    between atoms: N11_42  and  C16_43 
REMARK    9  A    between atoms: C16_43  and  C17_44 
REMARK   10  A    between atoms: C17_44  and  N13_48 
REMARK   11  A    between atoms: N13_48  and  N14_50 
ROOT
HETATM    1  C8  UNL     1       7.016 -30.808  -4.626  1.00  0.00     0.241 C 
HETATM    2  O1  UNL     1       7.959 -30.614  -5.458  1.00  0.00    -0.271 OA
HETATM    3  N8  UNL     1       7.261 -30.552  -3.279  1.00  0.00    -0.351 N 
ATOM      4  H8  UNL     1       6.504 -30.711  -2.615  1.00  0.00     0.163 HD
ENDROOT
BRANCH   3   5
HETATM    5  C9  UNL     1       8.507 -30.084  -2.777  1.00  0.00     0.225 C 
BRANCH   5   6
HETATM    6  C10 UNL     1       8.455 -28.674  -2.342  1.00  0.00     0.236 C 
HETATM    7  O2  UNL     1       7.531 -27.934  -2.757  1.00  0.00    -0.272 OA
HETATM    8  N9  UNL     1       9.445 -28.146  -1.458  1.00  0.00    -0.338 N 
ATOM      9  H9  UNL     1      10.204 -28.734  -1.112  1.00  0.00     0.164 HD
BRANCH   8  10
HETATM   10  C11 UNL     1       9.346 -26.767  -1.068  1.00  0.00     0.186 C 
HETATM   11  C12 UNL     1      10.756 -26.182  -1.130  1.00  0.00     0.049 C 
HETATM   12  C13 UNL     1      10.836 -24.902  -0.331  1.00  0.00     0.038 C 
HETATM   13  C14 UNL     1       9.453 -24.306  -0.280  1.00  0.00     0.201 C 
HETATM   14  C15 UNL     1       8.564 -25.197   0.551  1.00  0.00     0.157 C 
HETATM   15  N11 UNL     1       8.849 -26.591   0.229  1.00  0.00    -0.363 N 
BRANCH  13  16
HETATM   16  N10 UNL     1       9.467 -22.940   0.209  1.00  0.00    -0.073 N 
ATOM     17 3H10 UNL     1       9.626 -22.910   1.216  1.00  0.00     0.274 HD
ATOM     18 2H10 UNL     1      10.302 -22.444  -0.101  1.00  0.00     0.274 HD
ATOM     19 1H10 UNL     1       8.620 -22.433  -0.047  1.00  0.00     0.274 HD
ENDBRANCH  13  16
BRANCH  15  20
HETATM   20  C16 UNL     1       9.219 -27.375   1.312  1.00  0.00     0.137 C 
BRANCH  20  21
HETATM   21  C17 UNL     1       8.223 -28.123   2.064  1.00  0.00     0.129 C 
HETATM   22  N12 UNL     1       8.509 -28.619   3.216  1.00  0.00    -0.383 N 
ATOM     23 2H12 UNL     1       9.458 -28.493   3.569  1.00  0.00     0.157 HD
ATOM     24 1H12 UNL     1       7.811 -29.144   3.743  1.00  0.00     0.157 HD
BRANCH  21  25
HETATM   25  N13 UNL     1       6.900 -28.299   1.572  1.00  0.00    -0.283 N 
ATOM     26  H13 UNL     1       6.173 -27.629   1.825  1.00  0.00     0.188 HD
BRANCH  25  27
HETATM   27  N14 UNL     1       6.589 -29.383   0.744  1.00  0.00    -0.274 N 
HETATM   28  C18 UNL     1       5.662 -29.429  -0.120  1.00  0.00     0.215 C 
HETATM   29  N15 UNL     1       5.534 -30.653  -0.852  1.00  0.00    -0.065 NA
HETATM   30  N16 UNL     1       4.744 -28.408  -0.439  1.00  0.00    -0.065 NA
ATOM     31  H14 UNL     1       7.164 -30.220   0.846  1.00  0.00     0.189 HD
ENDBRANCH  25  27
ENDBRANCH  21  25
ENDBRANCH  20  21
ENDBRANCH  15  20
ENDBRANCH   8  10
ENDBRANCH   5   6
ENDBRANCH   3   5
BRANCH   1  32
HETATM   32  C7  UNL     1       5.713 -31.298  -5.189  1.00  0.00     0.186 C 
HETATM   33  C2  UNL     1       5.228 -30.552  -6.362  1.00  0.00     0.027 C 
HETATM   34  C1  UNL     1       5.928 -29.174  -6.474  1.00  0.00     0.024 C 
HETATM   35  C3  UNL     1       5.570 -31.295  -7.667  1.00  0.00     0.024 C 
HETATM   36  C4  UNL     1       3.802 -30.222  -6.332  1.00  0.00     0.066 C 
HETATM   37  N5  UNL     1       3.138 -30.208  -5.237  1.00  0.00    -0.347 N 
HETATM   38  C6  UNL     1       3.798 -30.527  -3.970  1.00  0.00     0.383 C 
ATOM     39  H5  UNL     1       2.145 -29.974  -5.248  1.00  0.00     0.163 HD
HETATM   40  N7  UNL     1       4.765 -31.539  -4.179  1.00  0.00    -0.366 N 
ATOM     41  H7  UNL     1       4.774 -32.397  -3.626  1.00  0.00     0.157 HD
BRANCH  36  42
HETATM   42  C5  UNL     1       3.118 -29.879  -7.599  1.00  0.00     0.160 A 
HETATM   43  N1  UNL     1       2.934 -28.637  -8.079  1.00  0.00    -0.267 N 
HETATM   44  N2  UNL     1       2.291 -28.737  -9.250  1.00  0.00    -0.227 N 
ATOM     45  H1  UNL     1       3.232 -27.771  -7.630  1.00  0.00     0.190 HD
HETATM   46  N3  UNL     1       2.070 -29.998  -9.515  1.00  0.00    -0.227 N 
ATOM     47  H2  UNL     1       2.017 -27.953  -9.842  1.00  0.00     0.210 HD
HETATM   48  N4  UNL     1       2.578 -30.690  -8.503  1.00  0.00    -0.267 N 
ATOM     49  H3  UNL     1       1.600 -30.376 -10.338  1.00  0.00     0.210 HD
ATOM     50  H4  UNL     1       2.556 -31.707  -8.428  1.00  0.00     0.190 HD
ENDBRANCH  36  42
BRANCH  38  51
HETATM   51  N6  UNL     1       4.300 -29.324  -3.343  1.00  0.00    -0.041 N 
ATOM     52  H63 UNL     1       5.260 -29.122  -3.623  1.00  0.00     0.278 HD
ATOM     53  H62 UNL     1       3.854 -28.486  -3.717  1.00  0.00     0.278 HD
ATOM     54  H61 UNL     1       4.205 -29.383  -2.330  1.00  0.00     0.278 HD
ENDBRANCH  38  51
ENDBRANCH   1  32
TORSDOF 11
ENDMDL
MODEL 3
REMARK VINA RESULT: -7.561635380      2.815      4.511
REMARK  11 active torsions:
REMARK  status: ('A' for Active; 'I' for Inactive)
REMARK    1  A    between atoms: C4_4  and  C5_5 
REMARK    2  A    between atoms: C6_16  and  N6_17 
REMARK    3  A    between atoms: C7_23  and  C8_24 
REMARK       I    between atoms: C8_24  and  N8_26 
REMARK    4  A    between atoms: N8_26  and  C9_28 
REMARK    5  A    between atoms: C9_28  and  C10_29 
REMARK       I    between atoms: C10_29  and  N9_31 
REMARK    6  A    between atoms: N9_31  and  C11_33 
REMARK    7  A    between atoms: C14_36  and  N10_37 
REMARK    8  A    between atoms: N11_42  and  C16_43 
REMARK    9  A    between atoms: C16_43  and  C17_44 
REMARK   10  A    between atoms: C17_44  and  N13_48 
REMARK   11  A    between atoms: N13_48  and  N14_50 
ROOT
HETATM    1  C8  UNL     1       3.702 -30.292  -7.177  1.00  0.00     0.241 C 
HETATM    2  O1  UNL     1       2.455 -30.177  -6.954  1.00  0.00    -0.271 OA
HETATM    3  N8  UNL     1       4.107 -30.823  -8.399  1.00  0.00    -0.351 N 
ATOM      4  H8  UNL     1       5.108 -30.915  -8.574  1.00  0.00     0.163 HD
ENDROOT
BRANCH   3   5
HETATM    5  C9  UNL     1       3.207 -31.244  -9.416  1.00  0.00     0.225 C 
BRANCH   5   6
HETATM    6  C10 UNL     1       3.459 -30.583 -10.712  1.00  0.00     0.236 C 
HETATM    7  O2  UNL     1       3.100 -29.393 -10.879  1.00  0.00    -0.272 OA
HETATM    8  N9  UNL     1       4.104 -31.286 -11.776  1.00  0.00    -0.338 N 
ATOM      9  H9  UNL     1       4.401 -32.255 -11.657  1.00  0.00     0.164 HD
BRANCH   8  10
HETATM   10  C11 UNL     1       4.323 -30.595 -13.017  1.00  0.00     0.186 C 
HETATM   11  C12 UNL     1       4.292 -31.646 -14.125  1.00  0.00     0.049 C 
HETATM   12  C13 UNL     1       4.941 -31.112 -15.381  1.00  0.00     0.038 C 
HETATM   13  C14 UNL     1       4.826 -29.610 -15.354  1.00  0.00     0.201 C 
HETATM   14  C15 UNL     1       5.690 -29.070 -14.243  1.00  0.00     0.157 C 
HETATM   15  N11 UNL     1       5.553 -29.929 -13.070  1.00  0.00    -0.363 N 
BRANCH  13  16
HETATM   16  N10 UNL     1       5.152 -29.015 -16.636  1.00  0.00    -0.073 N 
ATOM     17 3H10 UNL     1       4.745 -29.547 -17.405  1.00  0.00     0.274 HD
ATOM     18 2H10 UNL     1       4.658 -28.133 -16.771  1.00  0.00     0.274 HD
ATOM     19 1H10 UNL     1       6.158 -28.897 -16.759  1.00  0.00     0.274 HD
ENDBRANCH  13  16
BRANCH  15  20
HETATM   20  C16 UNL     1       6.743 -30.461 -12.596  1.00  0.00     0.137 C 
BRANCH  20  21
HETATM   21  C17 UNL     1       8.001 -29.755 -12.785  1.00  0.00     0.129 C 
HETATM   22  N12 UNL     1       8.785 -30.064 -13.757  1.00  0.00    -0.383 N 
ATOM     23 2H12 UNL     1       8.509 -30.832 -14.369  1.00  0.00     0.157 HD
ATOM     24 1H12 UNL     1       9.667 -29.570 -13.890  1.00  0.00     0.157 HD
BRANCH  21  25
HETATM   25  N13 UNL     1       8.386 -28.685 -11.932  1.00  0.00    -0.283 N 
ATOM     26  H13 UNL     1       8.475 -28.843 -10.928  1.00  0.00     0.188 HD
BRANCH  25  27
HETATM   27  N14 UNL     1       8.645 -27.415 -12.460  1.00  0.00    -0.274 N 
HETATM   28  C18 UNL     1       9.225 -26.456 -11.867  1.00  0.00     0.215 C 
HETATM   29  N15 UNL     1       9.378 -25.244 -12.613  1.00  0.00    -0.065 NA
HETATM   30  N16 UNL     1       9.736 -26.452 -10.553  1.00  0.00    -0.065 NA
ATOM     31  H14 UNL     1       8.336 -27.243 -13.418  1.00  0.00     0.189 HD
ENDBRANCH  25  27
ENDBRANCH  21  25
ENDBRANCH  20  21
ENDBRANCH  15  20
ENDBRANCH   8  10
ENDBRANCH   5   6
ENDBRANCH   3   5
BRANCH   1  32
HETATM   32  C7  UNL     1       4.626 -29.835  -6.084  1.00  0.00     0.186 C 
HETATM   33  C2  UNL     1       5.357 -30.916  -5.403  1.00  0.00     0.027 C 
HETATM   34  C1  UNL     1       4.686 -32.289  -5.656  1.00  0.00     0.024 C 
HETATM   35  C3  UNL     1       6.788 -31.048  -5.958  1.00  0.00     0.024 C 
HETATM   36  C4  UNL     1       5.394 -30.805  -3.943  1.00  0.00     0.066 C 
HETATM   37  N5  UNL     1       4.545 -30.094  -3.301  1.00  0.00    -0.347 N 
HETATM   38  C6  UNL     1       3.500 -29.364  -4.021  1.00  0.00     0.383 C 
ATOM     39  H5  UNL     1       4.596 -30.037  -2.284  1.00  0.00     0.163 HD
HETATM   40  N7  UNL     1       4.015 -28.883  -5.248  1.00  0.00    -0.366 N 
ATOM     41  H7  UNL     1       3.947 -27.901  -5.512  1.00  0.00     0.157 HD
BRANCH  36  42
HETATM   42  C5  UNL     1       6.432 -31.550  -3.194  1.00  0.00     0.160 A 
HETATM   43  N1  UNL     1       7.539 -31.016  -2.650  1.00  0.00    -0.267 N 
HETATM   44  N2  UNL     1       8.219 -32.000  -2.045  1.00  0.00    -0.227 N 
ATOM     45  H1  UNL     1       7.813 -30.035  -2.690  1.00  0.00     0.190 HD
HETATM   46  N3  UNL     1       7.571 -33.127  -2.195  1.00  0.00    -0.227 N 
ATOM     47  H2  UNL     1       9.101 -31.889  -1.547  1.00  0.00     0.210 HD
HETATM   48  N4  UNL     1       6.481 -32.844  -2.897  1.00  0.00    -0.267 N 
ATOM     49  H3  UNL     1       7.849 -34.043  -1.842  1.00  0.00     0.210 HD
ATOM     50  H4  UNL     1       5.775 -33.528  -3.172  1.00  0.00     0.190 HD
ENDBRANCH  36  42
BRANCH  38  51
HETATM   51  N6  UNL     1       2.304 -30.170  -4.135  1.00  0.00    -0.041 N 
ATOM     52  H63 UNL     1       2.516 -31.168  -4.119  1.00  0.00     0.278 HD
ATOM     53  H62 UNL     1       1.733 -30.123  -3.291  1.00  0.00     0.278 HD
ATOM     54  H61 UNL     1       1.775 -29.908  -4.965  1.00  0.00     0.278 HD
ENDBRANCH  38  51
ENDBRANCH   1  32
TORSDOF 11
ENDMDL
MODEL 4
REMARK VINA RESULT: -7.532679483      3.127      9.187
REMARK  11 active torsions:
REMARK  status: ('A' for Active; 'I' for Inactive)
REMARK    1  A    between atoms: C4_4  and  C5_5 
REMARK    2  A    between atoms: C6_16  and  N6_17 
REMARK    3  A    between atoms: C7_23  and  C8_24 
REMARK       I    between atoms: C8_24  and  N8_26 
REMARK    4  A    between atoms: N8_26  and  C9_28 
REMARK    5  A    between atoms: C9_28  and  C10_29 
REMARK       I    between atoms: C10_29  and  N9_31 
REMARK    6  A    between atoms: N9_31  and  C11_33 
REMARK    7  A    between atoms: C14_36  and  N10_37 
REMARK    8  A    between atoms: N11_42  and  C16_43 
REMARK    9  A    between atoms: C16_43  and  C17_44 
REMARK   10  A    between atoms: C17_44  and  N13_48 
REMARK   11  A    between atoms: N13_48  and  N14_50 
ROOT
HETATM    1  C8  UNL     1       4.410 -29.485  -5.523  1.00  0.00     0.241 C 
HETATM    2  O1  UNL     1       4.431 -30.651  -5.016  1.00  0.00    -0.271 OA
HETATM    3  N8  UNL     1       4.011 -28.422  -4.718  1.00  0.00    -0.351 N 
ATOM      4  H8  UNL     1       3.994 -27.488  -5.129  1.00  0.00     0.163 HD
ENDROOT
BRANCH   3   5
HETATM    5  C9  UNL     1       3.627 -28.562  -3.356  1.00  0.00     0.225 C 
BRANCH   5   6
HETATM    6  C10 UNL     1       4.781 -28.594  -2.436  1.00  0.00     0.236 C 
HETATM    7  O2  UNL     1       4.741 -27.932  -1.371  1.00  0.00    -0.272 OA
HETATM    8  N9  UNL     1       5.940 -29.369  -2.748  1.00  0.00    -0.338 N 
ATOM      9  H9  UNL     1       5.990 -29.912  -3.609  1.00  0.00     0.164 HD
BRANCH   8  10
HETATM   10  C11 UNL     1       7.035 -29.364  -1.817  1.00  0.00     0.186 C 
HETATM   11  C12 UNL     1       8.067 -28.370  -2.346  1.00  0.00     0.049 C 
HETATM   12  C13 UNL     1       9.415 -28.612  -1.706  1.00  0.00     0.038 C 
HETATM   13  C14 UNL     1       9.177 -29.268  -0.370  1.00  0.00     0.201 C 
HETATM   14  C15 UNL     1       8.628 -30.654  -0.594  1.00  0.00     0.157 C 
HETATM   15  N11 UNL     1       7.651 -30.613  -1.678  1.00  0.00    -0.363 N 
BRANCH  13  16
HETATM   16  N10 UNL     1      10.372 -29.281   0.451  1.00  0.00    -0.073 N 
ATOM     17 3H10 UNL     1      11.097 -29.869   0.039  1.00  0.00     0.274 HD
ATOM     18 2H10 UNL     1      10.855 -28.382   0.416  1.00  0.00     0.274 HD
ATOM     19 1H10 UNL     1      10.174 -29.556   1.413  1.00  0.00     0.274 HD
ENDBRANCH  13  16
BRANCH  15  20
HETATM   20  C16 UNL     1       7.923 -31.464  -2.739  1.00  0.00     0.137 C 
BRANCH  20  21
HETATM   21  C17 UNL     1       7.305 -32.779  -2.815  1.00  0.00     0.129 C 
HETATM   22  N12 UNL     1       7.903 -33.811  -2.334  1.00  0.00    -0.383 N 
ATOM     23 2H12 UNL     1       8.829 -33.681  -1.925  1.00  0.00     0.157 HD
ATOM     24 1H12 UNL     1       7.471 -34.734  -2.387  1.00  0.00     0.157 HD
BRANCH  21  25
HETATM   25  N13 UNL     1       6.015 -32.961  -3.385  1.00  0.00    -0.283 N 
ATOM     26  H13 UNL     1       5.476 -32.149  -3.686  1.00  0.00     0.188 HD
BRANCH  25  27
HETATM   27  N14 UNL     1       5.480 -34.246  -3.534  1.00  0.00    -0.274 N 
HETATM   28  C18 UNL     1       4.459 -34.561  -4.217  1.00  0.00     0.215 C 
HETATM   29  N15 UNL     1       4.099 -35.947  -4.221  1.00  0.00    -0.065 NA
HETATM   30  N16 UNL     1       3.639 -33.699  -4.971  1.00  0.00    -0.065 NA
ATOM     31  H14 UNL     1       5.959 -35.003  -3.046  1.00  0.00     0.189 HD
ENDBRANCH  25  27
ENDBRANCH  21  25
ENDBRANCH  20  21
ENDBRANCH  15  20
ENDBRANCH   8  10
ENDBRANCH   5   6
ENDBRANCH   3   5
BRANCH   1  32
HETATM   32  C7  UNL     1       4.826 -29.371  -6.962  1.00  0.00     0.186 C 
HETATM   33  C2  UNL     1       3.833 -29.863  -7.932  1.00  0.00     0.027 C 
HETATM   34  C1  UNL     1       2.793 -30.784  -7.246  1.00  0.00     0.024 C 
HETATM   35  C3  UNL     1       3.021 -28.698  -8.529  1.00  0.00     0.024 C 
HETATM   36  C4  UNL     1       4.384 -30.692  -9.006  1.00  0.00     0.066 C 
HETATM   37  N5  UNL     1       5.520 -31.273  -8.892  1.00  0.00    -0.347 N 
HETATM   38  C6  UNL     1       6.307 -31.119  -7.667  1.00  0.00     0.383 C 
ATOM     39  H5  UNL     1       5.877 -31.844  -9.657  1.00  0.00     0.163 HD
HETATM   40  N7  UNL     1       6.148 -29.807  -7.160  1.00  0.00    -0.366 N 
ATOM     41  H7  UNL     1       6.948 -29.211  -6.950  1.00  0.00     0.157 HD
BRANCH  36  42
HETATM   42  C5  UNL     1       3.597 -30.876 -10.246  1.00  0.00     0.160 A 
HETATM   43  N1  UNL     1       3.812 -30.239 -11.411  1.00  0.00    -0.267 N 
HETATM   44  N2  UNL     1       2.907 -30.681 -12.296  1.00  0.00    -0.227 N 
ATOM     45  H1  UNL     1       4.535 -29.543 -11.589  1.00  0.00     0.190 HD
HETATM   46  N3  UNL     1       2.139 -31.570 -11.721  1.00  0.00    -0.227 N 
ATOM     47  H2  UNL     1       2.830 -30.372 -13.265  1.00  0.00     0.210 HD
HETATM   48  N4  UNL     1       2.566 -31.684 -10.470  1.00  0.00    -0.267 N 
ATOM     49  H3  UNL     1       1.364 -32.076 -12.150  1.00  0.00     0.210 HD
ATOM     50  H4  UNL     1       2.158 -32.307  -9.773  1.00  0.00     0.190 HD
ENDBRANCH  36  42
BRANCH  38  51
HETATM   51  N6  UNL     1       5.998 -32.177  -6.730  1.00  0.00    -0.041 N 
ATOM     52  H63 UNL     1       5.491 -31.827  -5.917  1.00  0.00     0.278 HD
ATOM     53  H62 UNL     1       5.284 -32.809  -7.093  1.00  0.00     0.278 HD
ATOM     54  H61 UNL     1       6.845 -32.676  -6.462  1.00  0.00     0.278 HD
ENDBRANCH  38  51
ENDBRANCH   1  32
TORSDOF 11
ENDMDL
MODEL 5
REMARK VINA RESULT: -7.491142207      2.949      5.033
REMARK  11 active torsions:
REMARK  status: ('A' for Active; 'I' for Inactive)
REMARK    1  A    between atoms: C4_4  and  C5_5 
REMARK    2  A    between atoms: C6_16  and  N6_17 
REMARK    3  A    between atoms: C7_23  and  C8_24 
REMARK       I    between atoms: C8_24  and  N8_26 
REMARK    4  A    between atoms: N8_26  and  C9_28 
REMARK    5  A    between atoms: C9_28  and  C10_29 
REMARK       I    between atoms: C10_29  and  N9_31 
REMARK    6  A    between atoms: N9_31  and  C11_33 
REMARK    7  A    between atoms: C14_36  and  N10_37 
REMARK    8  A    between atoms: N11_42  and  C16_43 
REMARK    9  A    between atoms: C16_43  and  C17_44 
REMARK   10  A    between atoms: C17_44  and  N13_48 
REMARK   11  A    between atoms: N13_48  and  N14_50 
ROOT
HETATM    1  C8  UNL     1       4.261 -30.366  -6.659  1.00  0.00     0.241 C 
HETATM    2  O1  UNL     1       3.417 -29.628  -6.058  1.00  0.00    -0.271 OA
HETATM    3  N8  UNL     1       4.005 -30.720  -7.981  1.00  0.00    -0.351 N 
ATOM      4  H8  UNL     1       4.683 -31.313  -8.459  1.00  0.00     0.163 HD
ENDROOT
BRANCH   3   5
HETATM    5  C9  UNL     1       2.853 -30.302  -8.703  1.00  0.00     0.225 C 
BRANCH   5   6
HETATM    6  C10 UNL     1       3.137 -30.029 -10.125  1.00  0.00     0.236 C 
HETATM    7  O2  UNL     1       2.272 -29.455 -10.829  1.00  0.00    -0.272 OA
HETATM    8  N9  UNL     1       4.384 -30.415 -10.707  1.00  0.00    -0.338 N 
ATOM      9  H9  UNL     1       5.098 -30.883 -10.149  1.00  0.00     0.164 HD
BRANCH   8  10
HETATM   10  C11 UNL     1       4.608 -30.126 -12.097  1.00  0.00     0.186 C 
HETATM   11  C12 UNL     1       4.082 -31.319 -12.892  1.00  0.00     0.049 C 
HETATM   12  C13 UNL     1       4.659 -31.322 -14.289  1.00  0.00     0.038 C 
HETATM   13  C14 UNL     1       5.015 -29.901 -14.641  1.00  0.00     0.201 C 
HETATM   14  C15 UNL     1       6.166 -29.454 -13.775  1.00  0.00     0.157 C 
HETATM   15  N11 UNL     1       5.958 -29.939 -12.414  1.00  0.00    -0.363 N 
BRANCH  13  16
HETATM   16  N10 UNL     1       5.303 -29.745 -16.054  1.00  0.00    -0.073 N 
ATOM     17 3H10 UNL     1       5.711 -28.831 -16.249  1.00  0.00     0.274 HD
ATOM     18 2H10 UNL     1       6.086 -30.335 -16.339  1.00  0.00     0.274 HD
ATOM     19 1H10 UNL     1       4.482 -29.916 -16.634  1.00  0.00     0.274 HD
ENDBRANCH  13  16
BRANCH  15  20
HETATM   20  C16 UNL     1       6.987 -30.723 -11.912  1.00  0.00     0.137 C 
BRANCH  20  21
HETATM   21  C17 UNL     1       8.375 -30.311 -12.057  1.00  0.00     0.129 C 
HETATM   22  N12 UNL     1       9.158 -30.929 -12.870  1.00  0.00    -0.383 N 
ATOM     23 2H12 UNL     1       8.784 -31.726 -13.383  1.00  0.00     0.157 HD
ATOM     24 1H12 UNL     1      10.131 -30.641 -12.972  1.00  0.00     0.157 HD
BRANCH  21  25
HETATM   25  N13 UNL     1       8.897 -29.199 -11.342  1.00  0.00    -0.283 N 
ATOM     26  H13 UNL     1       9.276 -29.333 -10.404  1.00  0.00     0.188 HD
BRANCH  25  27
HETATM   27  N14 UNL     1       8.897 -27.923 -11.916  1.00  0.00    -0.274 N 
HETATM   28  C18 UNL     1       9.334 -26.858 -11.384  1.00  0.00     0.215 C 
HETATM   29  N15 UNL     1       9.226 -25.664 -12.167  1.00  0.00    -0.065 NA
HETATM   30  N16 UNL     1       9.912 -26.719 -10.106  1.00  0.00    -0.065 NA
ATOM     31  H14 UNL     1       8.506 -27.840 -12.855  1.00  0.00     0.189 HD
ENDBRANCH  25  27
ENDBRANCH  21  25
ENDBRANCH  20  21
ENDBRANCH  15  20
ENDBRANCH   8  10
ENDBRANCH   5   6
ENDBRANCH   3   5
BRANCH   1  32
HETATM   32  C7  UNL     1       5.468 -30.786  -5.870  1.00  0.00     0.186 C 
HETATM   33  C2  UNL     1       5.448 -32.185  -5.410  1.00  0.00     0.027 C 
HETATM   34  C1  UNL     1       4.012 -32.766  -5.455  1.00  0.00     0.024 C 
HETATM   35  C3  UNL     1       6.285 -33.082  -6.340  1.00  0.00     0.024 C 
HETATM   36  C4  UNL     1       5.863 -32.378  -4.019  1.00  0.00     0.066 C 
HETATM   37  N5  UNL     1       5.844 -31.419  -3.171  1.00  0.00    -0.347 N 
HETATM   38  C6  UNL     1       5.400 -30.085  -3.578  1.00  0.00     0.383 C 
ATOM     39  H5  UNL     1       6.138 -31.584  -2.209  1.00  0.00     0.163 HD
HETATM   40  N7  UNL     1       5.821 -29.826  -4.905  1.00  0.00    -0.366 N 
ATOM     41  H7  UNL     1       6.352 -28.990  -5.147  1.00  0.00     0.157 HD
BRANCH  36  42
HETATM   42  C5  UNL     1       6.299 -33.724  -3.581  1.00  0.00     0.160 A 
HETATM   43  N1  UNL     1       7.509 -34.031  -3.083  1.00  0.00    -0.267 N 
HETATM   44  N2  UNL     1       7.516 -35.339  -2.790  1.00  0.00    -0.227 N 
ATOM     45  H1  UNL     1       8.284 -33.383  -2.950  1.00  0.00     0.190 HD
HETATM   46  N3  UNL     1       6.351 -35.854  -3.090  1.00  0.00    -0.227 N 
ATOM     47  H2  UNL     1       8.304 -35.852  -2.397  1.00  0.00     0.210 HD
HETATM   48  N4  UNL     1       5.613 -34.862  -3.573  1.00  0.00    -0.267 N 
ATOM     49  H3  UNL     1       6.066 -36.827  -2.976  1.00  0.00     0.210 HD
ATOM     50  H4  UNL     1       4.650 -34.960  -3.894  1.00  0.00     0.190 HD
ENDBRANCH  36  42
BRANCH  38  51
HETATM   51  N6  UNL     1       3.980 -29.930  -3.349  1.00  0.00    -0.041 N 
ATOM     52  H63 UNL     1       3.658 -30.499  -2.566  1.00  0.00     0.278 HD
ATOM     53  H62 UNL     1       3.754 -29.010  -2.971  1.00  0.00     0.278 HD
ATOM     54  H61 UNL     1       3.457 -30.128  -4.201  1.00  0.00     0.278 HD
ENDBRANCH  38  51
ENDBRANCH   1  32
TORSDOF 11
ENDMDL
