MODEL 1
REMARK VINA RESULT: -8.080285237      0.000      0.000
REMARK  4 active torsions:
REMARK  status: ('A' for Active; 'I' for Inactive)
REMARK    1  A    between atoms: C3_4  and  N2_5 
REMARK    2  A    between atoms: C9_13  and  C10_14 
REMARK       I    between atoms: C10_14  and  N4_16 
REMARK    3  A    between atoms: N4_16  and  N5_18 
REMARK    4  A    between atoms: C11_23  and  N7_24 
ROOT
HETATM    1  N1  UNL     1     -12.207   5.558  36.006  1.00  0.00    -0.191 NA
HETATM    2  C1  UNL     1     -13.096   5.054  36.565  1.00  0.00     0.107 C 
HETATM    3  C2  UNL     1     -14.207   4.410  37.241  1.00  0.00     0.132 A 
HETATM    4  C3  UNL     1     -15.504   4.798  36.969  1.00  0.00     0.130 A 
HETATM    5  N3  UNL     1     -16.476   4.142  37.647  1.00  0.00    -0.323 N 
ATOM      6  H3  UNL     1     -17.446   4.403  37.469  1.00  0.00     0.169 HD
HETATM    7  C9  UNL     1     -16.238   3.167  38.542  1.00  0.00     0.179 A 
HETATM    8  N6  UNL     1     -14.947   2.821  38.775  1.00  0.00    -0.323 N 
ATOM      9  H6  UNL     1     -14.749   2.082  39.451  1.00  0.00     0.169 HD
HETATM   10  C11 UNL     1     -13.920   3.418  38.146  1.00  0.00     0.125 A 
ENDROOT
BRANCH   4  11
HETATM   11  N2  UNL     1     -15.799   5.832  36.044  1.00  0.00    -0.366 N 
HETATM   12  C4  UNL     1     -15.562   5.621  34.645  1.00  0.00     0.124 C 
HETATM   13  C5  UNL     1     -15.402   6.849  33.838  1.00  0.00     0.020 C 
HETATM   14  C6  UNL     1     -15.249   8.138  34.538  1.00  0.00     0.003 C 
HETATM   15  C7  UNL     1     -15.333   8.145  36.020  1.00  0.00     0.020 C 
HETATM   16  C8  UNL     1     -16.342   7.104  36.453  1.00  0.00     0.124 C 
ENDBRANCH   4  11
BRANCH  10  17
HETATM   17  N7  UNL     1     -12.685   3.081  38.376  1.00  0.00    -0.384 N 
ATOM     18  H72 UNL     1     -12.324   2.972  39.324  1.00  0.00     0.157 HD
ATOM     19  H71 UNL     1     -12.045   2.918  37.598  1.00  0.00     0.157 HD
ENDBRANCH  10  17
BRANCH   7  20
HETATM   20  C10 UNL     1     -17.333   2.513  39.234  1.00  0.00     0.303 C 
HETATM   21  O1  UNL     1     -17.212   2.242  40.445  1.00  0.00    -0.263 OA
HETATM   22  N4  UNL     1     -18.530   2.178  38.564  1.00  0.00    -0.270 N 
ATOM     23  H4  UNL     1     -18.619   2.405  37.574  1.00  0.00     0.189 HD
BRANCH  22  24
HETATM   24  N5  UNL     1     -19.597   1.547  39.208  1.00  0.00    -0.342 N 
ATOM     25  H52 UNL     1     -19.382   0.778  39.842  1.00  0.00     0.176 HD
ATOM     26  H51 UNL     1     -20.567   1.829  39.063  1.00  0.00     0.176 HD
ENDBRANCH  22  24
ENDBRANCH   7  20
TORSDOF 4
ENDMDL
MODEL 2
REMARK VINA RESULT: -7.631710441      1.327      1.538
REMARK  4 active torsions:
REMARK  status: ('A' for Active; 'I' for Inactive)
REMARK    1  A    between atoms: C3_4  and  N2_5 
REMARK    2  A    between atoms: C9_13  and  C10_14 
REMARK       I    between atoms: C10_14  and  N4_16 
REMARK    3  A    between atoms: N4_16  and  N5_18 
REMARK    4  A    between atoms: C11_23  and  N7_24 
ROOT
HETATM    1  N1  UNL     1     -12.382   7.429  35.189  1.00  0.00    -0.191 NA
HETATM    2  C1  UNL     1     -13.124   6.730  35.751  1.00  0.00     0.107 C 
HETATM    3  C2  UNL     1     -14.045   5.841  36.435  1.00  0.00     0.132 A 
HETATM    4  C3  UNL     1     -15.375   5.802  36.065  1.00  0.00     0.130 A 
HETATM    5  N3  UNL     1     -16.161   4.943  36.757  1.00  0.00    -0.323 N 
ATOM      6  H3  UNL     1     -17.148   4.887  36.508  1.00  0.00     0.169 HD
HETATM    7  C9  UNL     1     -15.715   4.159  37.755  1.00  0.00     0.179 A 
HETATM    8  N6  UNL     1     -14.400   4.233  38.083  1.00  0.00    -0.323 N 
ATOM      9  H6  UNL     1     -14.046   3.644  38.837  1.00  0.00     0.169 HD
HETATM   10  C11 UNL     1     -13.549   5.056  37.447  1.00  0.00     0.125 A 
ENDROOT
BRANCH   4  11
HETATM   11  N2  UNL     1     -15.890   6.622  35.028  1.00  0.00    -0.366 N 
HETATM   12  C4  UNL     1     -15.700   6.238  33.659  1.00  0.00     0.124 C 
HETATM   13  C5  UNL     1     -15.792   7.336  32.675  1.00  0.00     0.020 C 
HETATM   14  C6  UNL     1     -15.815   8.726  33.168  1.00  0.00     0.003 C 
HETATM   15  C7  UNL     1     -15.816   8.948  34.636  1.00  0.00     0.020 C 
HETATM   16  C8  UNL     1     -16.612   7.842  35.294  1.00  0.00     0.124 C 
ENDBRANCH   4  11
BRANCH  10  17
HETATM   17  N7  UNL     1     -12.290   5.123  37.767  1.00  0.00    -0.384 N 
ATOM     18  H72 UNL     1     -11.565   5.288  37.070  1.00  0.00     0.157 HD
ATOM     19  H71 UNL     1     -12.003   5.007  38.739  1.00  0.00     0.157 HD
ENDBRANCH  10  17
BRANCH   7  20
HETATM   20  C10 UNL     1     -16.619   3.266  38.456  1.00  0.00     0.303 C 
HETATM   21  O1  UNL     1     -16.344   2.910  39.619  1.00  0.00    -0.263 OA
HETATM   22  N4  UNL     1     -17.803   2.794  37.848  1.00  0.00    -0.270 N 
ATOM     23  H4  UNL     1     -18.020   3.092  36.897  1.00  0.00     0.189 HD
BRANCH  22  24
HETATM   24  N5  UNL     1     -18.689   1.933  38.502  1.00  0.00    -0.342 N 
ATOM     25  H52 UNL     1     -18.415   0.956  38.601  1.00  0.00     0.176 HD
ATOM     26  H51 UNL     1     -19.584   2.250  38.874  1.00  0.00     0.176 HD
ENDBRANCH  22  24
ENDBRANCH   7  20
TORSDOF 4
ENDMDL
MODEL 3
REMARK VINA RESULT: -7.535489736      1.219      1.636
REMARK  4 active torsions:
REMARK  status: ('A' for Active; 'I' for Inactive)
REMARK    1  A    between atoms: C3_4  and  N2_5 
REMARK    2  A    between atoms: C9_13  and  C10_14 
REMARK       I    between atoms: C10_14  and  N4_16 
REMARK    3  A    between atoms: N4_16  and  N5_18 
REMARK    4  A    between atoms: C11_23  and  N7_24 
ROOT
HETATM    1  N1  UNL     1     -12.227   6.404  37.791  1.00  0.00    -0.191 NA
HETATM    2  C1  UNL     1     -13.096   5.634  37.881  1.00  0.00     0.107 C 
HETATM    3  C2  UNL     1     -14.170   4.664  37.973  1.00  0.00     0.132 A 
HETATM    4  C3  UNL     1     -15.306   4.810  37.202  1.00  0.00     0.130 A 
HETATM    5  N3  UNL     1     -16.256   3.856  37.354  1.00  0.00    -0.323 N 
ATOM      6  H3  UNL     1     -17.108   3.933  36.798  1.00  0.00     0.169 HD
HETATM    7  C9  UNL     1     -16.143   2.813  38.196  1.00  0.00     0.179 A 
HETATM    8  N6  UNL     1     -15.007   2.712  38.933  1.00  0.00    -0.323 N 
ATOM      9  H6  UNL     1     -14.904   1.927  39.575  1.00  0.00     0.169 HD
HETATM   10  C11 UNL     1     -14.013   3.613  38.844  1.00  0.00     0.125 A 
ENDROOT
BRANCH   4  11
HETATM   11  N2  UNL     1     -15.474   5.902  36.313  1.00  0.00    -0.366 N 
HETATM   12  C4  UNL     1     -16.353   6.978  36.669  1.00  0.00     0.124 C 
HETATM   13  C5  UNL     1     -16.862   7.781  35.537  1.00  0.00     0.020 C 
HETATM   14  C6  UNL     1     -16.645   7.283  34.165  1.00  0.00     0.003 C 
HETATM   15  C7  UNL     1     -15.864   6.033  33.989  1.00  0.00     0.020 C 
HETATM   16  C8  UNL     1     -14.785   5.982  35.048  1.00  0.00     0.124 C 
ENDBRANCH   4  11
BRANCH  10  17
HETATM   17  N7  UNL     1     -12.928   3.510  39.554  1.00  0.00    -0.384 N 
ATOM     18  H72 UNL     1     -12.022   3.818  39.201  1.00  0.00     0.157 HD
ATOM     19  H71 UNL     1     -12.966   3.111  40.492  1.00  0.00     0.157 HD
ENDBRANCH  10  17
BRANCH   7  20
HETATM   20  C10 UNL     1     -17.206   1.832  38.309  1.00  0.00     0.303 C 
HETATM   21  O1  UNL     1     -17.094   0.741  37.714  1.00  0.00    -0.263 OA
HETATM   22  N4  UNL     1     -18.363   2.088  39.077  1.00  0.00    -0.270 N 
ATOM     23  H4  UNL     1     -18.444   2.983  39.560  1.00  0.00     0.189 HD
BRANCH  22  24
HETATM   24  N5  UNL     1     -19.400   1.161  39.200  1.00  0.00    -0.342 N 
ATOM     25  H52 UNL     1     -19.970   1.194  40.045  1.00  0.00     0.176 HD
ATOM     26  H51 UNL     1     -19.600   0.466  38.481  1.00  0.00     0.176 HD
ENDBRANCH  22  24
ENDBRANCH   7  20
TORSDOF 4
ENDMDL
MODEL 4
REMARK VINA RESULT: -7.474719526      2.427      5.209
REMARK  4 active torsions:
REMARK  status: ('A' for Active; 'I' for Inactive)
REMARK    1  A    between atoms: C3_4  and  N2_5 
REMARK    2  A    between atoms: C9_13  and  C10_14 
REMARK       I    between atoms: C10_14  and  N4_16 
REMARK    3  A    between atoms: N4_16  and  N5_18 
REMARK    4  A    between atoms: C11_23  and  N7_24 
ROOT
HETATM    1  N1  UNL     1     -12.591   2.709  39.164  1.00  0.00    -0.191 NA
HETATM    2  C1  UNL     1     -13.240   3.380  38.469  1.00  0.00     0.107 C 
HETATM    3  C2  UNL     1     -14.056   4.230  37.622  1.00  0.00     0.132 A 
HETATM    4  C3  UNL     1     -15.413   4.002  37.511  1.00  0.00     0.130 A 
HETATM    5  N3  UNL     1     -16.094   4.846  36.699  1.00  0.00    -0.323 N 
ATOM      6  H3  UNL     1     -17.100   4.706  36.595  1.00  0.00     0.169 HD
HETATM    7  C9  UNL     1     -15.523   5.857  36.020  1.00  0.00     0.179 A 
HETATM    8  N6  UNL     1     -14.186   6.041  36.162  1.00  0.00    -0.323 N 
ATOM      9  H6  UNL     1     -13.737   6.804  35.654  1.00  0.00     0.169 HD
HETATM   10  C11 UNL     1     -13.433   5.252  36.948  1.00  0.00     0.125 A 
ENDROOT
BRANCH   4  11
HETATM   11  N2  UNL     1     -16.054   2.939  38.197  1.00  0.00    -0.366 N 
HETATM   12  C4  UNL     1     -16.470   1.774  37.470  1.00  0.00     0.124 C 
HETATM   13  C5  UNL     1     -17.540   0.979  38.107  1.00  0.00     0.020 C 
HETATM   14  C6  UNL     1     -18.252   1.553  39.266  1.00  0.00     0.003 C 
HETATM   15  C7  UNL     1     -17.807   2.874  39.776  1.00  0.00     0.020 C 
HETATM   16  C8  UNL     1     -16.305   2.975  39.617  1.00  0.00     0.124 C 
ENDBRANCH   4  11
BRANCH  10  17
HETATM   17  N7  UNL     1     -12.152   5.435  37.078  1.00  0.00    -0.384 N 
ATOM     18  H72 UNL     1     -11.507   4.654  37.203  1.00  0.00     0.157 HD
ATOM     19  H71 UNL     1     -11.765   6.378  37.057  1.00  0.00     0.157 HD
ENDBRANCH  10  17
BRANCH   7  20
HETATM   20  C10 UNL     1     -16.318   6.717  35.164  1.00  0.00     0.303 C 
HETATM   21  O1  UNL     1     -15.903   6.987  34.018  1.00  0.00    -0.263 OA
HETATM   22  N4  UNL     1     -17.549   7.253  35.600  1.00  0.00    -0.270 N 
ATOM     23  H4  UNL     1     -17.880   7.025  36.537  1.00  0.00     0.189 HD
BRANCH  22  24
HETATM   24  N5  UNL     1     -18.332   8.084  34.794  1.00  0.00    -0.342 N 
ATOM     25  H52 UNL     1     -19.071   8.623  35.245  1.00  0.00     0.176 HD
ATOM     26  H51 UNL     1     -18.186   8.164  33.788  1.00  0.00     0.176 HD
ENDBRANCH  22  24
ENDBRANCH   7  20
TORSDOF 4
ENDMDL
MODEL 5
REMARK VINA RESULT: -7.455799404      1.547      2.159
REMARK  4 active torsions:
REMARK  status: ('A' for Active; 'I' for Inactive)
REMARK    1  A    between atoms: C3_4  and  N2_5 
REMARK    2  A    between atoms: C9_13  and  C10_14 
REMARK       I    between atoms: C10_14  and  N4_16 
REMARK    3  A    between atoms: N4_16  and  N5_18 
REMARK    4  A    between atoms: C11_23  and  N7_24 
ROOT
HETATM    1  N1  UNL     1     -12.383   7.573  35.112  1.00  0.00    -0.191 NA
HETATM    2  C1  UNL     1     -13.113   6.859  35.672  1.00  0.00     0.107 C 
HETATM    3  C2  UNL     1     -14.019   5.953  36.353  1.00  0.00     0.132 A 
HETATM    4  C3  UNL     1     -15.348   5.892  35.982  1.00  0.00     0.130 A 
HETATM    5  N3  UNL     1     -16.119   5.018  36.672  1.00  0.00    -0.323 N 
ATOM      6  H3  UNL     1     -17.106   4.947  36.423  1.00  0.00     0.169 HD
HETATM    7  C9  UNL     1     -15.661   4.238  37.667  1.00  0.00     0.179 A 
HETATM    8  N6  UNL     1     -14.347   4.333  37.995  1.00  0.00    -0.323 N 
ATOM      9  H6  UNL     1     -13.983   3.748  38.747  1.00  0.00     0.169 HD
HETATM   10  C11 UNL     1     -13.510   5.173  37.362  1.00  0.00     0.125 A 
ENDROOT
BRANCH   4  11
HETATM   11  N2  UNL     1     -15.877   6.708  34.949  1.00  0.00    -0.366 N 
HETATM   12  C4  UNL     1     -16.915   7.650  35.250  1.00  0.00     0.124 C 
HETATM   13  C5  UNL     1     -17.742   8.070  34.099  1.00  0.00     0.020 C 
HETATM   14  C6  UNL     1     -17.613   7.329  32.830  1.00  0.00     0.003 C 
HETATM   15  C7  UNL     1     -16.606   6.242  32.753  1.00  0.00     0.020 C 
HETATM   16  C8  UNL     1     -15.405   6.632  33.588  1.00  0.00     0.124 C 
ENDBRANCH   4  11
BRANCH  10  17
HETATM   17  N7  UNL     1     -12.252   5.259  37.682  1.00  0.00    -0.384 N 
ATOM     18  H72 UNL     1     -11.866   6.090  38.131  1.00  0.00     0.157 HD
ATOM     19  H71 UNL     1     -11.619   4.484  37.485  1.00  0.00     0.157 HD
ENDBRANCH  10  17
BRANCH   7  20
HETATM   20  C10 UNL     1     -16.549   3.328  38.365  1.00  0.00     0.303 C 
HETATM   21  O1  UNL     1     -16.259   2.960  39.521  1.00  0.00    -0.263 OA
HETATM   22  N4  UNL     1     -17.734   2.852  37.763  1.00  0.00    -0.270 N 
ATOM     23  H4  UNL     1     -17.963   3.160  36.818  1.00  0.00     0.189 HD
BRANCH  22  24
HETATM   24  N5  UNL     1     -18.605   1.975  38.413  1.00  0.00    -0.342 N 
ATOM     25  H52 UNL     1     -19.068   2.305  39.259  1.00  0.00     0.176 HD
ATOM     26  H51 UNL     1     -18.786   1.031  38.072  1.00  0.00     0.176 HD
ENDBRANCH  22  24
ENDBRANCH   7  20
TORSDOF 4
ENDMDL
