MODEL 1
REMARK VINA RESULT: -7.820228260      0.000      0.000
REMARK  13 active torsions:
REMARK  status: ('A' for Active; 'I' for Inactive)
REMARK    1  A    between atoms: C3_3  and  O1_4 
REMARK    2  A    between atoms: C12_16  and  N2_17 
REMARK    3  A    between atoms: N2_17  and  C13_18 
REMARK    4  A    between atoms: C14_20  and  N3_21 
REMARK    5  A    between atoms: N3_21  and  C15_23 
REMARK    6  A    between atoms: C15_23  and  C16_24 
REMARK    7  A    between atoms: C16_24  and  O3_25 
REMARK    8  A    between atoms: O3_25  and  C17_26 
REMARK    9  A    between atoms: C17_26  and  C18_27 
REMARK   10  A    between atoms: C18_27  and  O4_28 
REMARK   11  A    between atoms: O4_28  and  C19_29 
REMARK   12  A    between atoms: C19_29  and  C20_30 
REMARK   13  A    between atoms: C20_30  and  N4_31 
REMARK       I    between atoms: N4_31  and  C21_33 
ROOT
HETATM    1  C1  UNL     1      13.667  36.095 -14.511  1.00  0.00     0.052 C 
HETATM    2  C2  UNL     1      13.711  36.803 -13.242  1.00  0.00    -0.022 A 
HETATM    3  C3  UNL     1      13.178  36.224 -12.111  1.00  0.00     0.074 A 
HETATM    4  C4  UNL     1      13.211  36.863 -10.892  1.00  0.00     0.067 A 
HETATM    5  C5  UNL     1      13.780  38.112 -10.758  1.00  0.00     0.046 A 
HETATM    6  N1  UNL     1      13.966  38.951  -9.726  1.00  0.00    -0.358 N 
ATOM      7  H1  UNL     1      13.678  38.794  -8.760  1.00  0.00     0.166 HD
HETATM    8  C6  UNL     1      14.594  40.024 -10.197  1.00  0.00     0.019 A 
HETATM    9  C7  UNL     1      14.825  39.892 -11.553  1.00  0.00    -0.019 A 
HETATM   10  C8  UNL     1      14.315  38.684 -11.919  1.00  0.00     0.005 A 
HETATM   11  C9  UNL     1      14.278  38.036 -13.134  1.00  0.00    -0.040 A 
HETATM   12  C10 UNL     1      14.852  38.644 -14.337  1.00  0.00     0.050 C 
HETATM   13  C11 UNL     1      15.497  40.996 -12.211  1.00  0.00     0.083 C 
HETATM   14  C12 UNL     1      14.919  42.373 -11.787  1.00  0.00     0.193 C 
HETATM   15  C14 UNL     1      14.944  42.517 -10.278  1.00  0.00     0.122 C 
HETATM   16  C22 UNL     1      15.076  41.234  -9.535  1.00  0.00     0.085 C 
ENDROOT
BRANCH  15  17
HETATM   17  N3  UNL     1      13.933  43.383  -9.824  1.00  0.00    -0.392 N 
ATOM     18  H3  UNL     1      13.860  44.322 -10.216  1.00  0.00     0.159 HD
BRANCH  17  19
HETATM   19  C15 UNL     1      13.033  42.975  -8.849  1.00  0.00     0.082 C 
BRANCH  19  20
HETATM   20  C16 UNL     1      11.779  42.279  -9.245  1.00  0.00     0.211 C 
BRANCH  20  21
HETATM   21  O3  UNL     1      11.544  41.026  -8.804  1.00  0.00    -0.384 OA
BRANCH  21  22
HETATM   22  C17 UNL     1      11.691  40.650  -7.525  1.00  0.00     0.194 C 
BRANCH  22  23
HETATM   23  C18 UNL     1      11.547  39.172  -7.299  1.00  0.00     0.193 C 
BRANCH  23  24
HETATM   24  O4  UNL     1      10.569  38.764  -6.442  1.00  0.00    -0.387 OA
BRANCH  24  25
HETATM   25  C19 UNL     1      10.948  38.388  -5.183  1.00  0.00     0.187 C 
BRANCH  25  26
HETATM   26  C20 UNL     1      10.173  39.164  -4.109  1.00  0.00     0.148 C 
BRANCH  26  27
HETATM   27  N4  UNL     1      10.924  38.974  -2.875  1.00  0.00    -0.363 N 
HETATM   28  C21 UNL     1      10.499  38.184  -1.778  1.00  0.00     0.181 C 
HETATM   29  N5  UNL     1      10.269  36.910  -1.886  1.00  0.00    -0.374 N 
HETATM   30  N6  UNL     1      10.322  38.779  -0.509  1.00  0.00    -0.064 NA
ATOM     31  H52 UNL     1      10.397  36.480  -2.803  1.00  0.00     0.158 HD
ATOM     32  H51 UNL     1       9.964  36.341  -1.097  1.00  0.00     0.158 HD
ATOM     33  H4  UNL     1      11.825  39.444  -2.795  1.00  0.00     0.162 HD
ENDBRANCH  26  27
ENDBRANCH  25  26
ENDBRANCH  24  25
ENDBRANCH  23  24
ENDBRANCH  22  23
ENDBRANCH  21  22
ENDBRANCH  20  21
ENDBRANCH  19  20
ENDBRANCH  17  19
ENDBRANCH  15  17
BRANCH  14  34
HETATM   34  N2  UNL     1      13.693  42.517 -12.405  1.00  0.00    -0.415 NA
BRANCH  34  35
HETATM   35  C13 UNL     1      12.492  42.658 -13.011  1.00  0.00     0.435 C 
HETATM   36  O2  UNL     1      12.241  42.736 -14.239  1.00  0.00    -0.269 OA
ENDBRANCH  34  35
ENDBRANCH  14  34
BRANCH   3  37
HETATM   37  O1  UNL     1      12.601  34.975 -12.206  1.00  0.00    -0.360 OA
ATOM     38  H1  UNL     1      11.670  34.882 -12.037  1.00  0.00     0.217 HD
ENDBRANCH   3  37
TORSDOF 13
ENDMDL
MODEL 2
REMARK VINA RESULT: -7.739079499      2.157      2.926
REMARK  13 active torsions:
REMARK  status: ('A' for Active; 'I' for Inactive)
REMARK    1  A    between atoms: C3_3  and  O1_4 
REMARK    2  A    between atoms: C12_16  and  N2_17 
REMARK    3  A    between atoms: N2_17  and  C13_18 
REMARK    4  A    between atoms: C14_20  and  N3_21 
REMARK    5  A    between atoms: N3_21  and  C15_23 
REMARK    6  A    between atoms: C15_23  and  C16_24 
REMARK    7  A    between atoms: C16_24  and  O3_25 
REMARK    8  A    between atoms: O3_25  and  C17_26 
REMARK    9  A    between atoms: C17_26  and  C18_27 
REMARK   10  A    between atoms: C18_27  and  O4_28 
REMARK   11  A    between atoms: O4_28  and  C19_29 
REMARK   12  A    between atoms: C19_29  and  C20_30 
REMARK   13  A    between atoms: C20_30  and  N4_31 
REMARK       I    between atoms: N4_31  and  C21_33 
ROOT
HETATM    1  C1  UNL     1      13.384  35.959 -14.613  1.00  0.00     0.052 C 
HETATM    2  C2  UNL     1      13.636  36.659 -13.363  1.00  0.00    -0.022 A 
HETATM    3  C3  UNL     1      13.238  36.102 -12.168  1.00  0.00     0.074 A 
HETATM    4  C4  UNL     1      13.469  36.734 -10.967  1.00  0.00     0.067 A 
HETATM    5  C5  UNL     1      14.109  37.954 -10.916  1.00  0.00     0.046 A 
HETATM    6  N1  UNL     1      14.475  38.780  -9.922  1.00  0.00    -0.358 N 
ATOM      7  H1  UNL     1      14.316  38.633  -8.925  1.00  0.00     0.166 HD
HETATM    8  C6  UNL     1      15.082  39.824 -10.478  1.00  0.00     0.019 A 
HETATM    9  C7  UNL     1      15.117  39.687 -11.853  1.00  0.00    -0.019 A 
HETATM   10  C8  UNL     1      14.505  38.505 -12.142  1.00  0.00     0.005 A 
HETATM   11  C9  UNL     1      14.270  37.864 -13.338  1.00  0.00    -0.040 A 
HETATM   12  C10 UNL     1      14.700  38.449 -14.611  1.00  0.00     0.050 C 
HETATM   13  C11 UNL     1      15.743  40.760 -12.601  1.00  0.00     0.083 C 
HETATM   14  C12 UNL     1      15.295  42.161 -12.104  1.00  0.00     0.193 C 
HETATM   15  C14 UNL     1      15.535  42.298 -10.613  1.00  0.00     0.122 C 
HETATM   16  C22 UNL     1      15.707  41.007  -9.893  1.00  0.00     0.085 C 
ENDROOT
BRANCH  15  17
HETATM   17  N3  UNL     1      14.638  43.208 -10.026  1.00  0.00    -0.392 N 
ATOM     18  H3  UNL     1      13.635  43.025 -10.066  1.00  0.00     0.159 HD
BRANCH  17  19
HETATM   19  C15 UNL     1      15.101  44.353  -9.394  1.00  0.00     0.082 C 
BRANCH  19  20
HETATM   20  C16 UNL     1      16.016  44.235  -8.227  1.00  0.00     0.211 C 
BRANCH  20  21
HETATM   21  O3  UNL     1      15.506  44.013  -6.999  1.00  0.00    -0.384 OA
BRANCH  21  22
HETATM   22  C17 UNL     1      14.191  43.976  -6.737  1.00  0.00     0.194 C 
BRANCH  22  23
HETATM   23  C18 UNL     1      13.630  42.590  -6.599  1.00  0.00     0.193 C 
BRANCH  23  24
HETATM   24  O4  UNL     1      13.154  41.993  -7.729  1.00  0.00    -0.387 OA
BRANCH  24  25
HETATM   25  C19 UNL     1      11.809  41.761  -7.802  1.00  0.00     0.187 C 
BRANCH  25  26
HETATM   26  C20 UNL     1      11.271  41.170  -6.491  1.00  0.00     0.148 C 
BRANCH  26  27
HETATM   27  N4  UNL     1      10.837  39.819  -6.824  1.00  0.00    -0.363 N 
HETATM   28  C21 UNL     1      11.695  38.699  -6.958  1.00  0.00     0.181 C 
HETATM   29  N5  UNL     1      12.431  38.267  -5.979  1.00  0.00    -0.374 N 
HETATM   30  N6  UNL     1      11.758  38.004  -8.185  1.00  0.00    -0.064 NA
ATOM     31  H52 UNL     1      12.385  38.770  -5.092  1.00  0.00     0.158 HD
ATOM     32  H51 UNL     1      13.049  37.461  -6.075  1.00  0.00     0.158 HD
ATOM     33  H4  UNL     1       9.839  39.668  -6.972  1.00  0.00     0.162 HD
ENDBRANCH  26  27
ENDBRANCH  25  26
ENDBRANCH  24  25
ENDBRANCH  23  24
ENDBRANCH  22  23
ENDBRANCH  21  22
ENDBRANCH  20  21
ENDBRANCH  19  20
ENDBRANCH  17  19
ENDBRANCH  15  17
BRANCH  14  34
HETATM   34  N2  UNL     1      14.003  42.365 -12.547  1.00  0.00    -0.415 NA
BRANCH  34  35
HETATM   35  C13 UNL     1      12.738  42.564 -12.981  1.00  0.00     0.435 C 
HETATM   36  O2  UNL     1      12.332  42.723 -14.159  1.00  0.00    -0.269 OA
ENDBRANCH  34  35
ENDBRANCH  14  34
BRANCH   3  37
HETATM   37  O1  UNL     1      12.595  34.882 -12.179  1.00  0.00    -0.360 OA
ATOM     38  H1  UNL     1      13.089  34.098 -11.966  1.00  0.00     0.217 HD
ENDBRANCH   3  37
TORSDOF 13
ENDMDL
MODEL 3
REMARK VINA RESULT: -7.714966654      0.986      1.434
REMARK  13 active torsions:
REMARK  status: ('A' for Active; 'I' for Inactive)
REMARK    1  A    between atoms: C3_3  and  O1_4 
REMARK    2  A    between atoms: C12_16  and  N2_17 
REMARK    3  A    between atoms: N2_17  and  C13_18 
REMARK    4  A    between atoms: C14_20  and  N3_21 
REMARK    5  A    between atoms: N3_21  and  C15_23 
REMARK    6  A    between atoms: C15_23  and  C16_24 
REMARK    7  A    between atoms: C16_24  and  O3_25 
REMARK    8  A    between atoms: O3_25  and  C17_26 
REMARK    9  A    between atoms: C17_26  and  C18_27 
REMARK   10  A    between atoms: C18_27  and  O4_28 
REMARK   11  A    between atoms: O4_28  and  C19_29 
REMARK   12  A    between atoms: C19_29  and  C20_30 
REMARK   13  A    between atoms: C20_30  and  N4_31 
REMARK       I    between atoms: N4_31  and  C21_33 
ROOT
HETATM    1  C1  UNL     1      13.578  35.997 -14.514  1.00  0.00     0.052 C 
HETATM    2  C2  UNL     1      13.659  36.749 -13.272  1.00  0.00    -0.022 A 
HETATM    3  C3  UNL     1      13.154  36.214 -12.108  1.00  0.00     0.074 A 
HETATM    4  C4  UNL     1      13.222  36.895 -10.914  1.00  0.00     0.067 A 
HETATM    5  C5  UNL     1      13.799  38.145 -10.839  1.00  0.00     0.046 A 
HETATM    6  N1  UNL     1      14.015  39.019  -9.843  1.00  0.00    -0.358 N 
ATOM      7  H1  UNL     1      13.753  38.898  -8.865  1.00  0.00     0.166 HD
HETATM    8  C6  UNL     1      14.635  40.072 -10.368  1.00  0.00     0.019 A 
HETATM    9  C7  UNL     1      14.829  39.892 -11.725  1.00  0.00    -0.019 A 
HETATM   10  C8  UNL     1      14.304  38.673 -12.034  1.00  0.00     0.005 A 
HETATM   11  C9  UNL     1      14.233  37.983 -13.223  1.00  0.00    -0.040 A 
HETATM   12  C10 UNL     1      14.777  38.545 -14.462  1.00  0.00     0.050 C 
HETATM   13  C11 UNL     1      15.487  40.968 -12.439  1.00  0.00     0.083 C 
HETATM   14  C12 UNL     1      14.926  42.362 -12.049  1.00  0.00     0.193 C 
HETATM   15  C14 UNL     1      14.992  42.559 -10.547  1.00  0.00     0.122 C 
HETATM   16  C22 UNL     1      15.138  41.303  -9.763  1.00  0.00     0.085 C 
ENDROOT
BRANCH  15  17
HETATM   17  N3  UNL     1      13.996  43.445 -10.098  1.00  0.00    -0.392 N 
ATOM     18  H3  UNL     1      13.308  43.807 -10.758  1.00  0.00     0.159 HD
BRANCH  17  19
HETATM   19  C15 UNL     1      13.939  43.833  -8.766  1.00  0.00     0.082 C 
BRANCH  19  20
HETATM   20  C16 UNL     1      12.661  43.707  -8.014  1.00  0.00     0.211 C 
BRANCH  20  21
HETATM   21  O3  UNL     1      12.615  42.949  -6.900  1.00  0.00    -0.384 OA
BRANCH  21  22
HETATM   22  C17 UNL     1      12.605  41.607  -6.915  1.00  0.00     0.194 C 
BRANCH  22  23
HETATM   23  C18 UNL     1      11.607  41.011  -7.866  1.00  0.00     0.193 C 
BRANCH  23  24
HETATM   24  O4  UNL     1      10.984  39.862  -7.478  1.00  0.00    -0.387 OA
BRANCH  24  25
HETATM   25  C19 UNL     1      11.739  38.725  -7.414  1.00  0.00     0.187 C 
BRANCH  25  26
HETATM   26  C20 UNL     1      11.736  38.130  -5.998  1.00  0.00     0.148 C 
BRANCH  26  27
HETATM   27  N4  UNL     1      10.540  38.659  -5.357  1.00  0.00    -0.363 N 
HETATM   28  C21 UNL     1      10.217  38.508  -3.985  1.00  0.00     0.181 C 
HETATM   29  N5  UNL     1      10.980  38.964  -3.037  1.00  0.00    -0.374 N 
HETATM   30  N6  UNL     1       9.024  37.852  -3.611  1.00  0.00    -0.064 NA
ATOM     31  H52 UNL     1      11.842  39.438  -3.308  1.00  0.00     0.158 HD
ATOM     32  H51 UNL     1      10.748  38.855  -2.050  1.00  0.00     0.158 HD
ATOM     33  H4  UNL     1       9.884  39.180  -5.940  1.00  0.00     0.162 HD
ENDBRANCH  26  27
ENDBRANCH  25  26
ENDBRANCH  24  25
ENDBRANCH  23  24
ENDBRANCH  22  23
ENDBRANCH  21  22
ENDBRANCH  20  21
ENDBRANCH  19  20
ENDBRANCH  17  19
ENDBRANCH  15  17
BRANCH  14  34
HETATM   34  N2  UNL     1      13.684  42.489 -12.639  1.00  0.00    -0.415 NA
BRANCH  34  35
HETATM   35  C13 UNL     1      12.467  42.614 -13.217  1.00  0.00     0.435 C 
HETATM   36  O2  UNL     1      12.195  42.918 -14.405  1.00  0.00    -0.269 OA
ENDBRANCH  34  35
ENDBRANCH  14  34
BRANCH   3  37
HETATM   37  O1  UNL     1      12.570  34.964 -12.143  1.00  0.00    -0.360 OA
ATOM     38  H1  UNL     1      13.102  34.212 -12.379  1.00  0.00     0.217 HD
ENDBRANCH   3  37
TORSDOF 13
ENDMDL
MODEL 4
REMARK VINA RESULT: -7.702622542      1.793      2.391
REMARK  13 active torsions:
REMARK  status: ('A' for Active; 'I' for Inactive)
REMARK    1  A    between atoms: C3_3  and  O1_4 
REMARK    2  A    between atoms: C12_16  and  N2_17 
REMARK    3  A    between atoms: N2_17  and  C13_18 
REMARK    4  A    between atoms: C14_20  and  N3_21 
REMARK    5  A    between atoms: N3_21  and  C15_23 
REMARK    6  A    between atoms: C15_23  and  C16_24 
REMARK    7  A    between atoms: C16_24  and  O3_25 
REMARK    8  A    between atoms: O3_25  and  C17_26 
REMARK    9  A    between atoms: C17_26  and  C18_27 
REMARK   10  A    between atoms: C18_27  and  O4_28 
REMARK   11  A    between atoms: O4_28  and  C19_29 
REMARK   12  A    between atoms: C19_29  and  C20_30 
REMARK   13  A    between atoms: C20_30  and  N4_31 
REMARK       I    between atoms: N4_31  and  C21_33 
ROOT
HETATM    1  C1  UNL     1      13.598  36.078 -14.473  1.00  0.00     0.052 C 
HETATM    2  C2  UNL     1      13.685  36.798 -13.213  1.00  0.00    -0.022 A 
HETATM    3  C3  UNL     1      13.160  36.246 -12.065  1.00  0.00     0.074 A 
HETATM    4  C4  UNL     1      13.233  36.897 -10.855  1.00  0.00     0.067 A 
HETATM    5  C5  UNL     1      13.836  38.131 -10.746  1.00  0.00     0.046 A 
HETATM    6  N1  UNL     1      14.064  38.976  -9.727  1.00  0.00    -0.358 N 
ATOM      7  H1  UNL     1      13.791  38.838  -8.754  1.00  0.00     0.166 HD
HETATM    8  C6  UNL     1      14.710  40.027 -10.221  1.00  0.00     0.019 A 
HETATM    9  C7  UNL     1      14.911  39.875 -11.580  1.00  0.00    -0.019 A 
HETATM   10  C8  UNL     1      14.363  38.677 -11.923  1.00  0.00     0.005 A 
HETATM   11  C9  UNL     1      14.286  38.017 -13.129  1.00  0.00    -0.040 A 
HETATM   12  C10 UNL     1      14.852  38.596 -14.350  1.00  0.00     0.050 C 
HETATM   13  C11 UNL     1      15.599  40.954 -12.264  1.00  0.00     0.083 C 
HETATM   14  C12 UNL     1      15.065  42.350 -11.844  1.00  0.00     0.193 C 
HETATM   15  C14 UNL     1      15.123  42.510 -10.337  1.00  0.00     0.122 C 
HETATM   16  C22 UNL     1      15.236  41.232  -9.583  1.00  0.00     0.085 C 
ENDROOT
BRANCH  15  17
HETATM   17  N3  UNL     1      14.143  43.406  -9.874  1.00  0.00    -0.392 N 
ATOM     18  H3  UNL     1      13.315  43.585 -10.442  1.00  0.00     0.159 HD
BRANCH  17  19
HETATM   19  C15 UNL     1      14.290  44.050  -8.653  1.00  0.00     0.082 C 
BRANCH  19  20
HETATM   20  C16 UNL     1      13.114  44.700  -8.015  1.00  0.00     0.211 C 
BRANCH  20  21
HETATM   21  O3  UNL     1      11.952  44.789  -8.692  1.00  0.00    -0.384 OA
BRANCH  21  22
HETATM   22  C17 UNL     1      10.859  44.072  -8.391  1.00  0.00     0.194 C 
BRANCH  22  23
HETATM   23  C18 UNL     1      10.707  42.815  -9.199  1.00  0.00     0.193 C 
BRANCH  23  24
HETATM   24  O4  UNL     1      11.629  41.830  -9.002  1.00  0.00    -0.387 OA
BRANCH  24  25
HETATM   25  C19 UNL     1      11.354  40.889  -8.049  1.00  0.00     0.187 C 
BRANCH  25  26
HETATM   26  C20 UNL     1      12.212  41.096  -6.793  1.00  0.00     0.148 C 
BRANCH  26  27
HETATM   27  N4  UNL     1      11.593  40.275  -5.761  1.00  0.00    -0.363 N 
HETATM   28  C21 UNL     1      11.378  38.877  -5.853  1.00  0.00     0.181 C 
HETATM   29  N5  UNL     1      12.354  38.032  -6.001  1.00  0.00    -0.374 N 
HETATM   30  N6  UNL     1      10.067  38.360  -5.773  1.00  0.00    -0.064 NA
ATOM     31  H52 UNL     1      13.301  38.406  -6.059  1.00  0.00     0.158 HD
ATOM     32  H51 UNL     1      12.200  37.026  -6.067  1.00  0.00     0.158 HD
ATOM     33  H4  UNL     1      11.291  40.742  -4.906  1.00  0.00     0.162 HD
ENDBRANCH  26  27
ENDBRANCH  25  26
ENDBRANCH  24  25
ENDBRANCH  23  24
ENDBRANCH  22  23
ENDBRANCH  21  22
ENDBRANCH  20  21
ENDBRANCH  19  20
ENDBRANCH  17  19
ENDBRANCH  15  17
BRANCH  14  34
HETATM   34  N2  UNL     1      13.831  42.519 -12.440  1.00  0.00    -0.415 NA
BRANCH  34  35
HETATM   35  C13 UNL     1      12.622  42.684 -13.024  1.00  0.00     0.435 C 
HETATM   36  O2  UNL     1      12.340  42.687 -14.248  1.00  0.00    -0.269 OA
ENDBRANCH  34  35
ENDBRANCH  14  34
BRANCH   3  37
HETATM   37  O1  UNL     1      12.549  35.010 -12.135  1.00  0.00    -0.360 OA
ATOM     38  H1  UNL     1      12.069  34.690 -11.380  1.00  0.00     0.217 HD
ENDBRANCH   3  37
TORSDOF 13
ENDMDL
MODEL 5
REMARK VINA RESULT: -7.434094681      2.037      2.754
REMARK  13 active torsions:
REMARK  status: ('A' for Active; 'I' for Inactive)
REMARK    1  A    between atoms: C3_3  and  O1_4 
REMARK    2  A    between atoms: C12_16  and  N2_17 
REMARK    3  A    between atoms: N2_17  and  C13_18 
REMARK    4  A    between atoms: C14_20  and  N3_21 
REMARK    5  A    between atoms: N3_21  and  C15_23 
REMARK    6  A    between atoms: C15_23  and  C16_24 
REMARK    7  A    between atoms: C16_24  and  O3_25 
REMARK    8  A    between atoms: O3_25  and  C17_26 
REMARK    9  A    between atoms: C17_26  and  C18_27 
REMARK   10  A    between atoms: C18_27  and  O4_28 
REMARK   11  A    between atoms: O4_28  and  C19_29 
REMARK   12  A    between atoms: C19_29  and  C20_30 
REMARK   13  A    between atoms: C20_30  and  N4_31 
REMARK       I    between atoms: N4_31  and  C21_33 
ROOT
HETATM    1  C1  UNL     1      15.791  37.048 -13.800  1.00  0.00     0.052 C 
HETATM    2  C2  UNL     1      14.942  37.359 -12.661  1.00  0.00    -0.022 A 
HETATM    3  C3  UNL     1      14.025  36.434 -12.211  1.00  0.00     0.074 A 
HETATM    4  C4  UNL     1      13.213  36.694 -11.130  1.00  0.00     0.067 A 
HETATM    5  C5  UNL     1      13.287  37.893 -10.455  1.00  0.00     0.046 A 
HETATM    6  N1  UNL     1      12.653  38.410  -9.390  1.00  0.00    -0.358 N 
ATOM      7  H1  UNL     1      11.921  37.957  -8.844  1.00  0.00     0.166 HD
HETATM    8  C6  UNL     1      13.156  39.623  -9.180  1.00  0.00     0.019 A 
HETATM    9  C7  UNL     1      14.131  39.910 -10.116  1.00  0.00    -0.019 A 
HETATM   10  C8  UNL     1      14.224  38.821 -10.928  1.00  0.00     0.005 A 
HETATM   11  C9  UNL     1      15.033  38.551 -12.010  1.00  0.00    -0.040 A 
HETATM   12  C10 UNL     1      16.017  39.528 -12.485  1.00  0.00     0.050 C 
HETATM   13  C11 UNL     1      14.767  41.210 -10.020  1.00  0.00     0.083 C 
HETATM   14  C12 UNL     1      13.739  42.351  -9.790  1.00  0.00     0.193 C 
HETATM   15  C14 UNL     1      12.877  42.053  -8.579  1.00  0.00     0.122 C 
HETATM   16  C22 UNL     1      12.874  40.626  -8.156  1.00  0.00     0.085 C 
ENDROOT
BRANCH  15  17
HETATM   17  N3  UNL     1      11.613  42.661  -8.681  1.00  0.00    -0.392 N 
ATOM     18  H3  UNL     1      11.057  42.528  -9.527  1.00  0.00     0.159 HD
BRANCH  17  19
HETATM   19  C15 UNL     1      11.113  43.439  -7.647  1.00  0.00     0.082 C 
BRANCH  19  20
HETATM   20  C16 UNL     1       9.737  43.195  -7.137  1.00  0.00     0.211 C 
BRANCH  20  21
HETATM   21  O3  UNL     1       9.566  42.650  -5.915  1.00  0.00    -0.384 OA
BRANCH  21  22
HETATM   22  C17 UNL     1       8.470  42.838  -5.165  1.00  0.00     0.194 C 
BRANCH  22  23
HETATM   23  C18 UNL     1       8.394  41.951  -3.955  1.00  0.00     0.193 C 
BRANCH  23  24
HETATM   24  O4  UNL     1       8.346  40.606  -4.169  1.00  0.00    -0.387 OA
BRANCH  24  25
HETATM   25  C19 UNL     1       8.899  39.795  -3.218  1.00  0.00     0.187 C 
BRANCH  25  26
HETATM   26  C20 UNL     1       8.989  38.341  -3.705  1.00  0.00     0.148 C 
BRANCH  26  27
HETATM   27  N4  UNL     1      10.381  38.145  -4.086  1.00  0.00    -0.363 N 
HETATM   28  C21 UNL     1      10.993  38.690  -5.243  1.00  0.00     0.181 C 
HETATM   29  N5  UNL     1      11.071  39.970  -5.450  1.00  0.00    -0.374 N 
HETATM   30  N6  UNL     1      11.553  37.831  -6.213  1.00  0.00    -0.064 NA
ATOM     31  H52 UNL     1      10.666  40.590  -4.749  1.00  0.00     0.158 HD
ATOM     32  H51 UNL     1      11.511  40.363  -6.282  1.00  0.00     0.158 HD
ATOM     33  H4  UNL     1      10.961  37.572  -3.473  1.00  0.00     0.162 HD
ENDBRANCH  26  27
ENDBRANCH  25  26
ENDBRANCH  24  25
ENDBRANCH  23  24
ENDBRANCH  22  23
ENDBRANCH  21  22
ENDBRANCH  20  21
ENDBRANCH  19  20
ENDBRANCH  17  19
ENDBRANCH  15  17
BRANCH  14  34
HETATM   34  N2  UNL     1      13.080  42.562 -10.985  1.00  0.00    -0.415 NA
BRANCH  34  35
HETATM   35  C13 UNL     1      12.435  42.770 -12.155  1.00  0.00     0.435 C 
HETATM   36  O2  UNL     1      12.886  42.674 -13.323  1.00  0.00    -0.269 OA
ENDBRANCH  34  35
ENDBRANCH  14  34
BRANCH   3  37
HETATM   37  O1  UNL     1      13.923  35.221 -12.861  1.00  0.00    -0.360 OA
ATOM     38  H1  UNL     1      13.158  34.678 -12.706  1.00  0.00     0.217 HD
ENDBRANCH   3  37
TORSDOF 13
ENDMDL
