MODEL 1
REMARK VINA RESULT: -8.718561170      0.000      0.000
REMARK  14 active torsions:
REMARK  status: ('A' for Active; 'I' for Inactive)
REMARK    1  A    between atoms: N1_1  and  C1_4 
REMARK    2  A    between atoms: C4_10  and  N3_11 
REMARK    3  A    between atoms: N3_11  and  C5_12 
REMARK    4  A    between atoms: C5_12  and  C6_13 
REMARK    5  A    between atoms: C6_13  and  C7_14 
REMARK    6  A    between atoms: C7_14  and  N4_15 
REMARK    7  A    between atoms: N4_15  and  C8_18 
REMARK    8  A    between atoms: C8_18  and  C9_19 
REMARK    9  A    between atoms: C9_19  and  C10_20 
REMARK   10  A    between atoms: C10_20  and  N5_21 
REMARK       I    between atoms: N5_21  and  C11_23 
REMARK   11  A    between atoms: C11_23  and  C12_25 
REMARK   12  A    between atoms: C12_25  and  C13_26 
REMARK   13  A    between atoms: C13_26  and  C14_27 
REMARK       I    between atoms: C14_27  and  N6_29 
REMARK   14  A    between atoms: N6_29  and  C15_31 
ROOT
HETATM    1  C7  UNL     1      14.346  38.693  -9.150  1.00  0.00     0.238 C 
ENDROOT
BRANCH   1   2
HETATM    2  C6  UNL     1      13.443  37.650  -9.731  1.00  0.00     0.087 C 
BRANCH   2   3
HETATM    3  C5  UNL     1      14.287  36.482 -10.265  1.00  0.00     0.159 C 
BRANCH   3   4
HETATM    4  N3  UNL     1      14.850  36.561 -11.460  1.00  0.00    -0.403 NA
BRANCH   4   5
HETATM    5  C4  UNL     1      15.362  36.646 -12.555  1.00  0.00     0.198 A 
HETATM    6  C3  UNL     1      14.792  36.316 -13.751  1.00  0.00     0.135 A 
HETATM    7  C2  UNL     1      13.541  35.760 -13.872  1.00  0.00     0.278 A 
HETATM    8  C21 UNL     1      15.520  36.526 -14.952  1.00  0.00     0.142 A 
HETATM    9  N2  UNL     1      12.976  35.411 -15.024  1.00  0.00    -0.155 N 
HETATM   10  O1  UNL     1      12.872  35.561 -12.786  1.00  0.00    -0.266 OA
HETATM   11  C1  UNL     1      13.681  35.619 -16.164  1.00  0.00     0.680 A 
ATOM     12  H2  UNL     1      12.043  35.000 -15.050  1.00  0.00     0.187 HD
HETATM   13  N9  UNL     1      14.924  36.167 -16.096  1.00  0.00    -0.176 N 
ATOM     14  H9  UNL     1      15.432  36.312 -16.968  1.00  0.00     0.186 HD
HETATM   15  N8  UNL     1      16.758  37.042 -14.950  1.00  0.00    -0.337 N 
HETATM   16  C20 UNL     1      17.302  37.357 -13.775  1.00  0.00     0.184 A 
ATOM     17  H8  UNL     1      17.267  37.190 -15.822  1.00  0.00     0.168 HD
HETATM   18  N7  UNL     1      16.655  37.175 -12.628  1.00  0.00    -0.326 N 
ATOM     19  H7  UNL     1      17.123  37.434 -11.760  1.00  0.00     0.169 HD
BRANCH  11  20
HETATM   20  N1  UNL     1      13.181  35.305 -17.269  1.00  0.00    -0.234 N 
ATOM     21  H12 UNL     1      12.469  35.892 -17.703  1.00  0.00     0.174 HD
ATOM     22  H11 UNL     1      13.490  34.454 -17.739  1.00  0.00     0.174 HD
ENDBRANCH  11  20
ENDBRANCH   4   5
ENDBRANCH   3   4
ENDBRANCH   2   3
ENDBRANCH   1   2
BRANCH   1  23
HETATM   23  N4  UNL     1      14.932  39.525 -10.193  1.00  0.00    -0.075 N 
ATOM     24  H42 UNL     1      15.741  40.059  -9.875  1.00  0.00     0.277 HD
ATOM     25  H41 UNL     1      15.409  38.987 -10.917  1.00  0.00     0.277 HD
BRANCH  23  26
HETATM   26  C8  UNL     1      13.876  40.350 -10.706  1.00  0.00     0.234 C 
BRANCH  26  27
HETATM   27  C9  UNL     1      13.803  41.764 -10.239  1.00  0.00     0.047 C 
BRANCH  27  28
HETATM   28  C10 UNL     1      12.494  42.138  -9.559  1.00  0.00     0.124 C 
BRANCH  28  29
HETATM   29  N5  UNL     1      11.846  40.995  -8.981  1.00  0.00    -0.361 N 
HETATM   30  C11 UNL     1      11.935  40.632  -7.608  1.00  0.00     0.217 C 
HETATM   31  O2  UNL     1      12.558  41.338  -6.814  1.00  0.00    -0.274 OA
ATOM     32  H5  UNL     1      11.283  40.406  -9.595  1.00  0.00     0.162 HD
BRANCH  30  33
HETATM   33  C12 UNL     1      11.278  39.387  -7.222  1.00  0.00     0.112 C 
BRANCH  33  34
HETATM   34  C13 UNL     1      11.609  38.716  -5.988  1.00  0.00     0.112 C 
BRANCH  34  35
HETATM   35  C14 UNL     1      10.572  38.542  -4.959  1.00  0.00     0.218 C 
HETATM   36  O3  UNL     1       9.464  38.090  -5.287  1.00  0.00    -0.274 OA
HETATM   37  N6  UNL     1      10.979  38.911  -3.650  1.00  0.00    -0.356 N 
ATOM     38  H6  UNL     1      11.912  39.309  -3.540  1.00  0.00     0.162 HD
BRANCH  37  39
HETATM   39  C15 UNL     1      10.180  38.768  -2.476  1.00  0.00     0.084 C 
HETATM   40  C16 UNL     1      10.997  38.985  -1.194  1.00  0.00     0.025 C 
HETATM   41  C17 UNL     1      10.011  38.405  -0.179  1.00  0.00     0.002 C 
HETATM   42  C18 UNL     1       9.454  37.169  -0.860  1.00  0.00     0.002 C 
HETATM   43  C19 UNL     1       9.825  37.279  -2.301  1.00  0.00     0.025 C 
ENDBRANCH  37  39
ENDBRANCH  34  35
ENDBRANCH  33  34
ENDBRANCH  30  33
ENDBRANCH  28  29
ENDBRANCH  27  28
ENDBRANCH  26  27
ENDBRANCH  23  26
ENDBRANCH   1  23
TORSDOF 14
ENDMDL
MODEL 2
REMARK VINA RESULT: -8.599726251      1.771      2.447
REMARK  14 active torsions:
REMARK  status: ('A' for Active; 'I' for Inactive)
REMARK    1  A    between atoms: N1_1  and  C1_4 
REMARK    2  A    between atoms: C4_10  and  N3_11 
REMARK    3  A    between atoms: N3_11  and  C5_12 
REMARK    4  A    between atoms: C5_12  and  C6_13 
REMARK    5  A    between atoms: C6_13  and  C7_14 
REMARK    6  A    between atoms: C7_14  and  N4_15 
REMARK    7  A    between atoms: N4_15  and  C8_18 
REMARK    8  A    between atoms: C8_18  and  C9_19 
REMARK    9  A    between atoms: C9_19  and  C10_20 
REMARK   10  A    between atoms: C10_20  and  N5_21 
REMARK       I    between atoms: N5_21  and  C11_23 
REMARK   11  A    between atoms: C11_23  and  C12_25 
REMARK   12  A    between atoms: C12_25  and  C13_26 
REMARK   13  A    between atoms: C13_26  and  C14_27 
REMARK       I    between atoms: C14_27  and  N6_29 
REMARK   14  A    between atoms: N6_29  and  C15_31 
ROOT
HETATM    1  C7  UNL     1      17.172  41.132 -10.533  1.00  0.00     0.238 C 
ENDROOT
BRANCH   1   2
HETATM    2  C6  UNL     1      17.406  40.657 -11.934  1.00  0.00     0.087 C 
BRANCH   2   3
HETATM    3  C5  UNL     1      16.055  40.372 -12.609  1.00  0.00     0.159 C 
BRANCH   3   4
HETATM    4  N3  UNL     1      15.540  39.153 -12.577  1.00  0.00    -0.403 NA
BRANCH   4   5
HETATM    5  C4  UNL     1      15.080  38.033 -12.554  1.00  0.00     0.198 A 
HETATM    6  C3  UNL     1      14.605  37.322 -13.619  1.00  0.00     0.135 A 
HETATM    7  C2  UNL     1      14.520  37.825 -14.894  1.00  0.00     0.278 A 
HETATM    8  C21 UNL     1      14.144  35.994 -13.420  1.00  0.00     0.142 A 
HETATM    9  N2  UNL     1      14.041  37.159 -15.941  1.00  0.00    -0.155 N 
HETATM   10  O1  UNL     1      14.933  39.034 -15.085  1.00  0.00    -0.266 OA
HETATM   11  C1  UNL     1      13.607  35.890 -15.738  1.00  0.00     0.680 A 
ATOM     12  H2  UNL     1      14.002  37.588 -16.865  1.00  0.00     0.187 HD
HETATM   13  N9  UNL     1      13.670  35.347 -14.493  1.00  0.00    -0.176 N 
ATOM     14  H9  UNL     1      13.336  34.392 -14.369  1.00  0.00     0.186 HD
HETATM   15  N8  UNL     1      14.161  35.410 -12.213  1.00  0.00    -0.337 N 
HETATM   16  C20 UNL     1      14.624  36.117 -11.182  1.00  0.00     0.184 A 
ATOM     17  H8  UNL     1      13.828  34.453 -12.087  1.00  0.00     0.168 HD
HETATM   18  N7  UNL     1      15.064  37.363 -11.326  1.00  0.00    -0.326 N 
ATOM     19  H7  UNL     1      15.406  37.854 -10.500  1.00  0.00     0.169 HD
BRANCH  11  20
HETATM   20  N1  UNL     1      13.150  35.230 -16.700  1.00  0.00    -0.234 N 
ATOM     21  H12 UNL     1      13.704  35.093 -17.546  1.00  0.00     0.174 HD
ATOM     22  H11 UNL     1      12.216  34.825 -16.637  1.00  0.00     0.174 HD
ENDBRANCH  11  20
ENDBRANCH   4   5
ENDBRANCH   3   4
ENDBRANCH   2   3
ENDBRANCH   1   2
BRANCH   1  23
HETATM   23  N4  UNL     1      16.040  40.444  -9.925  1.00  0.00    -0.075 N 
ATOM     24  H42 UNL     1      15.542  39.837 -10.575  1.00  0.00     0.277 HD
ATOM     25  H41 UNL     1      16.319  39.721  -9.260  1.00  0.00     0.277 HD
BRANCH  23  26
HETATM   26  C8  UNL     1      15.206  41.455  -9.343  1.00  0.00     0.234 C 
BRANCH  26  27
HETATM   27  C9  UNL     1      13.779  41.515  -9.767  1.00  0.00     0.047 C 
BRANCH  27  28
HETATM   28  C10 UNL     1      13.127  40.157  -9.986  1.00  0.00     0.124 C 
BRANCH  28  29
HETATM   29  N5  UNL     1      12.471  39.682  -8.802  1.00  0.00    -0.361 N 
HETATM   30  C11 UNL     1      12.927  38.584  -8.018  1.00  0.00     0.217 C 
HETATM   31  O2  UNL     1      13.974  38.004  -8.307  1.00  0.00    -0.274 OA
ATOM     32  H5  UNL     1      11.622  40.162  -8.501  1.00  0.00     0.162 HD
BRANCH  30  33
HETATM   33  C12 UNL     1      12.080  38.192  -6.897  1.00  0.00     0.112 C 
BRANCH  33  34
HETATM   34  C13 UNL     1      11.669  39.148  -5.897  1.00  0.00     0.112 C 
BRANCH  34  35
HETATM   35  C14 UNL     1      10.601  38.792  -4.950  1.00  0.00     0.218 C 
HETATM   36  O3  UNL     1       9.553  38.287  -5.384  1.00  0.00    -0.274 OA
HETATM   37  N6  UNL     1      10.909  39.061  -3.591  1.00  0.00    -0.356 N 
ATOM     38  H6  UNL     1      11.798  39.519  -3.390  1.00  0.00     0.162 HD
BRANCH  37  39
HETATM   39  C15 UNL     1      10.067  38.740  -2.485  1.00  0.00     0.084 C 
HETATM   40  C16 UNL     1      10.779  38.953  -1.139  1.00  0.00     0.025 C 
HETATM   41  C17 UNL     1       9.813  38.189  -0.233  1.00  0.00     0.002 C 
HETATM   42  C18 UNL     1       9.446  36.952  -1.030  1.00  0.00     0.002 C 
HETATM   43  C19 UNL     1       9.883  37.211  -2.434  1.00  0.00     0.025 C 
ENDBRANCH  37  39
ENDBRANCH  34  35
ENDBRANCH  33  34
ENDBRANCH  30  33
ENDBRANCH  28  29
ENDBRANCH  27  28
ENDBRANCH  26  27
ENDBRANCH  23  26
ENDBRANCH   1  23
TORSDOF 14
ENDMDL
MODEL 3
REMARK VINA RESULT: -8.304323992      2.525      3.088
REMARK  14 active torsions:
REMARK  status: ('A' for Active; 'I' for Inactive)
REMARK    1  A    between atoms: N1_1  and  C1_4 
REMARK    2  A    between atoms: C4_10  and  N3_11 
REMARK    3  A    between atoms: N3_11  and  C5_12 
REMARK    4  A    between atoms: C5_12  and  C6_13 
REMARK    5  A    between atoms: C6_13  and  C7_14 
REMARK    6  A    between atoms: C7_14  and  N4_15 
REMARK    7  A    between atoms: N4_15  and  C8_18 
REMARK    8  A    between atoms: C8_18  and  C9_19 
REMARK    9  A    between atoms: C9_19  and  C10_20 
REMARK   10  A    between atoms: C10_20  and  N5_21 
REMARK       I    between atoms: N5_21  and  C11_23 
REMARK   11  A    between atoms: C11_23  and  C12_25 
REMARK   12  A    between atoms: C12_25  and  C13_26 
REMARK   13  A    between atoms: C13_26  and  C14_27 
REMARK       I    between atoms: C14_27  and  N6_29 
REMARK   14  A    between atoms: N6_29  and  C15_31 
ROOT
HETATM    1  C7  UNL     1      13.551  38.359  -8.469  1.00  0.00     0.238 C 
ENDROOT
BRANCH   1   2
HETATM    2  C6  UNL     1      14.127  37.352  -9.414  1.00  0.00     0.087 C 
BRANCH   2   3
HETATM    3  C5  UNL     1      13.188  37.184 -10.619  1.00  0.00     0.159 C 
BRANCH   3   4
HETATM    4  N3  UNL     1      13.589  37.537 -11.830  1.00  0.00    -0.403 NA
BRANCH   4   5
HETATM    5  C4  UNL     1      13.953  37.847 -12.943  1.00  0.00     0.198 A 
HETATM    6  C3  UNL     1      13.808  37.111 -14.084  1.00  0.00     0.135 A 
HETATM    7  C2  UNL     1      13.271  35.847 -14.113  1.00  0.00     0.278 A 
HETATM    8  C21 UNL     1      14.251  37.649 -15.321  1.00  0.00     0.142 A 
HETATM    9  N2  UNL     1      13.141  35.105 -15.209  1.00  0.00    -0.155 N 
HETATM   10  O1  UNL     1      12.869  35.347 -12.993  1.00  0.00    -0.266 OA
HETATM   11  C1  UNL     1      13.566  35.632 -16.384  1.00  0.00     0.680 A 
ATOM     12  H2  UNL     1      12.735  34.170 -15.167  1.00  0.00     0.187 HD
HETATM   13  N9  UNL     1      14.105  36.880 -16.407  1.00  0.00    -0.176 N 
ATOM     14  H9  UNL     1      14.416  37.251 -17.304  1.00  0.00     0.186 HD
HETATM   15  N8  UNL     1      14.810  38.866 -15.406  1.00  0.00    -0.337 N 
HETATM   16  C20 UNL     1      14.948  39.571 -14.284  1.00  0.00     0.184 A 
ATOM     17  H8  UNL     1      15.121  39.239 -16.303  1.00  0.00     0.168 HD
HETATM   18  N7  UNL     1      14.547  39.103 -13.106  1.00  0.00    -0.326 N 
ATOM     19  H7  UNL     1      14.680  39.688 -12.281  1.00  0.00     0.169 HD
BRANCH  11  20
HETATM   20  N1  UNL     1      13.458  34.963 -17.439  1.00  0.00    -0.234 N 
ATOM     21  H12 UNL     1      12.685  35.131 -18.084  1.00  0.00     0.174 HD
ATOM     22  H11 UNL     1      14.150  34.245 -17.654  1.00  0.00     0.174 HD
ENDBRANCH  11  20
ENDBRANCH   4   5
ENDBRANCH   3   4
ENDBRANCH   2   3
ENDBRANCH   1   2
BRANCH   1  23
HETATM   23  N4  UNL     1      12.463  39.105  -9.090  1.00  0.00    -0.075 N 
ATOM     24  H42 UNL     1      12.330  38.875 -10.076  1.00  0.00     0.277 HD
ATOM     25  H41 UNL     1      11.540  38.816  -8.765  1.00  0.00     0.277 HD
BRANCH  23  26
HETATM   26  C8  UNL     1      12.733  40.495  -8.865  1.00  0.00     0.234 C 
BRANCH  26  27
HETATM   27  C9  UNL     1      12.933  40.951  -7.461  1.00  0.00     0.047 C 
BRANCH  27  28
HETATM   28  C10 UNL     1      11.647  41.253  -6.705  1.00  0.00     0.124 C 
BRANCH  28  29
HETATM   29  N5  UNL     1      11.425  40.323  -5.634  1.00  0.00    -0.361 N 
HETATM   30  C11 UNL     1      10.772  39.067  -5.786  1.00  0.00     0.217 C 
HETATM   31  O2  UNL     1      10.399  38.687  -6.896  1.00  0.00    -0.274 OA
ATOM     32  H5  UNL     1      11.757  40.578  -4.705  1.00  0.00     0.162 HD
BRANCH  30  33
HETATM   33  C12 UNL     1      10.561  38.295  -4.566  1.00  0.00     0.112 C 
BRANCH  33  34
HETATM   34  C13 UNL     1      10.269  38.943  -3.310  1.00  0.00     0.112 C 
BRANCH  34  35
HETATM   35  C14 UNL     1       8.979  39.627  -3.131  1.00  0.00     0.218 C 
HETATM   36  O3  UNL     1       7.928  38.981  -3.274  1.00  0.00    -0.274 OA
HETATM   37  N6  UNL     1       9.085  40.999  -2.786  1.00  0.00    -0.356 N 
ATOM     38  H6  UNL     1      10.021  41.404  -2.744  1.00  0.00     0.162 HD
BRANCH  37  39
HETATM   39  C15 UNL     1       7.982  41.855  -2.491  1.00  0.00     0.084 C 
HETATM   40  C16 UNL     1       7.991  43.124  -3.357  1.00  0.00     0.025 C 
HETATM   41  C17 UNL     1       6.980  43.959  -2.570  1.00  0.00     0.002 C 
HETATM   42  C18 UNL     1       7.320  43.691  -1.116  1.00  0.00     0.002 C 
HETATM   43  C19 UNL     1       8.209  42.492  -1.106  1.00  0.00     0.025 C 
ENDBRANCH  37  39
ENDBRANCH  34  35
ENDBRANCH  33  34
ENDBRANCH  30  33
ENDBRANCH  28  29
ENDBRANCH  27  28
ENDBRANCH  26  27
ENDBRANCH  23  26
ENDBRANCH   1  23
TORSDOF 14
ENDMDL
MODEL 4
REMARK VINA RESULT: -8.174116951      2.589      8.590
REMARK  14 active torsions:
REMARK  status: ('A' for Active; 'I' for Inactive)
REMARK    1  A    between atoms: N1_1  and  C1_4 
REMARK    2  A    between atoms: C4_10  and  N3_11 
REMARK    3  A    between atoms: N3_11  and  C5_12 
REMARK    4  A    between atoms: C5_12  and  C6_13 
REMARK    5  A    between atoms: C6_13  and  C7_14 
REMARK    6  A    between atoms: C7_14  and  N4_15 
REMARK    7  A    between atoms: N4_15  and  C8_18 
REMARK    8  A    between atoms: C8_18  and  C9_19 
REMARK    9  A    between atoms: C9_19  and  C10_20 
REMARK   10  A    between atoms: C10_20  and  N5_21 
REMARK       I    between atoms: N5_21  and  C11_23 
REMARK   11  A    between atoms: C11_23  and  C12_25 
REMARK   12  A    between atoms: C12_25  and  C13_26 
REMARK   13  A    between atoms: C13_26  and  C14_27 
REMARK       I    between atoms: C14_27  and  N6_29 
REMARK   14  A    between atoms: N6_29  and  C15_31 
ROOT
HETATM    1  C7  UNL     1      14.521  36.122 -10.960  1.00  0.00     0.238 C 
ENDROOT
BRANCH   1   2
HETATM    2  C6  UNL     1      13.434  37.151 -10.906  1.00  0.00     0.087 C 
BRANCH   2   3
HETATM    3  C5  UNL     1      14.005  38.470 -10.363  1.00  0.00     0.159 C 
BRANCH   3   4
HETATM    4  N3  UNL     1      13.262  39.248  -9.591  1.00  0.00    -0.403 NA
BRANCH   4   5
HETATM    5  C4  UNL     1      12.594  39.965  -8.879  1.00  0.00     0.198 A 
HETATM    6  C3  UNL     1      12.194  39.700  -7.600  1.00  0.00     0.135 A 
HETATM    7  C2  UNL     1      12.447  38.517  -6.951  1.00  0.00     0.278 A 
HETATM    8  C21 UNL     1      11.451  40.678  -6.887  1.00  0.00     0.142 A 
HETATM    9  N2  UNL     1      12.048  38.230  -5.715  1.00  0.00    -0.155 N 
HETATM   10  O1  UNL     1      13.118  37.619  -7.592  1.00  0.00    -0.266 OA
HETATM   11  C1  UNL     1      11.341  39.174  -5.044  1.00  0.00     0.680 A 
ATOM     12  H2  UNL     1      12.265  37.331  -5.286  1.00  0.00     0.187 HD
HETATM   13  N9  UNL     1      11.065  40.362  -5.644  1.00  0.00    -0.176 N 
ATOM     14  H9  UNL     1      10.532  41.053  -5.117  1.00  0.00     0.186 HD
HETATM   15  N8  UNL     1      11.128  41.861  -7.431  1.00  0.00    -0.337 N 
HETATM   16  C20 UNL     1      11.523  42.103  -8.681  1.00  0.00     0.184 A 
ATOM     17  H8  UNL     1      10.596  42.554  -6.904  1.00  0.00     0.168 HD
HETATM   18  N7  UNL     1      12.219  41.215  -9.383  1.00  0.00    -0.326 N 
ATOM     19  H7  UNL     1      12.493  41.456 -10.335  1.00  0.00     0.169 HD
BRANCH  11  20
HETATM   20  N1  UNL     1      10.949  38.942  -3.877  1.00  0.00    -0.234 N 
ATOM     21  H12 UNL     1      10.219  38.251  -3.701  1.00  0.00     0.174 HD
ATOM     22  H11 UNL     1      11.365  39.448  -3.094  1.00  0.00     0.174 HD
ENDBRANCH  11  20
ENDBRANCH   4   5
ENDBRANCH   3   4
ENDBRANCH   2   3
ENDBRANCH   1   2
BRANCH   1  23
HETATM   23  N4  UNL     1      14.442  35.335 -12.184  1.00  0.00    -0.075 N 
ATOM     24  H42 UNL     1      15.272  35.422 -12.772  1.00  0.00     0.277 HD
ATOM     25  H41 UNL     1      14.505  34.330 -12.021  1.00  0.00     0.277 HD
BRANCH  23  26
HETATM   26  C8  UNL     1      13.234  35.726 -12.851  1.00  0.00     0.234 C 
BRANCH  26  27
HETATM   27  C9  UNL     1      13.249  35.807 -14.338  1.00  0.00     0.047 C 
BRANCH  27  28
HETATM   28  C10 UNL     1      14.469  36.506 -14.921  1.00  0.00     0.124 C 
BRANCH  28  29
HETATM   29  N5  UNL     1      14.483  37.906 -14.607  1.00  0.00    -0.361 N 
HETATM   30  C11 UNL     1      15.437  38.526 -13.750  1.00  0.00     0.217 C 
HETATM   31  O2  UNL     1      16.357  37.869 -13.262  1.00  0.00    -0.274 OA
ATOM     32  H5  UNL     1      13.764  38.496 -15.025  1.00  0.00     0.162 HD
BRANCH  30  33
HETATM   33  C12 UNL     1      15.239  39.946 -13.480  1.00  0.00     0.112 C 
BRANCH  33  34
HETATM   34  C13 UNL     1      16.073  40.652 -12.537  1.00  0.00     0.112 C 
BRANCH  34  35
HETATM   35  C14 UNL     1      15.479  41.695 -11.686  1.00  0.00     0.218 C 
HETATM   36  O3  UNL     1      14.253  41.884 -11.729  1.00  0.00    -0.274 OA
HETATM   37  N6  UNL     1      16.411  42.382 -10.865  1.00  0.00    -0.356 N 
ATOM     38  H6  UNL     1      17.398  42.144 -10.969  1.00  0.00     0.162 HD
BRANCH  37  39
HETATM   39  C15 UNL     1      16.072  43.382  -9.906  1.00  0.00     0.084 C 
HETATM   40  C16 UNL     1      17.302  43.876  -9.129  1.00  0.00     0.025 C 
HETATM   41  C17 UNL     1      16.591  44.597  -7.984  1.00  0.00     0.002 C 
HETATM   42  C18 UNL     1      15.434  43.684  -7.625  1.00  0.00     0.002 C 
HETATM   43  C19 UNL     1      15.297  42.715  -8.753  1.00  0.00     0.025 C 
ENDBRANCH  37  39
ENDBRANCH  34  35
ENDBRANCH  33  34
ENDBRANCH  30  33
ENDBRANCH  28  29
ENDBRANCH  27  28
ENDBRANCH  26  27
ENDBRANCH  23  26
ENDBRANCH   1  23
TORSDOF 14
ENDMDL
MODEL 5
REMARK VINA RESULT: -8.154063689      2.133      9.846
REMARK  14 active torsions:
REMARK  status: ('A' for Active; 'I' for Inactive)
REMARK    1  A    between atoms: N1_1  and  C1_4 
REMARK    2  A    between atoms: C4_10  and  N3_11 
REMARK    3  A    between atoms: N3_11  and  C5_12 
REMARK    4  A    between atoms: C5_12  and  C6_13 
REMARK    5  A    between atoms: C6_13  and  C7_14 
REMARK    6  A    between atoms: C7_14  and  N4_15 
REMARK    7  A    between atoms: N4_15  and  C8_18 
REMARK    8  A    between atoms: C8_18  and  C9_19 
REMARK    9  A    between atoms: C9_19  and  C10_20 
REMARK   10  A    between atoms: C10_20  and  N5_21 
REMARK       I    between atoms: N5_21  and  C11_23 
REMARK   11  A    between atoms: C11_23  and  C12_25 
REMARK   12  A    between atoms: C12_25  and  C13_26 
REMARK   13  A    between atoms: C13_26  and  C14_27 
REMARK       I    between atoms: C14_27  and  N6_29 
REMARK   14  A    between atoms: N6_29  and  C15_31 
ROOT
HETATM    1  C7  UNL     1      11.546  43.089 -10.320  1.00  0.00     0.238 C 
ENDROOT
BRANCH   1   2
HETATM    2  C6  UNL     1      10.373  42.814  -9.430  1.00  0.00     0.087 C 
BRANCH   2   3
HETATM    3  C5  UNL     1      10.841  42.767  -7.967  1.00  0.00     0.159 C 
BRANCH   3   4
HETATM    4  N3  UNL     1      11.133  41.608  -7.399  1.00  0.00    -0.403 NA
BRANCH   4   5
HETATM    5  C4  UNL     1      11.389  40.541  -6.886  1.00  0.00     0.198 A 
HETATM    6  C3  UNL     1      10.808  40.012  -5.769  1.00  0.00     0.135 A 
HETATM    7  C2  UNL     1       9.870  40.671  -5.012  1.00  0.00     0.278 A 
HETATM    8  C21 UNL     1      11.195  38.719  -5.328  1.00  0.00     0.142 A 
HETATM    9  N2  UNL     1       9.308  40.184  -3.910  1.00  0.00    -0.155 N 
HETATM   10  O1  UNL     1       9.514  41.849  -5.402  1.00  0.00    -0.266 OA
HETATM   11  C1  UNL     1       9.685  38.946  -3.501  1.00  0.00     0.680 A 
ATOM     12  H2  UNL     1       8.617  40.723  -3.388  1.00  0.00     0.187 HD
HETATM   13  N9  UNL     1      10.611  38.254  -4.217  1.00  0.00    -0.176 N 
ATOM     14  H9  UNL     1      10.876  37.326  -3.887  1.00  0.00     0.186 HD
HETATM   15  N8  UNL     1      12.119  37.994  -5.978  1.00  0.00    -0.337 N 
HETATM   16  C20 UNL     1      12.679  38.525  -7.065  1.00  0.00     0.184 A 
ATOM     17  H8  UNL     1      12.384  37.065  -5.651  1.00  0.00     0.168 HD
HETATM   18  N7  UNL     1      12.345  39.732  -7.510  1.00  0.00    -0.326 N 
ATOM     19  H7  UNL     1      12.809  40.086  -8.346  1.00  0.00     0.169 HD
BRANCH  11  20
HETATM   20  N1  UNL     1       9.177  38.453  -2.468  1.00  0.00    -0.234 N 
ATOM     21  H12 UNL     1       8.636  39.033  -1.826  1.00  0.00     0.174 HD
ATOM     22  H11 UNL     1       9.304  37.460  -2.267  1.00  0.00     0.174 HD
ENDBRANCH  11  20
ENDBRANCH   4   5
ENDBRANCH   3   4
ENDBRANCH   2   3
ENDBRANCH   1   2
BRANCH   1  23
HETATM   23  N4  UNL     1      12.510  41.997 -10.274  1.00  0.00    -0.075 N 
ATOM     24  H42 UNL     1      12.265  41.272  -9.599  1.00  0.00     0.277 HD
ATOM     25  H41 UNL     1      12.492  41.409 -11.107  1.00  0.00     0.277 HD
BRANCH  23  26
HETATM   26  C8  UNL     1      13.793  42.588 -10.027  1.00  0.00     0.234 C 
BRANCH  26  27
HETATM   27  C9  UNL     1      14.761  41.835  -9.180  1.00  0.00     0.047 C 
BRANCH  27  28
HETATM   28  C10 UNL     1      15.672  40.889  -9.950  1.00  0.00     0.124 C 
BRANCH  28  29
HETATM   29  N5  UNL     1      15.257  39.522  -9.818  1.00  0.00    -0.361 N 
HETATM   30  C11 UNL     1      14.354  38.869 -10.704  1.00  0.00     0.217 C 
HETATM   31  O2  UNL     1      13.910  39.459 -11.689  1.00  0.00    -0.274 OA
ATOM     32  H5  UNL     1      15.635  38.982  -9.040  1.00  0.00     0.162 HD
BRANCH  30  33
HETATM   33  C12 UNL     1      13.983  37.500 -10.359  1.00  0.00     0.112 C 
BRANCH  33  34
HETATM   34  C13 UNL     1      12.969  36.789 -11.101  1.00  0.00     0.112 C 
BRANCH  34  35
HETATM   35  C14 UNL     1      13.364  35.952 -12.245  1.00  0.00     0.218 C 
HETATM   36  O3  UNL     1      13.152  34.730 -12.200  1.00  0.00    -0.274 OA
HETATM   37  N6  UNL     1      13.952  36.669 -13.319  1.00  0.00    -0.356 N 
ATOM     38  H6  UNL     1      14.100  37.670 -13.194  1.00  0.00     0.162 HD
BRANCH  37  39
HETATM   39  C15 UNL     1      14.351  36.093 -14.563  1.00  0.00     0.084 C 
HETATM   40  C16 UNL     1      14.988  37.131 -15.500  1.00  0.00     0.025 C 
HETATM   41  C17 UNL     1      14.939  36.337 -16.806  1.00  0.00     0.002 C 
HETATM   42  C18 UNL     1      13.586  35.652 -16.781  1.00  0.00     0.002 C 
HETATM   43  C19 UNL     1      13.087  35.758 -15.378  1.00  0.00     0.025 C 
ENDBRANCH  37  39
ENDBRANCH  34  35
ENDBRANCH  33  34
ENDBRANCH  30  33
ENDBRANCH  28  29
ENDBRANCH  27  28
ENDBRANCH  26  27
ENDBRANCH  23  26
ENDBRANCH   1  23
TORSDOF 14
ENDMDL
