MODEL 1
REMARK VINA RESULT: -8.800575181      0.000      0.000
REMARK  13 active torsions:
REMARK  status: ('A' for Active; 'I' for Inactive)
REMARK    1  A    between atoms: N1_1  and  C1_4 
REMARK    2  A    between atoms: C2_7  and  N3_8 
REMARK    3  A    between atoms: N4_10  and  C3_12 
REMARK    4  A    between atoms: C5_14  and  C6_15 
REMARK    5  A    between atoms: C6_15  and  C7_17 
REMARK    6  A    between atoms: C7_17  and  N5_18 
REMARK    7  A    between atoms: C9_23  and  N6_24 
REMARK    8  A    between atoms: C10_29  and  C11_30 
REMARK    9  A    between atoms: C11_30  and  N9_31 
REMARK   10  A    between atoms: C11_30  and  N10_35 
REMARK   11  A    between atoms: C12_43  and  C13_44 
REMARK   12  A    between atoms: C13_44  and  O2_45 
REMARK   13  A    between atoms: C13_44  and  O3_47 
ROOT
HETATM    1  C3  UNL     1      33.827  32.392  25.812  1.00  0.00     0.122 A 
HETATM    2  C4  UNL     1      34.654  31.628  24.998  1.00  0.00     0.065 A 
HETATM    3  C5  UNL     1      34.356  30.305  24.763  1.00  0.00     0.019 A 
HETATM    4  C8  UNL     1      33.209  29.782  25.369  1.00  0.00     0.067 A 
HETATM    5  C9  UNL     1      32.400  30.546  26.171  1.00  0.00     0.149 A 
HETATM    6  N12 UNL     1      32.738  31.826  26.364  1.00  0.00    -0.325 N 
ATOM      7  H12 UNL     1      32.141  32.400  26.959  1.00  0.00     0.169 HD
ENDROOT
BRANCH   1   8
HETATM    8  N4  UNL     1      34.111  33.762  26.072  1.00  0.00    -0.284 N 
HETATM    9  N3  UNL     1      33.250  34.453  26.689  1.00  0.00    -0.283 N 
ATOM     10  H3  UNL     1      32.377  34.017  26.986  1.00  0.00     0.188 HD
ATOM     11  H4  UNL     1      34.991  34.179  25.767  1.00  0.00     0.188 HD
BRANCH   9  12
HETATM   12  C2  UNL     1      33.478  35.816  26.974  1.00  0.00     0.152 A 
HETATM   13  N2  UNL     1      33.397  36.760  25.995  1.00  0.00    -0.175 N 
HETATM   14  C1  UNL     1      33.609  38.065  26.237  1.00  0.00     0.680 A 
ATOM     15  H2  UNL     1      33.167  36.467  25.045  1.00  0.00     0.186 HD
HETATM   16  N13 UNL     1      33.907  38.412  27.494  1.00  0.00    -0.156 N 
HETATM   17  C14 UNL     1      34.005  37.538  28.507  1.00  0.00     0.274 A 
ATOM     18  H13 UNL     1      34.071  39.399  27.694  1.00  0.00     0.187 HD
HETATM   19  C12 UNL     1      33.785  36.189  28.258  1.00  0.00     0.110 A 
HETATM   20  O4  UNL     1      34.286  37.902  29.678  1.00  0.00    -0.267 OA
BRANCH  14  21
HETATM   21  N1  UNL     1      33.534  38.968  25.307  1.00  0.00    -0.234 N 
ATOM     22  H12 UNL     1      32.698  39.044  24.728  1.00  0.00     0.174 HD
ATOM     23  H11 UNL     1      34.291  39.626  25.120  1.00  0.00     0.174 HD
ENDBRANCH  14  21
BRANCH  19  24
HETATM   24  C13 UNL     1      33.898  35.249  29.397  1.00  0.00     0.297 C 
BRANCH  24  25
HETATM   25  O2  UNL     1      33.600  33.979  28.903  1.00  0.00    -0.367 OA
ATOM     26  H2  UNL     1      33.507  33.407  29.655  1.00  0.00     0.213 HD
ENDBRANCH  24  25
BRANCH  24  27
HETATM   27  O3  UNL     1      33.047  35.617  30.430  1.00  0.00    -0.367 OA
ATOM     28  H3  UNL     1      33.468  36.238  31.012  1.00  0.00     0.213 HD
ENDBRANCH  24  27
ENDBRANCH  19  24
ENDBRANCH   9  12
ENDBRANCH   1   8
BRANCH   3  29
HETATM   29  C6  UNL     1      35.186  29.454  23.918  1.00  0.00     0.184 C 
HETATM   30  O1  UNL     1      35.493  29.911  22.777  1.00  0.00    -0.291 OA
BRANCH  29  31
HETATM   31  C7  UNL     1      35.662  28.129  24.334  1.00  0.00     0.313 C 
BRANCH  31  32
HETATM   32  N5  UNL     1      35.718  27.249  23.193  1.00  0.00    -0.072 N 
ATOM     33  H53 UNL     1      35.307  27.673  22.362  1.00  0.00     0.274 HD
ATOM     34  H52 UNL     1      36.670  27.133  22.845  1.00  0.00     0.274 HD
ATOM     35  H51 UNL     1      35.282  26.356  23.424  1.00  0.00     0.274 HD
ENDBRANCH  31  32
ENDBRANCH  29  31
ENDBRANCH   3  29
BRANCH   5  36
HETATM   36  N6  UNL     1      31.241  29.981  26.771  1.00  0.00    -0.164 N 
HETATM   37  N7  UNL     1      30.011  30.328  26.377  1.00  0.00    -0.218 N 
HETATM   38  N8  UNL     1      29.116  29.677  27.074  1.00  0.00    -0.268 N 
ATOM     39  H7  UNL     1      29.801  31.002  25.640  1.00  0.00     0.210 HD
HETATM   40  C10 UNL     1      29.822  28.898  27.931  1.00  0.00     0.172 A 
ATOM     41  H8  UNL     1      28.101  29.741  26.991  1.00  0.00     0.190 HD
HETATM   42  N11 UNL     1      31.131  29.092  27.736  1.00  0.00    -0.260 N 
ATOM     43  H11 UNL     1      31.896  28.639  28.238  1.00  0.00     0.190 HD
BRANCH  40  44
HETATM   44  C11 UNL     1      29.128  27.996  28.904  1.00  0.00     0.447 C 
BRANCH  44  45
HETATM   45  N9  UNL     1      29.681  26.678  28.787  1.00  0.00    -0.043 N 
ATOM     46  H93 UNL     1      29.387  26.206  27.932  1.00  0.00     0.277 HD
ATOM     47  H92 UNL     1      30.685  26.691  28.604  1.00  0.00     0.277 HD
ATOM     48  H91 UNL     1      29.445  26.146  29.625  1.00  0.00     0.277 HD
ENDBRANCH  44  45
BRANCH  44  49
HETATM   49  N10 UNL     1      27.726  27.926  28.510  1.00  0.00    -0.043 N 
ATOM     50 3H10 UNL     1      27.587  28.055  27.508  1.00  0.00     0.277 HD
ATOM     51 2H10 UNL     1      27.340  26.984  28.579  1.00  0.00     0.277 HD
ATOM     52 1H10 UNL     1      27.217  28.607  29.074  1.00  0.00     0.277 HD
ENDBRANCH  44  49
ENDBRANCH  40  44
ENDBRANCH   5  36
TORSDOF 13
ENDMDL
MODEL 2
REMARK VINA RESULT: -8.273064677      0.966      1.051
REMARK  13 active torsions:
REMARK  status: ('A' for Active; 'I' for Inactive)
REMARK    1  A    between atoms: N1_1  and  C1_4 
REMARK    2  A    between atoms: C2_7  and  N3_8 
REMARK    3  A    between atoms: N4_10  and  C3_12 
REMARK    4  A    between atoms: C5_14  and  C6_15 
REMARK    5  A    between atoms: C6_15  and  C7_17 
REMARK    6  A    between atoms: C7_17  and  N5_18 
REMARK    7  A    between atoms: C9_23  and  N6_24 
REMARK    8  A    between atoms: C10_29  and  C11_30 
REMARK    9  A    between atoms: C11_30  and  N9_31 
REMARK   10  A    between atoms: C11_30  and  N10_35 
REMARK   11  A    between atoms: C12_43  and  C13_44 
REMARK   12  A    between atoms: C13_44  and  O2_45 
REMARK   13  A    between atoms: C13_44  and  O3_47 
ROOT
HETATM    1  C3  UNL     1      33.888  32.680  25.870  1.00  0.00     0.122 A 
HETATM    2  C4  UNL     1      34.680  32.011  24.944  1.00  0.00     0.065 A 
HETATM    3  C5  UNL     1      34.352  30.731  24.557  1.00  0.00     0.019 A 
HETATM    4  C8  UNL     1      33.211  30.154  25.126  1.00  0.00     0.067 A 
HETATM    5  C9  UNL     1      32.438  30.825  26.039  1.00  0.00     0.149 A 
HETATM    6  N12 UNL     1      32.804  32.066  26.379  1.00  0.00    -0.325 N 
ATOM      7  H12 UNL     1      32.234  32.571  27.057  1.00  0.00     0.169 HD
ENDROOT
BRANCH   1   8
HETATM    8  N4  UNL     1      34.203  34.003  26.288  1.00  0.00    -0.284 N 
HETATM    9  N3  UNL     1      33.282  34.722  26.771  1.00  0.00    -0.283 N 
ATOM     10  H3  UNL     1      32.339  34.341  26.851  1.00  0.00     0.188 HD
ATOM     11  H4  UNL     1      35.153  34.365  26.199  1.00  0.00     0.188 HD
BRANCH   9  12
HETATM   12  C2  UNL     1      33.536  36.041  27.202  1.00  0.00     0.152 A 
HETATM   13  N2  UNL     1      33.526  37.081  26.321  1.00  0.00    -0.175 N 
HETATM   14  C1  UNL     1      33.765  38.347  26.703  1.00  0.00     0.680 A 
ATOM     15  H2  UNL     1      33.330  36.892  25.338  1.00  0.00     0.186 HD
HETATM   16  N13 UNL     1      34.018  38.556  28.000  1.00  0.00    -0.156 N 
HETATM   17  C14 UNL     1      34.045  37.583  28.922  1.00  0.00     0.274 A 
ATOM     18  H13 UNL     1      34.201  39.512  28.305  1.00  0.00     0.187 HD
HETATM   19  C12 UNL     1      33.798  36.273  28.529  1.00  0.00     0.110 A 
HETATM   20  O4  UNL     1      34.285  37.818  30.134  1.00  0.00    -0.267 OA
BRANCH  14  21
HETATM   21  N1  UNL     1      33.758  39.341  25.866  1.00  0.00    -0.234 N 
ATOM     22  H12 UNL     1      34.635  39.738  25.529  1.00  0.00     0.174 HD
ATOM     23  H11 UNL     1      32.894  39.757  25.519  1.00  0.00     0.174 HD
ENDBRANCH  14  21
BRANCH  19  24
HETATM   24  C13 UNL     1      33.832  35.221  29.570  1.00  0.00     0.297 C 
BRANCH  24  25
HETATM   25  O2  UNL     1      33.414  34.037  28.961  1.00  0.00    -0.367 OA
ATOM     26  H2  UNL     1      32.468  34.004  29.048  1.00  0.00     0.213 HD
ENDBRANCH  24  25
BRANCH  24  27
HETATM   27  O3  UNL     1      33.028  35.562  30.648  1.00  0.00    -0.367 OA
ATOM     28  H3  UNL     1      32.185  35.886  30.355  1.00  0.00     0.213 HD
ENDBRANCH  24  27
ENDBRANCH  19  24
ENDBRANCH   9  12
ENDBRANCH   1   8
BRANCH   3  29
HETATM   29  C6  UNL     1      35.144  29.979  23.590  1.00  0.00     0.184 C 
HETATM   30  O1  UNL     1      35.139  28.718  23.709  1.00  0.00    -0.291 OA
BRANCH  29  31
HETATM   31  C7  UNL     1      35.920  30.616  22.519  1.00  0.00     0.313 C 
BRANCH  31  32
HETATM   32  N5  UNL     1      35.032  31.081  21.482  1.00  0.00    -0.072 N 
ATOM     33  H53 UNL     1      35.201  32.058  21.243  1.00  0.00     0.274 HD
ATOM     34  H52 UNL     1      35.252  30.667  20.576  1.00  0.00     0.274 HD
ATOM     35  H51 UNL     1      34.064  30.915  21.756  1.00  0.00     0.274 HD
ENDBRANCH  31  32
ENDBRANCH  29  31
ENDBRANCH   3  29
BRANCH   5  36
HETATM   36  N6  UNL     1      31.285  30.207  26.597  1.00  0.00    -0.164 N 
HETATM   37  N7  UNL     1      30.055  30.513  26.174  1.00  0.00    -0.218 N 
HETATM   38  N8  UNL     1      29.166  29.818  26.836  1.00  0.00    -0.268 N 
ATOM     39  H7  UNL     1      29.840  31.190  25.441  1.00  0.00     0.210 HD
HETATM   40  C10 UNL     1      29.878  29.053  27.701  1.00  0.00     0.172 A 
ATOM     41  H8  UNL     1      28.152  29.845  26.725  1.00  0.00     0.190 HD
HETATM   42  N11 UNL     1      31.183  29.299  27.547  1.00  0.00    -0.260 N 
ATOM     43  H11 UNL     1      31.950  28.869  28.063  1.00  0.00     0.190 HD
BRANCH  40  44
HETATM   44  C11 UNL     1      29.193  28.111  28.641  1.00  0.00     0.447 C 
BRANCH  44  45
HETATM   45  N9  UNL     1      29.864  26.844  28.596  1.00  0.00    -0.043 N 
ATOM     46  H93 UNL     1      29.224  26.069  28.423  1.00  0.00     0.277 HD
ATOM     47  H92 UNL     1      30.442  26.739  27.763  1.00  0.00     0.277 HD
ATOM     48  H91 UNL     1      30.397  26.723  29.458  1.00  0.00     0.277 HD
ENDBRANCH  44  45
BRANCH  44  49
HETATM   49  N10 UNL     1      27.835  27.911  28.146  1.00  0.00    -0.043 N 
ATOM     50 3H10 UNL     1      27.417  28.765  27.777  1.00  0.00     0.277 HD
ATOM     51 2H10 UNL     1      27.802  27.363  27.286  1.00  0.00     0.277 HD
ATOM     52 1H10 UNL     1      27.292  27.497  28.904  1.00  0.00     0.277 HD
ENDBRANCH  44  49
ENDBRANCH  40  44
ENDBRANCH   5  36
TORSDOF 13
ENDMDL
MODEL 3
REMARK VINA RESULT: -8.074208497      2.483      5.126
REMARK  13 active torsions:
REMARK  status: ('A' for Active; 'I' for Inactive)
REMARK    1  A    between atoms: N1_1  and  C1_4 
REMARK    2  A    between atoms: C2_7  and  N3_8 
REMARK    3  A    between atoms: N4_10  and  C3_12 
REMARK    4  A    between atoms: C5_14  and  C6_15 
REMARK    5  A    between atoms: C6_15  and  C7_17 
REMARK    6  A    between atoms: C7_17  and  N5_18 
REMARK    7  A    between atoms: C9_23  and  N6_24 
REMARK    8  A    between atoms: C10_29  and  C11_30 
REMARK    9  A    between atoms: C11_30  and  N9_31 
REMARK   10  A    between atoms: C11_30  and  N10_35 
REMARK   11  A    between atoms: C12_43  and  C13_44 
REMARK   12  A    between atoms: C13_44  and  O2_45 
REMARK   13  A    between atoms: C13_44  and  O3_47 
ROOT
HETATM    1  C3  UNL     1      31.885  32.556  26.825  1.00  0.00     0.122 A 
HETATM    2  C4  UNL     1      30.693  31.875  27.045  1.00  0.00     0.065 A 
HETATM    3  C5  UNL     1      30.538  30.592  26.572  1.00  0.00     0.019 A 
HETATM    4  C8  UNL     1      31.611  30.022  25.878  1.00  0.00     0.067 A 
HETATM    5  C9  UNL     1      32.782  30.705  25.667  1.00  0.00     0.149 A 
HETATM    6  N12 UNL     1      32.878  31.949  26.149  1.00  0.00    -0.325 N 
ATOM      7  H12 UNL     1      33.745  32.463  25.996  1.00  0.00     0.169 HD
ENDROOT
BRANCH   1   8
HETATM    8  N4  UNL     1      32.073  33.883  27.303  1.00  0.00    -0.284 N 
HETATM    9  N3  UNL     1      33.250  34.342  27.370  1.00  0.00    -0.283 N 
ATOM     10  H3  UNL     1      34.033  33.756  27.082  1.00  0.00     0.188 HD
ATOM     11  H4  UNL     1      31.275  34.454  27.585  1.00  0.00     0.188 HD
BRANCH   9  12
HETATM   12  C2  UNL     1      33.496  35.651  27.836  1.00  0.00     0.152 A 
HETATM   13  N2  UNL     1      33.499  35.932  29.169  1.00  0.00    -0.175 N 
HETATM   14  C1  UNL     1      33.731  37.169  29.641  1.00  0.00     0.680 A 
ATOM     15  H2  UNL     1      33.321  35.177  29.832  1.00  0.00     0.186 HD
HETATM   16  N13 UNL     1      33.962  38.132  28.742  1.00  0.00    -0.156 N 
HETATM   17  C14 UNL     1      33.973  37.929  27.416  1.00  0.00     0.274 A 
ATOM     18  H13 UNL     1      34.139  39.076  29.085  1.00  0.00     0.187 HD
HETATM   19  C12 UNL     1      33.734  36.651  26.927  1.00  0.00     0.110 A 
HETATM   20  O4  UNL     1      34.195  38.861  26.600  1.00  0.00    -0.267 OA
BRANCH  14  21
HETATM   21  N1  UNL     1      33.734  37.441  30.911  1.00  0.00    -0.234 N 
ATOM     22  H12 UNL     1      33.128  36.928  31.551  1.00  0.00     0.174 HD
ATOM     23  H11 UNL     1      34.331  38.165  31.314  1.00  0.00     0.174 HD
ENDBRANCH  14  21
BRANCH  19  24
HETATM   24  C13 UNL     1      33.755  36.458  25.459  1.00  0.00     0.297 C 
BRANCH  24  25
HETATM   25  O2  UNL     1      33.916  35.091  25.234  1.00  0.00    -0.367 OA
ATOM     26  H2  UNL     1      33.691  34.934  24.324  1.00  0.00     0.213 HD
ENDBRANCH  24  25
BRANCH  24  27
HETATM   27  O3  UNL     1      34.770  37.203  24.874  1.00  0.00    -0.367 OA
ATOM     28  H3  UNL     1      35.274  37.666  25.532  1.00  0.00     0.213 HD
ENDBRANCH  24  27
ENDBRANCH  19  24
ENDBRANCH   9  12
ENDBRANCH   1   8
BRANCH   3  29
HETATM   29  C6  UNL     1      29.311  29.828  26.772  1.00  0.00     0.184 C 
HETATM   30  O1  UNL     1      28.262  30.284  26.229  1.00  0.00    -0.291 OA
BRANCH  29  31
HETATM   31  C7  UNL     1      29.257  28.587  27.555  1.00  0.00     0.313 C 
BRANCH  31  32
HETATM   32  N5  UNL     1      29.593  28.862  28.930  1.00  0.00    -0.072 N 
ATOM     33  H53 UNL     1      28.767  29.059  29.495  1.00  0.00     0.274 HD
ATOM     34  H52 UNL     1      29.911  28.027  29.422  1.00  0.00     0.274 HD
ATOM     35  H51 UNL     1      30.277  29.618  28.975  1.00  0.00     0.274 HD
ENDBRANCH  31  32
ENDBRANCH  29  31
ENDBRANCH   3  29
BRANCH   5  36
HETATM   36  N6  UNL     1      33.852  30.095  24.957  1.00  0.00    -0.164 N 
HETATM   37  N7  UNL     1      34.394  30.671  23.880  1.00  0.00    -0.218 N 
HETATM   38  N8  UNL     1      35.356  29.922  23.405  1.00  0.00    -0.268 N 
ATOM     39  H7  UNL     1      34.101  31.565  23.485  1.00  0.00     0.210 HD
HETATM   40  C10 UNL     1      35.409  28.841  24.224  1.00  0.00     0.172 A 
ATOM     41  H8  UNL     1      35.943  30.111  22.592  1.00  0.00     0.190 HD
HETATM   42  N11 UNL     1      34.479  28.957  25.177  1.00  0.00    -0.260 N 
ATOM     43  H11 UNL     1      34.290  28.293  25.929  1.00  0.00     0.190 HD
BRANCH  40  44
HETATM   44  C11 UNL     1      36.403  27.747  23.992  1.00  0.00     0.447 C 
BRANCH  44  45
HETATM   45  N9  UNL     1      35.908  26.884  22.959  1.00  0.00    -0.043 N 
ATOM     46  H93 UNL     1      35.242  26.197  23.311  1.00  0.00     0.277 HD
ATOM     47  H92 UNL     1      35.285  27.368  22.313  1.00  0.00     0.277 HD
ATOM     48  H91 UNL     1      36.700  26.450  22.485  1.00  0.00     0.277 HD
ENDBRANCH  44  45
BRANCH  44  49
HETATM   49  N10 UNL     1      36.487  26.966  25.221  1.00  0.00    -0.043 N 
ATOM     50 3H10 UNL     1      37.152  26.195  25.157  1.00  0.00     0.277 HD
ATOM     51 2H10 UNL     1      36.941  27.471  25.983  1.00  0.00     0.277 HD
ATOM     52 1H10 UNL     1      35.543  26.659  25.453  1.00  0.00     0.277 HD
ENDBRANCH  44  49
ENDBRANCH  40  44
ENDBRANCH   5  36
TORSDOF 13
ENDMDL
MODEL 4
REMARK VINA RESULT: -8.040299432      3.877      6.102
REMARK  13 active torsions:
REMARK  status: ('A' for Active; 'I' for Inactive)
REMARK    1  A    between atoms: N1_1  and  C1_4 
REMARK    2  A    between atoms: C2_7  and  N3_8 
REMARK    3  A    between atoms: N4_10  and  C3_12 
REMARK    4  A    between atoms: C5_14  and  C6_15 
REMARK    5  A    between atoms: C6_15  and  C7_17 
REMARK    6  A    between atoms: C7_17  and  N5_18 
REMARK    7  A    between atoms: C9_23  and  N6_24 
REMARK    8  A    between atoms: C10_29  and  C11_30 
REMARK    9  A    between atoms: C11_30  and  N9_31 
REMARK   10  A    between atoms: C11_30  and  N10_35 
REMARK   11  A    between atoms: C12_43  and  C13_44 
REMARK   12  A    between atoms: C13_44  and  O2_45 
REMARK   13  A    between atoms: C13_44  and  O3_47 
ROOT
HETATM    1  C3  UNL     1      35.217  32.438  24.636  1.00  0.00     0.122 A 
HETATM    2  C4  UNL     1      35.108  31.134  25.103  1.00  0.00     0.065 A 
HETATM    3  C5  UNL     1      35.214  30.079  24.225  1.00  0.00     0.019 A 
HETATM    4  C8  UNL     1      35.430  30.378  22.875  1.00  0.00     0.067 A 
HETATM    5  C9  UNL     1      35.536  31.670  22.427  1.00  0.00     0.149 A 
HETATM    6  N12 UNL     1      35.426  32.656  23.324  1.00  0.00    -0.325 N 
ATOM      7  H12 UNL     1      35.503  33.619  22.998  1.00  0.00     0.169 HD
ENDROOT
BRANCH   1   8
HETATM    8  N4  UNL     1      35.113  33.548  25.521  1.00  0.00    -0.284 N 
HETATM    9  N3  UNL     1      34.141  34.345  25.380  1.00  0.00    -0.283 N 
ATOM     10  H3  UNL     1      33.458  34.178  24.642  1.00  0.00     0.188 HD
ATOM     11  H4  UNL     1      35.807  33.697  26.253  1.00  0.00     0.188 HD
BRANCH   9  12
HETATM   12  C2  UNL     1      33.987  35.463  26.229  1.00  0.00     0.152 A 
HETATM   13  N2  UNL     1      34.035  36.731  25.733  1.00  0.00    -0.175 N 
HETATM   14  C1  UNL     1      33.892  37.813  26.518  1.00  0.00     0.680 A 
ATOM     15  H2  UNL     1      34.185  36.864  24.734  1.00  0.00     0.186 HD
HETATM   16  N13 UNL     1      33.696  37.599  27.824  1.00  0.00    -0.156 N 
HETATM   17  C14 UNL     1      33.638  36.380  28.381  1.00  0.00     0.274 A 
ATOM     18  H13 UNL     1      33.585  38.411  28.432  1.00  0.00     0.187 HD
HETATM   19  C12 UNL     1      33.786  35.261  27.571  1.00  0.00     0.110 A 
HETATM   20  O4  UNL     1      33.451  36.218  29.614  1.00  0.00    -0.267 OA
BRANCH  14  21
HETATM   21  N1  UNL     1      33.938  39.024  26.051  1.00  0.00    -0.234 N 
ATOM     22  H12 UNL     1      34.532  39.246  25.252  1.00  0.00     0.174 HD
ATOM     23  H11 UNL     1      33.395  39.788  26.454  1.00  0.00     0.174 HD
ENDBRANCH  14  21
BRANCH  19  24
HETATM   24  C13 UNL     1      33.715  33.929  28.214  1.00  0.00     0.297 C 
BRANCH  24  25
HETATM   25  O2  UNL     1      35.013  33.417  28.228  1.00  0.00    -0.367 OA
ATOM     26  H2  UNL     1      35.128  32.940  27.415  1.00  0.00     0.213 HD
ENDBRANCH  24  25
BRANCH  24  27
HETATM   27  O3  UNL     1      32.836  33.096  27.536  1.00  0.00    -0.367 OA
ATOM     28  H3  UNL     1      33.098  32.991  26.629  1.00  0.00     0.213 HD
ENDBRANCH  24  27
ENDBRANCH  19  24
ENDBRANCH   9  12
ENDBRANCH   1   8
BRANCH   3  29
HETATM   29  C6  UNL     1      35.108  28.689  24.656  1.00  0.00     0.184 C 
HETATM   30  O1  UNL     1      34.551  28.481  25.774  1.00  0.00    -0.291 OA
BRANCH  29  31
HETATM   31  C7  UNL     1      35.609  27.562  23.860  1.00  0.00     0.313 C 
BRANCH  31  32
HETATM   32  N5  UNL     1      36.578  26.816  24.625  1.00  0.00    -0.072 N 
ATOM     33  H53 UNL     1      36.719  25.877  24.252  1.00  0.00     0.274 HD
ATOM     34  H52 UNL     1      37.525  27.170  24.494  1.00  0.00     0.274 HD
ATOM     35  H51 UNL     1      36.305  26.801  25.608  1.00  0.00     0.274 HD
ENDBRANCH  31  32
ENDBRANCH  29  31
ENDBRANCH   3  29
BRANCH   5  36
HETATM   36  N6  UNL     1      35.757  31.937  21.048  1.00  0.00    -0.164 N 
HETATM   37  N7  UNL     1      36.705  32.788  20.644  1.00  0.00    -0.218 N 
HETATM   38  N8  UNL     1      36.714  32.865  19.338  1.00  0.00    -0.268 N 
ATOM     39  H7  UNL     1      37.332  33.302  21.264  1.00  0.00     0.210 HD
HETATM   40  C10 UNL     1      35.731  32.028  18.921  1.00  0.00     0.172 A 
ATOM     41  H8  UNL     1      37.329  33.434  18.756  1.00  0.00     0.190 HD
HETATM   42  N11 UNL     1      35.147  31.460  19.981  1.00  0.00    -0.260 N 
ATOM     43  H11 UNL     1      34.379  30.789  19.968  1.00  0.00     0.190 HD
BRANCH  40  44
HETATM   44  C11 UNL     1      35.437  31.850  17.464  1.00  0.00     0.447 C 
BRANCH  44  45
HETATM   45  N9  UNL     1      34.667  32.971  17.007  1.00  0.00    -0.043 N 
ATOM     46  H93 UNL     1      34.235  33.486  17.774  1.00  0.00     0.277 HD
ATOM     47  H92 UNL     1      35.253  33.722  16.644  1.00  0.00     0.277 HD
ATOM     48  H91 UNL     1      33.984  32.644  16.324  1.00  0.00     0.277 HD
ENDBRANCH  44  45
BRANCH  44  49
HETATM   49  N10 UNL     1      34.608  30.657  17.328  1.00  0.00    -0.043 N 
ATOM     50 3H10 UNL     1      33.725  30.839  16.852  1.00  0.00     0.277 HD
ATOM     51 2H10 UNL     1      34.985  29.985  16.659  1.00  0.00     0.277 HD
ATOM     52 1H10 UNL     1      34.485  30.264  18.261  1.00  0.00     0.277 HD
ENDBRANCH  44  49
ENDBRANCH  40  44
ENDBRANCH   5  36
TORSDOF 13
ENDMDL
MODEL 5
REMARK VINA RESULT: -7.977293112      1.860      2.446
REMARK  13 active torsions:
REMARK  status: ('A' for Active; 'I' for Inactive)
REMARK    1  A    between atoms: N1_1  and  C1_4 
REMARK    2  A    between atoms: C2_7  and  N3_8 
REMARK    3  A    between atoms: N4_10  and  C3_12 
REMARK    4  A    between atoms: C5_14  and  C6_15 
REMARK    5  A    between atoms: C6_15  and  C7_17 
REMARK    6  A    between atoms: C7_17  and  N5_18 
REMARK    7  A    between atoms: C9_23  and  N6_24 
REMARK    8  A    between atoms: C10_29  and  C11_30 
REMARK    9  A    between atoms: C11_30  and  N9_31 
REMARK   10  A    between atoms: C11_30  and  N10_35 
REMARK   11  A    between atoms: C12_43  and  C13_44 
REMARK   12  A    between atoms: C13_44  and  O2_45 
REMARK   13  A    between atoms: C13_44  and  O3_47 
ROOT
HETATM    1  C3  UNL     1      32.515  32.359  26.799  1.00  0.00     0.122 A 
HETATM    2  C4  UNL     1      33.481  31.923  25.900  1.00  0.00     0.065 A 
HETATM    3  C5  UNL     1      33.411  30.650  25.381  1.00  0.00     0.019 A 
HETATM    4  C8  UNL     1      32.348  29.839  25.793  1.00  0.00     0.067 A 
HETATM    5  C9  UNL     1      31.402  30.281  26.682  1.00  0.00     0.149 A 
HETATM    6  N12 UNL     1      31.519  31.527  27.154  1.00  0.00    -0.325 N 
ATOM      7  H12 UNL     1      30.819  31.863  27.815  1.00  0.00     0.169 HD
ENDROOT
BRANCH   1   8
HETATM    8  N4  UNL     1      32.562  33.670  27.350  1.00  0.00    -0.284 N 
HETATM    9  N3  UNL     1      33.598  34.371  27.160  1.00  0.00    -0.283 N 
ATOM     10  H3  UNL     1      34.371  33.985  26.619  1.00  0.00     0.188 HD
ATOM     11  H4  UNL     1      31.777  34.038  27.888  1.00  0.00     0.188 HD
BRANCH   9  12
HETATM   12  C2  UNL     1      33.700  35.677  27.684  1.00  0.00     0.152 A 
HETATM   13  N2  UNL     1      33.670  35.898  29.028  1.00  0.00    -0.175 N 
HETATM   14  C1  UNL     1      33.765  37.132  29.554  1.00  0.00     0.680 A 
ATOM     15  H2  UNL     1      33.573  35.101  29.656  1.00  0.00     0.186 HD
HETATM   16  N13 UNL     1      33.892  38.153  28.698  1.00  0.00    -0.156 N 
HETATM   17  C14 UNL     1      33.927  38.010  27.365  1.00  0.00     0.274 A 
ATOM     18  H13 UNL     1      33.965  39.095  29.083  1.00  0.00     0.187 HD
HETATM   19  C12 UNL     1      33.830  36.736  26.820  1.00  0.00     0.110 A 
HETATM   20  O4  UNL     1      34.048  38.995  26.592  1.00  0.00    -0.267 OA
BRANCH  14  21
HETATM   21  N1  UNL     1      33.737  37.348  30.834  1.00  0.00    -0.234 N 
ATOM     22  H12 UNL     1      33.719  36.566  31.489  1.00  0.00     0.174 HD
ATOM     23  H11 UNL     1      33.732  38.288  31.231  1.00  0.00     0.174 HD
ENDBRANCH  14  21
BRANCH  19  24
HETATM   24  C13 UNL     1      33.874  36.610  25.345  1.00  0.00     0.297 C 
BRANCH  24  25
HETATM   25  O2  UNL     1      33.958  35.247  25.059  1.00  0.00    -0.367 OA
ATOM     26  H2  UNL     1      34.287  35.173  24.171  1.00  0.00     0.213 HD
ENDBRANCH  24  25
BRANCH  24  27
HETATM   27  O3  UNL     1      34.945  37.318  24.818  1.00  0.00    -0.367 OA
ATOM     28  H3  UNL     1      35.701  37.266  25.390  1.00  0.00     0.213 HD
ENDBRANCH  24  27
ENDBRANCH  19  24
ENDBRANCH   9  12
ENDBRANCH   1   8
BRANCH   3  29
HETATM   29  C6  UNL     1      34.395  30.136  24.433  1.00  0.00     0.184 C 
HETATM   30  O1  UNL     1      34.488  30.743  23.326  1.00  0.00    -0.291 OA
BRANCH  29  31
HETATM   31  C7  UNL     1      35.251  28.978  24.715  1.00  0.00     0.313 C 
BRANCH  31  32
HETATM   32  N5  UNL     1      35.034  27.956  23.721  1.00  0.00    -0.072 N 
ATOM     33  H53 UNL     1      34.666  28.340  22.851  1.00  0.00     0.274 HD
ATOM     34  H52 UNL     1      35.911  27.581  23.358  1.00  0.00     0.274 HD
ATOM     35  H51 UNL     1      34.432  27.225  24.102  1.00  0.00     0.274 HD
ENDBRANCH  31  32
ENDBRANCH  29  31
ENDBRANCH   3  29
BRANCH   5  36
HETATM   36  N6  UNL     1      30.335  29.430  27.079  1.00  0.00    -0.164 N 
HETATM   37  N7  UNL     1      29.063  29.718  26.782  1.00  0.00    -0.218 N 
HETATM   38  N8  UNL     1      28.270  28.789  27.251  1.00  0.00    -0.268 N 
ATOM     39  H7  UNL     1      28.756  30.542  26.264  1.00  0.00     0.210 HD
HETATM   40  C10 UNL     1      29.086  27.893  27.862  1.00  0.00     0.172 A 
ATOM     41  H8  UNL     1      27.254  28.747  27.175  1.00  0.00     0.190 HD
HETATM   42  N11 UNL     1      30.356  28.296  27.750  1.00  0.00    -0.260 N 
ATOM     43  H11 UNL     1      31.181  27.819  28.114  1.00  0.00     0.190 HD
BRANCH  40  44
HETATM   44  C11 UNL     1      28.530  26.674  28.528  1.00  0.00     0.447 C 
BRANCH  44  45
HETATM   45  N9  UNL     1      28.711  26.797  29.946  1.00  0.00    -0.043 N 
ATOM     46  H93 UNL     1      27.839  26.683  30.462  1.00  0.00     0.277 HD
ATOM     47  H92 UNL     1      29.217  26.006  30.344  1.00  0.00     0.277 HD
ATOM     48  H91 UNL     1      29.166  27.689  30.142  1.00  0.00     0.277 HD
ENDBRANCH  44  45
BRANCH  44  49
HETATM   49  N10 UNL     1      29.317  25.532  28.077  1.00  0.00    -0.043 N 
ATOM     50 3H10 UNL     1      29.808  25.709  27.201  1.00  0.00     0.277 HD
ATOM     51 2H10 UNL     1      30.139  25.362  28.658  1.00  0.00     0.277 HD
ATOM     52 1H10 UNL     1      28.691  24.729  28.028  1.00  0.00     0.277 HD
ENDBRANCH  44  49
ENDBRANCH  40  44
ENDBRANCH   5  36
TORSDOF 13
ENDMDL
