MODEL 1
REMARK VINA RESULT: -10.165148674      0.000      0.000
REMARK  9 active torsions:
REMARK  status: ('A' for Active; 'I' for Inactive)
REMARK    1  A    between atoms: N1_2  and  N2_3 
REMARK    2  A    between atoms: N2_3  and  C2_5 
REMARK    3  A    between atoms: C2_5  and  C3_9 
REMARK    4  A    between atoms: C4_15  and  C5_16 
REMARK    5  A    between atoms: N6_18  and  C7_19 
REMARK    6  A    between atoms: C7_19  and  C8_20 
REMARK    7  A    between atoms: C10_26  and  C11_27 
REMARK    8  A    between atoms: N9_28  and  N10_30 
REMARK    9  A    between atoms: N10_30  and  C12_32 
ROOT
HETATM    1  C5  UNL     1      33.581  35.935  25.866  1.00  0.00     0.097 A 
HETATM    2  C6  UNL     1      32.595  35.033  25.705  1.00  0.00     0.145 A 
HETATM    3  N6  UNL     1      32.978  33.963  24.976  1.00  0.00    -0.281 N 
HETATM    4  N14 UNL     1      34.230  34.207  24.679  1.00  0.00    -0.240 N 
ATOM      5  H14 UNL     1      34.817  33.579  24.130  1.00  0.00     0.208 HD
HETATM    6  N15 UNL     1      34.637  35.328  25.161  1.00  0.00    -0.282 N 
ATOM      7  H15 UNL     1      35.574  35.715  25.050  1.00  0.00     0.188 HD
ENDROOT
BRANCH   3   8
HETATM    8  C7  UNL     1      32.173  32.862  24.489  1.00  0.00     0.208 C 
BRANCH   8   9
HETATM    9  C8  UNL     1      33.155  31.671  24.314  1.00  0.00     0.049 A 
HETATM   10  N7  UNL     1      34.032  31.651  23.337  1.00  0.00    -0.326 N 
HETATM   11  S1  UNL     1      34.990  30.299  23.628  1.00  0.00     0.002 SA
ATOM     12  H7  UNL     1      34.115  32.314  22.566  1.00  0.00     0.174 HD
HETATM   13  C9  UNL     1      34.230  29.750  25.043  1.00  0.00     0.117 A 
HETATM   14  N8  UNL     1      34.514  28.604  25.883  1.00  0.00    -0.092 NA
HETATM   15  C10 UNL     1      33.227  30.667  25.240  1.00  0.00     0.038 A 
BRANCH  15  16
HETATM   16  C11 UNL     1      32.195  30.479  26.315  1.00  0.00     0.123 C 
HETATM   17  N9  UNL     1      30.978  30.735  26.058  1.00  0.00    -0.308 N 
ATOM     18  H9  UNL     1      30.765  31.055  25.113  1.00  0.00     0.186 HD
BRANCH  17  19
HETATM   19  N10 UNL     1      29.900  30.623  26.939  1.00  0.00    -0.271 N 
ATOM     20  H10 UNL     1      29.326  31.430  27.183  1.00  0.00     0.190 HD
BRANCH  19  21
HETATM   21  C12 UNL     1      29.634  29.330  27.484  1.00  0.00     0.207 C 
HETATM   22  N11 UNL     1      28.654  28.585  27.077  1.00  0.00    -0.345 N 
HETATM   23  C13 UNL     1      28.672  27.364  27.824  1.00  0.00     0.259 C 
ATOM     24  H11 UNL     1      27.983  28.828  26.348  1.00  0.00     0.164 HD
HETATM   25  N12 UNL     1      30.009  27.276  28.332  1.00  0.00    -0.119 NA
HETATM   26  N13 UNL     1      30.339  28.651  28.494  1.00  0.00    -0.273 N 
ATOM     27  H13 UNL     1      30.958  29.058  29.194  1.00  0.00     0.185 HD
ENDBRANCH  19  21
ENDBRANCH  17  19
ENDBRANCH  15  16
ENDBRANCH   8   9
ENDBRANCH   3   8
BRANCH   1  28
HETATM   28  C4  UNL     1      33.750  37.232  26.445  1.00  0.00     0.119 A 
HETATM   29  C3  UNL     1      33.877  37.651  27.699  1.00  0.00     0.175 A 
HETATM   30  O1  UNL     1      33.970  39.015  27.634  1.00  0.00    -0.216 OA
HETATM   31  N4  UNL     1      33.907  39.395  26.432  1.00  0.00    -0.201 N 
HETATM   32  N5  UNL     1      33.774  38.388  25.648  1.00  0.00    -0.276 N 
ATOM     33  H4  UNL     1      33.954  40.367  26.126  1.00  0.00     0.216 HD
ATOM     34  H5  UNL     1      33.701  38.421  24.631  1.00  0.00     0.189 HD
BRANCH  29  35
HETATM   35  C2  UNL     1      33.934  36.964  28.982  1.00  0.00     0.149 C 
HETATM   36  N3  UNL     1      33.734  37.343  30.092  1.00  0.00    -0.382 N 
ATOM     37  H32 UNL     1      33.774  36.863  30.991  1.00  0.00     0.157 HD
ATOM     38  H31 UNL     1      33.452  38.319  30.183  1.00  0.00     0.157 HD
BRANCH  35  39
HETATM   39  N2  UNL     1      34.348  35.530  28.847  1.00  0.00    -0.288 N 
ATOM     40  H2  UNL     1      35.274  35.250  28.525  1.00  0.00     0.184 HD
BRANCH  39  41
HETATM   41  N1  UNL     1      33.374  34.622  29.196  1.00  0.00    -0.144 NA
HETATM   42  C1  UNL     1      33.514  33.339  28.525  1.00  0.00     0.159 C 
ENDBRANCH  39  41
ENDBRANCH  35  39
ENDBRANCH  29  35
ENDBRANCH   1  28
TORSDOF 9
ENDMDL
MODEL 2
REMARK VINA RESULT: -10.099642406      1.529      3.108
REMARK  9 active torsions:
REMARK  status: ('A' for Active; 'I' for Inactive)
REMARK    1  A    between atoms: N1_2  and  N2_3 
REMARK    2  A    between atoms: N2_3  and  C2_5 
REMARK    3  A    between atoms: C2_5  and  C3_9 
REMARK    4  A    between atoms: C4_15  and  C5_16 
REMARK    5  A    between atoms: N6_18  and  C7_19 
REMARK    6  A    between atoms: C7_19  and  C8_20 
REMARK    7  A    between atoms: C10_26  and  C11_27 
REMARK    8  A    between atoms: N9_28  and  N10_30 
REMARK    9  A    between atoms: N10_30  and  C12_32 
ROOT
HETATM    1  C5  UNL     1      32.868  34.883  26.982  1.00  0.00     0.097 A 
HETATM    2  C6  UNL     1      32.959  34.520  25.689  1.00  0.00     0.145 A 
HETATM    3  N6  UNL     1      32.098  33.534  25.359  1.00  0.00    -0.281 N 
HETATM    4  N14 UNL     1      31.457  33.281  26.474  1.00  0.00    -0.240 N 
ATOM      5  H14 UNL     1      30.725  32.575  26.560  1.00  0.00     0.208 HD
HETATM    6  N15 UNL     1      31.856  34.022  27.446  1.00  0.00    -0.282 N 
ATOM      7  H15 UNL     1      31.495  33.992  28.400  1.00  0.00     0.188 HD
ENDROOT
BRANCH   3   8
HETATM    8  C7  UNL     1      31.991  32.801  24.114  1.00  0.00     0.208 C 
BRANCH   8   9
HETATM    9  C8  UNL     1      33.382  32.146  23.894  1.00  0.00     0.049 A 
HETATM   10  N7  UNL     1      34.239  32.644  23.032  1.00  0.00    -0.326 N 
HETATM   11  S1  UNL     1      35.650  31.753  23.246  1.00  0.00     0.002 SA
ATOM     12  H7  UNL     1      34.082  33.407  22.374  1.00  0.00     0.174 HD
HETATM   13  C9  UNL     1      35.111  30.714  24.474  1.00  0.00     0.117 A 
HETATM   14  N8  UNL     1      35.796  29.647  25.177  1.00  0.00    -0.092 NA
HETATM   15  C10 UNL     1      33.812  31.110  24.677  1.00  0.00     0.038 A 
BRANCH  15  16
HETATM   16  C11 UNL     1      32.894  30.347  25.589  1.00  0.00     0.123 C 
HETATM   17  N9  UNL     1      32.979  30.522  26.844  1.00  0.00    -0.308 N 
ATOM     18  H9  UNL     1      33.678  31.191  27.167  1.00  0.00     0.186 HD
BRANCH  17  19
HETATM   19  N10 UNL     1      32.213  29.890  27.826  1.00  0.00    -0.271 N 
ATOM     20  H10 UNL     1      32.598  29.679  28.746  1.00  0.00     0.190 HD
BRANCH  19  21
HETATM   21  C12 UNL     1      30.867  29.553  27.487  1.00  0.00     0.207 C 
HETATM   22  N11 UNL     1      30.177  28.677  28.147  1.00  0.00    -0.345 N 
HETATM   23  C13 UNL     1      28.878  28.580  27.552  1.00  0.00     0.259 C 
ATOM     24  H11 UNL     1      30.503  28.145  28.955  1.00  0.00     0.164 HD
HETATM   25  N12 UNL     1      28.729  29.804  26.821  1.00  0.00    -0.119 NA
HETATM   26  N13 UNL     1      30.076  30.075  26.449  1.00  0.00    -0.273 N 
ATOM     27  H13 UNL     1      30.399  30.549  25.606  1.00  0.00     0.185 HD
ENDBRANCH  19  21
ENDBRANCH  17  19
ENDBRANCH  15  16
ENDBRANCH   8   9
ENDBRANCH   3   8
BRANCH   1  28
HETATM   28  C4  UNL     1      33.533  35.769  27.886  1.00  0.00     0.119 A 
HETATM   29  C3  UNL     1      33.952  37.025  27.775  1.00  0.00     0.175 A 
HETATM   30  O1  UNL     1      34.555  37.328  28.967  1.00  0.00    -0.216 OA
HETATM   31  N4  UNL     1      34.505  36.333  29.741  1.00  0.00    -0.201 N 
HETATM   32  N5  UNL     1      33.906  35.350  29.174  1.00  0.00    -0.276 N 
ATOM     33  H4  UNL     1      34.886  36.313  30.687  1.00  0.00     0.216 HD
ATOM     34  H5  UNL     1      33.733  34.432  29.584  1.00  0.00     0.189 HD
BRANCH  29  35
HETATM   35  C2  UNL     1      33.870  38.016  26.712  1.00  0.00     0.149 C 
HETATM   36  N3  UNL     1      33.809  37.905  25.529  1.00  0.00    -0.382 N 
ATOM     37  H32 UNL     1      33.752  38.599  24.784  1.00  0.00     0.157 HD
ATOM     38  H31 UNL     1      33.791  36.948  25.174  1.00  0.00     0.157 HD
BRANCH  35  39
HETATM   39  N2  UNL     1      33.896  39.421  27.234  1.00  0.00    -0.288 N 
ATOM     40  H2  UNL     1      33.527  39.677  28.150  1.00  0.00     0.184 HD
BRANCH  39  41
HETATM   41  N1  UNL     1      34.461  40.336  26.376  1.00  0.00    -0.144 NA
HETATM   42  C1  UNL     1      34.287  41.714  26.806  1.00  0.00     0.159 C 
ENDBRANCH  39  41
ENDBRANCH  35  39
ENDBRANCH  29  35
ENDBRANCH   1  28
TORSDOF 9
ENDMDL
MODEL 3
REMARK VINA RESULT: -10.050104201      3.541      6.852
REMARK  9 active torsions:
REMARK  status: ('A' for Active; 'I' for Inactive)
REMARK    1  A    between atoms: N1_2  and  N2_3 
REMARK    2  A    between atoms: N2_3  and  C2_5 
REMARK    3  A    between atoms: C2_5  and  C3_9 
REMARK    4  A    between atoms: C4_15  and  C5_16 
REMARK    5  A    between atoms: N6_18  and  C7_19 
REMARK    6  A    between atoms: C7_19  and  C8_20 
REMARK    7  A    between atoms: C10_26  and  C11_27 
REMARK    8  A    between atoms: N9_28  and  N10_30 
REMARK    9  A    between atoms: N10_30  and  C12_32 
ROOT
HETATM    1  C5  UNL     1      34.436  32.289  23.915  1.00  0.00     0.097 A 
HETATM    2  C6  UNL     1      33.252  32.825  24.265  1.00  0.00     0.145 A 
HETATM    3  N6  UNL     1      33.377  34.031  24.858  1.00  0.00    -0.281 N 
HETATM    4  N14 UNL     1      34.669  34.249  24.876  1.00  0.00    -0.240 N 
ATOM      5  H14 UNL     1      35.099  35.089  25.263  1.00  0.00     0.208 HD
HETATM    6  N15 UNL     1      35.334  33.282  24.349  1.00  0.00    -0.282 N 
ATOM      7  H15 UNL     1      36.349  33.241  24.260  1.00  0.00     0.188 HD
ENDROOT
BRANCH   3   8
HETATM    8  C7  UNL     1      32.354  34.847  25.480  1.00  0.00     0.208 C 
BRANCH   8   9
HETATM    9  C8  UNL     1      33.023  35.471  26.736  1.00  0.00     0.049 A 
HETATM   10  N7  UNL     1      33.607  36.646  26.682  1.00  0.00    -0.326 N 
HETATM   11  S1  UNL     1      34.023  37.007  28.272  1.00  0.00     0.002 SA
ATOM     12  H7  UNL     1      33.772  37.218  25.854  1.00  0.00     0.174 HD
HETATM   13  C9  UNL     1      33.431  35.601  29.015  1.00  0.00     0.117 A 
HETATM   14  N8  UNL     1      33.436  35.194  30.406  1.00  0.00    -0.092 NA
HETATM   15  C10 UNL     1      32.917  34.880  27.965  1.00  0.00     0.038 A 
BRANCH  15  16
HETATM   16  C11 UNL     1      32.417  33.476  28.150  1.00  0.00     0.123 C 
HETATM   17  N9  UNL     1      33.063  32.513  27.630  1.00  0.00    -0.308 N 
ATOM     18  H9  UNL     1      33.907  32.755  27.110  1.00  0.00     0.186 HD
BRANCH  17  19
HETATM   19  N10 UNL     1      32.735  31.158  27.698  1.00  0.00    -0.271 N 
ATOM     20  H10 UNL     1      33.375  30.475  28.103  1.00  0.00     0.190 HD
BRANCH  19  21
HETATM   21  C12 UNL     1      31.464  30.767  27.176  1.00  0.00     0.207 C 
HETATM   22  N11 UNL     1      30.705  29.893  27.760  1.00  0.00    -0.345 N 
HETATM   23  C13 UNL     1      29.514  29.735  26.982  1.00  0.00     0.259 C 
ATOM     24  H11 UNL     1      30.920  29.400  28.626  1.00  0.00     0.164 HD
HETATM   25  N12 UNL     1      29.444  30.928  26.190  1.00  0.00    -0.119 NA
HETATM   26  N13 UNL     1      30.824  31.228  26.012  1.00  0.00    -0.273 N 
ATOM     27  H13 UNL     1      31.257  31.683  25.209  1.00  0.00     0.185 HD
ENDBRANCH  19  21
ENDBRANCH  17  19
ENDBRANCH  15  16
ENDBRANCH   8   9
ENDBRANCH   3   8
BRANCH   1  28
HETATM   28  C4  UNL     1      34.925  31.070  23.350  1.00  0.00     0.119 A 
HETATM   29  C3  UNL     1      35.382  30.752  22.144  1.00  0.00     0.175 A 
HETATM   30  O1  UNL     1      35.669  29.414  22.190  1.00  0.00    -0.216 OA
HETATM   31  N4  UNL     1      35.408  28.955  23.336  1.00  0.00    -0.201 N 
HETATM   32  N5  UNL     1      34.955  29.881  24.100  1.00  0.00    -0.276 N 
ATOM     33  H4  UNL     1      35.538  27.983  23.616  1.00  0.00     0.216 HD
ATOM     34  H5  UNL     1      34.671  29.775  25.073  1.00  0.00     0.189 HD
BRANCH  29  35
HETATM   35  C2  UNL     1      35.607  31.518  20.927  1.00  0.00     0.149 C 
HETATM   36  N3  UNL     1      36.215  32.520  20.724  1.00  0.00    -0.382 N 
ATOM     37  H32 UNL     1      36.374  33.057  19.871  1.00  0.00     0.157 HD
ATOM     38  H31 UNL     1      36.687  32.925  21.533  1.00  0.00     0.157 HD
BRANCH  35  39
HETATM   39  N2  UNL     1      34.914  30.924  19.738  1.00  0.00    -0.288 N 
ATOM     40  H2  UNL     1      34.440  30.021  19.770  1.00  0.00     0.184 HD
BRANCH  39  41
HETATM   41  N1  UNL     1      34.971  31.697  18.601  1.00  0.00    -0.144 NA
HETATM   42  C1  UNL     1      34.960  30.918  17.373  1.00  0.00     0.159 C 
ENDBRANCH  39  41
ENDBRANCH  35  39
ENDBRANCH  29  35
ENDBRANCH   1  28
TORSDOF 9
ENDMDL
MODEL 4
REMARK VINA RESULT: -9.844476376      1.408      3.004
REMARK  9 active torsions:
REMARK  status: ('A' for Active; 'I' for Inactive)
REMARK    1  A    between atoms: N1_2  and  N2_3 
REMARK    2  A    between atoms: N2_3  and  C2_5 
REMARK    3  A    between atoms: C2_5  and  C3_9 
REMARK    4  A    between atoms: C4_15  and  C5_16 
REMARK    5  A    between atoms: N6_18  and  C7_19 
REMARK    6  A    between atoms: C7_19  and  C8_20 
REMARK    7  A    between atoms: C10_26  and  C11_27 
REMARK    8  A    between atoms: N9_28  and  N10_30 
REMARK    9  A    between atoms: N10_30  and  C12_32 
ROOT
HETATM    1  C5  UNL     1      33.844  35.323  26.533  1.00  0.00     0.097 A 
HETATM    2  C6  UNL     1      33.105  34.279  26.116  1.00  0.00     0.145 A 
HETATM    3  N6  UNL     1      33.428  33.872  24.870  1.00  0.00    -0.281 N 
HETATM    4  N14 UNL     1      34.392  34.682  24.507  1.00  0.00    -0.240 N 
ATOM      5  H14 UNL     1      34.862  34.636  23.603  1.00  0.00     0.208 HD
HETATM    6  N15 UNL     1      34.676  35.543  25.419  1.00  0.00    -0.282 N 
ATOM      7  H15 UNL     1      35.391  36.267  25.348  1.00  0.00     0.188 HD
ENDROOT
BRANCH   3   8
HETATM    8  C7  UNL     1      32.778  32.877  24.043  1.00  0.00     0.208 C 
BRANCH   8   9
HETATM    9  C8  UNL     1      33.858  31.797  23.760  1.00  0.00     0.049 A 
HETATM   10  N7  UNL     1      34.767  31.973  22.829  1.00  0.00    -0.326 N 
HETATM   11  S1  UNL     1      35.820  30.670  22.986  1.00  0.00     0.002 SA
ATOM     12  H7  UNL     1      34.823  32.735  22.154  1.00  0.00     0.174 HD
HETATM   13  C9  UNL     1      35.059  29.883  24.283  1.00  0.00     0.117 A 
HETATM   14  N8  UNL     1      35.405  28.661  24.981  1.00  0.00    -0.092 NA
HETATM   15  C10 UNL     1      33.979  30.688  24.552  1.00  0.00     0.038 A 
BRANCH  15  16
HETATM   16  C11 UNL     1      32.929  30.282  25.547  1.00  0.00     0.123 C 
HETATM   17  N9  UNL     1      33.070  30.609  26.766  1.00  0.00    -0.308 N 
ATOM     18  H9  UNL     1      33.904  31.146  27.004  1.00  0.00     0.186 HD
BRANCH  17  19
HETATM   19  N10 UNL     1      32.198  30.307  27.815  1.00  0.00    -0.271 N 
ATOM     20  H10 UNL     1      32.478  30.423  28.789  1.00  0.00     0.190 HD
BRANCH  19  21
HETATM   21  C12 UNL     1      30.899  29.830  27.465  1.00  0.00     0.207 C 
HETATM   22  N11 UNL     1      30.310  28.866  28.103  1.00  0.00    -0.345 N 
HETATM   23  C13 UNL     1      29.031  28.640  27.503  1.00  0.00     0.259 C 
ATOM     24  H11 UNL     1      30.694  28.356  28.899  1.00  0.00     0.164 HD
HETATM   25  N12 UNL     1      28.746  29.856  26.801  1.00  0.00    -0.119 NA
HETATM   26  N13 UNL     1      30.053  30.284  26.438  1.00  0.00    -0.273 N 
ATOM     27  H13 UNL     1      30.321  30.811  25.607  1.00  0.00     0.185 HD
ENDBRANCH  19  21
ENDBRANCH  17  19
ENDBRANCH  15  16
ENDBRANCH   8   9
ENDBRANCH   3   8
BRANCH   1  28
HETATM   28  C4  UNL     1      33.911  36.193  27.667  1.00  0.00     0.119 A 
HETATM   29  C3  UNL     1      33.923  37.515  27.791  1.00  0.00     0.175 A 
HETATM   30  O1  UNL     1      34.038  37.767  29.133  1.00  0.00    -0.216 OA
HETATM   31  N4  UNL     1      34.090  36.681  29.773  1.00  0.00    -0.201 N 
HETATM   32  N5  UNL     1      34.020  35.681  28.971  1.00  0.00    -0.276 N 
ATOM     33  H4  UNL     1      34.176  36.607  30.787  1.00  0.00     0.216 HD
ATOM     34  H5  UNL     1      34.039  34.696  29.233  1.00  0.00     0.189 HD
BRANCH  29  35
HETATM   35  C2  UNL     1      33.834  38.610  26.836  1.00  0.00     0.149 C 
HETATM   36  N3  UNL     1      33.675  38.621  25.657  1.00  0.00    -0.382 N 
ATOM     37  H32 UNL     1      33.612  39.388  24.988  1.00  0.00     0.157 HD
ATOM     38  H31 UNL     1      33.560  37.708  25.217  1.00  0.00     0.157 HD
BRANCH  35  39
HETATM   39  N2  UNL     1      34.003  39.951  27.484  1.00  0.00    -0.288 N 
ATOM     40  H2  UNL     1      33.742  40.134  28.453  1.00  0.00     0.184 HD
BRANCH  39  41
HETATM   41  N1  UNL     1      34.540  40.916  26.662  1.00  0.00    -0.144 NA
HETATM   42  C1  UNL     1      34.192  42.271  27.060  1.00  0.00     0.159 C 
ENDBRANCH  39  41
ENDBRANCH  35  39
ENDBRANCH  29  35
ENDBRANCH   1  28
TORSDOF 9
ENDMDL
MODEL 5
REMARK VINA RESULT: -9.779646239      3.121      6.347
REMARK  9 active torsions:
REMARK  status: ('A' for Active; 'I' for Inactive)
REMARK    1  A    between atoms: N1_2  and  N2_3 
REMARK    2  A    between atoms: N2_3  and  C2_5 
REMARK    3  A    between atoms: C2_5  and  C3_9 
REMARK    4  A    between atoms: C4_15  and  C5_16 
REMARK    5  A    between atoms: N6_18  and  C7_19 
REMARK    6  A    between atoms: C7_19  and  C8_20 
REMARK    7  A    between atoms: C10_26  and  C11_27 
REMARK    8  A    between atoms: N9_28  and  N10_30 
REMARK    9  A    between atoms: N10_30  and  C12_32 
ROOT
HETATM    1  C5  UNL     1      34.473  32.765  23.608  1.00  0.00     0.097 A 
HETATM    2  C6  UNL     1      33.321  33.396  23.902  1.00  0.00     0.145 A 
HETATM    3  N6  UNL     1      33.422  34.196  24.985  1.00  0.00    -0.281 N 
HETATM    4  N14 UNL     1      34.666  34.058  25.371  1.00  0.00    -0.240 N 
ATOM      5  H14 UNL     1      35.068  34.540  26.176  1.00  0.00     0.208 HD
HETATM    6  N15 UNL     1      35.324  33.246  24.621  1.00  0.00    -0.282 N 
ATOM      7  H15 UNL     1      36.304  32.992  24.741  1.00  0.00     0.188 HD
ENDROOT
BRANCH   3   8
HETATM    8  C7  UNL     1      32.378  34.926  25.674  1.00  0.00     0.208 C 
BRANCH   8   9
HETATM    9  C8  UNL     1      33.052  35.522  26.941  1.00  0.00     0.049 A 
HETATM   10  N7  UNL     1      33.616  36.708  26.917  1.00  0.00    -0.326 N 
HETATM   11  S1  UNL     1      34.045  37.027  28.512  1.00  0.00     0.002 SA
ATOM     12  H7  UNL     1      33.762  37.307  26.105  1.00  0.00     0.174 HD
HETATM   13  C9  UNL     1      33.484  35.589  29.218  1.00  0.00     0.117 A 
HETATM   14  N8  UNL     1      33.512  35.140  30.596  1.00  0.00    -0.092 NA
HETATM   15  C10 UNL     1      32.970  34.893  28.153  1.00  0.00     0.038 A 
BRANCH  15  16
HETATM   16  C11 UNL     1      32.495  33.475  28.300  1.00  0.00     0.123 C 
HETATM   17  N9  UNL     1      33.106  32.548  27.682  1.00  0.00    -0.308 N 
ATOM     18  H9  UNL     1      33.907  32.826  27.115  1.00  0.00     0.186 HD
BRANCH  17  19
HETATM   19  N10 UNL     1      32.792  31.188  27.703  1.00  0.00    -0.271 N 
ATOM     20  H10 UNL     1      33.440  30.499  28.087  1.00  0.00     0.190 HD
BRANCH  19  21
HETATM   21  C12 UNL     1      31.528  30.801  27.165  1.00  0.00     0.207 C 
HETATM   22  N11 UNL     1      30.765  29.917  27.730  1.00  0.00    -0.345 N 
HETATM   23  C13 UNL     1      29.581  29.767  26.939  1.00  0.00     0.259 C 
ATOM     24  H11 UNL     1      30.974  29.414  28.592  1.00  0.00     0.164 HD
HETATM   25  N12 UNL     1      29.516  30.970  26.163  1.00  0.00    -0.119 NA
HETATM   26  N13 UNL     1      30.897  31.276  26.001  1.00  0.00    -0.273 N 
ATOM     27  H13 UNL     1      31.336  31.742  25.208  1.00  0.00     0.185 HD
ENDBRANCH  19  21
ENDBRANCH  17  19
ENDBRANCH  15  16
ENDBRANCH   8   9
ENDBRANCH   3   8
BRANCH   1  28
HETATM   28  C4  UNL     1      34.941  31.788  22.675  1.00  0.00     0.119 A 
HETATM   29  C3  UNL     1      35.287  30.512  22.801  1.00  0.00     0.175 A 
HETATM   30  O1  UNL     1      35.692  30.106  21.557  1.00  0.00    -0.216 OA
HETATM   31  N4  UNL     1      35.598  31.062  20.739  1.00  0.00    -0.201 N 
HETATM   32  N5  UNL     1      35.154  32.114  21.325  1.00  0.00    -0.276 N 
ATOM     33  H4  UNL     1      35.841  31.007  19.750  1.00  0.00     0.216 HD
ATOM     34  H5  UNL     1      34.985  33.021  20.889  1.00  0.00     0.189 HD
BRANCH  29  35
HETATM   35  C2  UNL     1      35.293  29.584  23.922  1.00  0.00     0.149 C 
HETATM   36  N3  UNL     1      35.296  29.763  25.098  1.00  0.00    -0.382 N 
ATOM     37  H32 UNL     1      35.300  29.113  25.884  1.00  0.00     0.157 HD
ATOM     38  H31 UNL     1      35.274  30.738  25.398  1.00  0.00     0.157 HD
BRANCH  35  39
HETATM   39  N2  UNL     1      35.325  28.151  23.481  1.00  0.00    -0.288 N 
ATOM     40  H2  UNL     1      35.133  27.864  22.522  1.00  0.00     0.184 HD
BRANCH  39  41
HETATM   41  N1  UNL     1      35.637  27.256  24.478  1.00  0.00    -0.144 NA
HETATM   42  C1  UNL     1      36.859  26.510  24.222  1.00  0.00     0.159 C 
ENDBRANCH  39  41
ENDBRANCH  35  39
ENDBRANCH  29  35
ENDBRANCH   1  28
TORSDOF 9
ENDMDL
