MODEL 1
REMARK VINA RESULT: -7.130275428      0.000      0.000
REMARK  6 active torsions:
REMARK  status: ('A' for Active; 'I' for Inactive)
REMARK    1  A    between atoms: C2_2  and  O1_4 
REMARK    2  A    between atoms: O1_4  and  C4_5 
REMARK    3  A    between atoms: C4_5  and  C5_7 
REMARK    4  A    between atoms: C14_17  and  N1_19 
REMARK       I    between atoms: N1_19  and  C16_21 
REMARK    5  A    between atoms: C16_21  and  O5_23 
REMARK    6  A    between atoms: O5_23  and  C17_24 
ROOT
HETATM    1  C5  UNL     1      18.812  72.531  16.724  1.00  0.00     0.093 C 
HETATM    2  C6  UNL     1      20.262  72.659  16.315  1.00  0.00     0.040 C 
HETATM    3  C7  UNL     1      21.150  72.104  17.452  1.00  0.00     0.089 C 
HETATM    4  C8  UNL     1      22.529  71.968  16.974  1.00  0.00     0.030 C 
HETATM    5  C9  UNL     1      23.538  72.553  17.978  1.00  0.00    -0.010 C 
HETATM    6  C10 UNL     1      24.724  73.164  17.249  1.00  0.00     0.010 C 
HETATM    7  C11 UNL     1      24.056  71.558  18.947  1.00  0.00     0.082 C 
HETATM    8  C12 UNL     1      23.918  70.156  18.469  1.00  0.00     0.130 C 
HETATM    9  O3  UNL     1      24.633  69.756  17.595  1.00  0.00    -0.298 OA
HETATM   10  C13 UNL     1      22.903  69.320  19.096  1.00  0.00     0.119 C 
HETATM   11  C14 UNL     1      21.854  68.740  18.224  1.00  0.00     0.119 C 
HETATM   12  C15 UNL     1      21.320  67.524  19.039  1.00  0.00     0.049 C 
HETATM   13  C19 UNL     1      20.685  69.621  17.960  1.00  0.00     0.249 C 
HETATM   14  O6  UNL     1      19.662  68.927  17.561  1.00  0.00    -0.270 OA
HETATM   15  N2  UNL     1      20.486  70.974  18.053  1.00  0.00    -0.341 N 
HETATM   16  C20 UNL     1      19.358  71.455  18.905  1.00  0.00     0.088 C 
HETATM   17  C21 UNL     1      19.941  71.977  20.180  1.00  0.00     0.033 C 
HETATM   18  C22 UNL     1      18.694  72.650  18.191  1.00  0.00     0.018 C 
HETATM   19  C23 UNL     1      17.259  72.647  18.702  1.00  0.00     0.013 C 
ENDROOT
BRANCH  11  20
HETATM   20  N1  UNL     1      22.336  68.123  17.006  1.00  0.00    -0.319 N 
HETATM   21  C16 UNL     1      23.163  67.001  16.903  1.00  0.00     0.361 C 
HETATM   22  O4  UNL     1      23.576  66.412  17.945  1.00  0.00    -0.238 OA
ATOM     23  H1  UNL     1      22.041  68.553  16.129  1.00  0.00     0.166 HD
BRANCH  21  24
HETATM   24  O5  UNL     1      23.583  66.458  15.694  1.00  0.00    -0.304 OA
BRANCH  24  25
HETATM   25  C17 UNL     1      24.818  65.787  15.533  1.00  0.00     0.176 C 
HETATM   26  C18 UNL     1      24.659  64.900  14.300  1.00  0.00     0.034 C 
ENDBRANCH  24  25
ENDBRANCH  21  24
ENDBRANCH  11  20
BRANCH   1  27
HETATM   27  C4  UNL     1      17.955  73.475  15.993  1.00  0.00     0.268 C 
HETATM   28  O2  UNL     1      18.186  74.706  15.891  1.00  0.00    -0.264 OA
BRANCH  27  29
HETATM   29  O1  UNL     1      16.788  73.041  15.337  1.00  0.00    -0.284 OA
BRANCH  29  30
HETATM   30  C2  UNL     1      15.808  73.864  14.857  1.00  0.00     0.043 C 
HETATM   31  C1  UNL     1      15.649  74.051  13.570  1.00  0.00     0.046 C 
HETATM   32  C3  UNL     1      14.907  74.561  15.803  1.00  0.00     0.076 C 
ENDBRANCH  29  30
ENDBRANCH  27  29
ENDBRANCH   1  27
TORSDOF 6
ENDMDL
MODEL 2
REMARK VINA RESULT: -6.988853270      2.684      7.599
REMARK  6 active torsions:
REMARK  status: ('A' for Active; 'I' for Inactive)
REMARK    1  A    between atoms: C2_2  and  O1_4 
REMARK    2  A    between atoms: O1_4  and  C4_5 
REMARK    3  A    between atoms: C4_5  and  C5_7 
REMARK    4  A    between atoms: C14_17  and  N1_19 
REMARK       I    between atoms: N1_19  and  C16_21 
REMARK    5  A    between atoms: C16_21  and  O5_23 
REMARK    6  A    between atoms: O5_23  and  C17_24 
ROOT
HETATM    1  C5  UNL     1      23.324  72.687  17.363  1.00  0.00     0.093 C 
HETATM    2  C6  UNL     1      22.530  71.425  17.108  1.00  0.00     0.040 C 
HETATM    3  C7  UNL     1      21.152  71.556  17.796  1.00  0.00     0.089 C 
HETATM    4  C8  UNL     1      20.273  70.476  17.341  1.00  0.00     0.030 C 
HETATM    5  C9  UNL     1      19.554  69.795  18.518  1.00  0.00    -0.010 C 
HETATM    6  C10 UNL     1      19.358  68.313  18.241  1.00  0.00     0.010 C 
HETATM    7  C11 UNL     1      18.229  70.385  18.826  1.00  0.00     0.082 C 
HETATM    8  C12 UNL     1      17.646  71.131  17.678  1.00  0.00     0.130 C 
HETATM    9  O3  UNL     1      17.218  70.526  16.736  1.00  0.00    -0.298 OA
HETATM   10  C13 UNL     1      17.621  72.586  17.753  1.00  0.00     0.119 C 
HETATM   11  C14 UNL     1      18.325  73.341  16.689  1.00  0.00     0.119 C 
HETATM   12  C15 UNL     1      17.661  74.751  16.731  1.00  0.00     0.049 C 
HETATM   13  C19 UNL     1      19.781  73.550  16.910  1.00  0.00     0.249 C 
HETATM   14  O6  UNL     1      20.223  74.535  16.188  1.00  0.00    -0.270 OA
HETATM   15  N2  UNL     1      20.712  72.926  17.700  1.00  0.00    -0.341 N 
HETATM   16  C20 UNL     1      21.488  73.767  18.658  1.00  0.00     0.088 C 
HETATM   17  C21 UNL     1      20.930  73.531  20.026  1.00  0.00     0.033 C 
HETATM   18  C22 UNL     1      22.944  73.259  18.671  1.00  0.00     0.018 C 
HETATM   19  C23 UNL     1      23.766  74.476  19.080  1.00  0.00     0.013 C 
ENDROOT
BRANCH  11  20
HETATM   20  N1  UNL     1      18.053  72.900  15.337  1.00  0.00    -0.319 N 
HETATM   21  C16 UNL     1      16.840  72.992  14.650  1.00  0.00     0.361 C 
HETATM   22  O4  UNL     1      15.825  73.502  15.210  1.00  0.00    -0.238 OA
ATOM     23  H1  UNL     1      18.831  72.476  14.831  1.00  0.00     0.166 HD
BRANCH  21  24
HETATM   24  O5  UNL     1      16.653  72.550  13.345  1.00  0.00    -0.304 OA
BRANCH  24  25
HETATM   25  C17 UNL     1      15.424  72.036  12.868  1.00  0.00     0.176 C 
HETATM   26  C18 UNL     1      14.878  73.081  11.898  1.00  0.00     0.034 C 
ENDBRANCH  24  25
ENDBRANCH  21  24
ENDBRANCH  11  20
BRANCH   1  27
HETATM   27  C4  UNL     1      24.769  72.458  17.226  1.00  0.00     0.268 C 
HETATM   28  O2  UNL     1      25.530  73.155  16.509  1.00  0.00    -0.264 OA
BRANCH  27  29
HETATM   29  O1  UNL     1      25.409  71.412  17.917  1.00  0.00    -0.284 OA
BRANCH  29  30
HETATM   30  C2  UNL     1      26.234  70.485  17.343  1.00  0.00     0.043 C 
HETATM   31  C1  UNL     1      27.474  70.343  17.740  1.00  0.00     0.046 C 
HETATM   32  C3  UNL     1      25.724  69.625  16.252  1.00  0.00     0.076 C 
ENDBRANCH  29  30
ENDBRANCH  27  29
ENDBRANCH   1  27
TORSDOF 6
ENDMDL
MODEL 3
REMARK VINA RESULT: -6.933032746      2.919      7.630
REMARK  6 active torsions:
REMARK  status: ('A' for Active; 'I' for Inactive)
REMARK    1  A    between atoms: C2_2  and  O1_4 
REMARK    2  A    between atoms: O1_4  and  C4_5 
REMARK    3  A    between atoms: C4_5  and  C5_7 
REMARK    4  A    between atoms: C14_17  and  N1_19 
REMARK       I    between atoms: N1_19  and  C16_21 
REMARK    5  A    between atoms: C16_21  and  O5_23 
REMARK    6  A    between atoms: O5_23  and  C17_24 
ROOT
HETATM    1  C5  UNL     1      23.418  72.436  17.382  1.00  0.00     0.093 C 
HETATM    2  C6  UNL     1      22.558  71.208  17.183  1.00  0.00     0.040 C 
HETATM    3  C7  UNL     1      21.193  71.439  17.871  1.00  0.00     0.089 C 
HETATM    4  C8  UNL     1      20.257  70.387  17.466  1.00  0.00     0.030 C 
HETATM    5  C9  UNL     1      19.511  69.795  18.675  1.00  0.00    -0.010 C 
HETATM    6  C10 UNL     1      19.237  68.315  18.461  1.00  0.00     0.010 C 
HETATM    7  C11 UNL     1      18.221  70.465  18.963  1.00  0.00     0.082 C 
HETATM    8  C12 UNL     1      17.669  71.192  17.788  1.00  0.00     0.130 C 
HETATM    9  O3  UNL     1      17.204  70.572  16.875  1.00  0.00    -0.298 OA
HETATM   10  C13 UNL     1      17.720  72.648  17.802  1.00  0.00     0.119 C 
HETATM   11  C14 UNL     1      18.455  73.321  16.704  1.00  0.00     0.119 C 
HETATM   12  C15 UNL     1      17.865  74.764  16.690  1.00  0.00     0.049 C 
HETATM   13  C19 UNL     1      19.921  73.463  16.909  1.00  0.00     0.249 C 
HETATM   14  O6  UNL     1      20.409  74.392  16.144  1.00  0.00    -0.270 OA
HETATM   15  N2  UNL     1      20.824  72.824  17.720  1.00  0.00    -0.341 N 
HETATM   16  C20 UNL     1      21.649  73.663  18.638  1.00  0.00     0.088 C 
HETATM   17  C21 UNL     1      21.090  73.513  20.018  1.00  0.00     0.033 C 
HETATM   18  C22 UNL     1      23.077  73.081  18.666  1.00  0.00     0.018 C 
HETATM   19  C23 UNL     1      23.963  74.269  19.020  1.00  0.00     0.013 C 
ENDROOT
BRANCH  11  20
HETATM   20  N1  UNL     1      18.151  72.838  15.373  1.00  0.00    -0.319 N 
HETATM   21  C16 UNL     1      16.930  72.937  14.701  1.00  0.00     0.361 C 
HETATM   22  O4  UNL     1      15.938  73.494  15.256  1.00  0.00    -0.238 OA
ATOM     23  H1  UNL     1      18.910  72.376  14.872  1.00  0.00     0.166 HD
BRANCH  21  24
HETATM   24  O5  UNL     1      16.712  72.454  13.415  1.00  0.00    -0.304 OA
BRANCH  24  25
HETATM   25  C17 UNL     1      15.437  72.076  12.935  1.00  0.00     0.176 C 
HETATM   26  C18 UNL     1      15.032  73.147  11.924  1.00  0.00     0.034 C 
ENDBRANCH  24  25
ENDBRANCH  21  24
ENDBRANCH  11  20
BRANCH   1  27
HETATM   27  C4  UNL     1      24.848  72.127  17.248  1.00  0.00     0.268 C 
HETATM   28  O2  UNL     1      25.458  71.282  17.950  1.00  0.00    -0.264 OA
BRANCH  27  29
HETATM   29  O1  UNL     1      25.646  72.778  16.289  1.00  0.00    -0.284 OA
BRANCH  29  30
HETATM   30  C2  UNL     1      26.952  72.476  16.021  1.00  0.00     0.043 C 
HETATM   31  C1  UNL     1      27.928  73.217  16.483  1.00  0.00     0.046 C 
HETATM   32  C3  UNL     1      27.276  71.291  15.194  1.00  0.00     0.076 C 
ENDBRANCH  29  30
ENDBRANCH  27  29
ENDBRANCH   1  27
TORSDOF 6
ENDMDL
MODEL 4
REMARK VINA RESULT: -6.762141078      4.643      6.636
REMARK  6 active torsions:
REMARK  status: ('A' for Active; 'I' for Inactive)
REMARK    1  A    between atoms: C2_2  and  O1_4 
REMARK    2  A    between atoms: O1_4  and  C4_5 
REMARK    3  A    between atoms: C4_5  and  C5_7 
REMARK    4  A    between atoms: C14_17  and  N1_19 
REMARK       I    between atoms: N1_19  and  C16_21 
REMARK    5  A    between atoms: C16_21  and  O5_23 
REMARK    6  A    between atoms: O5_23  and  C17_24 
ROOT
HETATM    1  C5  UNL     1      17.035  73.986  15.377  1.00  0.00     0.093 C 
HETATM    2  C6  UNL     1      17.233  75.416  15.825  1.00  0.00     0.040 C 
HETATM    3  C7  UNL     1      18.191  75.430  17.038  1.00  0.00     0.089 C 
HETATM    4  C8  UNL     1      18.608  76.807  17.317  1.00  0.00     0.030 C 
HETATM    5  C9  UNL     1      18.496  77.141  18.814  1.00  0.00    -0.010 C 
HETATM    6  C10 UNL     1      18.110  78.599  19.009  1.00  0.00     0.010 C 
HETATM    7  C11 UNL     1      19.744  76.891  19.574  1.00  0.00     0.082 C 
HETATM    8  C12 UNL     1      20.954  76.866  18.710  1.00  0.00     0.130 C 
HETATM    9  O3  UNL     1      21.376  77.890  18.252  1.00  0.00    -0.298 OA
HETATM   10  C13 UNL     1      21.583  75.576  18.455  1.00  0.00     0.119 C 
HETATM   11  C14 UNL     1      21.701  75.135  17.044  1.00  0.00     0.119 C 
HETATM   12  C15 UNL     1      22.852  74.084  17.078  1.00  0.00     0.049 C 
HETATM   13  C19 UNL     1      20.508  74.443  16.489  1.00  0.00     0.249 C 
HETATM   14  O6  UNL     1      20.823  73.743  15.441  1.00  0.00    -0.270 OA
HETATM   15  N2  UNL     1      19.187  74.403  16.856  1.00  0.00    -0.341 N 
HETATM   16  C20 UNL     1      18.575  73.065  17.108  1.00  0.00     0.088 C 
HETATM   17  C21 UNL     1      18.455  72.891  18.589  1.00  0.00     0.033 C 
HETATM   18  C22 UNL     1      17.142  73.079  16.539  1.00  0.00     0.018 C 
HETATM   19  C23 UNL     1      16.847  71.619  16.217  1.00  0.00     0.013 C 
ENDROOT
BRANCH  11  20
HETATM   20  N1  UNL     1      22.207  76.135  16.127  1.00  0.00    -0.319 N 
HETATM   21  C16 UNL     1      23.540  76.518  15.953  1.00  0.00     0.361 C 
HETATM   22  O4  UNL     1      24.456  75.978  16.640  1.00  0.00    -0.238 OA
ATOM     23  H1  UNL     1      21.517  76.610  15.545  1.00  0.00     0.166 HD
BRANCH  21  24
HETATM   24  O5  UNL     1      23.955  77.486  15.044  1.00  0.00    -0.304 OA
BRANCH  24  25
HETATM   25  C17 UNL     1      23.067  78.170  14.181  1.00  0.00     0.176 C 
HETATM   26  C18 UNL     1      23.102  77.415  12.854  1.00  0.00     0.034 C 
ENDBRANCH  24  25
ENDBRANCH  21  24
ENDBRANCH  11  20
BRANCH   1  27
HETATM   27  C4  UNL     1      15.785  73.819  14.622  1.00  0.00     0.268 C 
HETATM   28  O2  UNL     1      14.640  74.031  15.095  1.00  0.00    -0.264 OA
BRANCH  27  29
HETATM   29  O1  UNL     1      15.797  73.403  13.278  1.00  0.00    -0.284 OA
BRANCH  29  30
HETATM   30  C2  UNL     1      14.950  72.475  12.738  1.00  0.00     0.043 C 
HETATM   31  C1  UNL     1      15.098  71.197  12.985  1.00  0.00     0.046 C 
HETATM   32  C3  UNL     1      13.846  72.916  11.856  1.00  0.00     0.076 C 
ENDBRANCH  29  30
ENDBRANCH  27  29
ENDBRANCH   1  27
TORSDOF 6
ENDMDL
MODEL 5
REMARK VINA RESULT: -6.702703536      2.462      3.512
REMARK  6 active torsions:
REMARK  status: ('A' for Active; 'I' for Inactive)
REMARK    1  A    between atoms: C2_2  and  O1_4 
REMARK    2  A    between atoms: O1_4  and  C4_5 
REMARK    3  A    between atoms: C4_5  and  C5_7 
REMARK    4  A    between atoms: C14_17  and  N1_19 
REMARK       I    between atoms: N1_19  and  C16_21 
REMARK    5  A    between atoms: C16_21  and  O5_23 
REMARK    6  A    between atoms: O5_23  and  C17_24 
ROOT
HETATM    1  C5  UNL     1      18.405  72.177  16.322  1.00  0.00     0.093 C 
HETATM    2  C6  UNL     1      19.226  73.324  16.864  1.00  0.00     0.040 C 
HETATM    3  C7  UNL     1      20.088  72.808  18.039  1.00  0.00     0.089 C 
HETATM    4  C8  UNL     1      21.080  73.823  18.401  1.00  0.00     0.030 C 
HETATM    5  C9  UNL     1      21.130  74.050  19.922  1.00  0.00    -0.010 C 
HETATM    6  C10 UNL     1      21.443  75.505  20.236  1.00  0.00     0.010 C 
HETATM    7  C11 UNL     1      22.131  73.205  20.617  1.00  0.00     0.082 C 
HETATM    8  C12 UNL     1      23.201  72.709  19.709  1.00  0.00     0.130 C 
HETATM    9  O3  UNL     1      24.038  73.468  19.312  1.00  0.00    -0.298 OA
HETATM   10  C13 UNL     1      23.180  71.300  19.339  1.00  0.00     0.119 C 
HETATM   11  C14 UNL     1      23.088  70.968  17.897  1.00  0.00     0.119 C 
HETATM   12  C15 UNL     1      23.640  69.513  17.813  1.00  0.00     0.049 C 
HETATM   13  C19 UNL     1      21.710  70.933  17.337  1.00  0.00     0.249 C 
HETATM   14  O6  UNL     1      21.677  70.253  16.231  1.00  0.00    -0.270 OA
HETATM   15  N2  UNL     1      20.514  71.462  17.748  1.00  0.00    -0.341 N 
HETATM   16  C20 UNL     1      19.364  70.526  17.924  1.00  0.00     0.088 C 
HETATM   17  C21 UNL     1      19.178  70.305  19.393  1.00  0.00     0.033 C 
HETATM   18  C22 UNL     1      18.091  71.228  17.410  1.00  0.00     0.018 C 
HETATM   19  C23 UNL     1      17.170  70.088  16.995  1.00  0.00     0.013 C 
ENDROOT
BRANCH  11  20
HETATM   20  N1  UNL     1      23.990  71.704  17.037  1.00  0.00    -0.319 N 
HETATM   21  C16 UNL     1      25.381  71.586  16.980  1.00  0.00     0.361 C 
HETATM   22  O4  UNL     1      25.985  70.770  17.737  1.00  0.00    -0.238 OA
ATOM     23  H1  UNL     1      23.565  72.381  16.403  1.00  0.00     0.166 HD
BRANCH  21  24
HETATM   24  O5  UNL     1      26.187  72.324  16.121  1.00  0.00    -0.304 OA
BRANCH  24  25
HETATM   25  C17 UNL     1      27.220  71.752  15.342  1.00  0.00     0.176 C 
HETATM   26  C18 UNL     1      27.961  72.921  14.698  1.00  0.00     0.034 C 
ENDBRANCH  24  25
ENDBRANCH  21  24
ENDBRANCH  11  20
BRANCH   1  27
HETATM   27  C4  UNL     1      17.214  72.652  15.602  1.00  0.00     0.268 C 
HETATM   28  O2  UNL     1      16.967  72.393  14.398  1.00  0.00    -0.264 OA
BRANCH  27  29
HETATM   29  O1  UNL     1      16.246  73.447  16.243  1.00  0.00    -0.284 OA
BRANCH  29  30
HETATM   30  C2  UNL     1      15.757  74.628  15.758  1.00  0.00     0.043 C 
HETATM   31  C1  UNL     1      14.487  74.768  15.468  1.00  0.00     0.046 C 
HETATM   32  C3  UNL     1      16.674  75.771  15.551  1.00  0.00     0.076 C 
ENDBRANCH  29  30
ENDBRANCH  27  29
ENDBRANCH   1  27
TORSDOF 6
ENDMDL
